REMARK SMILES CNc1nc(C(=O)N2C[C@@H](C(=O)NCCCCNC(=O)c3ccc(-c4c5nc(c(-c6cc(S(=O)(=O)[O-])ccc6F)c6ccc([nH]6)c(-c6cc(S(=O)(=O)[O-])ccc6F)c6nc(c(-c7cc(S(=O)(=O)[O-])ccc7F)c7ccc4[nH]7)C=C6)C=C5)cc3)[C@H](c3ccccc3C)C2)cs1
REMARK SMILES IDX 15 1 14 2 13 3 11 4 12 5 10 7 8 8 9 9 92 10 84 11 6 12 7 13
REMARK SMILES IDX 5 14 3 15 4 16 94 17 93 18 2 19 1 20 85 22 86 23 90 24 87 25
REMARK SMILES IDX 89 26 91 27 88 28 16 29 17 30 18 31 19 32 20 34 21 35 22 36
REMARK SMILES IDX 83 37 23 38 82 39 24 40 25 41 26 42 76 43 27 44 81 45 75 46
REMARK SMILES IDX 77 47 28 48 80 49 74 50 73 51 29 53 61 54 41 55 60 56 42 57
REMARK SMILES IDX 45 58 59 59 78 60 43 61 44 62 58 64 79 65 46 66 30 67 31 68
REMARK SMILES IDX 39 69 32 70 38 71 40 72 37 73 33 74 34 75 35 76 36 77 62 78
REMARK SMILES IDX 63 79 71 80 64 81 70 82 72 83 69 84 65 85 66 86 67 87 68 88
REMARK SMILES IDX 47 89 48 90 56 91 49 92 55 93 57 94 54 95 50 96 51 97 52 98
REMARK SMILES IDX 53 99
REMARK H PARENT 13 6 2 21 18 33 77 52 45 63
REMARK Flexibility Score: inf
ROOT
ATOM      1  C   UNL     1      -7.072  -0.205   0.556  1.00  0.00     0.023 C 
ENDROOT
BRANCH   1   2
ATOM      2  C   UNL     1      -5.624   0.168   0.858  1.00  0.00     0.116 C 
BRANCH   2   3
ATOM      3  N   UNL     1      -5.051  -0.623   1.936  1.00  0.00    -0.356 N 
ATOM      4  C   UNL     1      -3.928  -1.387   1.994  1.00  0.00     0.225 C 
ATOM      5  O   UNL     1      -3.324  -1.347   3.072  1.00  0.00    -0.275 OA
ATOM      6  H   UNL     1      -5.568  -0.600   2.773  1.00  0.00     0.163 HD
BRANCH   4   7
ATOM      7  C   UNL     1      -3.437  -2.330   0.902  1.00  0.00     0.107 C 
ATOM      8  N   UNL     1      -3.454  -3.058  -1.289  1.00  0.00    -0.336 N 
ATOM      9  C   UNL     1      -3.681  -1.870  -0.512  1.00  0.00     0.134 C 
ATOM     10  C   UNL     1      -4.103  -4.161  -0.611  1.00  0.00     0.129 C 
ATOM     11  C   UNL     1      -4.016  -3.787   0.914  1.00  0.00     0.053 C 
BRANCH   8  12
ATOM     12  C   UNL     1      -2.780  -3.142  -2.492  1.00  0.00     0.273 C 
ATOM     13  O   UNL     1      -2.919  -4.090  -3.260  1.00  0.00    -0.267 OA
BRANCH  12  14
ATOM     14  C   UNL     1      -1.857  -2.034  -2.788  1.00  0.00     0.141 A 
ATOM     15  C   UNL     1      -0.315  -0.502  -2.259  1.00  0.00     0.183 A 
ATOM     16  N   UNL     1      -1.071  -1.461  -1.785  1.00  0.00    -0.215 NA
ATOM     17  S   UNL     1      -0.503  -0.217  -3.946  1.00  0.00    -0.105 S 
ATOM     18  C   UNL     1      -1.644  -1.495  -4.041  1.00  0.00     0.102 A 
BRANCH  15  19
ATOM     19  N   UNL     1       0.553   0.220  -1.526  1.00  0.00    -0.365 N 
ATOM     20  C   UNL     1       0.709  -0.017  -0.112  1.00  0.00     0.142 C 
ATOM     21  H   UNL     1       1.090   0.920  -1.963  1.00  0.00     0.162 HD
ENDBRANCH  15  19
ENDBRANCH  12  14
ENDBRANCH   8  12
BRANCH  11  22
ATOM     22  C   UNL     1      -3.212  -4.768   1.784  1.00  0.00    -0.039 A 
ATOM     23  C   UNL     1      -2.261  -5.635   1.201  1.00  0.00     0.004 A 
ATOM     24  C   UNL     1      -3.392  -4.863   3.187  1.00  0.00    -0.048 A 
ATOM     25  C   UNL     1      -1.559  -6.587   1.950  1.00  0.00     0.000 A 
ATOM     26  C   UNL     1      -2.637  -5.796   3.933  1.00  0.00     0.004 A 
ATOM     27  C   UNL     1      -4.315  -3.993   3.998  1.00  0.00     0.044 C 
ATOM     28  C   UNL     1      -1.744  -6.666   3.319  1.00  0.00     0.000 A 
ENDBRANCH  11  22
ENDBRANCH   4   7
ENDBRANCH   2   3
ENDBRANCH   1   2
BRANCH   1  29
ATOM     29  C   UNL     1      -8.098   0.387   1.532  1.00  0.00     0.023 C 
BRANCH  29  30
ATOM     30  C   UNL     1      -8.062   1.908   1.695  1.00  0.00     0.116 C 
BRANCH  30  31
ATOM     31  N   UNL     1      -8.158   2.634   0.439  1.00  0.00    -0.352 N 
ATOM     32  C   UNL     1      -8.708   3.873   0.206  1.00  0.00     0.251 C 
ATOM     33  H   UNL     1      -7.779   2.179  -0.348  1.00  0.00     0.163 HD
ATOM     34  O   UNL     1      -8.788   4.301  -0.941  1.00  0.00    -0.269 OA
BRANCH  32  35
ATOM     35  C   UNL     1      -9.242   4.658   1.341  1.00  0.00     0.039 A 
ATOM     36  C   UNL     1     -10.534   5.180   1.249  1.00  0.00     0.014 A 
ATOM     37  C   UNL     1      -8.486   4.845   2.501  1.00  0.00     0.014 A 
ATOM     38  C   UNL     1     -11.099   5.827   2.351  1.00  0.00     0.010 A 
ATOM     39  C   UNL     1      -9.071   5.436   3.618  1.00  0.00     0.010 A 
ATOM     40  C   UNL     1     -10.386   5.925   3.557  1.00  0.00    -0.014 A 
BRANCH  40  41
ATOM     41  C   UNL     1     -10.999   6.527   4.769  1.00  0.00     0.031 A 
ATOM     42  C   UNL     1     -10.442   7.800   5.341  1.00  0.00     0.074 A 
ATOM     43  C   UNL     1     -12.005   5.885   5.394  1.00  0.00     0.049 A 
ATOM     44  N   UNL     1     -10.781   8.437   6.432  1.00  0.00    -0.248 NA
ATOM     45  C   UNL     1      -9.332   8.418   4.602  1.00  0.00     0.031 C 
ATOM     46  C   UNL     1     -12.603   4.622   4.957  1.00  0.00     0.029 A 
ATOM     47  N   UNL     1     -12.698   6.202   6.535  1.00  0.00    -0.354 N 
ATOM     48  C   UNL     1      -9.917   9.523   6.521  1.00  0.00     0.074 A 
ATOM     49  C   UNL     1      -9.000   9.418   5.404  1.00  0.00     0.031 C 
ATOM     50  C   UNL     1     -13.588   4.285   5.805  1.00  0.00     0.029 A 
ATOM     51  C   UNL     1     -13.666   5.283   6.867  1.00  0.00     0.049 A 
ATOM     52  H   UNL     1     -12.518   7.010   7.067  1.00  0.00     0.167 HD
ATOM     53  C   UNL     1      -9.903  10.525   7.436  1.00  0.00     0.034 A 
ATOM     54  C   UNL     1     -14.516   5.247   7.912  1.00  0.00     0.034 A 
ATOM     55  C   UNL     1     -10.833  10.620   8.535  1.00  0.00     0.049 A 
ATOM     56  C   UNL     1     -14.468   6.358   8.929  1.00  0.00     0.074 A 
ATOM     57  C   UNL     1     -10.955  11.624   9.481  1.00  0.00     0.029 A 
ATOM     58  N   UNL     1     -11.799   9.669   8.843  1.00  0.00    -0.354 N 
ATOM     59  N   UNL     1     -13.681   7.407   8.970  1.00  0.00    -0.248 NA
ATOM     60  C   UNL     1     -15.430   6.280  10.035  1.00  0.00     0.031 C 
ATOM     61  C   UNL     1     -11.951  11.251  10.393  1.00  0.00     0.029 A 
ATOM     62  C   UNL     1     -12.498  10.047   9.980  1.00  0.00     0.049 A 
ATOM     63  H   UNL     1     -11.963   8.846   8.328  1.00  0.00     0.167 HD
ATOM     64  C   UNL     1     -14.076   8.133  10.090  1.00  0.00     0.074 A 
ATOM     65  C   UNL     1     -15.175   7.403  10.690  1.00  0.00     0.031 C 
ATOM     66  C   UNL     1     -13.582   9.301  10.574  1.00  0.00     0.034 A 
BRANCH  53  67
ATOM     67  C   UNL     1      -8.825  11.574   7.292  1.00  0.00     0.023 A 
ATOM     68  C   UNL     1      -8.739  12.390   6.150  1.00  0.00     0.031 A 
ATOM     69  C   UNL     1      -7.836  11.723   8.281  1.00  0.00     0.131 A 
ATOM     70  C   UNL     1      -7.639  13.245   5.980  1.00  0.00     0.055 A 
ATOM     71  C   UNL     1      -6.792  12.641   8.146  1.00  0.00     0.041 A 
ATOM     72  F   UNL     1      -7.853  10.960   9.385  1.00  0.00    -0.206 F 
ATOM     73  C   UNL     1      -6.678  13.394   6.981  1.00  0.00     0.022 A 
BRANCH  70  74
ATOM     74  S   UNL     1      -7.395  14.025   4.360  1.00  0.00     0.124 S 
ATOM     75  O   UNL     1      -7.333  12.861   3.479  1.00  0.00    -0.237 OA
ATOM     76  O   UNL     1      -8.582  14.861   4.231  1.00  0.00    -0.237 OA
ATOM     77  O   UNL     1      -6.134  14.747   4.514  1.00  0.00    -0.744 OA
ENDBRANCH  70  74
ENDBRANCH  53  67
BRANCH  54  78
ATOM     78  C   UNL     1     -15.489   4.129   8.054  1.00  0.00     0.023 A 
ATOM     79  C   UNL     1     -16.868   4.360   7.932  1.00  0.00     0.031 A 
ATOM     80  C   UNL     1     -15.060   2.823   8.347  1.00  0.00     0.131 A 
ATOM     81  C   UNL     1     -17.774   3.309   8.141  1.00  0.00     0.055 A 
ATOM     82  C   UNL     1     -15.963   1.771   8.510  1.00  0.00     0.041 A 
ATOM     83  F   UNL     1     -13.751   2.549   8.465  1.00  0.00    -0.206 F 
ATOM     84  C   UNL     1     -17.330   2.014   8.419  1.00  0.00     0.022 A 
BRANCH  81  85
ATOM     85  S   UNL     1     -19.550   3.675   8.106  1.00  0.00     0.124 S 
ATOM     86  O   UNL     1     -19.671   4.662   9.173  1.00  0.00    -0.237 OA
ATOM     87  O   UNL     1     -19.729   4.174   6.747  1.00  0.00    -0.237 OA
ATOM     88  O   UNL     1     -20.169   2.380   8.379  1.00  0.00    -0.744 OA
ENDBRANCH  81  85
ENDBRANCH  54  78
BRANCH  66  89
ATOM     89  C   UNL     1     -14.265   9.876  11.789  1.00  0.00     0.023 A 
ATOM     90  C   UNL     1     -14.179   9.258  13.049  1.00  0.00     0.031 A 
ATOM     91  C   UNL     1     -15.031  11.050  11.677  1.00  0.00     0.131 A 
ATOM     92  C   UNL     1     -14.892   9.787  14.136  1.00  0.00     0.055 A 
ATOM     93  C   UNL     1     -15.693  11.602  12.774  1.00  0.00     0.041 A 
ATOM     94  F   UNL     1     -15.148  11.679  10.497  1.00  0.00    -0.206 F 
ATOM     95  C   UNL     1     -15.636  10.963  14.010  1.00  0.00     0.022 A 
BRANCH  92  96
ATOM     96  S   UNL     1     -14.902   8.869  15.701  1.00  0.00     0.124 S 
ATOM     97  O   UNL     1     -15.476   7.589  15.298  1.00  0.00    -0.237 OA
ATOM     98  O   UNL     1     -13.489   8.849  16.061  1.00  0.00    -0.237 OA
ATOM     99  O   UNL     1     -15.751   9.683  16.570  1.00  0.00    -0.744 OA
ENDBRANCH  92  96
ENDBRANCH  66  89
ENDBRANCH  40  41
ENDBRANCH  32  35
ENDBRANCH  30  31
ENDBRANCH  29  30
ENDBRANCH   1  29
TORSDOF 18
