REMARK SMILES CC(C)[NH2+][C@@H](C(=O)NCCCCNC(=O)c1ccc(-c2c3nc(c(-c4cc(S(=O)(=O)[O-])ccc4F)c4ccc([nH]4)c(-c4cc(S(=O)(=O)[O-])ccc4F)c4nc(c(-c5cc(S(=O)(=O)[O-])ccc5F)c5ccc2[nH]5)C=C4)C=C3)cc1)c1c[nH]c2ccc(Br)cc12
REMARK SMILES IDX 11 1 10 2 9 3 8 4 6 5 7 6 5 8 4 9 2 12 1 13 3 14 79 15 80 16
REMARK SMILES IDX 88 17 81 18 82 19 87 20 83 22 85 23 84 24 86 25 12 26 13 27
REMARK SMILES IDX 14 28 15 30 16 31 17 32 78 33 18 34 77 35 19 36 20 37 21 38
REMARK SMILES IDX 71 39 22 40 76 41 70 42 72 43 23 44 75 45 69 46 68 47 24 49
REMARK SMILES IDX 56 50 36 51 55 52 37 53 40 54 54 55 73 56 38 57 39 58 53 60
REMARK SMILES IDX 74 61 41 62 25 63 26 64 34 65 27 66 33 67 35 68 32 69 28 70
REMARK SMILES IDX 29 71 30 72 31 73 57 74 58 75 66 76 59 77 65 78 67 79 64 80
REMARK SMILES IDX 60 81 61 82 62 83 63 84 42 85 43 86 51 87 44 88 50 89 52 90
REMARK SMILES IDX 49 91 45 92 46 93 47 94 48 95
REMARK H PARENT 8 7 4 10 4 11 81 21 13 29 72 48 40 59
REMARK Flexibility Score: inf
ROOT
ATOM      1  C   UNL     1       3.082   3.518  -0.822  1.00  0.00     0.023 C 
ENDROOT
BRANCH   1   2
ATOM      2  C   UNL     1       2.337   2.982   0.399  1.00  0.00     0.023 C 
BRANCH   2   3
ATOM      3  C   UNL     1       1.008   3.675   0.767  1.00  0.00     0.116 C 
BRANCH   3   4
ATOM      4  N   UNL     1       0.164   4.075  -0.350  1.00  0.00    -0.351 N 
ATOM      5  C   UNL     1      -1.130   3.797  -0.712  1.00  0.00     0.283 C 
ATOM      6  O   UNL     1      -1.596   4.567  -1.560  1.00  0.00    -0.268 OA
ATOM      7  H   UNL     1       0.621   4.675  -0.982  1.00  0.00     0.163 HD
BRANCH   5   8
ATOM      8  C   UNL     1      -1.986   2.691  -0.050  1.00  0.00     0.306 C 
BRANCH   8   9
ATOM      9  N   UNL     1      -1.334   1.389   0.239  1.00  0.00    -0.330 N 
ATOM     10  H   UNL     1      -0.967   1.463   1.187  1.00  0.00     0.347 HD
ATOM     11  H   UNL     1      -2.089   0.735   0.033  1.00  0.00     0.347 HD
BRANCH   9  12
ATOM     12  C   UNL     1      -0.257   0.850  -0.565  1.00  0.00     0.176 C 
ATOM     13  C   UNL     1      -0.121  -0.652  -0.296  1.00  0.00     0.075 C 
ATOM     14  C   UNL     1      -0.172   1.113  -2.066  1.00  0.00     0.075 C 
ENDBRANCH   9  12
ENDBRANCH   8   9
BRANCH   8  15
ATOM     15  C   UNL     1      -3.313   2.301  -0.717  1.00  0.00     0.044 A 
ATOM     16  C   UNL     1      -4.128   1.270  -0.214  1.00  0.00     0.094 A 
ATOM     17  C   UNL     1      -3.690   2.280  -2.105  1.00  0.00     0.010 A 
ATOM     18  N   UNL     1      -3.789   0.283  -1.157  1.00  0.00    -0.361 N 
ATOM     19  C   UNL     1      -3.823   0.912  -2.388  1.00  0.00     0.046 A 
ATOM     20  C   UNL     1      -3.805   3.189  -3.172  1.00  0.00     0.026 A 
ATOM     21  H   UNL     1      -3.572  -0.660  -0.977  1.00  0.00     0.166 HD
ATOM     22  C   UNL     1      -3.874   0.391  -3.680  1.00  0.00     0.028 A 
ATOM     23  C   UNL     1      -4.063   2.682  -4.454  1.00  0.00     0.018 A 
ATOM     24  C   UNL     1      -4.038   1.311  -4.716  1.00  0.00     0.018 A 
ATOM     25  Br  UNL     1      -4.493   3.873  -5.862  1.00  0.00    -0.051 Br
ENDBRANCH   8  15
ENDBRANCH   5   8
ENDBRANCH   3   4
ENDBRANCH   2   3
ENDBRANCH   1   2
BRANCH   1  26
ATOM     26  C   UNL     1       4.224   4.432  -0.430  1.00  0.00     0.116 C 
BRANCH  26  27
ATOM     27  N   UNL     1       5.286   3.714   0.268  1.00  0.00    -0.352 N 
ATOM     28  C   UNL     1       6.652   3.864   0.143  1.00  0.00     0.251 C 
ATOM     29  H   UNL     1       4.989   3.033   0.914  1.00  0.00     0.163 HD
ATOM     30  O   UNL     1       7.415   3.100   0.698  1.00  0.00    -0.269 OA
BRANCH  28  31
ATOM     31  C   UNL     1       7.148   4.950  -0.730  1.00  0.00     0.039 A 
ATOM     32  C   UNL     1       8.102   4.657  -1.707  1.00  0.00     0.014 A 
ATOM     33  C   UNL     1       6.584   6.223  -0.638  1.00  0.00     0.014 A 
ATOM     34  C   UNL     1       8.432   5.631  -2.651  1.00  0.00     0.010 A 
ATOM     35  C   UNL     1       6.832   7.147  -1.638  1.00  0.00     0.010 A 
ATOM     36  C   UNL     1       7.766   6.865  -2.649  1.00  0.00    -0.014 A 
BRANCH  36  37
ATOM     37  C   UNL     1       8.042   7.923  -3.651  1.00  0.00     0.031 A 
ATOM     38  C   UNL     1       8.532   9.260  -3.168  1.00  0.00     0.074 A 
ATOM     39  C   UNL     1       7.722   7.733  -4.944  1.00  0.00     0.049 A 
ATOM     40  N   UNL     1       8.608  10.398  -3.804  1.00  0.00    -0.248 NA
ATOM     41  C   UNL     1       8.921   9.330  -1.752  1.00  0.00     0.031 C 
ATOM     42  C   UNL     1       7.190   6.494  -5.514  1.00  0.00     0.029 A 
ATOM     43  N   UNL     1       7.766   8.597  -6.009  1.00  0.00    -0.354 N 
ATOM     44  C   UNL     1       9.004  11.331  -2.850  1.00  0.00     0.074 A 
ATOM     45  C   UNL     1       9.078  10.632  -1.585  1.00  0.00     0.031 C 
ATOM     46  C   UNL     1       6.958   6.678  -6.824  1.00  0.00     0.029 A 
ATOM     47  C   UNL     1       7.277   8.058  -7.175  1.00  0.00     0.049 A 
ATOM     48  H   UNL     1       8.115   9.515  -5.944  1.00  0.00     0.167 HD
ATOM     49  C   UNL     1       9.300  12.643  -3.022  1.00  0.00     0.034 A 
ATOM     50  C   UNL     1       7.081   8.623  -8.383  1.00  0.00     0.034 A 
ATOM     51  C   UNL     1       9.251  13.299  -4.306  1.00  0.00     0.049 A 
ATOM     52  C   UNL     1       7.444  10.073  -8.569  1.00  0.00     0.074 A 
ATOM     53  C   UNL     1       9.604  14.596  -4.629  1.00  0.00     0.029 A 
ATOM     54  N   UNL     1       8.818  12.699  -5.484  1.00  0.00    -0.354 N 
ATOM     55  N   UNL     1       7.866  10.939  -7.676  1.00  0.00    -0.248 NA
ATOM     56  C   UNL     1       7.316  10.620  -9.925  1.00  0.00     0.031 C 
ATOM     57  C   UNL     1       9.329  14.799  -5.986  1.00  0.00     0.029 A 
ATOM     58  C   UNL     1       8.874  13.607  -6.530  1.00  0.00     0.049 A 
ATOM     59  H   UNL     1       8.515  11.766  -5.563  1.00  0.00     0.167 HD
ATOM     60  C   UNL     1       8.082  12.126  -8.368  1.00  0.00     0.074 A 
ATOM     61  C   UNL     1       7.746  11.863  -9.754  1.00  0.00     0.031 C 
ATOM     62  C   UNL     1       8.529  13.321  -7.904  1.00  0.00     0.034 A 
BRANCH  49  63
ATOM     63  C   UNL     1       9.663  13.436  -1.787  1.00  0.00     0.023 A 
ATOM     64  C   UNL     1      10.750  13.075  -0.969  1.00  0.00     0.031 A 
ATOM     65  C   UNL     1       8.863  14.514  -1.369  1.00  0.00     0.131 A 
ATOM     66  C   UNL     1      10.928  13.694   0.277  1.00  0.00     0.055 A 
ATOM     67  C   UNL     1       9.112  15.199  -0.177  1.00  0.00     0.041 A 
ATOM     68  F   UNL     1       7.801  14.899  -2.093  1.00  0.00    -0.206 F 
ATOM     69  C   UNL     1      10.134  14.773   0.667  1.00  0.00     0.022 A 
BRANCH  66  70
ATOM     70  S   UNL     1      12.072  12.930   1.460  1.00  0.00     0.124 S 
ATOM     71  O   UNL     1      11.527  11.578   1.565  1.00  0.00    -0.237 OA
ATOM     72  O   UNL     1      13.356  13.051   0.781  1.00  0.00    -0.237 OA
ATOM     73  O   UNL     1      11.920  13.749   2.662  1.00  0.00    -0.744 OA
ENDBRANCH  66  70
ENDBRANCH  49  63
BRANCH  50  74
ATOM     74  C   UNL     1       6.505   7.818  -9.495  1.00  0.00     0.023 A 
ATOM     75  C   UNL     1       7.287   7.442 -10.598  1.00  0.00     0.031 A 
ATOM     76  C   UNL     1       5.165   7.394  -9.459  1.00  0.00     0.131 A 
ATOM     77  C   UNL     1       6.716   6.686 -11.634  1.00  0.00     0.055 A 
ATOM     78  C   UNL     1       4.612   6.610 -10.473  1.00  0.00     0.041 A 
ATOM     79  F   UNL     1       4.380   7.715  -8.417  1.00  0.00    -0.206 F 
ATOM     80  C   UNL     1       5.388   6.258 -11.573  1.00  0.00     0.022 A 
BRANCH  77  81
ATOM     81  S   UNL     1       7.730   6.295 -13.086  1.00  0.00     0.124 S 
ATOM     82  O   UNL     1       8.032   7.624 -13.605  1.00  0.00    -0.237 OA
ATOM     83  O   UNL     1       8.847   5.569 -12.490  1.00  0.00    -0.237 OA
ATOM     84  O   UNL     1       6.839   5.487 -13.916  1.00  0.00    -0.744 OA
ENDBRANCH  77  81
ENDBRANCH  50  74
BRANCH  62  85
ATOM     85  C   UNL     1       8.736  14.418  -8.917  1.00  0.00     0.023 A 
ATOM     86  C   UNL     1       7.659  15.054  -9.556  1.00  0.00     0.031 A 
ATOM     87  C   UNL     1      10.040  14.846  -9.226  1.00  0.00     0.131 A 
ATOM     88  C   UNL     1       7.907  16.061 -10.501  1.00  0.00     0.055 A 
ATOM     89  C   UNL     1      10.278  15.883 -10.126  1.00  0.00     0.041 A 
ATOM     90  F   UNL     1      11.103  14.270  -8.642  1.00  0.00    -0.206 F 
ATOM     91  C   UNL     1       9.208  16.492 -10.776  1.00  0.00     0.022 A 
BRANCH  88  92
ATOM     92  S   UNL     1       6.508  16.766 -11.415  1.00  0.00     0.124 S 
ATOM     93  O   UNL     1       5.972  15.594 -12.099  1.00  0.00    -0.237 OA
ATOM     94  O   UNL     1       5.681  17.316 -10.346  1.00  0.00    -0.237 OA
ATOM     95  O   UNL     1       7.133  17.760 -12.286  1.00  0.00    -0.744 OA
ENDBRANCH  88  92
ENDBRANCH  62  85
ENDBRANCH  36  37
ENDBRANCH  28  31
ENDBRANCH  26  27
ENDBRANCH   1  26
TORSDOF 17
