REMARK SMILES O=C(NCCCCNC(=O)c1ccc(-c2c3nc(c(-c4cc(S(=O)(=O)[O-])ccc4F)c4ccc([nH]4)c(-c4cc(S(=O)(=O)[O-])ccc4F)c4nc(c(-c5cc(S(=O)(=O)[O-])ccc5F)c5ccc2[nH]5)C=C4)C=C3)cc1)C(=O)N1CC[N@@H+]2CCC[C@H]2C1
REMARK SMILES IDX 6 1 5 2 4 3 3 4 1 5 2 6 74 8 75 9 76 10 77 11 84 12 78 13
REMARK SMILES IDX 83 14 79 15 82 16 80 17 81 19 7 20 8 21 9 22 10 24 11 25
REMARK SMILES IDX 12 26 73 27 13 28 72 29 14 30 15 31 16 32 66 33 17 34 71 35
REMARK SMILES IDX 65 36 67 37 18 38 70 39 64 40 63 41 19 43 51 44 31 45 50 46
REMARK SMILES IDX 32 47 35 48 49 49 68 50 33 51 34 52 48 54 69 55 36 56 20 57
REMARK SMILES IDX 21 58 29 59 22 60 28 61 30 62 27 63 23 64 24 65 25 66 26 67
REMARK SMILES IDX 52 68 53 69 61 70 54 71 60 72 62 73 59 74 55 75 56 76 57 77
REMARK SMILES IDX 58 78 37 79 38 80 46 81 39 82 45 83 47 84 44 85 40 86 41 87
REMARK SMILES IDX 42 88 43 89
REMARK H PARENT 3 7 79 18 8 23 67 42 35 53
REMARK Flexibility Score: inf
ROOT
ATOM      1  C   UNL     1       4.143  -1.309   3.996  1.00  0.00     0.023 C 
ENDROOT
BRANCH   1   2
ATOM      2  C   UNL     1       4.488  -0.128   3.107  1.00  0.00     0.023 C 
BRANCH   2   3
ATOM      3  C   UNL     1       4.398  -0.367   1.614  1.00  0.00     0.116 C 
BRANCH   3   4
ATOM      4  N   UNL     1       3.111  -0.644   1.033  1.00  0.00    -0.348 N 
ATOM      5  O   UNL     1       1.830  -0.754  -0.855  1.00  0.00    -0.264 OA
ATOM      6  C   UNL     1       2.718  -0.198  -0.222  1.00  0.00     0.309 C 
ATOM      7  H   UNL     1       2.473  -1.181   1.555  1.00  0.00     0.163 HD
BRANCH   6   8
ATOM      8  C   UNL     1       3.352   1.101  -0.755  1.00  0.00     0.312 C 
ATOM      9  O   UNL     1       2.689   2.130  -0.632  1.00  0.00    -0.263 OA
BRANCH   8  10
ATOM     10  N   UNL     1       4.659   1.088  -1.247  1.00  0.00    -0.323 N 
ATOM     11  C   UNL     1       5.513  -0.093  -1.481  1.00  0.00     0.181 C 
ATOM     12  C   UNL     1       5.370   2.370  -1.324  1.00  0.00     0.185 C 
ATOM     13  C   UNL     1       6.858  -0.050  -0.677  1.00  0.00     0.284 C 
ATOM     14  C   UNL     1       6.469   2.328  -0.262  1.00  0.00     0.204 C 
ATOM     15  N   UNL     1       7.458   1.288  -0.596  1.00  0.00    -0.330 N 
ATOM     16  C   UNL     1       7.346   3.551  -0.092  1.00  0.00     0.073 C 
ATOM     17  C   UNL     1       8.493   1.451   0.421  1.00  0.00     0.262 C 
ATOM     18  H   UNL     1       7.856   1.389  -1.530  1.00  0.00     0.348 HD
ATOM     19  C   UNL     1       8.657   2.973   0.463  1.00  0.00     0.068 C 
ENDBRANCH   8  10
ENDBRANCH   6   8
ENDBRANCH   3   4
ENDBRANCH   2   3
ENDBRANCH   1   2
BRANCH   1  20
ATOM     20  C   UNL     1       4.719  -2.657   3.580  1.00  0.00     0.116 C 
BRANCH  20  21
ATOM     21  N   UNL     1       6.173  -2.691   3.504  1.00  0.00    -0.352 N 
ATOM     22  C   UNL     1       7.056  -3.564   4.098  1.00  0.00     0.251 C 
ATOM     23  H   UNL     1       6.582  -1.989   2.949  1.00  0.00     0.163 HD
ATOM     24  O   UNL     1       8.265  -3.381   3.971  1.00  0.00    -0.269 OA
BRANCH  22  25
ATOM     25  C   UNL     1       6.549  -4.683   4.925  1.00  0.00     0.039 A 
ATOM     26  C   UNL     1       7.129  -4.923   6.173  1.00  0.00     0.014 A 
ATOM     27  C   UNL     1       5.477  -5.467   4.493  1.00  0.00     0.014 A 
ATOM     28  C   UNL     1       6.581  -5.893   7.018  1.00  0.00     0.010 A 
ATOM     29  C   UNL     1       4.869  -6.356   5.374  1.00  0.00     0.010 A 
ATOM     30  C   UNL     1       5.420  -6.590   6.644  1.00  0.00    -0.014 A 
BRANCH  30  31
ATOM     31  C   UNL     1       4.798  -7.604   7.538  1.00  0.00     0.031 A 
ATOM     32  C   UNL     1       4.694  -9.036   7.077  1.00  0.00     0.074 A 
ATOM     33  C   UNL     1       4.285  -7.239   8.731  1.00  0.00     0.049 A 
ATOM     34  N   UNL     1       4.110 -10.055   7.655  1.00  0.00    -0.248 NA
ATOM     35  C   UNL     1       5.298  -9.354   5.773  1.00  0.00     0.031 C 
ATOM     36  C   UNL     1       4.279  -5.877   9.272  1.00  0.00     0.029 A 
ATOM     37  N   UNL     1       3.662  -7.981   9.705  1.00  0.00    -0.354 N 
ATOM     38  C   UNL     1       4.270 -11.127   6.783  1.00  0.00     0.074 A 
ATOM     39  C   UNL     1       4.928 -10.613   5.602  1.00  0.00     0.031 C 
ATOM     40  C   UNL     1       3.706  -5.887  10.487  1.00  0.00     0.029 A 
ATOM     41  C   UNL     1       3.265  -7.244  10.798  1.00  0.00     0.049 A 
ATOM     42  H   UNL     1       3.513  -8.951   9.628  1.00  0.00     0.167 HD
ATOM     43  C   UNL     1       3.936 -12.429   6.962  1.00  0.00     0.034 A 
ATOM     44  C   UNL     1       2.616  -7.619  11.919  1.00  0.00     0.034 A 
ATOM     45  C   UNL     1       3.297 -12.935   8.151  1.00  0.00     0.049 A 
ATOM     46  C   UNL     1       2.256  -9.075  12.096  1.00  0.00     0.074 A 
ATOM     47  C   UNL     1       2.916 -14.233   8.442  1.00  0.00     0.029 A 
ATOM     48  N   UNL     1       2.955 -12.165   9.255  1.00  0.00    -0.354 N 
ATOM     49  N   UNL     1       2.440 -10.080  11.270  1.00  0.00    -0.248 NA
ATOM     50  C   UNL     1       1.627  -9.452  13.368  1.00  0.00     0.031 C 
ATOM     51  C   UNL     1       2.305 -14.241   9.701  1.00  0.00     0.029 A 
ATOM     52  C   UNL     1       2.369 -12.961  10.227  1.00  0.00     0.049 A 
ATOM     53  H   UNL     1       3.106 -11.196   9.336  1.00  0.00     0.167 HD
ATOM     54  C   UNL     1       1.991 -11.213  11.946  1.00  0.00     0.074 A 
ATOM     55  C   UNL     1       1.549 -10.768  13.251  1.00  0.00     0.031 C 
ATOM     56  C   UNL     1       1.948 -12.504  11.530  1.00  0.00     0.034 A 
BRANCH  43  57
ATOM     57  C   UNL     1       4.262 -13.386   5.841  1.00  0.00     0.023 A 
ATOM     58  C   UNL     1       5.591 -13.622   5.444  1.00  0.00     0.031 A 
ATOM     59  C   UNL     1       3.240 -14.051   5.141  1.00  0.00     0.131 A 
ATOM     60  C   UNL     1       5.858 -14.435   4.334  1.00  0.00     0.055 A 
ATOM     61  C   UNL     1       3.519 -14.928   4.090  1.00  0.00     0.041 A 
ATOM     62  F   UNL     1       1.951 -13.850   5.458  1.00  0.00    -0.206 F 
ATOM     63  C   UNL     1       4.833 -15.113   3.671  1.00  0.00     0.022 A 
BRANCH  60  64
ATOM     64  S   UNL     1       7.551 -14.484   3.685  1.00  0.00     0.124 S 
ATOM     65  O   UNL     1       7.758 -13.089   3.303  1.00  0.00    -0.237 OA
ATOM     66  O   UNL     1       8.318 -14.951   4.834  1.00  0.00    -0.237 OA
ATOM     67  O   UNL     1       7.463 -15.423   2.569  1.00  0.00    -0.744 OA
ENDBRANCH  60  64
ENDBRANCH  43  57
BRANCH  44  68
ATOM     68  C   UNL     1       2.256  -6.619  12.970  1.00  0.00     0.023 A 
ATOM     69  C   UNL     1       2.772  -6.718  14.272  1.00  0.00     0.031 A 
ATOM     70  C   UNL     1       1.325  -5.599  12.710  1.00  0.00     0.131 A 
ATOM     71  C   UNL     1       2.297  -5.867  15.282  1.00  0.00     0.055 A 
ATOM     72  C   UNL     1       0.904  -4.711  13.703  1.00  0.00     0.041 A 
ATOM     73  F   UNL     1       0.804  -5.451  11.481  1.00  0.00    -0.206 F 
ATOM     74  C   UNL     1       1.375  -4.856  15.004  1.00  0.00     0.022 A 
BRANCH  71  75
ATOM     75  S   UNL     1       2.804  -6.186  16.995  1.00  0.00     0.124 S 
ATOM     76  O   UNL     1       2.422  -7.583  17.162  1.00  0.00    -0.237 OA
ATOM     77  O   UNL     1       4.237  -5.915  16.940  1.00  0.00    -0.237 OA
ATOM     78  O   UNL     1       2.018  -5.226  17.767  1.00  0.00    -0.744 OA
ENDBRANCH  71  75
ENDBRANCH  44  68
BRANCH  56  79
ATOM     79  C   UNL     1       1.479 -13.533  12.530  1.00  0.00     0.023 A 
ATOM     80  C   UNL     1       0.167 -13.539  13.034  1.00  0.00     0.031 A 
ATOM     81  C   UNL     1       2.375 -14.504  13.012  1.00  0.00     0.131 A 
ATOM     82  C   UNL     1      -0.190 -14.445  14.044  1.00  0.00     0.055 A 
ATOM     83  C   UNL     1       1.995 -15.448  13.966  1.00  0.00     0.041 A 
ATOM     84  F   UNL     1       3.641 -14.547  12.565  1.00  0.00    -0.206 F 
ATOM     85  C   UNL     1       0.711 -15.409  14.503  1.00  0.00     0.022 A 
BRANCH  82  86
ATOM     86  S   UNL     1      -1.810 -14.264  14.841  1.00  0.00     0.124 S 
ATOM     87  O   UNL     1      -1.779 -12.874  15.282  1.00  0.00    -0.237 OA
ATOM     88  O   UNL     1      -2.728 -14.566  13.748  1.00  0.00    -0.237 OA
ATOM     89  O   UNL     1      -1.776 -15.257  15.914  1.00  0.00    -0.744 OA
ENDBRANCH  82  86
ENDBRANCH  56  79
ENDBRANCH  30  31
ENDBRANCH  22  25
ENDBRANCH  20  21
ENDBRANCH   1  20
TORSDOF 15
