REMARK SMILES O=C(NCCCCNC(=O)c1ccc(-c2c3nc(c(-c4cc(S(=O)(=O)[O-])ccc4F)c4ccc([nH]4)c(-c4cc(S(=O)(=O)[O-])ccc4F)c4nc(c(-c5cc(S(=O)(=O)[O-])ccc5F)c5ccc2[nH]5)C=C4)C=C3)cc1)C1=Cc2cc(OC(F)(F)F)ccc2O[C@@H]1C(F)(F)F
REMARK SMILES IDX 6 1 5 2 4 3 3 4 1 5 2 6 74 8 75 9 88 10 76 11 87 12 77 13
REMARK SMILES IDX 86 14 78 15 85 16 84 17 89 18 90 19 91 20 92 21 79 22 80 23
REMARK SMILES IDX 81 24 82 25 83 26 7 27 8 28 9 29 10 31 11 32 12 33 73 34
REMARK SMILES IDX 13 35 72 36 14 37 15 38 16 39 66 40 17 41 71 42 65 43 67 44
REMARK SMILES IDX 18 45 70 46 64 47 63 48 19 50 51 51 31 52 50 53 32 54 35 55
REMARK SMILES IDX 49 56 68 57 33 58 34 59 48 61 69 62 36 63 20 64 21 65 29 66
REMARK SMILES IDX 22 67 28 68 30 69 27 70 23 71 24 72 25 73 26 74 52 75 53 76
REMARK SMILES IDX 61 77 54 78 60 79 62 80 59 81 55 82 56 83 57 84 58 85 37 86
REMARK SMILES IDX 38 87 46 88 39 89 45 90 47 91 44 92 40 93 41 94 42 95 43 96
REMARK H PARENT 3 7 8 30 67 49 35 60
REMARK Flexibility Score: inf
ROOT
ATOM      1  C   UNL     1       4.061   1.767   3.971  1.00  0.00     0.023 C 
ENDROOT
BRANCH   1   2
ATOM      2  C   UNL     1       4.231   1.896   2.456  1.00  0.00     0.023 C 
BRANCH   2   3
ATOM      3  C   UNL     1       3.615   0.745   1.659  1.00  0.00     0.116 C 
BRANCH   3   4
ATOM      4  N   UNL     1       2.554   1.172   0.740  1.00  0.00    -0.352 N 
ATOM      5  O   UNL     1       1.257   1.053  -1.124  1.00  0.00    -0.270 OA
ATOM      6  C   UNL     1       2.316   0.802  -0.563  1.00  0.00     0.251 C 
ATOM      7  H   UNL     1       1.916   1.823   1.112  1.00  0.00     0.163 HD
BRANCH   6   8
ATOM      8  C   UNL     1       3.363   0.020  -1.244  1.00  0.00     0.067 C 
ATOM      9  C   UNL     1       4.557   0.603  -1.408  1.00  0.00     0.025 C 
ATOM     10  C   UNL     1       3.158  -1.460  -1.357  1.00  0.00     0.314 C 
ATOM     11  C   UNL     1       5.681  -0.271  -1.047  1.00  0.00     0.021 A 
ATOM     12  O   UNL     1       4.207  -2.201  -0.686  1.00  0.00    -0.475 OA
ATOM     13  C   UNL     1       6.909   0.336  -0.765  1.00  0.00     0.058 A 
ATOM     14  C   UNL     1       5.421  -1.570  -0.570  1.00  0.00     0.128 A 
ATOM     15  C   UNL     1       7.810  -0.292   0.096  1.00  0.00     0.130 A 
ATOM     16  C   UNL     1       6.357  -2.220   0.232  1.00  0.00     0.051 A 
ATOM     17  C   UNL     1       7.541  -1.571   0.586  1.00  0.00     0.050 A 
BRANCH  10  18
ATOM     18  C   UNL     1       3.019  -1.911  -2.821  1.00  0.00     0.429 C 
ATOM     19  F   UNL     1       2.714  -3.231  -2.899  1.00  0.00    -0.167 F 
ATOM     20  F   UNL     1       2.032  -1.247  -3.466  1.00  0.00    -0.167 F 
ATOM     21  F   UNL     1       4.157  -1.726  -3.533  1.00  0.00    -0.167 F 
ENDBRANCH  10  18
BRANCH  15  22
ATOM     22  O   UNL     1       8.927   0.424   0.424  1.00  0.00    -0.406 OA
BRANCH  22  23
ATOM     23  C   UNL     1       9.138   0.536   1.832  1.00  0.00     0.573 C 
ATOM     24  F   UNL     1       7.987   0.865   2.460  1.00  0.00    -0.132 F 
ATOM     25  F   UNL     1       9.636  -0.613   2.326  1.00  0.00    -0.132 F 
ATOM     26  F   UNL     1      10.037   1.522   2.046  1.00  0.00    -0.132 F 
ENDBRANCH  22  23
ENDBRANCH  15  22
ENDBRANCH   6   8
ENDBRANCH   3   4
ENDBRANCH   2   3
ENDBRANCH   1   2
BRANCH   1  27
ATOM     27  C   UNL     1       4.622   0.502   4.619  1.00  0.00     0.116 C 
BRANCH  27  28
ATOM     28  N   UNL     1       6.058   0.324   4.475  1.00  0.00    -0.352 N 
ATOM     29  C   UNL     1       6.961  -0.139   5.412  1.00  0.00     0.251 C 
ATOM     30  H   UNL     1       6.435   0.566   3.598  1.00  0.00     0.163 HD
ATOM     31  O   UNL     1       8.155  -0.230   5.134  1.00  0.00    -0.269 OA
BRANCH  29  32
ATOM     32  C   UNL     1       6.484  -0.455   6.776  1.00  0.00     0.039 A 
ATOM     33  C   UNL     1       7.067   0.209   7.858  1.00  0.00     0.014 A 
ATOM     34  C   UNL     1       5.394  -1.306   6.972  1.00  0.00     0.014 A 
ATOM     35  C   UNL     1       6.482   0.111   9.123  1.00  0.00     0.010 A 
ATOM     36  C   UNL     1       4.771  -1.345   8.217  1.00  0.00     0.010 A 
ATOM     37  C   UNL     1       5.293  -0.615   9.298  1.00  0.00    -0.014 A 
BRANCH  37  38
ATOM     38  C   UNL     1       4.558  -0.592  10.591  1.00  0.00     0.031 A 
ATOM     39  C   UNL     1       4.371  -1.862  11.373  1.00  0.00     0.074 A 
ATOM     40  C   UNL     1       3.987   0.555  11.013  1.00  0.00     0.049 A 
ATOM     41  N   UNL     1       3.677  -2.070  12.463  1.00  0.00    -0.248 NA
ATOM     42  C   UNL     1       5.023  -3.064  10.835  1.00  0.00     0.031 C 
ATOM     43  C   UNL     1       4.052   1.841  10.313  1.00  0.00     0.029 A 
ATOM     44  N   UNL     1       3.227   0.825  12.125  1.00  0.00    -0.354 N 
ATOM     45  C   UNL     1       3.794  -3.429  12.731  1.00  0.00     0.074 A 
ATOM     46  C   UNL     1       4.574  -4.002  11.654  1.00  0.00     0.031 C 
ATOM     47  C   UNL     1       3.382   2.764  11.021  1.00  0.00     0.029 A 
ATOM     48  C   UNL     1       2.802   2.132  12.202  1.00  0.00     0.049 A 
ATOM     49  H   UNL     1       3.007   0.147  12.803  1.00  0.00     0.167 HD
ATOM     50  C   UNL     1       3.314  -4.130  13.789  1.00  0.00     0.034 A 
ATOM     51  C   UNL     1       2.025   2.750  13.115  1.00  0.00     0.034 A 
ATOM     52  C   UNL     1       2.551  -3.539  14.862  1.00  0.00     0.049 A 
ATOM     53  C   UNL     1       1.505   1.952  14.284  1.00  0.00     0.074 A 
ATOM     54  C   UNL     1       2.061  -4.142  16.007  1.00  0.00     0.029 A 
ATOM     55  N   UNL     1       2.163  -2.206  14.920  1.00  0.00    -0.354 N 
ATOM     56  N   UNL     1       1.666   0.676  14.549  1.00  0.00    -0.248 NA
ATOM     57  C   UNL     1       0.709   2.680  15.281  1.00  0.00     0.031 C 
ATOM     58  C   UNL     1       1.332  -3.189  16.729  1.00  0.00     0.029 A 
ATOM     59  C   UNL     1       1.422  -1.974  16.069  1.00  0.00     0.049 A 
ATOM     60  H   UNL     1       2.383  -1.525  14.244  1.00  0.00     0.167 HD
ATOM     61  C   UNL     1       1.014   0.456  15.759  1.00  0.00     0.074 A 
ATOM     62  C   UNL     1       0.471   1.733  16.176  1.00  0.00     0.031 C 
ATOM     63  C   UNL     1       0.880  -0.696  16.464  1.00  0.00     0.034 A 
BRANCH  50  64
ATOM     64  C   UNL     1       3.586  -5.615  13.812  1.00  0.00     0.023 A 
ATOM     65  C   UNL     1       4.897  -6.121  13.874  1.00  0.00     0.031 A 
ATOM     66  C   UNL     1       2.529  -6.537  13.722  1.00  0.00     0.131 A 
ATOM     67  C   UNL     1       5.122  -7.500  13.755  1.00  0.00     0.055 A 
ATOM     68  C   UNL     1       2.755  -7.915  13.691  1.00  0.00     0.041 A 
ATOM     69  F   UNL     1       1.258  -6.114  13.640  1.00  0.00    -0.206 F 
ATOM     70  C   UNL     1       4.059  -8.403  13.690  1.00  0.00     0.022 A 
BRANCH  67  71
ATOM     71  S   UNL     1       6.825  -8.081  13.530  1.00  0.00     0.124 S 
ATOM     72  O   UNL     1       7.209  -7.394  12.299  1.00  0.00    -0.237 OA
ATOM     73  O   UNL     1       7.479  -7.621  14.749  1.00  0.00    -0.237 OA
ATOM     74  O   UNL     1       6.680  -9.530  13.408  1.00  0.00    -0.744 OA
ENDBRANCH  67  71
ENDBRANCH  50  64
BRANCH  51  75
ATOM     75  C   UNL     1       1.682   4.193  12.967  1.00  0.00     0.023 A 
ATOM     76  C   UNL     1       2.148   5.145  13.887  1.00  0.00     0.031 A 
ATOM     77  C   UNL     1       0.849   4.636  11.924  1.00  0.00     0.131 A 
ATOM     78  C   UNL     1       1.743   6.485  13.774  1.00  0.00     0.055 A 
ATOM     79  C   UNL     1       0.487   5.978  11.789  1.00  0.00     0.041 A 
ATOM     80  F   UNL     1       0.383   3.768  11.012  1.00  0.00    -0.206 F 
ATOM     81  C   UNL     1       0.925   6.909  12.726  1.00  0.00     0.022 A 
BRANCH  78  82
ATOM     82  S   UNL     1       2.243   7.655  15.068  1.00  0.00     0.124 S 
ATOM     83  O   UNL     1       1.685   7.034  16.263  1.00  0.00    -0.237 OA
ATOM     84  O   UNL     1       3.697   7.632  14.950  1.00  0.00    -0.237 OA
ATOM     85  O   UNL     1       1.607   8.906  14.658  1.00  0.00    -0.744 OA
ENDBRANCH  78  82
ENDBRANCH  51  75
BRANCH  63  86
ATOM     86  C   UNL     1       0.152  -0.607  17.782  1.00  0.00     0.023 A 
ATOM     87  C   UNL     1      -1.227  -0.346  17.848  1.00  0.00     0.031 A 
ATOM     88  C   UNL     1       0.856  -0.776  18.988  1.00  0.00     0.131 A 
ATOM     89  C   UNL     1      -1.851  -0.210  19.097  1.00  0.00     0.055 A 
ATOM     90  C   UNL     1       0.218  -0.694  20.226  1.00  0.00     0.041 A 
ATOM     91  F   UNL     1       2.175  -1.026  18.980  1.00  0.00    -0.206 F 
ATOM     92  C   UNL     1      -1.141  -0.398  20.286  1.00  0.00     0.022 A 
BRANCH  89  93
ATOM     93  S   UNL     1      -3.592   0.295  19.150  1.00  0.00     0.124 S 
ATOM     94  O   UNL     1      -3.556   1.582  18.462  1.00  0.00    -0.237 OA
ATOM     95  O   UNL     1      -4.255  -0.791  18.436  1.00  0.00    -0.237 OA
ATOM     96  O   UNL     1      -3.886   0.365  20.581  1.00  0.00    -0.744 OA
ENDBRANCH  89  93
ENDBRANCH  63  86
ENDBRANCH  37  38
ENDBRANCH  29  32
ENDBRANCH  27  28
ENDBRANCH   1  27
TORSDOF 17
