REMARK SMILES C[C@H]1CCCC[C@H]1[N@H+]1[C@@H](C(=O)NCCCCNC(=O)c2ccc(-c3c4nc(c(-c5cc(S(=O)(=O)[O-])ccc5F)c5ccc([nH]5)c(-c5cc(S(=O)(=O)[O-])ccc5F)c5nc(c(-c6cc(S(=O)(=O)[O-])ccc6F)c6ccc3[nH]6)C=C5)C=C4)cc2)CC[C@@H]2CCCC[C@@H]21
REMARK SMILES IDX 15 1 14 2 13 3 12 4 10 5 11 6 9 8 8 9 90 10 83 12 85 13
REMARK SMILES IDX 89 14 84 15 86 16 88 17 87 18 7 19 1 20 2 21 3 22 4 23 6 24
REMARK SMILES IDX 5 25 16 26 17 27 18 28 19 30 20 31 21 32 82 33 22 34 81 35
REMARK SMILES IDX 23 36 24 37 25 38 75 39 26 40 80 41 74 42 76 43 27 44 79 45
REMARK SMILES IDX 73 46 72 47 28 49 60 50 40 51 59 52 41 53 44 54 58 55 77 56
REMARK SMILES IDX 42 57 43 58 57 60 78 61 45 62 29 63 30 64 38 65 31 66 37 67
REMARK SMILES IDX 39 68 36 69 32 70 33 71 34 72 35 73 61 74 62 75 70 76 63 77
REMARK SMILES IDX 69 78 71 79 68 80 64 81 65 82 66 83 67 84 46 85 47 86 55 87
REMARK SMILES IDX 48 88 54 89 56 90 53 91 49 92 50 93 51 94 52 95
REMARK H PARENT 12 7 8 11 17 29 76 48 44 59
REMARK Flexibility Score: inf
ROOT
ATOM      1  C   UNL     1      -3.579  -3.694  -1.855  1.00  0.00     0.023 C 
ENDROOT
BRANCH   1   2
ATOM      2  C   UNL     1      -2.129  -3.449  -2.266  1.00  0.00     0.023 C 
BRANCH   2   3
ATOM      3  C   UNL     1      -1.900  -2.193  -3.102  1.00  0.00     0.116 C 
BRANCH   3   4
ATOM      4  N   UNL     1      -2.175  -0.944  -2.401  1.00  0.00    -0.351 N 
ATOM      5  C   UNL     1      -1.334   0.102  -2.092  1.00  0.00     0.278 C 
ATOM      6  O   UNL     1      -1.839   1.182  -1.774  1.00  0.00    -0.268 OA
ATOM      7  H   UNL     1      -3.107  -0.830  -2.103  1.00  0.00     0.163 HD
BRANCH   5   8
ATOM      8  C   UNL     1       0.170  -0.061  -2.254  1.00  0.00     0.274 C 
ATOM      9  N   UNL     1       1.012  -0.686  -1.190  1.00  0.00    -0.319 N 
ATOM     10  C   UNL     1       2.469  -0.536  -1.523  1.00  0.00     0.188 C 
ATOM     11  H   UNL     1       0.688  -1.651  -1.260  1.00  0.00     0.349 HD
ATOM     12  C   UNL     1       0.829   1.153  -2.915  1.00  0.00     0.076 C 
ATOM     13  C   UNL     1       2.732  -0.537  -3.057  1.00  0.00     0.048 C 
ATOM     14  C   UNL     1       3.456  -1.555  -0.896  1.00  0.00     0.065 C 
ATOM     15  C   UNL     1       2.033   0.662  -3.731  1.00  0.00     0.016 C 
ATOM     16  C   UNL     1       2.403  -1.915  -3.695  1.00  0.00     0.010 C 
ATOM     17  C   UNL     1       3.753  -2.781  -1.764  1.00  0.00     0.006 C 
ATOM     18  C   UNL     1       2.614  -3.082  -2.721  1.00  0.00     0.001 C 
BRANCH   9  19
ATOM     19  C   UNL     1       0.675  -0.657   0.261  1.00  0.00     0.187 C 
ATOM     20  C   UNL     1       2.478   0.985   1.275  1.00  0.00     0.014 C 
ATOM     21  C   UNL     1       1.022   0.536   1.198  1.00  0.00     0.044 C 
ATOM     22  C   UNL     1       0.085   1.708   0.949  1.00  0.00     0.009 C 
ATOM     23  C   UNL     1      -1.348   1.350   1.323  1.00  0.00     0.001 C 
ATOM     24  C   UNL     1      -0.749  -1.123   0.666  1.00  0.00     0.065 C 
ATOM     25  C   UNL     1      -1.815  -0.064   0.973  1.00  0.00     0.006 C 
ENDBRANCH   9  19
ENDBRANCH   5   8
ENDBRANCH   3   4
ENDBRANCH   2   3
ENDBRANCH   1   2
BRANCH   1  26
ATOM     26  C   UNL     1      -4.569  -3.810  -3.011  1.00  0.00     0.116 C 
BRANCH  26  27
ATOM     27  N   UNL     1      -4.223  -4.862  -3.955  1.00  0.00    -0.352 N 
ATOM     28  C   UNL     1      -5.002  -5.867  -4.476  1.00  0.00     0.251 C 
ATOM     29  H   UNL     1      -3.289  -4.853  -4.268  1.00  0.00     0.163 HD
ATOM     30  O   UNL     1      -4.476  -6.748  -5.154  1.00  0.00    -0.269 OA
BRANCH  28  31
ATOM     31  C   UNL     1      -6.454  -5.911  -4.195  1.00  0.00     0.039 A 
ATOM     32  C   UNL     1      -7.041  -7.137  -3.869  1.00  0.00     0.014 A 
ATOM     33  C   UNL     1      -7.238  -4.755  -4.247  1.00  0.00     0.014 A 
ATOM     34  C   UNL     1      -8.394  -7.189  -3.521  1.00  0.00     0.010 A 
ATOM     35  C   UNL     1      -8.566  -4.796  -3.824  1.00  0.00     0.010 A 
ATOM     36  C   UNL     1      -9.158  -6.013  -3.452  1.00  0.00    -0.014 A 
BRANCH  36  37
ATOM     37  C   UNL     1     -10.572  -6.036  -2.985  1.00  0.00     0.031 A 
ATOM     38  C   UNL     1     -11.682  -5.612  -3.910  1.00  0.00     0.074 A 
ATOM     39  C   UNL     1     -10.850  -6.388  -1.713  1.00  0.00     0.049 A 
ATOM     40  N   UNL     1     -12.961  -5.485  -3.663  1.00  0.00    -0.248 NA
ATOM     41  C   UNL     1     -11.299  -5.261  -5.287  1.00  0.00     0.031 C 
ATOM     42  C   UNL     1      -9.860  -6.792  -0.712  1.00  0.00     0.029 A 
ATOM     43  N   UNL     1     -12.045  -6.457  -1.038  1.00  0.00    -0.354 N 
ATOM     44  C   UNL     1     -13.535  -5.039  -4.849  1.00  0.00     0.074 A 
ATOM     45  C   UNL     1     -12.454  -4.856  -5.794  1.00  0.00     0.031 C 
ATOM     46  C   UNL     1     -10.489  -7.091   0.436  1.00  0.00     0.029 A 
ATOM     47  C   UNL     1     -11.919  -6.846   0.277  1.00  0.00     0.049 A 
ATOM     48  H   UNL     1     -12.911  -6.247  -1.456  1.00  0.00     0.167 HD
ATOM     49  C   UNL     1     -14.844  -4.826  -5.131  1.00  0.00     0.034 A 
ATOM     50  C   UNL     1     -12.845  -6.972   1.249  1.00  0.00     0.034 A 
ATOM     51  C   UNL     1     -15.913  -5.018  -4.182  1.00  0.00     0.049 A 
ATOM     52  C   UNL     1     -14.289  -6.674   0.922  1.00  0.00     0.074 A 
ATOM     53  C   UNL     1     -17.275  -4.863  -4.377  1.00  0.00     0.029 A 
ATOM     54  N   UNL     1     -15.745  -5.401  -2.857  1.00  0.00    -0.354 N 
ATOM     55  N   UNL     1     -14.817  -6.292  -0.219  1.00  0.00    -0.248 NA
ATOM     56  C   UNL     1     -15.264  -6.835   2.010  1.00  0.00     0.031 C 
ATOM     57  C   UNL     1     -17.922  -5.078  -3.157  1.00  0.00     0.029 A 
ATOM     58  C   UNL     1     -16.975  -5.456  -2.219  1.00  0.00     0.049 A 
ATOM     59  H   UNL     1     -14.880  -5.603  -2.434  1.00  0.00     0.167 HD
ATOM     60  C   UNL     1     -16.189  -6.210   0.008  1.00  0.00     0.074 A 
ATOM     61  C   UNL     1     -16.407  -6.598   1.385  1.00  0.00     0.031 C 
ATOM     62  C   UNL     1     -17.181  -5.848  -0.845  1.00  0.00     0.034 A 
BRANCH  49  63
ATOM     63  C   UNL     1     -15.192  -4.345  -6.520  1.00  0.00     0.023 A 
ATOM     64  C   UNL     1     -14.949  -5.136  -7.656  1.00  0.00     0.031 A 
ATOM     65  C   UNL     1     -15.783  -3.083  -6.711  1.00  0.00     0.131 A 
ATOM     66  C   UNL     1     -15.240  -4.636  -8.934  1.00  0.00     0.055 A 
ATOM     67  C   UNL     1     -16.144  -2.624  -7.979  1.00  0.00     0.041 A 
ATOM     68  F   UNL     1     -16.019  -2.273  -5.666  1.00  0.00    -0.206 F 
ATOM     69  C   UNL     1     -15.863  -3.397  -9.101  1.00  0.00     0.022 A 
BRANCH  66  70
ATOM     70  S   UNL     1     -14.681  -5.575 -10.380  1.00  0.00     0.124 S 
ATOM     71  O   UNL     1     -13.236  -5.609 -10.169  1.00  0.00    -0.237 OA
ATOM     72  O   UNL     1     -15.380  -6.846 -10.222  1.00  0.00    -0.237 OA
ATOM     73  O   UNL     1     -15.120  -4.758 -11.510  1.00  0.00    -0.744 OA
ENDBRANCH  66  70
ENDBRANCH  49  63
BRANCH  50  74
ATOM     74  C   UNL     1     -12.454  -7.375   2.634  1.00  0.00     0.023 A 
ATOM     75  C   UNL     1     -12.975  -8.538   3.223  1.00  0.00     0.031 A 
ATOM     76  C   UNL     1     -11.622  -6.558   3.421  1.00  0.00     0.131 A 
ATOM     77  C   UNL     1     -12.723  -8.813   4.576  1.00  0.00     0.055 A 
ATOM     78  C   UNL     1     -11.314  -6.875   4.746  1.00  0.00     0.041 A 
ATOM     79  F   UNL     1     -11.095  -5.433   2.913  1.00  0.00    -0.206 F 
ATOM     80  C   UNL     1     -11.883  -7.998   5.337  1.00  0.00     0.022 A 
BRANCH  77  81
ATOM     81  S   UNL     1     -13.621 -10.178   5.364  1.00  0.00     0.124 S 
ATOM     82  O   UNL     1     -15.008  -9.813   5.094  1.00  0.00    -0.237 OA
ATOM     83  O   UNL     1     -13.109 -11.336   4.639  1.00  0.00    -0.237 OA
ATOM     84  O   UNL     1     -13.213 -10.090   6.764  1.00  0.00    -0.744 OA
ENDBRANCH  77  81
ENDBRANCH  50  74
BRANCH  62  85
ATOM     85  C   UNL     1     -18.598  -5.918  -0.326  1.00  0.00     0.023 A 
ATOM     86  C   UNL     1     -19.054  -5.084   0.710  1.00  0.00     0.031 A 
ATOM     87  C   UNL     1     -19.503  -6.845  -0.875  1.00  0.00     0.131 A 
ATOM     88  C   UNL     1     -20.358  -5.235   1.206  1.00  0.00     0.055 A 
ATOM     89  C   UNL     1     -20.820  -6.942  -0.424  1.00  0.00     0.041 A 
ATOM     90  F   UNL     1     -19.123  -7.670  -1.863  1.00  0.00    -0.206 F 
ATOM     91  C   UNL     1     -21.250  -6.145   0.632  1.00  0.00     0.022 A 
BRANCH  88  92
ATOM     92  S   UNL     1     -20.843  -4.295   2.679  1.00  0.00     0.124 S 
ATOM     93  O   UNL     1     -19.853  -4.733   3.658  1.00  0.00    -0.237 OA
ATOM     94  O   UNL     1     -20.722  -2.914   2.224  1.00  0.00    -0.237 OA
ATOM     95  O   UNL     1     -22.211  -4.744   2.937  1.00  0.00    -0.744 OA
ENDBRANCH  88  92
ENDBRANCH  62  85
ENDBRANCH  36  37
ENDBRANCH  28  31
ENDBRANCH  26  27
ENDBRANCH   1  26
TORSDOF 15
