REMARK SMILES C[C@@H]1OCC[C@@H]1C#CC(=O)NCCCCNC(=O)c1ccc(-c2c3nc(c(-c4cc(S(=O)(=O)[O-])ccc4F)c4ccc([nH]4)c(-c4cc(S(=O)(=O)[O-])ccc4F)c4nc(c(-c5cc(S(=O)(=O)[O-])ccc5F)c5ccc2[nH]5)C=C4)C=C3)cc1
REMARK SMILES IDX 14 1 13 2 12 3 11 4 9 5 10 6 8 8 7 9 6 10 1 11 2 12 3 13
REMARK SMILES IDX 4 14 5 15 15 16 16 17 17 18 18 20 19 21 20 22 81 23 21 24
REMARK SMILES IDX 80 25 22 26 23 27 24 28 74 29 25 30 79 31 73 32 75 33 26 34
REMARK SMILES IDX 78 35 72 36 71 37 27 39 59 40 39 41 58 42 40 43 43 44 57 45
REMARK SMILES IDX 76 46 41 47 42 48 56 50 77 51 44 52 28 53 29 54 37 55 30 56
REMARK SMILES IDX 36 57 38 58 35 59 31 60 32 61 33 62 34 63 60 64 61 65 69 66
REMARK SMILES IDX 62 67 68 68 70 69 67 70 63 71 64 72 65 73 66 74 45 75 46 76
REMARK SMILES IDX 54 77 47 78 53 79 55 80 52 81 48 82 49 83 50 84 51 85
REMARK H PARENT 11 7 16 19 75 38 43 49
REMARK Flexibility Score: inf
ROOT
ATOM      1  C   UNL     1      -3.620  -6.137   3.189  1.00  0.00     0.023 C 
ENDROOT
BRANCH   1   2
ATOM      2  C   UNL     1      -3.075  -5.505   1.905  1.00  0.00     0.023 C 
BRANCH   2   3
ATOM      3  C   UNL     1      -2.542  -4.083   2.071  1.00  0.00     0.117 C 
BRANCH   3   4
ATOM      4  N   UNL     1      -1.400  -4.038   2.963  1.00  0.00    -0.345 N 
ATOM      5  C   UNL     1      -0.112  -3.705   2.647  1.00  0.00     0.295 C 
ATOM      6  O   UNL     1       0.777  -3.723   3.489  1.00  0.00    -0.260 OA
ATOM      7  H   UNL     1      -1.571  -4.274   3.903  1.00  0.00     0.164 HD
BRANCH   5   8
ATOM      8  C   UNL     1       0.200  -3.300   1.297  1.00  0.00    -0.005 C 
ATOM      9  C   UNL     1       0.442  -2.905   0.186  1.00  0.00    -0.087 C 
BRANCH   9  10
ATOM     10  C   UNL     1       0.732  -2.361  -1.152  1.00  0.00     0.096 C 
ATOM     11  C   UNL     1       0.956  -0.005  -0.076  1.00  0.00     0.040 C 
ATOM     12  C   UNL     1       0.519  -0.849  -1.262  1.00  0.00     0.130 C 
ATOM     13  O   UNL     1      -0.883  -0.649  -1.522  1.00  0.00    -0.377 OA
ATOM     14  C   UNL     1      -1.420  -1.871  -2.047  1.00  0.00     0.162 C 
ATOM     15  C   UNL     1      -0.274  -2.861  -2.171  1.00  0.00     0.048 C 
ENDBRANCH   9  10
ENDBRANCH   5   8
ENDBRANCH   3   4
ENDBRANCH   2   3
ENDBRANCH   1   2
BRANCH   1  16
ATOM     16  C   UNL     1      -4.737  -5.358   3.877  1.00  0.00     0.116 C 
BRANCH  16  17
ATOM     17  N   UNL     1      -5.921  -5.220   3.043  1.00  0.00    -0.352 N 
ATOM     18  C   UNL     1      -7.230  -5.532   3.326  1.00  0.00     0.251 C 
ATOM     19  H   UNL     1      -5.762  -4.847   2.146  1.00  0.00     0.163 HD
ATOM     20  O   UNL     1      -8.064  -5.504   2.425  1.00  0.00    -0.269 OA
BRANCH  18  21
ATOM     21  C   UNL     1      -7.623  -5.934   4.696  1.00  0.00     0.039 A 
ATOM     22  C   UNL     1      -8.490  -7.018   4.858  1.00  0.00     0.014 A 
ATOM     23  C   UNL     1      -7.141  -5.256   5.819  1.00  0.00     0.014 A 
ATOM     24  C   UNL     1      -8.814  -7.463   6.143  1.00  0.00     0.010 A 
ATOM     25  C   UNL     1      -7.397  -5.753   7.096  1.00  0.00     0.010 A 
ATOM     26  C   UNL     1      -8.235  -6.864   7.274  1.00  0.00    -0.014 A 
BRANCH  26  27
ATOM     27  C   UNL     1      -8.488  -7.399   8.642  1.00  0.00     0.031 A 
ATOM     28  C   UNL     1      -9.157  -6.540   9.683  1.00  0.00     0.074 A 
ATOM     29  C   UNL     1      -8.068  -8.642   8.960  1.00  0.00     0.049 A 
ATOM     30  N   UNL     1      -9.412  -6.812  10.937  1.00  0.00    -0.248 NA
ATOM     31  C   UNL     1      -9.575  -5.191   9.268  1.00  0.00     0.031 C 
ATOM     32  C   UNL     1      -7.377  -9.558   8.048  1.00  0.00     0.029 A 
ATOM     33  N   UNL     1      -8.151  -9.351  10.134  1.00  0.00    -0.354 N 
ATOM     34  C   UNL     1     -10.001  -5.667  11.465  1.00  0.00     0.074 A 
ATOM     35  C   UNL     1     -10.025  -4.682  10.406  1.00  0.00     0.031 C 
ATOM     36  C   UNL     1      -7.125 -10.711   8.687  1.00  0.00     0.029 A 
ATOM     37  C   UNL     1      -7.576 -10.601  10.071  1.00  0.00     0.049 A 
ATOM     38  H   UNL     1      -8.581  -8.998  10.946  1.00  0.00     0.167 HD
ATOM     39  C   UNL     1     -10.486  -5.464  12.714  1.00  0.00     0.034 A 
ATOM     40  C   UNL     1      -7.405 -11.544  11.022  1.00  0.00     0.034 A 
ATOM     41  C   UNL     1     -10.466  -6.462  13.756  1.00  0.00     0.049 A 
ATOM     42  C   UNL     1      -7.925 -11.272  12.414  1.00  0.00     0.074 A 
ATOM     43  C   UNL     1     -11.002  -6.381  15.030  1.00  0.00     0.029 A 
ATOM     44  N   UNL     1      -9.866  -7.710  13.658  1.00  0.00    -0.354 N 
ATOM     45  N   UNL     1      -8.546 -10.209  12.871  1.00  0.00    -0.248 NA
ATOM     46  C   UNL     1      -7.730 -12.329  13.415  1.00  0.00     0.031 C 
ATOM     47  C   UNL     1     -10.636  -7.531  15.733  1.00  0.00     0.029 A 
ATOM     48  C   UNL     1      -9.971  -8.383  14.866  1.00  0.00     0.049 A 
ATOM     49  H   UNL     1      -9.429  -8.065  12.850  1.00  0.00     0.167 HD
ATOM     50  C   UNL     1      -8.849 -10.491  14.202  1.00  0.00     0.074 A 
ATOM     51  C   UNL     1      -8.361 -11.827  14.466  1.00  0.00     0.031 C 
ATOM     52  C   UNL     1      -9.477  -9.715  15.122  1.00  0.00     0.034 A 
BRANCH  39  53
ATOM     53  C   UNL     1     -11.041  -4.099  13.049  1.00  0.00     0.023 A 
ATOM     54  C   UNL     1     -12.183  -3.578  12.418  1.00  0.00     0.031 A 
ATOM     55  C   UNL     1     -10.427  -3.319  14.047  1.00  0.00     0.131 A 
ATOM     56  C   UNL     1     -12.646  -2.297  12.757  1.00  0.00     0.055 A 
ATOM     57  C   UNL     1     -10.939  -2.081  14.436  1.00  0.00     0.041 A 
ATOM     58  F   UNL     1      -9.317  -3.753  14.666  1.00  0.00    -0.206 F 
ATOM     59  C   UNL     1     -12.050  -1.559  13.783  1.00  0.00     0.022 A 
BRANCH  56  60
ATOM     60  S   UNL     1     -13.963  -1.555  11.755  1.00  0.00     0.124 S 
ATOM     61  O   UNL     1     -13.363  -1.567  10.423  1.00  0.00    -0.237 OA
ATOM     62  O   UNL     1     -15.075  -2.474  11.964  1.00  0.00    -0.237 OA
ATOM     63  O   UNL     1     -14.132  -0.226  12.341  1.00  0.00    -0.744 OA
ENDBRANCH  56  60
ENDBRANCH  39  53
BRANCH  40  64
ATOM     64  C   UNL     1      -6.678 -12.815  10.721  1.00  0.00     0.023 A 
ATOM     65  C   UNL     1      -7.294 -14.065  10.891  1.00  0.00     0.031 A 
ATOM     66  C   UNL     1      -5.322 -12.800  10.345  1.00  0.00     0.131 A 
ATOM     67  C   UNL     1      -6.539 -15.242  10.763  1.00  0.00     0.055 A 
ATOM     68  C   UNL     1      -4.596 -13.975  10.141  1.00  0.00     0.041 A 
ATOM     69  F   UNL     1      -4.676 -11.636  10.173  1.00  0.00    -0.206 F 
ATOM     70  C   UNL     1      -5.200 -15.207  10.371  1.00  0.00     0.022 A 
BRANCH  67  71
ATOM     71  S   UNL     1      -7.294 -16.815  11.264  1.00  0.00     0.124 S 
ATOM     72  O   UNL     1      -7.696 -16.525  12.635  1.00  0.00    -0.237 OA
ATOM     73  O   UNL     1      -8.374 -16.955  10.294  1.00  0.00    -0.237 OA
ATOM     74  O   UNL     1      -6.202 -17.776  11.122  1.00  0.00    -0.744 OA
ENDBRANCH  67  71
ENDBRANCH  40  64
BRANCH  52  75
ATOM     75  C   UNL     1      -9.727 -10.319  16.485  1.00  0.00     0.023 A 
ATOM     76  C   UNL     1      -8.677 -10.684  17.345  1.00  0.00     0.031 A 
ATOM     77  C   UNL     1     -11.046 -10.538  16.926  1.00  0.00     0.131 A 
ATOM     78  C   UNL     1      -8.960 -11.306  18.570  1.00  0.00     0.055 A 
ATOM     79  C   UNL     1     -11.322 -11.084  18.180  1.00  0.00     0.041 A 
ATOM     80  F   UNL     1     -12.090 -10.218  16.146  1.00  0.00    -0.206 F 
ATOM     81  C   UNL     1     -10.276 -11.486  19.003  1.00  0.00     0.022 A 
BRANCH  78  82
ATOM     82  S   UNL     1      -7.586 -11.983  19.542  1.00  0.00     0.124 S 
ATOM     83  O   UNL     1      -6.974 -12.909  18.595  1.00  0.00    -0.237 OA
ATOM     84  O   UNL     1      -6.809 -10.789  19.859  1.00  0.00    -0.237 OA
ATOM     85  O   UNL     1      -8.250 -12.611  20.683  1.00  0.00    -0.744 OA
ENDBRANCH  78  82
ENDBRANCH  52  75
ENDBRANCH  26  27
ENDBRANCH  18  21
ENDBRANCH  16  17
ENDBRANCH   1  16
TORSDOF 15
