REMARK SMILES COc1ccc(F)c(NC(=O)N[C@H]2CCC[C@H]2C(=O)NCCCCNC(=O)c2ccc(-c3c4nc(c(-c5cc(S(=O)(=O)[O-])ccc5F)c5ccc([nH]5)c(-c5cc(S(=O)(=O)[O-])ccc5F)c5nc(c(-c6cc(S(=O)(=O)[O-])ccc6F)c6ccc3[nH]6)C=C5)C=C4)cc2)c1
REMARK SMILES IDX 22 1 21 2 20 3 18 4 19 5 17 7 13 8 14 9 15 10 16 11 12 12
REMARK SMILES IDX 9 13 10 14 11 16 8 18 3 19 4 20 91 21 5 22 6 23 7 24 2 25
REMARK SMILES IDX 1 26 23 27 24 28 25 29 26 30 27 32 28 33 29 34 90 35 30 36
REMARK SMILES IDX 89 37 31 38 32 39 33 40 83 41 34 42 88 43 82 44 84 45 35 46
REMARK SMILES IDX 87 47 81 48 80 49 36 51 68 52 48 53 67 54 49 55 52 56 66 57
REMARK SMILES IDX 85 58 50 59 51 60 65 62 86 63 53 64 37 65 38 66 46 67 39 68
REMARK SMILES IDX 45 69 47 70 44 71 40 72 41 73 42 74 43 75 69 76 70 77 78 78
REMARK SMILES IDX 71 79 77 80 79 81 76 82 72 83 73 84 74 85 75 86 54 87 55 88
REMARK SMILES IDX 63 89 56 90 62 91 64 92 61 93 57 94 58 95 59 96 60 97
REMARK H PARENT 20 6 9 15 12 17 25 31 84 50 52 61
REMARK Flexibility Score: inf
ROOT
ATOM      1  C   UNL     1      -2.868   0.687   0.620  1.00  0.00     0.023 C 
ENDROOT
BRANCH   1   2
ATOM      2  C   UNL     1      -2.111  -0.458  -0.046  1.00  0.00     0.116 C 
BRANCH   2   3
ATOM      3  N   UNL     1      -2.860  -0.960  -1.173  1.00  0.00    -0.356 N 
ATOM      4  C   UNL     1      -2.661  -0.772  -2.499  1.00  0.00     0.225 C 
ATOM      5  O   UNL     1      -3.563  -1.118  -3.267  1.00  0.00    -0.275 OA
ATOM      6  H   UNL     1      -3.632  -1.526  -0.942  1.00  0.00     0.163 HD
BRANCH   4   7
ATOM      7  C   UNL     1      -1.368  -0.214  -3.055  1.00  0.00     0.101 C 
ATOM      8  C   UNL     1      -1.127   1.306  -3.084  1.00  0.00     0.096 C 
ATOM      9  C   UNL     1       0.392   1.359  -3.328  1.00  0.00     0.026 C 
ATOM     10  C   UNL     1       0.952   0.221  -2.483  1.00  0.00     0.003 C 
ATOM     11  C   UNL     1      -0.066  -0.900  -2.628  1.00  0.00     0.016 C 
BRANCH   8  12
ATOM     12  N   UNL     1      -1.409   2.144  -1.929  1.00  0.00    -0.334 N 
ATOM     13  N   UNL     1      -2.393   4.213  -2.656  1.00  0.00    -0.305 N 
ATOM     14  C   UNL     1      -1.905   3.376  -1.728  1.00  0.00     0.319 C 
ATOM     15  H   UNL     1      -2.891   4.955  -2.242  1.00  0.00     0.171 HD
ATOM     16  O   UNL     1      -1.982   3.739  -0.547  1.00  0.00    -0.248 OA
ATOM     17  H   UNL     1      -1.178   1.696  -1.083  1.00  0.00     0.165 HD
BRANCH  13  18
ATOM     18  C   UNL     1      -2.389   4.321  -4.057  1.00  0.00     0.082 A 
ATOM     19  C   UNL     1      -1.701   3.601  -6.255  1.00  0.00     0.121 A 
ATOM     20  C   UNL     1      -2.804   4.237  -6.819  1.00  0.00     0.049 A 
ATOM     21  C   UNL     1      -1.442   3.742  -4.892  1.00  0.00     0.075 A 
ATOM     22  C   UNL     1      -3.633   5.023  -6.026  1.00  0.00     0.045 A 
ATOM     23  C   UNL     1      -3.430   5.045  -4.650  1.00  0.00     0.147 A 
ATOM     24  F   UNL     1      -4.295   5.724  -3.880  1.00  0.00    -0.205 F 
BRANCH  19  25
ATOM     25  O   UNL     1      -1.056   2.719  -7.072  1.00  0.00    -0.497 OA
ATOM     26  C   UNL     1       0.360   2.668  -7.005  1.00  0.00     0.278 C 
ENDBRANCH  19  25
ENDBRANCH  13  18
ENDBRANCH   8  12
ENDBRANCH   4   7
ENDBRANCH   2   3
ENDBRANCH   1   2
BRANCH   1  27
ATOM     27  C   UNL     1      -4.039   0.246   1.489  1.00  0.00     0.023 C 
BRANCH  27  28
ATOM     28  C   UNL     1      -3.681  -0.766   2.565  1.00  0.00     0.116 C 
BRANCH  28  29
ATOM     29  N   UNL     1      -2.555  -0.362   3.390  1.00  0.00    -0.352 N 
ATOM     30  C   UNL     1      -2.346  -0.632   4.728  1.00  0.00     0.251 C 
ATOM     31  H   UNL     1      -1.857   0.169   2.942  1.00  0.00     0.163 HD
ATOM     32  O   UNL     1      -1.397  -0.163   5.321  1.00  0.00    -0.269 OA
BRANCH  30  33
ATOM     33  C   UNL     1      -3.348  -1.473   5.415  1.00  0.00     0.039 A 
ATOM     34  C   UNL     1      -3.987  -0.964   6.545  1.00  0.00     0.014 A 
ATOM     35  C   UNL     1      -3.726  -2.699   4.864  1.00  0.00     0.014 A 
ATOM     36  C   UNL     1      -5.063  -1.664   7.090  1.00  0.00     0.010 A 
ATOM     37  C   UNL     1      -4.852  -3.347   5.354  1.00  0.00     0.010 A 
ATOM     38  C   UNL     1      -5.527  -2.839   6.474  1.00  0.00    -0.014 A 
BRANCH  38  39
ATOM     39  C   UNL     1      -6.699  -3.576   7.006  1.00  0.00     0.031 A 
ATOM     40  C   UNL     1      -6.516  -4.981   7.510  1.00  0.00     0.074 A 
ATOM     41  C   UNL     1      -7.921  -3.009   6.981  1.00  0.00     0.049 A 
ATOM     42  N   UNL     1      -7.418  -5.836   7.915  1.00  0.00    -0.248 NA
ATOM     43  C   UNL     1      -5.141  -5.507   7.524  1.00  0.00     0.031 C 
ATOM     44  C   UNL     1      -8.225  -1.668   6.476  1.00  0.00     0.029 A 
ATOM     45  N   UNL     1      -9.139  -3.490   7.391  1.00  0.00    -0.354 N 
ATOM     46  C   UNL     1      -6.723  -7.004   8.207  1.00  0.00     0.074 A 
ATOM     47  C   UNL     1      -5.335  -6.768   7.877  1.00  0.00     0.031 C 
ATOM     48  C   UNL     1      -9.534  -1.420   6.643  1.00  0.00     0.029 A 
ATOM     49  C   UNL     1     -10.172  -2.597   7.225  1.00  0.00     0.049 A 
ATOM     50  H   UNL     1      -9.262  -4.391   7.769  1.00  0.00     0.167 HD
ATOM     51  C   UNL     1      -7.196  -8.159   8.731  1.00  0.00     0.034 A 
ATOM     52  C   UNL     1     -11.485  -2.718   7.505  1.00  0.00     0.034 A 
ATOM     53  C   UNL     1      -8.570  -8.361   9.105  1.00  0.00     0.049 A 
ATOM     54  C   UNL     1     -11.987  -4.009   8.094  1.00  0.00     0.074 A 
ATOM     55  C   UNL     1      -9.142  -9.464   9.711  1.00  0.00     0.029 A 
ATOM     56  N   UNL     1      -9.587  -7.434   8.916  1.00  0.00    -0.354 N 
ATOM     57  N   UNL     1     -11.313  -5.100   8.378  1.00  0.00    -0.248 NA
ATOM     58  C   UNL     1     -13.422  -4.090   8.396  1.00  0.00     0.031 C 
ATOM     59  C   UNL     1     -10.513  -9.225   9.845  1.00  0.00     0.029 A 
ATOM     60  C   UNL     1     -10.786  -7.950   9.375  1.00  0.00     0.049 A 
ATOM     61  H   UNL     1      -9.471  -6.542   8.516  1.00  0.00     0.167 HD
ATOM     62  C   UNL     1     -12.241  -5.991   8.905  1.00  0.00     0.074 A 
ATOM     63  C   UNL     1     -13.520  -5.310   8.908  1.00  0.00     0.031 C 
ATOM     64  C   UNL     1     -12.051  -7.258   9.352  1.00  0.00     0.034 A 
BRANCH  51  65
ATOM     65  C   UNL     1      -6.220  -9.287   8.925  1.00  0.00     0.023 A 
ATOM     66  C   UNL     1      -5.180  -9.204   9.867  1.00  0.00     0.031 A 
ATOM     67  C   UNL     1      -6.331 -10.461   8.161  1.00  0.00     0.131 A 
ATOM     68  C   UNL     1      -4.258 -10.254   9.982  1.00  0.00     0.055 A 
ATOM     69  C   UNL     1      -5.451 -11.532   8.330  1.00  0.00     0.041 A 
ATOM     70  F   UNL     1      -7.294 -10.584   7.234  1.00  0.00    -0.206 F 
ATOM     71  C   UNL     1      -4.401 -11.428   9.239  1.00  0.00     0.022 A 
BRANCH  68  72
ATOM     72  S   UNL     1      -2.818 -10.030  11.060  1.00  0.00     0.124 S 
ATOM     73  O   UNL     1      -2.086  -8.981  10.355  1.00  0.00    -0.237 OA
ATOM     74  O   UNL     1      -3.425  -9.644  12.328  1.00  0.00    -0.237 OA
ATOM     75  O   UNL     1      -2.177 -11.344  11.051  1.00  0.00    -0.744 OA
ENDBRANCH  68  72
ENDBRANCH  51  65
BRANCH  52  76
ATOM     76  C   UNL     1     -12.414  -1.588   7.230  1.00  0.00     0.023 A 
ATOM     77  C   UNL     1     -12.986  -0.853   8.279  1.00  0.00     0.031 A 
ATOM     78  C   UNL     1     -12.737  -1.223   5.911  1.00  0.00     0.131 A 
ATOM     79  C   UNL     1     -13.871   0.198   7.993  1.00  0.00     0.055 A 
ATOM     80  C   UNL     1     -13.590  -0.155   5.631  1.00  0.00     0.041 A 
ATOM     81  F   UNL     1     -12.205  -1.889   4.874  1.00  0.00    -0.206 F 
ATOM     82  C   UNL     1     -14.168   0.560   6.676  1.00  0.00     0.022 A 
BRANCH  79  83
ATOM     83  S   UNL     1     -14.652   1.081   9.373  1.00  0.00     0.124 S 
ATOM     84  O   UNL     1     -15.472   0.033   9.969  1.00  0.00    -0.237 OA
ATOM     85  O   UNL     1     -13.497   1.515  10.152  1.00  0.00    -0.237 OA
ATOM     86  O   UNL     1     -15.392   2.155   8.713  1.00  0.00    -0.744 OA
ENDBRANCH  79  83
ENDBRANCH  52  76
BRANCH  64  87
ATOM     87  C   UNL     1     -13.247  -7.986   9.899  1.00  0.00     0.023 A 
ATOM     88  C   UNL     1     -14.246  -8.487   9.049  1.00  0.00     0.031 A 
ATOM     89  C   UNL     1     -13.352  -8.235  11.278  1.00  0.00     0.131 A 
ATOM     90  C   UNL     1     -15.324  -9.200   9.592  1.00  0.00     0.055 A 
ATOM     91  C   UNL     1     -14.405  -8.980  11.807  1.00  0.00     0.041 A 
ATOM     92  F   UNL     1     -12.417  -7.779  12.127  1.00  0.00    -0.206 F 
ATOM     93  C   UNL     1     -15.400  -9.465  10.963  1.00  0.00     0.022 A 
BRANCH  90  94
ATOM     94  S   UNL     1     -16.641  -9.769   8.483  1.00  0.00     0.124 S 
ATOM     95  O   UNL     1     -17.232  -8.508   8.046  1.00  0.00    -0.237 OA
ATOM     96  O   UNL     1     -15.903 -10.512   7.468  1.00  0.00    -0.237 OA
ATOM     97  O   UNL     1     -17.490 -10.584   9.350  1.00  0.00    -0.744 OA
ENDBRANCH  90  94
ENDBRANCH  64  87
ENDBRANCH  38  39
ENDBRANCH  30  33
ENDBRANCH  28  29
ENDBRANCH  27  28
ENDBRANCH   1  27
TORSDOF 17
