REMARK SMILES CCc1ccc(S(=O)(=O)N2CCC3(CC2)NC(=O)C[C@H]3C(=O)NCCCCNC(=O)c2ccc(-c3c4nc(c(-c5cc(S(=O)(=O)[O-])ccc5F)c5ccc([nH]5)c(-c5cc(S(=O)(=O)[O-])ccc5F)c5nc(c(-c6cc(S(=O)(=O)[O-])ccc6F)c6ccc3[nH]6)C=C5)C=C4)cc2)s1
REMARK SMILES IDX 25 1 24 2 23 3 21 4 22 5 20 7 10 8 11 9 15 10 12 11 14 12
REMARK SMILES IDX 13 13 16 14 17 15 19 17 18 18 7 19 8 20 9 21 6 22 3 23 4 24
REMARK SMILES IDX 94 25 5 26 2 27 1 28 26 29 27 30 28 31 29 32 30 34 31 35
REMARK SMILES IDX 32 36 93 37 33 38 92 39 34 40 35 41 36 42 86 43 37 44 91 45
REMARK SMILES IDX 85 46 87 47 38 48 90 49 84 50 83 51 39 53 71 54 51 55 70 56
REMARK SMILES IDX 52 57 55 58 69 59 88 60 53 61 54 62 68 64 89 65 56 66 40 67
REMARK SMILES IDX 41 68 49 69 42 70 48 71 50 72 47 73 43 74 44 75 45 76 46 77
REMARK SMILES IDX 72 78 73 79 81 80 74 81 80 82 82 83 79 84 75 85 76 86 77 87
REMARK SMILES IDX 78 88 57 89 58 90 66 91 59 92 65 93 67 94 64 95 60 96 61 97
REMARK SMILES IDX 62 98 63 99
REMARK H PARENT 23 6 16 16 28 33 87 52 55 63
REMARK Flexibility Score: inf
ROOT
ATOM      1  C   UNL     1      -0.648   2.158   5.702  1.00  0.00     0.023 C 
ENDROOT
BRANCH   1   2
ATOM      2  C   UNL     1       0.395   3.081   6.337  1.00  0.00     0.116 C 
BRANCH   2   3
ATOM      3  N   UNL     1       0.822   2.658   7.662  1.00  0.00    -0.356 N 
ATOM      4  C   UNL     1       1.919   2.031   8.155  1.00  0.00     0.226 C 
ATOM      5  O   UNL     1       1.937   1.848   9.379  1.00  0.00    -0.275 OA
ATOM      6  H   UNL     1       0.163   2.876   8.361  1.00  0.00     0.163 HD
BRANCH   4   7
ATOM      7  C   UNL     1       3.107   1.521   7.338  1.00  0.00     0.113 C 
ATOM      8  N   UNL     1       2.780  -2.495   6.325  1.00  0.00    -0.197 NA
ATOM      9  C   UNL     1       4.117  -1.923   6.435  1.00  0.00     0.105 C 
ATOM     10  C   UNL     1       1.776  -1.770   7.093  1.00  0.00     0.105 C 
ATOM     11  C   UNL     1       4.160  -0.439   6.070  1.00  0.00     0.046 C 
ATOM     12  C   UNL     1       1.579  -0.408   6.467  1.00  0.00     0.046 C 
ATOM     13  C   UNL     1       2.863   0.427   6.269  1.00  0.00     0.055 C 
ATOM     14  N   UNL     1       2.747   1.272   5.081  1.00  0.00    -0.350 N 
ATOM     15  C   UNL     1       3.430   2.464   5.178  1.00  0.00     0.221 C 
ATOM     16  H   UNL     1       2.229   1.012   4.285  1.00  0.00     0.164 HD
ATOM     17  C   UNL     1       3.846   2.653   6.607  1.00  0.00     0.116 C 
ATOM     18  O   UNL     1       3.627   3.228   4.251  1.00  0.00    -0.275 OA
BRANCH   8  19
ATOM     19  S   UNL     1       2.326  -3.573   5.100  1.00  0.00     0.252 S 
ATOM     20  O   UNL     1       1.117  -4.226   5.513  1.00  0.00    -0.206 OA
ATOM     21  O   UNL     1       3.513  -4.318   4.706  1.00  0.00    -0.206 OA
BRANCH  19  22
ATOM     22  C   UNL     1       1.906  -2.637   3.633  1.00  0.00     0.135 A 
ATOM     23  C   UNL     1       0.873  -1.972   1.471  1.00  0.00     0.006 A 
ATOM     24  C   UNL     1       1.696  -0.994   1.986  1.00  0.00     0.017 A 
ATOM     25  S   UNL     1       0.786  -3.327   2.533  1.00  0.00    -0.127 S 
ATOM     26  C   UNL     1       2.368  -1.434   3.149  1.00  0.00     0.034 A 
BRANCH  23  27
ATOM     27  C   UNL     1       0.131  -1.980   0.162  1.00  0.00     0.043 C 
ATOM     28  C   UNL     1       0.434  -0.760  -0.704  1.00  0.00     0.010 C 
ENDBRANCH  23  27
ENDBRANCH  19  22
ENDBRANCH   8  19
ENDBRANCH   4   7
ENDBRANCH   2   3
ENDBRANCH   1   2
BRANCH   1  29
ATOM     29  C   UNL     1      -2.019   2.177   6.377  1.00  0.00     0.023 C 
BRANCH  29  30
ATOM     30  C   UNL     1      -2.695   3.539   6.380  1.00  0.00     0.116 C 
BRANCH  30  31
ATOM     31  N   UNL     1      -2.811   4.122   5.051  1.00  0.00    -0.352 N 
ATOM     32  C   UNL     1      -3.813   4.921   4.557  1.00  0.00     0.251 C 
ATOM     33  H   UNL     1      -2.078   3.917   4.426  1.00  0.00     0.163 HD
ATOM     34  O   UNL     1      -3.825   5.234   3.372  1.00  0.00    -0.269 OA
BRANCH  32  35
ATOM     35  C   UNL     1      -4.892   5.350   5.468  1.00  0.00     0.039 A 
ATOM     36  C   UNL     1      -6.219   5.163   5.079  1.00  0.00     0.014 A 
ATOM     37  C   UNL     1      -4.584   5.866   6.730  1.00  0.00     0.014 A 
ATOM     38  C   UNL     1      -7.242   5.428   5.990  1.00  0.00     0.010 A 
ATOM     39  C   UNL     1      -5.597   6.048   7.661  1.00  0.00     0.010 A 
ATOM     40  C   UNL     1      -6.936   5.833   7.300  1.00  0.00    -0.014 A 
BRANCH  40  41
ATOM     41  C   UNL     1      -8.002   6.053   8.307  1.00  0.00     0.031 A 
ATOM     42  C   UNL     1      -8.204   7.425   8.887  1.00  0.00     0.074 A 
ATOM     43  C   UNL     1      -8.730   5.008   8.748  1.00  0.00     0.049 A 
ATOM     44  N   UNL     1      -9.012   7.811   9.840  1.00  0.00    -0.248 NA
ATOM     45  C   UNL     1      -7.354   8.498   8.348  1.00  0.00     0.031 C 
ATOM     46  C   UNL     1      -8.585   3.623   8.294  1.00  0.00     0.029 A 
ATOM     47  N   UNL     1      -9.733   4.946   9.681  1.00  0.00    -0.354 N 
ATOM     48  C   UNL     1      -8.756   9.165  10.027  1.00  0.00     0.074 A 
ATOM     49  C   UNL     1      -7.668   9.512   9.137  1.00  0.00     0.031 C 
ATOM     50  C   UNL     1      -9.487   2.855   8.927  1.00  0.00     0.029 A 
ATOM     51  C   UNL     1     -10.245   3.682   9.860  1.00  0.00     0.049 A 
ATOM     52  H   UNL     1     -10.057   5.733  10.176  1.00  0.00     0.167 HD
ATOM     53  C   UNL     1      -9.390  10.043  10.842  1.00  0.00     0.034 A 
ATOM     54  C   UNL     1     -11.213   3.242  10.687  1.00  0.00     0.034 A 
ATOM     55  C   UNL     1     -10.486   9.681  11.705  1.00  0.00     0.049 A 
ATOM     56  C   UNL     1     -11.904   4.236  11.585  1.00  0.00     0.074 A 
ATOM     57  C   UNL     1     -11.236  10.493  12.538  1.00  0.00     0.029 A 
ATOM     58  N   UNL     1     -10.992   8.394  11.847  1.00  0.00    -0.354 N 
ATOM     59  N   UNL     1     -11.681   5.523  11.719  1.00  0.00    -0.248 NA
ATOM     60  C   UNL     1     -12.985   3.720  12.433  1.00  0.00     0.031 C 
ATOM     61  C   UNL     1     -12.157   9.690  13.221  1.00  0.00     0.029 A 
ATOM     62  C   UNL     1     -12.028   8.387  12.767  1.00  0.00     0.049 A 
ATOM     63  H   UNL     1     -10.661   7.602  11.364  1.00  0.00     0.167 HD
ATOM     64  C   UNL     1     -12.616   5.975  12.645  1.00  0.00     0.074 A 
ATOM     65  C   UNL     1     -13.413   4.826  13.023  1.00  0.00     0.031 C 
ATOM     66  C   UNL     1     -12.804   7.227  13.137  1.00  0.00     0.034 A 
BRANCH  53  67
ATOM     67  C   UNL     1      -8.890  11.469  10.842  1.00  0.00     0.023 A 
ATOM     68  C   UNL     1      -8.938  12.264   9.683  1.00  0.00     0.031 A 
ATOM     69  C   UNL     1      -8.317  12.026  11.998  1.00  0.00     0.131 A 
ATOM     70  C   UNL     1      -8.345  13.535   9.679  1.00  0.00     0.055 A 
ATOM     71  C   UNL     1      -7.806  13.326  12.012  1.00  0.00     0.041 A 
ATOM     72  F   UNL     1      -8.224  11.310  13.129  1.00  0.00    -0.206 F 
ATOM     73  C   UNL     1      -7.802  14.082  10.843  1.00  0.00     0.022 A 
BRANCH  70  74
ATOM     74  S   UNL     1      -8.156  14.396   8.094  1.00  0.00     0.124 S 
ATOM     75  O   UNL     1      -7.330  13.452   7.345  1.00  0.00    -0.237 OA
ATOM     76  O   UNL     1      -9.535  14.535   7.644  1.00  0.00    -0.237 OA
ATOM     77  O   UNL     1      -7.488  15.643   8.459  1.00  0.00    -0.744 OA
ENDBRANCH  70  74
ENDBRANCH  53  67
BRANCH  54  78
ATOM     78  C   UNL     1     -11.595   1.802  10.707  1.00  0.00     0.023 A 
ATOM     79  C   UNL     1     -12.868   1.390  10.283  1.00  0.00     0.031 A 
ATOM     80  C   UNL     1     -10.708   0.821  11.184  1.00  0.00     0.131 A 
ATOM     81  C   UNL     1     -13.238   0.040  10.389  1.00  0.00     0.055 A 
ATOM     82  C   UNL     1     -11.063  -0.528  11.242  1.00  0.00     0.041 A 
ATOM     83  F   UNL     1      -9.475   1.161  11.592  1.00  0.00    -0.206 F 
ATOM     84  C   UNL     1     -12.340  -0.923  10.855  1.00  0.00     0.022 A 
BRANCH  81  85
ATOM     85  S   UNL     1     -14.942  -0.427   9.978  1.00  0.00     0.124 S 
ATOM     86  O   UNL     1     -15.708   0.406  10.897  1.00  0.00    -0.237 OA
ATOM     87  O   UNL     1     -15.021  -0.067   8.566  1.00  0.00    -0.237 OA
ATOM     88  O   UNL     1     -14.977  -1.861  10.256  1.00  0.00    -0.744 OA
ENDBRANCH  81  85
ENDBRANCH  54  78
BRANCH  66  89
ATOM     89  C   UNL     1     -13.946   7.413  14.103  1.00  0.00     0.023 A 
ATOM     90  C   UNL     1     -13.929   6.841  15.386  1.00  0.00     0.031 A 
ATOM     91  C   UNL     1     -15.075   8.161  13.724  1.00  0.00     0.131 A 
ATOM     92  C   UNL     1     -15.044   6.979  16.226  1.00  0.00     0.055 A 
ATOM     93  C   UNL     1     -16.157   8.343  14.585  1.00  0.00     0.041 A 
ATOM     94  F   UNL     1     -15.143   8.728  12.509  1.00  0.00    -0.206 F 
ATOM     95  C   UNL     1     -16.151   7.739  15.839  1.00  0.00     0.022 A 
BRANCH  92  96
ATOM     96  S   UNL     1     -15.066   6.075  17.798  1.00  0.00     0.124 S 
ATOM     97  O   UNL     1     -14.917   4.692  17.355  1.00  0.00    -0.237 OA
ATOM     98  O   UNL     1     -13.922   6.645  18.502  1.00  0.00    -0.237 OA
ATOM     99  O   UNL     1     -16.371   6.407  18.367  1.00  0.00    -0.744 OA
ENDBRANCH  92  96
ENDBRANCH  66  89
ENDBRANCH  40  41
ENDBRANCH  32  35
ENDBRANCH  30  31
ENDBRANCH  29  30
ENDBRANCH   1  29
TORSDOF 17
