REMARK SMILES NS(=O)(=O)c1ccc(NS(=O)(=O)c2cccc(C(=O)NCCCCNC(=O)c3ccc(-c4c5nc(c(-c6cc(S(=O)(=O)[O-])ccc6F)c6ccc([nH]6)c(-c6cc(S(=O)(=O)[O-])ccc6F)c6nc(c(-c7cc(S(=O)(=O)[O-])ccc7F)c7ccc4[nH]7)C=C6)C=C5)cc3)c2)cc1
REMARK SMILES IDX 21 1 20 2 18 3 19 4 17 6 13 7 14 8 91 9 15 10 16 11 10 12
REMARK SMILES IDX 11 13 12 14 9 15 8 17 5 18 6 19 93 20 7 21 92 22 2 23 3 24
REMARK SMILES IDX 4 25 1 26 22 29 23 30 24 31 25 32 26 33 27 35 28 36 29 37
REMARK SMILES IDX 90 38 30 39 89 40 31 41 32 42 33 43 83 44 34 45 88 46 82 47
REMARK SMILES IDX 84 48 35 49 87 50 81 51 80 52 36 54 68 55 48 56 67 57 49 58
REMARK SMILES IDX 52 59 66 60 85 61 50 62 51 63 65 65 86 66 53 67 37 68 38 69
REMARK SMILES IDX 46 70 39 71 45 72 47 73 44 74 40 75 41 76 42 77 43 78 69 79
REMARK SMILES IDX 70 80 78 81 71 82 77 83 79 84 76 85 72 86 73 87 74 88 75 89
REMARK SMILES IDX 54 90 55 91 63 92 56 93 62 94 64 95 61 96 57 97 58 98 59 99
REMARK SMILES IDX 60 100
REMARK H PARENT 20 5 9 16 1 27 1 28 25 34 84 53 52 64
REMARK Flexibility Score: inf
ROOT
ATOM      1  C   UNL     1       5.458  -0.039   8.033  1.00  0.00     0.116 C 
ENDROOT
BRANCH   1   2
ATOM      2  N   UNL     1       5.192  -1.297   7.342  1.00  0.00    -0.352 N 
ATOM      3  C   UNL     1       4.114  -1.757   6.613  1.00  0.00     0.251 C 
ATOM      4  O   UNL     1       4.163  -2.884   6.123  1.00  0.00    -0.269 OA
ATOM      5  H   UNL     1       5.928  -1.948   7.410  1.00  0.00     0.163 HD
BRANCH   3   6
ATOM      6  C   UNL     1       2.873  -0.958   6.433  1.00  0.00     0.041 A 
ATOM      7  C   UNL     1       1.708   1.165   6.486  1.00  0.00     0.088 A 
ATOM      8  C   UNL     1       0.475   0.531   6.366  1.00  0.00     0.022 A 
ATOM      9  C   UNL     1       2.891   0.426   6.419  1.00  0.00     0.036 A 
ATOM     10  C   UNL     1       0.452  -0.857   6.193  1.00  0.00     0.002 A 
ATOM     11  C   UNL     1       1.642  -1.600   6.254  1.00  0.00     0.014 A 
BRANCH   7  12
ATOM     12  S   UNL     1       1.874   2.916   6.701  1.00  0.00     0.261 S 
ATOM     13  O   UNL     1       3.283   3.246   6.676  1.00  0.00    -0.201 OA
ATOM     14  O   UNL     1       1.058   3.276   7.841  1.00  0.00    -0.201 OA
BRANCH  12  15
ATOM     15  N   UNL     1       1.171   3.641   5.374  1.00  0.00    -0.280 N 
ATOM     16  H   UNL     1       0.510   4.348   5.556  1.00  0.00     0.180 HD
BRANCH  15  17
ATOM     17  C   UNL     1       1.428   3.344   4.002  1.00  0.00     0.049 A 
ATOM     18  C   UNL     1       0.997   2.535   1.355  1.00  0.00     0.082 A 
ATOM     19  C   UNL     1       1.662   1.691   2.235  1.00  0.00     0.024 A 
ATOM     20  C   UNL     1       0.639   3.824   1.752  1.00  0.00     0.024 A 
ATOM     21  C   UNL     1       1.894   2.113   3.542  1.00  0.00     0.028 A 
ATOM     22  C   UNL     1       0.847   4.218   3.077  1.00  0.00     0.028 A 
BRANCH  18  23
ATOM     23  S   UNL     1       0.505   1.972  -0.243  1.00  0.00     0.238 S 
ATOM     24  O   UNL     1       1.194   2.755  -1.235  1.00  0.00    -0.207 OA
ATOM     25  O   UNL     1      -0.933   1.804  -0.230  1.00  0.00    -0.207 OA
BRANCH  23  26
ATOM     26  N   UNL     1       1.136   0.419  -0.355  1.00  0.00    -0.225 NA
ATOM     27  H   UNL     1       0.893   0.018  -1.261  1.00  0.00     0.137 HD
ATOM     28  H   UNL     1       0.747  -0.161   0.389  1.00  0.00     0.137 HD
ENDBRANCH  23  26
ENDBRANCH  18  23
ENDBRANCH  15  17
ENDBRANCH  12  15
ENDBRANCH   7  12
ENDBRANCH   3   6
ENDBRANCH   1   2
BRANCH   1  29
ATOM     29  C   UNL     1       5.655  -0.164   9.534  1.00  0.00     0.023 C 
BRANCH  29  30
ATOM     30  C   UNL     1       6.975  -0.771   9.975  1.00  0.00     0.023 C 
BRANCH  30  31
ATOM     31  C   UNL     1       8.222  -0.171   9.335  1.00  0.00     0.116 C 
BRANCH  31  32
ATOM     32  N   UNL     1       8.327   1.276   9.475  1.00  0.00    -0.352 N 
ATOM     33  C   UNL     1       9.409   2.029   9.873  1.00  0.00     0.251 C 
ATOM     34  H   UNL     1       7.514   1.784   9.254  1.00  0.00     0.163 HD
ATOM     35  O   UNL     1       9.297   3.242  10.016  1.00  0.00    -0.269 OA
BRANCH  33  36
ATOM     36  C   UNL     1      10.688   1.352  10.174  1.00  0.00     0.039 A 
ATOM     37  C   UNL     1      11.323   1.619  11.388  1.00  0.00     0.014 A 
ATOM     38  C   UNL     1      11.213   0.401   9.296  1.00  0.00     0.014 A 
ATOM     39  C   UNL     1      12.434   0.861  11.763  1.00  0.00     0.010 A 
ATOM     40  C   UNL     1      12.261  -0.413   9.712  1.00  0.00     0.010 A 
ATOM     41  C   UNL     1      12.879  -0.198  10.954  1.00  0.00    -0.014 A 
BRANCH  41  42
ATOM     42  C   UNL     1      13.977  -1.098  11.398  1.00  0.00     0.031 A 
ATOM     43  C   UNL     1      15.249  -1.186  10.598  1.00  0.00     0.074 A 
ATOM     44  C   UNL     1      13.803  -1.878  12.485  1.00  0.00     0.049 A 
ATOM     45  N   UNL     1      16.292  -1.953  10.786  1.00  0.00    -0.248 NA
ATOM     46  C   UNL     1      15.348  -0.319   9.413  1.00  0.00     0.031 C 
ATOM     47  C   UNL     1      12.594  -1.917  13.312  1.00  0.00     0.029 A 
ATOM     48  N   UNL     1      14.637  -2.792  13.080  1.00  0.00    -0.354 N 
ATOM     49  C   UNL     1      17.164  -1.670   9.740  1.00  0.00     0.074 A 
ATOM     50  C   UNL     1      16.499  -0.709   8.887  1.00  0.00     0.031 C 
ATOM     51  C   UNL     1      12.778  -2.783  14.322  1.00  0.00     0.029 A 
ATOM     52  C   UNL     1      14.092  -3.402  14.188  1.00  0.00     0.049 A 
ATOM     53  H   UNL     1      15.540  -2.993  12.745  1.00  0.00     0.167 HD
ATOM     54  C   UNL     1      18.414  -2.150   9.525  1.00  0.00     0.034 A 
ATOM     55  C   UNL     1      14.589  -4.360  14.997  1.00  0.00     0.034 A 
ATOM     56  C   UNL     1      19.068  -3.096  10.395  1.00  0.00     0.049 A 
ATOM     57  C   UNL     1      15.974  -4.893  14.722  1.00  0.00     0.074 A 
ATOM     58  C   UNL     1      20.355  -3.599  10.306  1.00  0.00     0.029 A 
ATOM     59  N   UNL     1      18.487  -3.692  11.507  1.00  0.00    -0.354 N 
ATOM     60  N   UNL     1      16.811  -4.565  13.764  1.00  0.00    -0.248 NA
ATOM     61  C   UNL     1      16.486  -5.916  15.643  1.00  0.00     0.031 C 
ATOM     62  C   UNL     1      20.523  -4.554  11.313  1.00  0.00     0.029 A 
ATOM     63  C   UNL     1      19.375  -4.584  12.088  1.00  0.00     0.049 A 
ATOM     64  H   UNL     1      17.577  -3.508  11.835  1.00  0.00     0.167 HD
ATOM     65  C   UNL     1      17.960  -5.319  13.990  1.00  0.00     0.074 A 
ATOM     66  C   UNL     1      17.715  -6.098  15.185  1.00  0.00     0.031 C 
ATOM     67  C   UNL     1      19.114  -5.363  13.276  1.00  0.00     0.034 A 
BRANCH  54  68
ATOM     68  C   UNL     1      19.144  -1.676   8.291  1.00  0.00     0.023 A 
ATOM     69  C   UNL     1      19.491  -0.326   8.108  1.00  0.00     0.031 A 
ATOM     70  C   UNL     1      19.498  -2.589   7.282  1.00  0.00     0.131 A 
ATOM     71  C   UNL     1      20.113   0.083   6.918  1.00  0.00     0.055 A 
ATOM     72  C   UNL     1      20.189  -2.189   6.137  1.00  0.00     0.041 A 
ATOM     73  F   UNL     1      19.173  -3.887   7.389  1.00  0.00    -0.206 F 
ATOM     74  C   UNL     1      20.490  -0.844   5.944  1.00  0.00     0.022 A 
BRANCH  71  75
ATOM     75  S   UNL     1      20.306   1.859   6.606  1.00  0.00     0.124 S 
ATOM     76  O   UNL     1      18.920   2.317   6.642  1.00  0.00    -0.237 OA
ATOM     77  O   UNL     1      21.149   2.285   7.718  1.00  0.00    -0.237 OA
ATOM     78  O   UNL     1      20.938   1.909   5.289  1.00  0.00    -0.744 OA
ENDBRANCH  71  75
ENDBRANCH  54  68
BRANCH  55  79
ATOM     79  C   UNL     1      13.780  -4.899  16.131  1.00  0.00     0.023 A 
ATOM     80  C   UNL     1      14.218  -4.773  17.459  1.00  0.00     0.031 A 
ATOM     81  C   UNL     1      12.589  -5.609  15.898  1.00  0.00     0.131 A 
ATOM     82  C   UNL     1      13.507  -5.399  18.495  1.00  0.00     0.055 A 
ATOM     83  C   UNL     1      11.849  -6.174  16.939  1.00  0.00     0.041 A 
ATOM     84  F   UNL     1      12.121  -5.761  14.649  1.00  0.00    -0.206 F 
ATOM     85  C   UNL     1      12.317  -6.086  18.246  1.00  0.00     0.022 A 
BRANCH  82  86
ATOM     86  S   UNL     1      14.223  -5.402  20.163  1.00  0.00     0.124 S 
ATOM     87  O   UNL     1      15.526  -6.012  19.924  1.00  0.00    -0.237 OA
ATOM     88  O   UNL     1      14.229  -3.980  20.491  1.00  0.00    -0.237 OA
ATOM     89  O   UNL     1      13.284  -6.214  20.934  1.00  0.00    -0.744 OA
ENDBRANCH  82  86
ENDBRANCH  55  79
BRANCH  67  90
ATOM     90  C   UNL     1      20.214  -6.254  13.803  1.00  0.00     0.023 A 
ATOM     91  C   UNL     1      20.073  -7.651  13.861  1.00  0.00     0.031 A 
ATOM     92  C   UNL     1      21.417  -5.692  14.268  1.00  0.00     0.131 A 
ATOM     93  C   UNL     1      21.088  -8.433  14.432  1.00  0.00     0.055 A 
ATOM     94  C   UNL     1      22.452  -6.482  14.770  1.00  0.00     0.041 A 
ATOM     95  F   UNL     1      21.607  -4.363  14.240  1.00  0.00    -0.206 F 
ATOM     96  C   UNL     1      22.285  -7.860  14.868  1.00  0.00     0.022 A 
BRANCH  93  97
ATOM     97  S   UNL     1      20.779 -10.201  14.696  1.00  0.00     0.124 S 
ATOM     98  O   UNL     1      19.586 -10.178  15.536  1.00  0.00    -0.237 OA
ATOM     99  O   UNL     1      20.591 -10.692  13.335  1.00  0.00    -0.237 OA
ATOM    100  O   UNL     1      21.996 -10.666  15.360  1.00  0.00    -0.744 OA
ENDBRANCH  93  97
ENDBRANCH  67  90
ENDBRANCH  41  42
ENDBRANCH  33  36
ENDBRANCH  31  32
ENDBRANCH  30  31
ENDBRANCH  29  30
ENDBRANCH   1  29
TORSDOF 19
