REMARK SMILES CC[C@@H](NC(=O)[C@H](C)C[NH2+]C)C(=O)NCCCCNC(=O)c1ccc(-c2c3nc(c(-c4cc(S(=O)(=O)[O-])ccc4F)c4ccc([nH]4)c(-c4cc(S(=O)(=O)[O-])ccc4F)c4nc(c(-c5cc(S(=O)(=O)[O-])ccc5F)c5ccc2[nH]5)C=C4)C=C3)cc1
REMARK SMILES IDX 16 1 15 2 14 3 12 4 13 5 3 7 2 8 1 9 4 10 5 11 6 13 7 14
REMARK SMILES IDX 8 15 9 16 10 17 11 18 17 21 18 22 19 23 20 24 21 26 22 27
REMARK SMILES IDX 23 28 84 29 24 30 83 31 25 32 26 33 27 34 77 35 28 36 82 37
REMARK SMILES IDX 76 38 78 39 29 40 81 41 75 42 74 43 30 45 62 46 42 47 61 48
REMARK SMILES IDX 43 49 46 50 60 51 79 52 44 53 45 54 59 56 80 57 47 58 31 59
REMARK SMILES IDX 32 60 40 61 33 62 39 63 41 64 38 65 34 66 35 67 36 68 37 69
REMARK SMILES IDX 63 70 64 71 72 72 65 73 71 74 73 75 70 76 66 77 67 78 68 79
REMARK SMILES IDX 69 80 48 81 49 82 57 83 50 84 56 85 58 86 55 87 51 88 52 89
REMARK SMILES IDX 53 90 54 91
REMARK H PARENT 14 6 4 12 10 19 10 20 19 25 78 44 46 55
REMARK Flexibility Score: inf
ROOT
ATOM      1  C   UNL     1       2.826  -6.820   0.974  1.00  0.00     0.023 C 
ENDROOT
BRANCH   1   2
ATOM      2  C   UNL     1       1.831  -5.666   0.929  1.00  0.00     0.116 C 
BRANCH   2   3
ATOM      3  N   UNL     1       2.399  -4.426   1.445  1.00  0.00    -0.354 N 
ATOM      4  C   UNL     1       1.899  -3.153   1.387  1.00  0.00     0.242 C 
ATOM      5  O   UNL     1       2.504  -2.260   1.984  1.00  0.00    -0.273 OA
ATOM      6  H   UNL     1       3.267  -4.518   1.901  1.00  0.00     0.163 HD
BRANCH   4   7
ATOM      7  C   UNL     1       0.708  -2.824   0.469  1.00  0.00     0.171 C 
BRANCH   7   8
ATOM      8  C   UNL     1       1.285  -2.893  -0.972  1.00  0.00     0.031 C 
ATOM      9  C   UNL     1       0.306  -2.778  -2.125  1.00  0.00     0.006 C 
ENDBRANCH   7   8
BRANCH   7  10
ATOM     10  N   UNL     1      -0.460  -3.683   0.707  1.00  0.00    -0.344 N 
ATOM     11  C   UNL     1      -1.326  -3.779   1.759  1.00  0.00     0.229 C 
ATOM     12  H   UNL     1      -0.655  -4.306  -0.030  1.00  0.00     0.164 HD
ATOM     13  O   UNL     1      -2.392  -4.356   1.514  1.00  0.00    -0.275 OA
BRANCH  11  14
ATOM     14  C   UNL     1      -1.034  -3.315   3.197  1.00  0.00     0.130 C 
ATOM     15  C   UNL     1      -0.802  -1.814   3.321  1.00  0.00     0.024 C 
BRANCH  14  16
ATOM     16  C   UNL     1       0.000  -4.245   3.863  1.00  0.00     0.273 C 
BRANCH  16  17
ATOM     17  N   UNL     1       0.732  -3.712   5.015  1.00  0.00    -0.348 N 
ATOM     18  C   UNL     1       1.871  -4.570   5.349  1.00  0.00     0.330 C 
ATOM     19  H   UNL     1       0.104  -3.663   5.817  1.00  0.00     0.346 HD
ATOM     20  H   UNL     1       1.081  -2.783   4.780  1.00  0.00     0.346 HD
ENDBRANCH  16  17
ENDBRANCH  14  16
ENDBRANCH  11  14
ENDBRANCH   7  10
ENDBRANCH   4   7
ENDBRANCH   2   3
ENDBRANCH   1   2
BRANCH   1  21
ATOM     21  C   UNL     1       3.276  -7.221   2.381  1.00  0.00     0.023 C 
BRANCH  21  22
ATOM     22  C   UNL     1       2.159  -7.678   3.316  1.00  0.00     0.116 C 
BRANCH  22  23
ATOM     23  N   UNL     1       1.581  -8.946   2.910  1.00  0.00    -0.352 N 
ATOM     24  C   UNL     1       1.565 -10.143   3.582  1.00  0.00     0.251 C 
ATOM     25  H   UNL     1       1.139  -8.948   2.030  1.00  0.00     0.163 HD
ATOM     26  O   UNL     1       1.189 -11.159   2.997  1.00  0.00    -0.269 OA
BRANCH  24  27
ATOM     27  C   UNL     1       2.030 -10.220   4.985  1.00  0.00     0.039 A 
ATOM     28  C   UNL     1       2.929 -11.229   5.337  1.00  0.00     0.014 A 
ATOM     29  C   UNL     1       1.578  -9.318   5.954  1.00  0.00     0.014 A 
ATOM     30  C   UNL     1       3.416 -11.302   6.644  1.00  0.00     0.010 A 
ATOM     31  C   UNL     1       2.113  -9.354   7.244  1.00  0.00     0.010 A 
ATOM     32  C   UNL     1       3.036 -10.349   7.605  1.00  0.00    -0.014 A 
BRANCH  32  33
ATOM     33  C   UNL     1       3.600 -10.399   8.983  1.00  0.00     0.031 A 
ATOM     34  C   UNL     1       2.711 -10.692  10.162  1.00  0.00     0.074 A 
ATOM     35  C   UNL     1       4.914 -10.168   9.177  1.00  0.00     0.049 A 
ATOM     36  N   UNL     1       3.021 -10.774  11.432  1.00  0.00    -0.248 NA
ATOM     37  C   UNL     1       1.284 -10.902   9.878  1.00  0.00     0.031 C 
ATOM     38  C   UNL     1       5.879  -9.849   8.122  1.00  0.00     0.029 A 
ATOM     39  N   UNL     1       5.669 -10.166  10.325  1.00  0.00    -0.354 N 
ATOM     40  C   UNL     1       1.831 -11.047  12.098  1.00  0.00     0.074 A 
ATOM     41  C   UNL     1       0.785 -11.053  11.096  1.00  0.00     0.031 C 
ATOM     42  C   UNL     1       7.098  -9.714   8.667  1.00  0.00     0.029 A 
ATOM     43  C   UNL     1       7.000  -9.886  10.114  1.00  0.00     0.049 A 
ATOM     44  H   UNL     1       5.293 -10.349  11.216  1.00  0.00     0.167 HD
ATOM     45  C   UNL     1       1.631 -11.291  13.418  1.00  0.00     0.034 A 
ATOM     46  C   UNL     1       8.024  -9.768  10.984  1.00  0.00     0.034 A 
ATOM     47  C   UNL     1       2.681 -11.279  14.409  1.00  0.00     0.049 A 
ATOM     48  C   UNL     1       7.766  -9.989  12.454  1.00  0.00     0.074 A 
ATOM     49  C   UNL     1       2.590 -11.559  15.762  1.00  0.00     0.029 A 
ATOM     50  N   UNL     1       4.009 -10.957  14.163  1.00  0.00    -0.354 N 
ATOM     51  N   UNL     1       6.643 -10.298  13.060  1.00  0.00    -0.248 NA
ATOM     52  C   UNL     1       8.917  -9.854  13.357  1.00  0.00     0.031 C 
ATOM     53  C   UNL     1       3.839 -11.325  16.346  1.00  0.00     0.029 A 
ATOM     54  C   UNL     1       4.736 -10.990  15.345  1.00  0.00     0.049 A 
ATOM     55  H   UNL     1       4.381 -10.737  13.278  1.00  0.00     0.167 HD
ATOM     56  C   UNL     1       6.962 -10.426  14.410  1.00  0.00     0.074 A 
ATOM     57  C   UNL     1       8.384 -10.178  14.525  1.00  0.00     0.031 C 
ATOM     58  C   UNL     1       6.152 -10.726  15.458  1.00  0.00     0.034 A 
BRANCH  45  59
ATOM     59  C   UNL     1       0.213 -11.561  13.869  1.00  0.00     0.023 A 
ATOM     60  C   UNL     1      -0.512 -12.674  13.407  1.00  0.00     0.031 A 
ATOM     61  C   UNL     1      -0.428 -10.686  14.765  1.00  0.00     0.131 A 
ATOM     62  C   UNL     1      -1.853 -12.842  13.781  1.00  0.00     0.055 A 
ATOM     63  C   UNL     1      -1.736 -10.906  15.201  1.00  0.00     0.041 A 
ATOM     64  F   UNL     1       0.204  -9.596  15.226  1.00  0.00    -0.206 F 
ATOM     65  C   UNL     1      -2.463 -11.980  14.697  1.00  0.00     0.022 A 
BRANCH  62  66
ATOM     66  S   UNL     1      -2.834 -14.116  12.942  1.00  0.00     0.124 S 
ATOM     67  O   UNL     1      -2.704 -13.715  11.543  1.00  0.00    -0.237 OA
ATOM     68  O   UNL     1      -2.146 -15.345  13.322  1.00  0.00    -0.237 OA
ATOM     69  O   UNL     1      -4.171 -13.949  13.509  1.00  0.00    -0.744 OA
ENDBRANCH  62  66
ENDBRANCH  45  59
BRANCH  46  70
ATOM     70  C   UNL     1       9.389  -9.403  10.501  1.00  0.00     0.023 A 
ATOM     71  C   UNL     1      10.476 -10.277  10.663  1.00  0.00     0.031 A 
ATOM     72  C   UNL     1       9.637  -8.146   9.920  1.00  0.00     0.131 A 
ATOM     73  C   UNL     1      11.767  -9.865  10.296  1.00  0.00     0.055 A 
ATOM     74  C   UNL     1      10.912  -7.764   9.501  1.00  0.00     0.041 A 
ATOM     75  F   UNL     1       8.635  -7.271   9.742  1.00  0.00    -0.206 F 
ATOM     76  C   UNL     1      11.990  -8.620   9.702  1.00  0.00     0.022 A 
BRANCH  73  77
ATOM     77  S   UNL     1      13.171 -10.941  10.697  1.00  0.00     0.124 S 
ATOM     78  O   UNL     1      13.044 -11.066  12.145  1.00  0.00    -0.237 OA
ATOM     79  O   UNL     1      12.868 -12.137   9.919  1.00  0.00    -0.237 OA
ATOM     80  O   UNL     1      14.328 -10.177  10.235  1.00  0.00    -0.744 OA
ENDBRANCH  73  77
ENDBRANCH  46  70
BRANCH  58  81
ATOM     81  C   UNL     1       6.800 -10.847  16.819  1.00  0.00     0.023 A 
ATOM     82  C   UNL     1       7.391  -9.745  17.462  1.00  0.00     0.031 A 
ATOM     83  C   UNL     1       6.835 -12.090  17.477  1.00  0.00     0.131 A 
ATOM     84  C   UNL     1       8.043  -9.919  18.693  1.00  0.00     0.055 A 
ATOM     85  C   UNL     1       7.426 -12.242  18.732  1.00  0.00     0.041 A 
ATOM     86  F   UNL     1       6.293 -13.180  16.910  1.00  0.00    -0.206 F 
ATOM     87  C   UNL     1       8.046 -11.156  19.341  1.00  0.00     0.022 A 
BRANCH  84  88
ATOM     88  S   UNL     1       8.976  -8.528  19.390  1.00  0.00     0.124 S 
ATOM     89  O   UNL     1       9.930  -8.238  18.324  1.00  0.00    -0.237 OA
ATOM     90  O   UNL     1       7.934  -7.528  19.603  1.00  0.00    -0.237 OA
ATOM     91  O   UNL     1       9.559  -9.083  20.610  1.00  0.00    -0.744 OA
ENDBRANCH  84  88
ENDBRANCH  58  81
ENDBRANCH  32  33
ENDBRANCH  24  27
ENDBRANCH  22  23
ENDBRANCH  21  22
ENDBRANCH   1  21
TORSDOF 19
