REMARK SMILES O=C(NCCCCNC(=O)c1ccccc1C(=O)c1cccc(S(=O)(=O)N2CCOCC2)c1)c1ccc(-c2c3nc(c(-c4cc(S(=O)(=O)[O-])ccc4F)c4ccc([nH]4)c(-c4cc(S(=O)(=O)[O-])ccc4F)c4nc(c(-c5cc(S(=O)(=O)[O-])ccc5F)c5ccc2[nH]5)C=C4)C=C3)cc1
REMARK SMILES IDX 6 1 5 2 4 3 3 4 1 5 2 6 34 8 35 9 96 10 36 11 95 12 37 13
REMARK SMILES IDX 38 14 39 15 89 16 40 17 94 18 88 19 90 20 41 21 93 22 87 23
REMARK SMILES IDX 86 24 42 26 74 27 54 28 73 29 55 30 58 31 72 32 91 33 56 34
REMARK SMILES IDX 57 35 71 37 92 38 59 39 43 40 44 41 52 42 45 43 51 44 53 45
REMARK SMILES IDX 50 46 46 47 47 48 48 49 49 50 75 51 76 52 84 53 77 54 83 55
REMARK SMILES IDX 85 56 82 57 78 58 79 59 80 60 81 61 60 62 61 63 69 64 62 65
REMARK SMILES IDX 68 66 70 67 67 68 63 69 64 70 65 71 66 72 7 73 8 74 9 75
REMARK SMILES IDX 10 77 11 78 12 79 16 80 13 81 15 82 14 83 17 84 18 85 19 86
REMARK SMILES IDX 20 87 33 88 21 89 23 90 22 91 24 92 25 93 26 94 27 95 28 96
REMARK SMILES IDX 32 97 29 98 31 99 30 100
REMARK H PARENT 3 7 90 25 58 36 8 76
REMARK Flexibility Score: inf
ROOT
ATOM      1  C   UNL     1       3.974   3.022   2.942  1.00  0.00     0.023 C 
ENDROOT
BRANCH   1   2
ATOM      2  C   UNL     1       4.487   2.714   1.531  1.00  0.00     0.023 C 
BRANCH   2   3
ATOM      3  C   UNL     1       4.359   1.266   1.071  1.00  0.00     0.116 C 
BRANCH   3   4
ATOM      4  N   UNL     1       2.976   0.829   0.964  1.00  0.00    -0.352 N 
ATOM      5  O   UNL     1       1.082   0.193  -0.081  1.00  0.00    -0.269 OA
ATOM      6  C   UNL     1       2.295   0.373  -0.140  1.00  0.00     0.251 C 
ATOM      7  H   UNL     1       2.454   0.866   1.798  1.00  0.00     0.163 HD
BRANCH   6   8
ATOM      8  C   UNL     1       3.020   0.116  -1.404  1.00  0.00     0.039 A 
ATOM      9  C   UNL     1       4.184  -0.659  -1.416  1.00  0.00     0.014 A 
ATOM     10  C   UNL     1       2.519   0.648  -2.595  1.00  0.00     0.014 A 
ATOM     11  C   UNL     1       4.908  -0.806  -2.597  1.00  0.00     0.010 A 
ATOM     12  C   UNL     1       3.219   0.455  -3.790  1.00  0.00     0.010 A 
ATOM     13  C   UNL     1       4.434  -0.250  -3.796  1.00  0.00    -0.014 A 
BRANCH  13  14
ATOM     14  C   UNL     1       5.208  -0.423  -5.053  1.00  0.00     0.031 A 
ATOM     15  C   UNL     1       5.872   0.755  -5.712  1.00  0.00     0.074 A 
ATOM     16  C   UNL     1       5.319  -1.651  -5.594  1.00  0.00     0.049 A 
ATOM     17  N   UNL     1       6.546   0.805  -6.833  1.00  0.00    -0.248 NA
ATOM     18  C   UNL     1       5.754   2.048  -5.023  1.00  0.00     0.031 C 
ATOM     19  C   UNL     1       4.731  -2.872  -5.039  1.00  0.00     0.029 A 
ATOM     20  N   UNL     1       5.966  -2.079  -6.726  1.00  0.00    -0.354 N 
ATOM     21  C   UNL     1       6.926   2.134  -6.992  1.00  0.00     0.074 A 
ATOM     22  C   UNL     1       6.374   2.861  -5.866  1.00  0.00     0.031 C 
ATOM     23  C   UNL     1       5.063  -3.913  -5.818  1.00  0.00     0.029 A 
ATOM     24  C   UNL     1       5.836  -3.429  -6.957  1.00  0.00     0.049 A 
ATOM     25  H   UNL     1       6.474  -1.478  -7.316  1.00  0.00     0.167 HD
ATOM     26  C   UNL     1       7.671   2.692  -7.979  1.00  0.00     0.034 A 
ATOM     27  C   UNL     1       6.267  -4.188  -7.982  1.00  0.00     0.034 A 
ATOM     28  C   UNL     1       8.212   1.953  -9.097  1.00  0.00     0.049 A 
ATOM     29  C   UNL     1       7.040  -3.536  -9.097  1.00  0.00     0.074 A 
ATOM     30  C   UNL     1       8.992   2.416 -10.143  1.00  0.00     0.029 A 
ATOM     31  N   UNL     1       8.022   0.594  -9.320  1.00  0.00    -0.354 N 
ATOM     32  N   UNL     1       7.384  -2.276  -9.236  1.00  0.00    -0.248 NA
ATOM     33  C   UNL     1       7.483  -4.408 -10.192  1.00  0.00     0.031 C 
ATOM     34  C   UNL     1       9.223   1.354 -11.027  1.00  0.00     0.029 A 
ATOM     35  C   UNL     1       8.645   0.211 -10.499  1.00  0.00     0.049 A 
ATOM     36  H   UNL     1       7.519  -0.009  -8.727  1.00  0.00     0.167 HD
ATOM     37  C   UNL     1       8.100  -2.210 -10.427  1.00  0.00     0.074 A 
ATOM     38  C   UNL     1       8.152  -3.558 -10.957  1.00  0.00     0.031 C 
ATOM     39  C   UNL     1       8.668  -1.133 -11.027  1.00  0.00     0.034 A 
BRANCH  26  40
ATOM     40  C   UNL     1       7.903   4.183  -7.916  1.00  0.00     0.023 A 
ATOM     41  C   UNL     1       8.649   4.774  -6.881  1.00  0.00     0.031 A 
ATOM     42  C   UNL     1       7.350   5.029  -8.894  1.00  0.00     0.131 A 
ATOM     43  C   UNL     1       8.765   6.172  -6.811  1.00  0.00     0.055 A 
ATOM     44  C   UNL     1       7.532   6.413  -8.860  1.00  0.00     0.041 A 
ATOM     45  F   UNL     1       6.611   4.525  -9.895  1.00  0.00    -0.206 F 
ATOM     46  C   UNL     1       8.231   6.994  -7.806  1.00  0.00     0.022 A 
BRANCH  43  47
ATOM     47  S   UNL     1       9.507   6.909  -5.329  1.00  0.00     0.124 S 
ATOM     48  O   UNL     1       8.638   6.393  -4.274  1.00  0.00    -0.237 OA
ATOM     49  O   UNL     1      10.864   6.377  -5.357  1.00  0.00    -0.237 OA
ATOM     50  O   UNL     1       9.395   8.347  -5.567  1.00  0.00    -0.744 OA
ENDBRANCH  43  47
ENDBRANCH  26  40
BRANCH  27  51
ATOM     51  C   UNL     1       5.944  -5.641  -8.024  1.00  0.00     0.023 A 
ATOM     52  C   UNL     1       6.954  -6.611  -7.930  1.00  0.00     0.031 A 
ATOM     53  C   UNL     1       4.617  -6.079  -8.184  1.00  0.00     0.131 A 
ATOM     54  C   UNL     1       6.624  -7.971  -8.029  1.00  0.00     0.055 A 
ATOM     55  C   UNL     1       4.290  -7.433  -8.234  1.00  0.00     0.041 A 
ATOM     56  F   UNL     1       3.615  -5.189  -8.275  1.00  0.00    -0.206 F 
ATOM     57  C   UNL     1       5.298  -8.389  -8.168  1.00  0.00     0.022 A 
BRANCH  54  58
ATOM     58  S   UNL     1       7.966  -9.191  -8.042  1.00  0.00     0.124 S 
ATOM     59  O   UNL     1       8.747  -8.764  -9.197  1.00  0.00    -0.237 OA
ATOM     60  O   UNL     1       8.582  -8.977  -6.736  1.00  0.00    -0.237 OA
ATOM     61  O   UNL     1       7.266 -10.465  -8.197  1.00  0.00    -0.744 OA
ENDBRANCH  54  58
ENDBRANCH  27  51
BRANCH  39  62
ATOM     62  C   UNL     1       9.421  -1.390 -12.308  1.00  0.00     0.023 A 
ATOM     63  C   UNL     1       8.759  -1.762 -13.491  1.00  0.00     0.031 A 
ATOM     64  C   UNL     1      10.823  -1.286 -12.336  1.00  0.00     0.131 A 
ATOM     65  C   UNL     1       9.503  -2.071 -14.640  1.00  0.00     0.055 A 
ATOM     66  C   UNL     1      11.554  -1.543 -13.496  1.00  0.00     0.041 A 
ATOM     67  F   UNL     1      11.504  -0.936 -11.234  1.00  0.00    -0.206 F 
ATOM     68  C   UNL     1      10.896  -1.950 -14.653  1.00  0.00     0.022 A 
BRANCH  65  69
ATOM     69  S   UNL     1       8.634  -2.714 -16.096  1.00  0.00     0.124 S 
ATOM     70  O   UNL     1       8.008  -3.922 -15.568  1.00  0.00    -0.237 OA
ATOM     71  O   UNL     1       7.727  -1.619 -16.428  1.00  0.00    -0.237 OA
ATOM     72  O   UNL     1       9.706  -2.943 -17.063  1.00  0.00    -0.744 OA
ENDBRANCH  65  69
ENDBRANCH  39  62
ENDBRANCH  13  14
ENDBRANCH   6   8
ENDBRANCH   3   4
ENDBRANCH   2   3
ENDBRANCH   1   2
BRANCH   1  73
ATOM     73  C   UNL     1       4.447   2.076   4.043  1.00  0.00     0.116 C 
BRANCH  73  74
ATOM     74  N   UNL     1       5.891   1.946   4.100  1.00  0.00    -0.352 N 
ATOM     75  C   UNL     1       6.677   1.526   5.133  1.00  0.00     0.252 C 
ATOM     76  H   UNL     1       6.371   2.196   3.278  1.00  0.00     0.163 HD
ATOM     77  O   UNL     1       7.902   1.509   5.034  1.00  0.00    -0.269 OA
BRANCH  75  78
ATOM     78  C   UNL     1       6.098   1.095   6.412  1.00  0.00     0.050 A 
ATOM     79  C   UNL     1       6.524   1.841   7.529  1.00  0.00     0.014 A 
ATOM     80  C   UNL     1       5.259  -0.012   6.584  1.00  0.00     0.035 A 
ATOM     81  C   UNL     1       6.083   1.520   8.810  1.00  0.00     0.001 A 
ATOM     82  C   UNL     1       4.813  -0.312   7.887  1.00  0.00     0.013 A 
ATOM     83  C   UNL     1       5.222   0.445   8.989  1.00  0.00     0.001 A 
BRANCH  80  84
ATOM     84  C   UNL     1       4.707  -0.877   5.508  1.00  0.00     0.193 C 
ATOM     85  O   UNL     1       3.517  -1.181   5.613  1.00  0.00    -0.289 OA
BRANCH  84  86
ATOM     86  C   UNL     1       5.464  -1.417   4.344  1.00  0.00     0.024 A 
ATOM     87  C   UNL     1       4.731  -1.974   3.283  1.00  0.00     0.012 A 
ATOM     88  C   UNL     1       6.855  -1.436   4.277  1.00  0.00     0.034 A 
ATOM     89  C   UNL     1       5.377  -2.513   2.165  1.00  0.00     0.002 A 
ATOM     90  C   UNL     1       7.501  -1.971   3.155  1.00  0.00     0.083 A 
ATOM     91  C   UNL     1       6.767  -2.509   2.097  1.00  0.00     0.022 A 
BRANCH  90  92
ATOM     92  S   UNL     1       9.281  -2.061   3.108  1.00  0.00     0.243 S 
ATOM     93  O   UNL     1       9.616  -3.274   2.395  1.00  0.00    -0.207 OA
ATOM     94  O   UNL     1       9.752  -0.762   2.689  1.00  0.00    -0.207 OA
BRANCH  92  95
ATOM     95  N   UNL     1       9.682  -2.313   4.710  1.00  0.00    -0.193 NA
ATOM     96  C   UNL     1       9.455  -3.609   5.367  1.00  0.00     0.131 C 
ATOM     97  C   UNL     1      10.340  -1.286   5.537  1.00  0.00     0.131 C 
ATOM     98  C   UNL     1       8.763  -3.377   6.713  1.00  0.00     0.177 C 
ATOM     99  C   UNL     1       9.664  -1.194   6.913  1.00  0.00     0.177 C 
ATOM    100  O   UNL     1       9.518  -2.479   7.542  1.00  0.00    -0.379 OA
ENDBRANCH  92  95
ENDBRANCH  90  92
ENDBRANCH  84  86
ENDBRANCH  80  84
ENDBRANCH  75  78
ENDBRANCH  73  74
ENDBRANCH   1  73
TORSDOF 18
