REMARK SMILES O=C(CCCCCN1C(=O)/C(=C/c2cccc(O)c2)SC1=S)NCCCCNC(=O)c1ccc(-c2c3nc(c(-c4cc(S(=O)(=O)[O-])ccc4F)c4ccc([nH]4)c(-c4cc(S(=O)(=O)[O-])ccc4F)c4nc(c(-c5cc(S(=O)(=O)[O-])ccc5F)c5ccc2[nH]5)C=C4)C=C3)cc1
REMARK SMILES IDX 1 1 2 2 23 3 3 5 4 6 5 7 6 8 7 9 8 10 9 11 21 12 10 13 11 14
REMARK SMILES IDX 20 15 22 16 12 17 13 18 14 19 19 20 15 21 17 22 16 23 18 24
REMARK SMILES IDX 24 26 25 27 26 28 27 29 28 30 29 31 30 33 31 34 32 35 93 36
REMARK SMILES IDX 33 37 92 38 34 39 35 40 36 41 86 42 37 43 91 44 85 45 87 46
REMARK SMILES IDX 38 47 90 48 84 49 83 50 39 52 71 53 51 54 70 55 52 56 55 57
REMARK SMILES IDX 69 58 88 59 53 60 54 61 68 63 89 64 56 65 40 66 41 67 49 68
REMARK SMILES IDX 42 69 48 70 50 71 47 72 43 73 44 74 45 75 46 76 72 77 73 78
REMARK SMILES IDX 81 79 74 80 80 81 82 82 79 83 75 84 76 85 77 86 78 87 57 88
REMARK SMILES IDX 58 89 66 90 59 91 65 92 67 93 64 94 60 95 61 96 62 97 63 98
REMARK H PARENT 23 4 18 25 28 32 87 51 55 62
REMARK Flexibility Score: inf
ROOT
ATOM      1  O   UNL     1       0.600  -0.292   0.172  1.00  0.00    -0.275 OA
ATOM      2  C   UNL     1       1.764  -0.003  -0.081  1.00  0.00     0.219 C 
ATOM      3  N   UNL     1       2.457  -0.483  -1.169  1.00  0.00    -0.356 N 
ATOM      4  H   UNL     1       3.370  -0.153  -1.329  1.00  0.00     0.163 HD
ENDROOT
BRANCH   2   5
ATOM      5  C   UNL     1       2.574   0.929   0.802  1.00  0.00     0.100 C 
BRANCH   5   6
ATOM      6  C   UNL     1       3.492   0.191   1.778  1.00  0.00     0.010 C 
BRANCH   6   7
ATOM      7  C   UNL     1       4.616  -0.637   1.152  1.00  0.00     0.002 C 
BRANCH   7   8
ATOM      8  C   UNL     1       5.609   0.151   0.284  1.00  0.00     0.022 C 
BRANCH   8   9
ATOM      9  C   UNL     1       6.833   0.706   1.021  1.00  0.00     0.127 C 
BRANCH   9  10
ATOM     10  N   UNL     1       7.581  -0.203   1.893  1.00  0.00    -0.293 N 
ATOM     11  C   UNL     1       8.238   0.362   2.984  1.00  0.00     0.266 C 
ATOM     12  C   UNL     1       7.851  -1.540   1.677  1.00  0.00     0.148 C 
ATOM     13  O   UNL     1       8.263   1.552   3.280  1.00  0.00    -0.268 OA
ATOM     14  C   UNL     1       8.966  -0.685   3.743  1.00  0.00     0.081 C 
ATOM     15  S   UNL     1       8.508  -2.231   3.146  1.00  0.00    -0.054 SA
ATOM     16  S   UNL     1       7.651  -2.481   0.315  1.00  0.00    -0.052 S 
ATOM     17  C   UNL     1       9.871  -0.427   4.700  1.00  0.00     0.029 C 
BRANCH  17  18
ATOM     18  C   UNL     1      10.572  -1.490   5.434  1.00  0.00    -0.021 A 
ATOM     19  C   UNL     1      11.369  -2.427   4.760  1.00  0.00     0.008 A 
ATOM     20  C   UNL     1      10.344  -1.641   6.803  1.00  0.00     0.054 A 
ATOM     21  C   UNL     1      11.846  -3.557   5.425  1.00  0.00     0.004 A 
ATOM     22  C   UNL     1      10.840  -2.762   7.461  1.00  0.00     0.116 A 
ATOM     23  C   UNL     1      11.570  -3.733   6.779  1.00  0.00     0.046 A 
BRANCH  22  24
ATOM     24  O   UNL     1      10.557  -2.897   8.789  1.00  0.00    -0.508 OA
ATOM     25  H   UNL     1      10.876  -3.640   9.263  1.00  0.00     0.293 HD
ENDBRANCH  22  24
ENDBRANCH  17  18
ENDBRANCH   9  10
ENDBRANCH   8   9
ENDBRANCH   7   8
ENDBRANCH   6   7
ENDBRANCH   5   6
ENDBRANCH   2   5
BRANCH   3  26
ATOM     26  C   UNL     1       1.901  -1.452  -2.091  1.00  0.00     0.116 C 
BRANCH  26  27
ATOM     27  C   UNL     1       2.365  -1.204  -3.524  1.00  0.00     0.023 C 
BRANCH  27  28
ATOM     28  C   UNL     1       3.871  -1.371  -3.762  1.00  0.00     0.023 C 
BRANCH  28  29
ATOM     29  C   UNL     1       4.429  -2.767  -3.490  1.00  0.00     0.116 C 
BRANCH  29  30
ATOM     30  N   UNL     1       3.860  -3.773  -4.372  1.00  0.00    -0.352 N 
ATOM     31  C   UNL     1       4.479  -4.633  -5.248  1.00  0.00     0.251 C 
ATOM     32  H   UNL     1       2.879  -3.851  -4.335  1.00  0.00     0.163 HD
ATOM     33  O   UNL     1       3.793  -5.277  -6.039  1.00  0.00    -0.269 OA
BRANCH  31  34
ATOM     34  C   UNL     1       5.955  -4.765  -5.269  1.00  0.00     0.039 A 
ATOM     35  C   UNL     1       6.606  -4.848  -6.504  1.00  0.00     0.014 A 
ATOM     36  C   UNL     1       6.699  -4.827  -4.088  1.00  0.00     0.014 A 
ATOM     37  C   UNL     1       8.001  -4.920  -6.554  1.00  0.00     0.010 A 
ATOM     38  C   UNL     1       8.094  -4.822  -4.141  1.00  0.00     0.010 A 
ATOM     39  C   UNL     1       8.762  -4.866  -5.375  1.00  0.00    -0.014 A 
BRANCH  39  40
ATOM     40  C   UNL     1      10.250  -4.842  -5.417  1.00  0.00     0.031 A 
ATOM     41  C   UNL     1      11.049  -5.958  -4.796  1.00  0.00     0.074 A 
ATOM     42  C   UNL     1      10.886  -3.787  -5.967  1.00  0.00     0.049 A 
ATOM     43  N   UNL     1      12.347  -6.080  -4.676  1.00  0.00    -0.248 NA
ATOM     44  C   UNL     1      10.285  -7.071  -4.214  1.00  0.00     0.031 C 
ATOM     45  C   UNL     1      10.227  -2.630  -6.577  1.00  0.00     0.029 A 
ATOM     46  N   UNL     1      12.225  -3.510  -6.100  1.00  0.00    -0.354 N 
ATOM     47  C   UNL     1      12.555  -7.274  -3.993  1.00  0.00     0.074 A 
ATOM     48  C   UNL     1      11.246  -7.807  -3.678  1.00  0.00     0.031 C 
ATOM     49  C   UNL     1      11.161  -1.786  -7.044  1.00  0.00     0.029 A 
ATOM     50  C   UNL     1      12.484  -2.308  -6.719  1.00  0.00     0.049 A 
ATOM     51  H   UNL     1      12.933  -4.115  -5.781  1.00  0.00     0.167 HD
ATOM     52  C   UNL     1      13.728  -7.879  -3.677  1.00  0.00     0.034 A 
ATOM     53  C   UNL     1      13.652  -1.688  -6.982  1.00  0.00     0.034 A 
ATOM     54  C   UNL     1      15.026  -7.337  -4.004  1.00  0.00     0.049 A 
ATOM     55  C   UNL     1      14.942  -2.357  -6.576  1.00  0.00     0.074 A 
ATOM     56  C   UNL     1      16.273  -7.894  -3.779  1.00  0.00     0.029 A 
ATOM     57  N   UNL     1      15.248  -6.107  -4.612  1.00  0.00    -0.354 N 
ATOM     58  N   UNL     1      15.121  -3.511  -5.976  1.00  0.00    -0.248 NA
ATOM     59  C   UNL     1      16.186  -1.644  -6.892  1.00  0.00     0.031 C 
ATOM     60  C   UNL     1      17.246  -6.969  -4.170  1.00  0.00     0.029 A 
ATOM     61  C   UNL     1      16.611  -5.872  -4.729  1.00  0.00     0.049 A 
ATOM     62  H   UNL     1      14.542  -5.492  -4.915  1.00  0.00     0.167 HD
ATOM     63  C   UNL     1      16.501  -3.676  -5.877  1.00  0.00     0.074 A 
ATOM     64  C   UNL     1      17.103  -2.512  -6.491  1.00  0.00     0.031 C 
ATOM     65  C   UNL     1      17.205  -4.702  -5.333  1.00  0.00     0.034 A 
BRANCH  52  66
ATOM     66  C   UNL     1      13.660  -9.178  -2.908  1.00  0.00     0.023 A 
ATOM     67  C   UNL     1      13.043 -10.325  -3.440  1.00  0.00     0.031 A 
ATOM     68  C   UNL     1      14.207  -9.270  -1.615  1.00  0.00     0.131 A 
ATOM     69  C   UNL     1      12.921 -11.483  -2.658  1.00  0.00     0.055 A 
ATOM     70  C   UNL     1      14.161 -10.453  -0.876  1.00  0.00     0.041 A 
ATOM     71  F   UNL     1      14.791  -8.205  -1.043  1.00  0.00    -0.206 F 
ATOM     72  C   UNL     1      13.501 -11.565  -1.390  1.00  0.00     0.022 A 
BRANCH  69  73
ATOM     73  S   UNL     1      11.865 -12.829  -3.261  1.00  0.00     0.124 S 
ATOM     74  O   UNL     1      10.585 -12.146  -3.429  1.00  0.00    -0.237 OA
ATOM     75  O   UNL     1      12.540 -13.234  -4.488  1.00  0.00    -0.237 OA
ATOM     76  O   UNL     1      11.903 -13.807  -2.175  1.00  0.00    -0.744 OA
ENDBRANCH  69  73
ENDBRANCH  52  66
BRANCH  53  77
ATOM     77  C   UNL     1      13.668  -0.353  -7.651  1.00  0.00     0.023 A 
ATOM     78  C   UNL     1      14.276  -0.180  -8.905  1.00  0.00     0.031 A 
ATOM     79  C   UNL     1      13.125   0.782  -7.021  1.00  0.00     0.131 A 
ATOM     80  C   UNL     1      14.373   1.103  -9.465  1.00  0.00     0.055 A 
ATOM     81  C   UNL     1      13.168   2.046  -7.612  1.00  0.00     0.041 A 
ATOM     82  F   UNL     1      12.533   0.676  -5.821  1.00  0.00    -0.206 F 
ATOM     83  C   UNL     1      13.809   2.215  -8.835  1.00  0.00     0.022 A 
BRANCH  80  84
ATOM     84  S   UNL     1      15.340   1.315 -10.985  1.00  0.00     0.124 S 
ATOM     85  O   UNL     1      16.645   0.810 -10.578  1.00  0.00    -0.237 OA
ATOM     86  O   UNL     1      14.598   0.491 -11.933  1.00  0.00    -0.237 OA
ATOM     87  O   UNL     1      15.275   2.755 -11.230  1.00  0.00    -0.744 OA
ENDBRANCH  80  84
ENDBRANCH  53  77
BRANCH  65  88
ATOM     88  C   UNL     1      18.712  -4.631  -5.427  1.00  0.00     0.023 A 
ATOM     89  C   UNL     1      19.454  -3.639  -4.763  1.00  0.00     0.031 A 
ATOM     90  C   UNL     1      19.415  -5.570  -6.204  1.00  0.00     0.131 A 
ATOM     91  C   UNL     1      20.845  -3.572  -4.936  1.00  0.00     0.055 A 
ATOM     92  C   UNL     1      20.805  -5.540  -6.317  1.00  0.00     0.041 A 
ATOM     93  F   UNL     1      18.760  -6.538  -6.866  1.00  0.00    -0.206 F 
ATOM     94  C   UNL     1      21.527  -4.528  -5.692  1.00  0.00     0.022 A 
BRANCH  91  95
ATOM     95  S   UNL     1      21.742  -2.155  -4.244  1.00  0.00     0.124 S 
ATOM     96  O   UNL     1      21.073  -1.029  -4.887  1.00  0.00    -0.237 OA
ATOM     97  O   UNL     1      21.504  -2.304  -2.812  1.00  0.00    -0.237 OA
ATOM     98  O   UNL     1      23.122  -2.382  -4.668  1.00  0.00    -0.744 OA
ENDBRANCH  91  95
ENDBRANCH  65  88
ENDBRANCH  39  40
ENDBRANCH  31  34
ENDBRANCH  29  30
ENDBRANCH  28  29
ENDBRANCH  27  28
ENDBRANCH  26  27
ENDBRANCH   3  26
TORSDOF 21
