REMARK SMILES C[C@H]1CCN1c1cc(C(=O)NCCCCNC(=O)c2ccc(-c3c4nc(c(-c5cc(S(=O)(=O)[O-])ccc5F)c5ccc([nH]5)c(-c5cc(S(=O)(=O)[O-])ccc5F)c5nc(c(-c6cc(S(=O)(=O)[O-])ccc6F)c6ccc3[nH]6)C=C5)C=C4)cc2)ccc1Cl
REMARK SMILES IDX 14 1 13 2 12 3 11 4 9 5 10 6 8 8 6 9 7 10 84 11 83 12 85 13
REMARK SMILES IDX 82 14 5 15 1 16 2 17 3 18 4 19 15 20 16 21 17 22 18 24 19 25
REMARK SMILES IDX 20 26 81 27 21 28 80 29 22 30 23 31 24 32 74 33 25 34 79 35
REMARK SMILES IDX 73 36 75 37 26 38 78 39 72 40 71 41 27 43 59 44 39 45 58 46
REMARK SMILES IDX 40 47 43 48 57 49 76 50 41 51 42 52 56 54 77 55 44 56 28 57
REMARK SMILES IDX 29 58 37 59 30 60 36 61 38 62 35 63 31 64 32 65 33 66 34 67
REMARK SMILES IDX 60 68 61 69 69 70 62 71 68 72 70 73 67 74 63 75 64 76 65 77
REMARK SMILES IDX 66 78 45 79 46 80 54 81 47 82 53 83 55 84 52 85 48 86 49 87
REMARK SMILES IDX 50 88 51 89
REMARK H PARENT 11 7 16 23 75 42 43 53
REMARK Flexibility Score: inf
ROOT
ATOM      1  C   UNL     1       7.333  -0.970   8.299  1.00  0.00     0.023 C 
ENDROOT
BRANCH   1   2
ATOM      2  C   UNL     1       6.832  -1.147   6.860  1.00  0.00     0.023 C 
BRANCH   2   3
ATOM      3  C   UNL     1       5.447  -1.790   6.754  1.00  0.00     0.116 C 
BRANCH   3   4
ATOM      4  N   UNL     1       4.411  -0.815   7.025  1.00  0.00    -0.352 N 
ATOM      5  C   UNL     1       3.635  -0.020   6.224  1.00  0.00     0.251 C 
ATOM      6  O   UNL     1       2.828   0.719   6.792  1.00  0.00    -0.269 OA
ATOM      7  H   UNL     1       4.226  -0.699   7.985  1.00  0.00     0.163 HD
BRANCH   5   8
ATOM      8  C   UNL     1       3.676  -0.016   4.730  1.00  0.00     0.041 A 
ATOM      9  C   UNL     1       2.446   0.608   2.673  1.00  0.00     0.057 A 
ATOM     10  C   UNL     1       2.557   0.535   4.077  1.00  0.00     0.041 A 
ATOM     11  C   UNL     1       3.502   0.091   1.910  1.00  0.00     0.064 A 
ATOM     12  C   UNL     1       4.637  -0.430   2.544  1.00  0.00     0.023 A 
ATOM     13  Cl  UNL     1       3.559   0.167   0.185  1.00  0.00    -0.082 Cl
ATOM     14  C   UNL     1       4.734  -0.458   3.940  1.00  0.00     0.015 A 
BRANCH   9  15
ATOM     15  N   UNL     1       1.302   1.251   2.167  1.00  0.00    -0.367 N 
ATOM     16  C   UNL     1      -0.810   0.318   1.409  1.00  0.00     0.031 C 
ATOM     17  C   UNL     1       0.468   1.049   1.025  1.00  0.00     0.081 C 
ATOM     18  C   UNL     1       0.346   2.575   0.913  1.00  0.00     0.046 C 
ATOM     19  C   UNL     1       1.020   2.651   2.281  1.00  0.00     0.119 C 
ENDBRANCH   9  15
ENDBRANCH   5   8
ENDBRANCH   3   4
ENDBRANCH   2   3
ENDBRANCH   1   2
BRANCH   1  20
ATOM     20  C   UNL     1       7.530  -2.265   9.085  1.00  0.00     0.116 C 
BRANCH  20  21
ATOM     21  N   UNL     1       8.428  -3.202   8.429  1.00  0.00    -0.352 N 
ATOM     22  C   UNL     1       9.279  -4.122   8.999  1.00  0.00     0.251 C 
ATOM     23  H   UNL     1       8.427  -3.175   7.445  1.00  0.00     0.163 HD
ATOM     24  O   UNL     1      10.047  -4.759   8.293  1.00  0.00    -0.269 OA
BRANCH  22  25
ATOM     25  C   UNL     1       9.284  -4.292  10.468  1.00  0.00     0.039 A 
ATOM     26  C   UNL     1      10.508  -4.266  11.142  1.00  0.00     0.014 A 
ATOM     27  C   UNL     1       8.091  -4.447  11.178  1.00  0.00     0.014 A 
ATOM     28  C   UNL     1      10.530  -4.324  12.537  1.00  0.00     0.010 A 
ATOM     29  C   UNL     1       8.110  -4.441  12.570  1.00  0.00     0.010 A 
ATOM     30  C   UNL     1       9.329  -4.372  13.263  1.00  0.00    -0.014 A 
BRANCH  30  31
ATOM     31  C   UNL     1       9.326  -4.344  14.749  1.00  0.00     0.031 A 
ATOM     32  C   UNL     1       8.825  -5.530  15.524  1.00  0.00     0.074 A 
ATOM     33  C   UNL     1       9.710  -3.224  15.393  1.00  0.00     0.049 A 
ATOM     34  N   UNL     1       8.661  -5.667  16.815  1.00  0.00    -0.248 NA
ATOM     35  C   UNL     1       8.426  -6.706  14.738  1.00  0.00     0.031 C 
ATOM     36  C   UNL     1      10.178  -1.995  14.747  1.00  0.00     0.029 A 
ATOM     37  N   UNL     1       9.758  -2.931  16.733  1.00  0.00    -0.354 N 
ATOM     38  C   UNL     1       8.129  -6.939  16.996  1.00  0.00     0.074 A 
ATOM     39  C   UNL     1       7.942  -7.505  15.676  1.00  0.00     0.031 C 
ATOM     40  C   UNL     1      10.485  -1.091  15.691  1.00  0.00     0.029 A 
ATOM     41  C   UNL     1      10.197  -1.656  17.005  1.00  0.00     0.049 A 
ATOM     42  H   UNL     1       9.503  -3.574  17.433  1.00  0.00     0.167 HD
ATOM     43  C   UNL     1       7.844  -7.583  18.156  1.00  0.00     0.034 A 
ATOM     44  C   UNL     1      10.341  -1.012  18.180  1.00  0.00     0.034 A 
ATOM     45  C   UNL     1       8.046  -7.006  19.463  1.00  0.00     0.049 A 
ATOM     46  C   UNL     1      10.001  -1.740  19.455  1.00  0.00     0.074 A 
ATOM     47  C   UNL     1       7.837  -7.584  20.704  1.00  0.00     0.029 A 
ATOM     48  N   UNL     1       8.500  -5.714  19.701  1.00  0.00    -0.354 N 
ATOM     49  N   UNL     1       9.539  -2.959  19.613  1.00  0.00    -0.248 NA
ATOM     50  C   UNL     1      10.212  -1.009  20.711  1.00  0.00     0.031 C 
ATOM     51  C   UNL     1       8.107  -6.625  21.687  1.00  0.00     0.029 A 
ATOM     52  C   UNL     1       8.553  -5.470  21.065  1.00  0.00     0.049 A 
ATOM     53  H   UNL     1       8.748  -5.066  19.003  1.00  0.00     0.167 HD
ATOM     54  C   UNL     1       9.434  -3.150  20.987  1.00  0.00     0.074 A 
ATOM     55  C   UNL     1       9.894  -1.926  21.612  1.00  0.00     0.031 C 
ATOM     56  C   UNL     1       9.004  -4.240  21.673  1.00  0.00     0.034 A 
BRANCH  43  57
ATOM     57  C   UNL     1       7.263  -8.972  18.050  1.00  0.00     0.023 A 
ATOM     58  C   UNL     1       7.983 -10.029  17.465  1.00  0.00     0.031 A 
ATOM     59  C   UNL     1       5.959  -9.239  18.505  1.00  0.00     0.131 A 
ATOM     60  C   UNL     1       7.369 -11.276  17.274  1.00  0.00     0.055 A 
ATOM     61  C   UNL     1       5.383 -10.506  18.389  1.00  0.00     0.041 A 
ATOM     62  F   UNL     1       5.215  -8.267  19.055  1.00  0.00    -0.206 F 
ATOM     63  C   UNL     1       6.082 -11.529  17.755  1.00  0.00     0.022 A 
BRANCH  60  64
ATOM     64  S   UNL     1       8.219 -12.512  16.255  1.00  0.00     0.124 S 
ATOM     65  O   UNL     1       8.354 -11.803  14.985  1.00  0.00    -0.237 OA
ATOM     66  O   UNL     1       9.455 -12.735  16.996  1.00  0.00    -0.237 OA
ATOM     67  O   UNL     1       7.290 -13.639  16.236  1.00  0.00    -0.744 OA
ENDBRANCH  60  64
ENDBRANCH  43  57
BRANCH  44  68
ATOM     68  C   UNL     1      10.823   0.398  18.215  1.00  0.00     0.023 A 
ATOM     69  C   UNL     1      12.058   0.722  18.799  1.00  0.00     0.031 A 
ATOM     70  C   UNL     1      10.040   1.446  17.702  1.00  0.00     0.131 A 
ATOM     71  C   UNL     1      12.454   2.065  18.898  1.00  0.00     0.055 A 
ATOM     72  C   UNL     1      10.460   2.776  17.758  1.00  0.00     0.041 A 
ATOM     73  F   UNL     1       8.854   1.188  17.126  1.00  0.00    -0.206 F 
ATOM     74  C   UNL     1      11.668   3.093  18.371  1.00  0.00     0.022 A 
BRANCH  71  75
ATOM     75  S   UNL     1      13.979   2.456  19.798  1.00  0.00     0.124 S 
ATOM     76  O   UNL     1      13.701   1.891  21.113  1.00  0.00    -0.237 OA
ATOM     77  O   UNL     1      14.986   1.764  19.001  1.00  0.00    -0.237 OA
ATOM     78  O   UNL     1      14.040   3.915  19.745  1.00  0.00    -0.744 OA
ENDBRANCH  71  75
ENDBRANCH  44  68
BRANCH  56  79
ATOM     79  C   UNL     1       9.058  -4.165  23.178  1.00  0.00     0.023 A 
ATOM     80  C   UNL     1       8.223  -3.300  23.907  1.00  0.00     0.031 A 
ATOM     81  C   UNL     1       9.971  -4.962  23.891  1.00  0.00     0.131 A 
ATOM     82  C   UNL     1       8.355  -3.213  25.301  1.00  0.00     0.055 A 
ATOM     83  C   UNL     1      10.058  -4.912  25.283  1.00  0.00     0.041 A 
ATOM     84  F   UNL     1      10.793  -5.804  23.245  1.00  0.00    -0.206 F 
ATOM     85  C   UNL     1       9.256  -4.025  25.995  1.00  0.00     0.022 A 
BRANCH  82  86
ATOM     86  S   UNL     1       7.391  -1.960  26.191  1.00  0.00     0.124 S 
ATOM     87  O   UNL     1       7.841  -0.725  25.558  1.00  0.00    -0.237 OA
ATOM     88  O   UNL     1       6.018  -2.361  25.904  1.00  0.00    -0.237 OA
ATOM     89  O   UNL     1       7.808  -2.131  27.582  1.00  0.00    -0.744 OA
ENDBRANCH  82  86
ENDBRANCH  56  79
ENDBRANCH  30  31
ENDBRANCH  22  25
ENDBRANCH  20  21
ENDBRANCH   1  20
TORSDOF 15
