REMARK SMILES O=C(NCCCCNC(=O)[C@H](Cc1cccc(O)c1)Cc1cccc(F)c1)c1ccc(-c2c3nc(c(-c4cc(S(=O)(=O)[O-])ccc4F)c4ccc([nH]4)c(-c4cc(S(=O)(=O)[O-])ccc4F)c4nc(c(-c5cc(S(=O)(=O)[O-])ccc5F)c5ccc2[nH]5)C=C4)C=C3)cc1
REMARK SMILES IDX 5 1 4 2 3 3 1 4 2 5 28 7 29 8 90 9 30 10 89 11 31 12 32 13
REMARK SMILES IDX 33 14 83 15 34 16 88 17 82 18 84 19 35 20 87 21 81 22 80 23
REMARK SMILES IDX 36 25 68 26 48 27 67 28 49 29 52 30 66 31 85 32 50 33 51 34
REMARK SMILES IDX 65 36 86 37 53 38 37 39 38 40 46 41 39 42 45 43 47 44 44 45
REMARK SMILES IDX 40 46 41 47 42 48 43 49 69 50 70 51 78 52 71 53 77 54 79 55
REMARK SMILES IDX 76 56 72 57 73 58 74 59 75 60 54 61 55 62 63 63 56 64 62 65
REMARK SMILES IDX 64 66 61 67 57 68 58 69 59 70 60 71 6 72 7 73 8 74 9 75
REMARK SMILES IDX 10 77 11 78 20 79 21 80 22 81 27 82 23 83 25 84 24 85 26 86
REMARK SMILES IDX 12 87 13 88 14 89 19 90 15 91 17 92 16 93 18 94
REMARK H PARENT 3 6 84 24 52 35 8 76 18 95
REMARK Flexibility Score: inf
ROOT
ATOM      1  C   UNL     1       7.262  -7.660  -0.258  1.00  0.00     0.023 C 
ENDROOT
BRANCH   1   2
ATOM      2  C   UNL     1       7.637  -9.133  -0.248  1.00  0.00     0.116 C 
BRANCH   2   3
ATOM      3  N   UNL     1       9.062  -9.394  -0.431  1.00  0.00    -0.352 N 
ATOM      4  O   UNL     1      11.014 -10.498  -0.100  1.00  0.00    -0.269 OA
ATOM      5  C   UNL     1       9.804 -10.433   0.088  1.00  0.00     0.251 C 
ATOM      6  H   UNL     1       9.552  -8.750  -0.992  1.00  0.00     0.163 HD
BRANCH   5   7
ATOM      7  C   UNL     1       9.113 -11.434   0.928  1.00  0.00     0.039 A 
ATOM      8  C   UNL     1       7.925 -12.011   0.480  1.00  0.00     0.014 A 
ATOM      9  C   UNL     1       9.582 -11.683   2.220  1.00  0.00     0.014 A 
ATOM     10  C   UNL     1       7.102 -12.659   1.390  1.00  0.00     0.010 A 
ATOM     11  C   UNL     1       8.795 -12.425   3.105  1.00  0.00     0.010 A 
ATOM     12  C   UNL     1       7.519 -12.862   2.717  1.00  0.00    -0.014 A 
BRANCH  12  13
ATOM     13  C   UNL     1       6.578 -13.503   3.673  1.00  0.00     0.031 A 
ATOM     14  C   UNL     1       6.045 -12.742   4.860  1.00  0.00     0.074 A 
ATOM     15  C   UNL     1       6.128 -14.745   3.408  1.00  0.00     0.049 A 
ATOM     16  N   UNL     1       5.199 -13.139   5.777  1.00  0.00    -0.248 NA
ATOM     17  C   UNL     1       6.523 -11.363   5.049  1.00  0.00     0.031 C 
ATOM     18  C   UNL     1       6.556 -15.569   2.273  1.00  0.00     0.029 A 
ATOM     19  N   UNL     1       5.182 -15.512   4.035  1.00  0.00    -0.354 N 
ATOM     20  C   UNL     1       5.071 -12.078   6.667  1.00  0.00     0.074 A 
ATOM     21  C   UNL     1       5.934 -11.020   6.187  1.00  0.00     0.031 C 
ATOM     22  C   UNL     1       5.814 -16.685   2.237  1.00  0.00     0.029 A 
ATOM     23  C   UNL     1       4.917 -16.695   3.386  1.00  0.00     0.049 A 
ATOM     24  H   UNL     1       4.735 -15.242   4.870  1.00  0.00     0.167 HD
ATOM     25  C   UNL     1       4.301 -11.994   7.780  1.00  0.00     0.034 A 
ATOM     26  C   UNL     1       4.057 -17.687   3.686  1.00  0.00     0.034 A 
ATOM     27  C   UNL     1       3.410 -13.036   8.224  1.00  0.00     0.049 A 
ATOM     28  C   UNL     1       3.229 -17.577   4.933  1.00  0.00     0.074 A 
ATOM     29  C   UNL     1       2.568 -13.038   9.323  1.00  0.00     0.029 A 
ATOM     30  N   UNL     1       3.237 -14.257   7.589  1.00  0.00    -0.354 N 
ATOM     31  N   UNL     1       3.171 -16.589   5.794  1.00  0.00    -0.248 NA
ATOM     32  C   UNL     1       2.375 -18.724   5.264  1.00  0.00     0.031 C 
ATOM     33  C   UNL     1       1.920 -14.277   9.377  1.00  0.00     0.029 A 
ATOM     34  C   UNL     1       2.321 -15.028   8.285  1.00  0.00     0.049 A 
ATOM     35  H   UNL     1       3.698 -14.534   6.764  1.00  0.00     0.167 HD
ATOM     36  C   UNL     1       2.283 -17.001   6.779  1.00  0.00     0.074 A 
ATOM     37  C   UNL     1       1.812 -18.317   6.395  1.00  0.00     0.031 C 
ATOM     38  C   UNL     1       1.895 -16.351   7.903  1.00  0.00     0.034 A 
BRANCH  25  39
ATOM     39  C   UNL     1       4.418 -10.753   8.623  1.00  0.00     0.023 A 
ATOM     40  C   UNL     1       3.884  -9.521   8.211  1.00  0.00     0.031 A 
ATOM     41  C   UNL     1       5.051 -10.816   9.878  1.00  0.00     0.131 A 
ATOM     42  C   UNL     1       4.024  -8.392   9.032  1.00  0.00     0.055 A 
ATOM     43  C   UNL     1       5.140  -9.702  10.714  1.00  0.00     0.041 A 
ATOM     44  F   UNL     1       5.592 -11.966  10.311  1.00  0.00    -0.206 F 
ATOM     45  C   UNL     1       4.629  -8.479  10.290  1.00  0.00     0.022 A 
BRANCH  42  46
ATOM     46  S   UNL     1       3.456  -6.785   8.414  1.00  0.00     0.124 S 
ATOM     47  O   UNL     1       4.402  -6.538   7.329  1.00  0.00    -0.237 OA
ATOM     48  O   UNL     1       2.082  -7.065   8.012  1.00  0.00    -0.237 OA
ATOM     49  O   UNL     1       3.597  -5.903   9.571  1.00  0.00    -0.744 OA
ENDBRANCH  42  46
ENDBRANCH  25  39
BRANCH  26  50
ATOM     50  C   UNL     1       3.984 -18.887   2.812  1.00  0.00     0.023 A 
ATOM     51  C   UNL     1       2.861 -19.130   2.009  1.00  0.00     0.031 A 
ATOM     52  C   UNL     1       5.058 -19.792   2.749  1.00  0.00     0.131 A 
ATOM     53  C   UNL     1       2.833 -20.261   1.179  1.00  0.00     0.055 A 
ATOM     54  C   UNL     1       5.041 -20.896   1.897  1.00  0.00     0.041 A 
ATOM     55  F   UNL     1       6.158 -19.591   3.493  1.00  0.00    -0.206 F 
ATOM     56  C   UNL     1       3.921 -21.137   1.108  1.00  0.00     0.022 A 
BRANCH  53  57
ATOM     57  S   UNL     1       1.348 -20.582   0.189  1.00  0.00     0.124 S 
ATOM     58  O   UNL     1       0.354 -20.848   1.223  1.00  0.00    -0.237 OA
ATOM     59  O   UNL     1       1.192 -19.330  -0.545  1.00  0.00    -0.237 OA
ATOM     60  O   UNL     1       1.726 -21.734  -0.627  1.00  0.00    -0.744 OA
ENDBRANCH  53  57
ENDBRANCH  26  50
BRANCH  38  61
ATOM     61  C   UNL     1       0.923 -17.062   8.798  1.00  0.00     0.023 A 
ATOM     62  C   UNL     1       1.345 -18.105   9.639  1.00  0.00     0.031 A 
ATOM     63  C   UNL     1      -0.428 -16.679   8.828  1.00  0.00     0.131 A 
ATOM     64  C   UNL     1       0.413 -18.752  10.462  1.00  0.00     0.055 A 
ATOM     65  C   UNL     1      -1.344 -17.302   9.675  1.00  0.00     0.041 A 
ATOM     66  F   UNL     1      -0.872 -15.686   8.041  1.00  0.00    -0.206 F 
ATOM     67  C   UNL     1      -0.925 -18.347  10.495  1.00  0.00     0.022 A 
BRANCH  64  68
ATOM     68  S   UNL     1       0.966 -20.141  11.487  1.00  0.00     0.124 S 
ATOM     69  O   UNL     1       1.219 -21.171  10.484  1.00  0.00    -0.237 OA
ATOM     70  O   UNL     1       2.145 -19.598  12.154  1.00  0.00    -0.237 OA
ATOM     71  O   UNL     1      -0.176 -20.395  12.364  1.00  0.00    -0.744 OA
ENDBRANCH  64  68
ENDBRANCH  38  61
ENDBRANCH  12  13
ENDBRANCH   5   7
ENDBRANCH   2   3
ENDBRANCH   1   2
BRANCH   1  72
ATOM     72  C   UNL     1       7.657  -6.911  -1.524  1.00  0.00     0.023 C 
BRANCH  72  73
ATOM     73  C   UNL     1       6.933  -7.336  -2.797  1.00  0.00     0.116 C 
BRANCH  73  74
ATOM     74  N   UNL     1       5.686  -6.616  -2.943  1.00  0.00    -0.356 N 
ATOM     75  C   UNL     1       5.412  -5.465  -3.615  1.00  0.00     0.223 C 
ATOM     76  H   UNL     1       4.916  -7.022  -2.485  1.00  0.00     0.163 HD
ATOM     77  O   UNL     1       4.274  -5.006  -3.492  1.00  0.00    -0.275 OA
BRANCH  75  78
ATOM     78  C   UNL     1       6.468  -4.776  -4.496  1.00  0.00     0.087 C 
BRANCH  78  79
ATOM     79  C   UNL     1       5.679  -3.994  -5.583  1.00  0.00     0.049 C 
BRANCH  79  80
ATOM     80  C   UNL     1       6.507  -3.172  -6.544  1.00  0.00    -0.044 A 
ATOM     81  C   UNL     1       6.330  -1.778  -6.591  1.00  0.00     0.004 A 
ATOM     82  C   UNL     1       7.446  -3.763  -7.395  1.00  0.00     0.043 A 
ATOM     83  C   UNL     1       7.087  -0.988  -7.457  1.00  0.00     0.003 A 
ATOM     84  C   UNL     1       8.195  -2.965  -8.256  1.00  0.00     0.123 A 
ATOM     85  C   UNL     1       8.026  -1.585  -8.293  1.00  0.00     0.039 A 
ATOM     86  F   UNL     1       9.096  -3.537  -9.067  1.00  0.00    -0.207 F 
ENDBRANCH  79  80
ENDBRANCH  78  79
BRANCH  78  87
ATOM     87  C   UNL     1       7.350  -3.818  -3.654  1.00  0.00     0.049 C 
BRANCH  87  88
ATOM     88  C   UNL     1       8.712  -4.308  -3.193  1.00  0.00    -0.044 A 
ATOM     89  C   UNL     1       9.528  -5.159  -3.952  1.00  0.00     0.004 A 
ATOM     90  C   UNL     1       9.202  -3.853  -1.955  1.00  0.00     0.049 A 
ATOM     91  C   UNL     1      10.745  -5.627  -3.439  1.00  0.00     0.004 A 
ATOM     92  C   UNL     1      10.414  -4.320  -1.455  1.00  0.00     0.115 A 
ATOM     93  C   UNL     1      11.185  -5.218  -2.180  1.00  0.00     0.046 A 
BRANCH  92  94
ATOM     94  O   UNL     1      10.802  -3.880  -0.225  1.00  0.00    -0.508 OA
ATOM     95  H   UNL     1      11.612  -4.173   0.144  1.00  0.00     0.293 HD
ENDBRANCH  92  94
ENDBRANCH  87  88
ENDBRANCH  78  87
ENDBRANCH  75  78
ENDBRANCH  73  74
ENDBRANCH  72  73
ENDBRANCH   1  72
TORSDOF 19
