REMARK SMILES O=C(NCCCCNC(=O)c1ccc([S@@](=O)[C@H]2CCOC3(CCCC3)C2)cc1)c1ccc(-c2c3nc(c(-c4cc(S(=O)(=O)[O-])ccc4F)c4ccc([nH]4)c(-c4cc(S(=O)(=O)[O-])ccc4F)c4nc(c(-c5cc(S(=O)(=O)[O-])ccc5F)c5ccc2[nH]5)C=C4)C=C3)cc1
REMARK SMILES IDX 5 1 4 2 3 3 1 4 2 5 29 7 30 8 91 9 31 10 90 11 32 12 33 13
REMARK SMILES IDX 34 14 84 15 35 16 89 17 83 18 85 19 36 20 88 21 82 22 81 23
REMARK SMILES IDX 37 25 69 26 49 27 68 28 50 29 53 30 67 31 86 32 51 33 52 34
REMARK SMILES IDX 66 36 87 37 54 38 38 39 39 40 47 41 40 42 46 43 48 44 45 45
REMARK SMILES IDX 41 46 42 47 43 48 44 49 70 50 71 51 79 52 72 53 78 54 80 55
REMARK SMILES IDX 77 56 73 57 74 58 75 59 76 60 55 61 56 62 64 63 57 64 63 65
REMARK SMILES IDX 65 66 62 67 58 68 59 69 60 70 61 71 6 72 7 73 8 74 9 75
REMARK SMILES IDX 10 77 11 78 12 79 28 80 13 81 27 82 14 83 15 84 16 85 17 86
REMARK SMILES IDX 18 87 26 88 19 89 21 90 20 91 22 92 25 93 23 94 24 95
REMARK H PARENT 3 6 85 24 53 35 8 76
REMARK Flexibility Score: inf
ROOT
ATOM      1  C   UNL     1      -5.306   2.174  11.190  1.00  0.00     0.023 C 
ENDROOT
BRANCH   1   2
ATOM      2  C   UNL     1      -6.455   3.101  11.563  1.00  0.00     0.116 C 
BRANCH   2   3
ATOM      3  N   UNL     1      -7.031   3.772  10.409  1.00  0.00    -0.352 N 
ATOM      4  O   UNL     1      -8.622   4.291   8.901  1.00  0.00    -0.269 OA
ATOM      5  C   UNL     1      -8.340   3.798   9.991  1.00  0.00     0.251 C 
ATOM      6  H   UNL     1      -6.397   4.278   9.852  1.00  0.00     0.163 HD
BRANCH   5   7
ATOM      7  C   UNL     1      -9.400   3.218  10.845  1.00  0.00     0.039 A 
ATOM      8  C   UNL     1      -9.446   3.501  12.214  1.00  0.00     0.014 A 
ATOM      9  C   UNL     1     -10.374   2.400  10.265  1.00  0.00     0.014 A 
ATOM     10  C   UNL     1     -10.398   2.883  13.018  1.00  0.00     0.010 A 
ATOM     11  C   UNL     1     -11.375   1.839  11.063  1.00  0.00     0.010 A 
ATOM     12  C   UNL     1     -11.389   2.069  12.448  1.00  0.00    -0.014 A 
BRANCH  12  13
ATOM     13  C   UNL     1     -12.500   1.568  13.296  1.00  0.00     0.031 A 
ATOM     14  C   UNL     1     -12.678   0.100  13.565  1.00  0.00     0.074 A 
ATOM     15  C   UNL     1     -13.362   2.469  13.809  1.00  0.00     0.049 A 
ATOM     16  N   UNL     1     -13.617  -0.500  14.250  1.00  0.00    -0.248 NA
ATOM     17  C   UNL     1     -11.679  -0.813  12.989  1.00  0.00     0.031 C 
ATOM     18  C   UNL     1     -13.284   3.918  13.598  1.00  0.00     0.029 A 
ATOM     19  N   UNL     1     -14.468   2.312  14.604  1.00  0.00    -0.354 N 
ATOM     20  C   UNL     1     -13.340  -1.860  14.172  1.00  0.00     0.074 A 
ATOM     21  C   UNL     1     -12.147  -1.998  13.362  1.00  0.00     0.031 C 
ATOM     22  C   UNL     1     -14.287   4.515  14.258  1.00  0.00     0.029 A 
ATOM     23  C   UNL     1     -15.120   3.493  14.877  1.00  0.00     0.049 A 
ATOM     24  H   UNL     1     -14.767   1.439  14.946  1.00  0.00     0.167 HD
ATOM     25  C   UNL     1     -14.023  -2.890  14.729  1.00  0.00     0.034 A 
ATOM     26  C   UNL     1     -16.284   3.727  15.513  1.00  0.00     0.034 A 
ATOM     27  C   UNL     1     -15.201  -2.725  15.547  1.00  0.00     0.049 A 
ATOM     28  C   UNL     1     -17.044   2.555  16.073  1.00  0.00     0.074 A 
ATOM     29  C   UNL     1     -15.910  -3.692  16.239  1.00  0.00     0.029 A 
ATOM     30  N   UNL     1     -15.858  -1.521  15.764  1.00  0.00    -0.354 N 
ATOM     31  N   UNL     1     -16.727   1.281  16.049  1.00  0.00    -0.248 NA
ATOM     32  C   UNL     1     -18.318   2.849  16.741  1.00  0.00     0.031 C 
ATOM     33  C   UNL     1     -17.037  -3.088  16.807  1.00  0.00     0.029 A 
ATOM     34  C   UNL     1     -16.995  -1.731  16.530  1.00  0.00     0.049 A 
ATOM     35  H   UNL     1     -15.561  -0.647  15.424  1.00  0.00     0.167 HD
ATOM     36  C   UNL     1     -17.761   0.623  16.705  1.00  0.00     0.074 A 
ATOM     37  C   UNL     1     -18.694   1.643  17.140  1.00  0.00     0.031 C 
ATOM     38  C   UNL     1     -17.928  -0.705  16.928  1.00  0.00     0.034 A 
BRANCH  25  39
ATOM     39  C   UNL     1     -13.556  -4.295  14.440  1.00  0.00     0.023 A 
ATOM     40  C   UNL     1     -12.348  -4.802  14.948  1.00  0.00     0.031 A 
ATOM     41  C   UNL     1     -14.364  -5.156  13.675  1.00  0.00     0.131 A 
ATOM     42  C   UNL     1     -11.968  -6.122  14.657  1.00  0.00     0.055 A 
ATOM     43  C   UNL     1     -14.008  -6.484  13.437  1.00  0.00     0.041 A 
ATOM     44  F   UNL     1     -15.520  -4.718  13.150  1.00  0.00    -0.206 F 
ATOM     45  C   UNL     1     -12.800  -6.973  13.925  1.00  0.00     0.022 A 
BRANCH  42  46
ATOM     46  S   UNL     1     -10.329  -6.695  15.184  1.00  0.00     0.124 S 
ATOM     47  O   UNL     1      -9.449  -5.771  14.474  1.00  0.00    -0.237 OA
ATOM     48  O   UNL     1     -10.389  -6.535  16.633  1.00  0.00    -0.237 OA
ATOM     49  O   UNL     1     -10.280  -8.078  14.713  1.00  0.00    -0.744 OA
ENDBRANCH  42  46
ENDBRANCH  25  39
BRANCH  26  50
ATOM     50  C   UNL     1     -16.837   5.109  15.590  1.00  0.00     0.023 A 
ATOM     51  C   UNL     1     -17.045   5.742  16.824  1.00  0.00     0.031 A 
ATOM     52  C   UNL     1     -17.215   5.798  14.423  1.00  0.00     0.131 A 
ATOM     53  C   UNL     1     -17.658   7.004  16.866  1.00  0.00     0.055 A 
ATOM     54  C   UNL     1     -17.768   7.078  14.467  1.00  0.00     0.041 A 
ATOM     55  F   UNL     1     -17.040   5.238  13.215  1.00  0.00    -0.206 F 
ATOM     56  C   UNL     1     -18.007   7.682  15.696  1.00  0.00     0.022 A 
BRANCH  53  57
ATOM     57  S   UNL     1     -18.095   7.701  18.483  1.00  0.00     0.124 S 
ATOM     58  O   UNL     1     -18.881   6.622  19.070  1.00  0.00    -0.237 OA
ATOM     59  O   UNL     1     -16.782   7.934  19.075  1.00  0.00    -0.237 OA
ATOM     60  O   UNL     1     -18.846   8.906  18.140  1.00  0.00    -0.744 OA
ENDBRANCH  53  57
ENDBRANCH  26  50
BRANCH  38  61
ATOM     61  C   UNL     1     -19.166  -1.112  17.684  1.00  0.00     0.023 A 
ATOM     62  C   UNL     1     -20.444  -0.987  17.112  1.00  0.00     0.031 A 
ATOM     63  C   UNL     1     -19.069  -1.611  18.994  1.00  0.00     0.131 A 
ATOM     64  C   UNL     1     -21.580  -1.310  17.867  1.00  0.00     0.055 A 
ATOM     65  C   UNL     1     -20.200  -1.984  19.721  1.00  0.00     0.041 A 
ATOM     66  F   UNL     1     -17.872  -1.745  19.587  1.00  0.00    -0.206 F 
ATOM     67  C   UNL     1     -21.465  -1.823  19.162  1.00  0.00     0.022 A 
BRANCH  64  68
ATOM     68  S   UNL     1     -23.217  -0.981  17.161  1.00  0.00     0.124 S 
ATOM     69  O   UNL     1     -23.191   0.469  16.999  1.00  0.00    -0.237 OA
ATOM     70  O   UNL     1     -23.191  -1.761  15.928  1.00  0.00    -0.237 OA
ATOM     71  O   UNL     1     -24.137  -1.474  18.185  1.00  0.00    -0.744 OA
ENDBRANCH  64  68
ENDBRANCH  38  61
ENDBRANCH  12  13
ENDBRANCH   5   7
ENDBRANCH   2   3
ENDBRANCH   1   2
BRANCH   1  72
ATOM     72  C   UNL     1      -4.092   2.854  10.560  1.00  0.00     0.023 C 
BRANCH  72  73
ATOM     73  C   UNL     1      -3.520   4.038  11.337  1.00  0.00     0.116 C 
BRANCH  73  74
ATOM     74  N   UNL     1      -3.146   3.695  12.697  1.00  0.00    -0.352 N 
ATOM     75  C   UNL     1      -1.955   3.845  13.360  1.00  0.00     0.251 C 
ATOM     76  H   UNL     1      -3.866   3.288  13.232  1.00  0.00     0.163 HD
ATOM     77  O   UNL     1      -1.819   3.358  14.479  1.00  0.00    -0.269 OA
BRANCH  75  78
ATOM     78  C   UNL     1      -0.818   4.563  12.743  1.00  0.00     0.039 A 
ATOM     79  C   UNL     1       0.465   4.034  12.915  1.00  0.00     0.015 A 
ATOM     80  C   UNL     1      -0.979   5.781  12.075  1.00  0.00     0.015 A 
ATOM     81  C   UNL     1       1.571   4.687  12.367  1.00  0.00     0.018 A 
ATOM     82  C   UNL     1       0.124   6.406  11.486  1.00  0.00     0.018 A 
ATOM     83  C   UNL     1       1.402   5.848  11.607  1.00  0.00     0.039 A 
BRANCH  83  84
ATOM     84  S   UNL     1       2.799   6.710  10.869  1.00  0.00     0.056 S 
ATOM     85  O   UNL     1       3.912   6.614  11.871  1.00  0.00    -0.254 OA
BRANCH  84  86
ATOM     86  C   UNL     1       3.238   5.623   9.467  1.00  0.00     0.089 C 
ATOM     87  C   UNL     1       3.804   4.271   9.880  1.00  0.00     0.046 C 
ATOM     88  C   UNL     1       2.107   5.433   8.462  1.00  0.00     0.053 C 
ATOM     89  C   UNL     1       4.253   3.508   8.646  1.00  0.00     0.162 C 
ATOM     90  C   UNL     1       2.593   4.609   7.254  1.00  0.00     0.069 C 
ATOM     91  O   UNL     1       3.195   3.383   7.697  1.00  0.00    -0.375 OA
ATOM     92  C   UNL     1       1.409   4.207   6.339  1.00  0.00     0.035 C 
ATOM     93  C   UNL     1       3.550   5.395   6.331  1.00  0.00     0.035 C 
ATOM     94  C   UNL     1       1.707   4.800   4.966  1.00  0.00     0.003 C 
ATOM     95  C   UNL     1       3.219   4.902   4.929  1.00  0.00     0.003 C 
ENDBRANCH  84  86
ENDBRANCH  83  84
ENDBRANCH  75  78
ENDBRANCH  73  74
ENDBRANCH  72  73
ENDBRANCH   1  72
TORSDOF 16
