REMARK SMILES C[NH2+][C@@]1(C(=O)NCCCCNC(=O)c2ccc(-c3c4nc(c(-c5cc(S(=O)(=O)[O-])ccc5F)c5ccc([nH]5)c(-c5cc(S(=O)(=O)[O-])ccc5F)c5nc(c(-c6cc(S(=O)(=O)[O-])ccc6F)c6ccc3[nH]6)C=C5)C=C4)cc2)CC[C@H](Sc2ccc(C)c(C)c2)C1
REMARK SMILES IDX 9 1 8 2 7 3 6 4 4 5 5 6 3 8 77 9 89 10 78 11 79 12 2 13 1 14
REMARK SMILES IDX 80 17 81 18 82 19 88 20 83 21 86 22 84 23 87 24 85 25 10 26
REMARK SMILES IDX 11 27 12 28 13 30 14 31 15 32 76 33 16 34 75 35 17 36 18 37
REMARK SMILES IDX 19 38 69 39 20 40 74 41 68 42 70 43 21 44 73 45 67 46 66 47
REMARK SMILES IDX 22 49 54 50 34 51 53 52 35 53 38 54 52 55 71 56 36 57 37 58
REMARK SMILES IDX 51 60 72 61 39 62 23 63 24 64 32 65 25 66 31 67 33 68 30 69
REMARK SMILES IDX 26 70 27 71 28 72 29 73 55 74 56 75 64 76 57 77 63 78 65 79
REMARK SMILES IDX 62 80 58 81 59 82 60 83 61 84 40 85 41 86 49 87 42 88 48 89
REMARK SMILES IDX 50 90 47 91 43 92 44 93 45 94 46 95
REMARK H PARENT 6 7 2 15 2 16 11 29 70 48 38 59
REMARK Flexibility Score: inf
ROOT
ATOM      1  C   UNL     1      -5.275  -0.012   3.230  1.00  0.00     0.023 C 
ENDROOT
BRANCH   1   2
ATOM      2  C   UNL     1      -4.516  -0.147   1.923  1.00  0.00     0.023 C 
BRANCH   2   3
ATOM      3  C   UNL     1      -3.810   1.108   1.441  1.00  0.00     0.116 C 
BRANCH   3   4
ATOM      4  N   UNL     1      -2.485   1.281   1.974  1.00  0.00    -0.351 N 
ATOM      5  C   UNL     1      -1.301   1.481   1.336  1.00  0.00     0.281 C 
ATOM      6  O   UNL     1      -0.356   1.825   2.062  1.00  0.00    -0.268 OA
ATOM      7  H   UNL     1      -2.426   1.250   2.957  1.00  0.00     0.163 HD
BRANCH   5   8
ATOM      8  C   UNL     1      -1.096   1.356  -0.233  1.00  0.00     0.176 C 
ATOM      9  C   UNL     1      -1.663   2.605  -0.948  1.00  0.00     0.080 C 
ATOM     10  C   UNL     1      -1.779   0.156  -0.919  1.00  0.00     0.094 C 
ATOM     11  C   UNL     1      -2.964   2.188  -1.637  1.00  0.00     0.022 C 
ATOM     12  C   UNL     1      -2.752   0.718  -1.980  1.00  0.00     0.058 C 
BRANCH   8  13
ATOM     13  N   UNL     1       0.388   1.371  -0.475  1.00  0.00    -0.336 N 
ATOM     14  C   UNL     1       1.074   0.144  -0.065  1.00  0.00     0.331 C 
ATOM     15  H   UNL     1       0.548   1.509  -1.473  1.00  0.00     0.346 HD
ATOM     16  H   UNL     1       0.770   2.126   0.094  1.00  0.00     0.346 HD
ENDBRANCH   8  13
BRANCH  12  17
ATOM     17  S   UNL     1      -4.138  -0.482  -2.212  1.00  0.00    -0.122 SA
BRANCH  17  18
ATOM     18  C   UNL     1      -5.693   0.336  -1.896  1.00  0.00     0.008 A 
ATOM     19  C   UNL     1      -6.058   1.543  -2.480  1.00  0.00     0.015 A 
ATOM     20  C   UNL     1      -6.667  -0.371  -1.169  1.00  0.00     0.018 A 
ATOM     21  C   UNL     1      -7.362   2.032  -2.336  1.00  0.00     0.005 A 
ATOM     22  C   UNL     1      -7.980   0.114  -0.995  1.00  0.00    -0.047 A 
ATOM     23  C   UNL     1      -8.339   1.321  -1.616  1.00  0.00    -0.048 A 
ATOM     24  C   UNL     1      -8.961  -0.710  -0.203  1.00  0.00     0.044 C 
ATOM     25  C   UNL     1      -9.741   1.875  -1.603  1.00  0.00     0.044 C 
ENDBRANCH  17  18
ENDBRANCH  12  17
ENDBRANCH   5   8
ENDBRANCH   3   4
ENDBRANCH   2   3
ENDBRANCH   1   2
BRANCH   1  26
ATOM     26  C   UNL     1      -6.117   1.246   3.390  1.00  0.00     0.116 C 
BRANCH  26  27
ATOM     27  N   UNL     1      -7.010   1.556   2.278  1.00  0.00    -0.352 N 
ATOM     28  C   UNL     1      -8.310   2.019   2.344  1.00  0.00     0.251 C 
ATOM     29  H   UNL     1      -6.643   1.419   1.375  1.00  0.00     0.163 HD
ATOM     30  O   UNL     1      -8.924   2.377   1.357  1.00  0.00    -0.269 OA
BRANCH  28  31
ATOM     31  C   UNL     1      -8.972   2.016   3.654  1.00  0.00     0.039 A 
ATOM     32  C   UNL     1     -10.061   1.164   3.851  1.00  0.00     0.014 A 
ATOM     33  C   UNL     1      -8.424   2.756   4.700  1.00  0.00     0.014 A 
ATOM     34  C   UNL     1     -10.563   0.994   5.138  1.00  0.00     0.010 A 
ATOM     35  C   UNL     1      -8.865   2.512   5.989  1.00  0.00     0.010 A 
ATOM     36  C   UNL     1      -9.940   1.634   6.219  1.00  0.00    -0.014 A 
BRANCH  36  37
ATOM     37  C   UNL     1     -10.415   1.462   7.612  1.00  0.00     0.031 A 
ATOM     38  C   UNL     1     -10.906   2.673   8.350  1.00  0.00     0.074 A 
ATOM     39  C   UNL     1     -10.298   0.270   8.228  1.00  0.00     0.049 A 
ATOM     40  N   UNL     1     -11.149   2.829   9.623  1.00  0.00    -0.248 NA
ATOM     41  C   UNL     1     -11.092   3.892   7.545  1.00  0.00     0.031 C 
ATOM     42  C   UNL     1      -9.806  -0.964   7.610  1.00  0.00     0.029 A 
ATOM     43  N   UNL     1     -10.562  -0.092   9.524  1.00  0.00    -0.354 N 
ATOM     44  C   UNL     1     -11.467   4.174   9.780  1.00  0.00     0.074 A 
ATOM     45  C   UNL     1     -11.329   4.796   8.482  1.00  0.00     0.031 C 
ATOM     46  C   UNL     1      -9.814  -1.947   8.526  1.00  0.00     0.029 A 
ATOM     47  C   UNL     1     -10.258  -1.404   9.805  1.00  0.00     0.049 A 
ATOM     48  H   UNL     1     -10.935   0.529  10.191  1.00  0.00     0.167 HD
ATOM     49  C   UNL     1     -11.857   4.821  10.905  1.00  0.00     0.034 A 
ATOM     50  C   UNL     1     -10.309  -2.079  10.970  1.00  0.00     0.034 A 
ATOM     51  C   UNL     1     -12.028   4.161  12.174  1.00  0.00     0.049 A 
ATOM     52  C   UNL     1     -10.768  -1.344  12.205  1.00  0.00     0.074 A 
ATOM     53  C   UNL     1     -12.479   4.691  13.369  1.00  0.00     0.029 A 
ATOM     54  N   UNL     1     -11.759   2.818  12.410  1.00  0.00    -0.354 N 
ATOM     55  N   UNL     1     -11.091  -0.077  12.340  1.00  0.00    -0.248 NA
ATOM     56  C   UNL     1     -10.878  -2.129  13.440  1.00  0.00     0.031 C 
ATOM     57  C   UNL     1     -12.431   3.683  14.338  1.00  0.00     0.029 A 
ATOM     58  C   UNL     1     -12.018   2.506  13.734  1.00  0.00     0.049 A 
ATOM     59  H   UNL     1     -11.432   2.181  11.734  1.00  0.00     0.167 HD
ATOM     60  C   UNL     1     -11.470   0.079  13.670  1.00  0.00     0.074 A 
ATOM     61  C   UNL     1     -11.349  -1.227  14.289  1.00  0.00     0.031 C 
ATOM     62  C   UNL     1     -11.883   1.195  14.324  1.00  0.00     0.034 A 
BRANCH  49  63
ATOM     63  C   UNL     1     -12.090   6.309  10.802  1.00  0.00     0.023 A 
ATOM     64  C   UNL     1     -13.073   6.849   9.953  1.00  0.00     0.031 A 
ATOM     65  C   UNL     1     -11.282   7.206  11.523  1.00  0.00     0.131 A 
ATOM     66  C   UNL     1     -13.162   8.237   9.776  1.00  0.00     0.055 A 
ATOM     67  C   UNL     1     -11.436   8.590  11.411  1.00  0.00     0.041 A 
ATOM     68  F   UNL     1     -10.311   6.753  12.331  1.00  0.00    -0.206 F 
ATOM     69  C   UNL     1     -12.369   9.113  10.520  1.00  0.00     0.022 A 
BRANCH  66  70
ATOM     70  S   UNL     1     -14.218   8.873   8.446  1.00  0.00     0.124 S 
ATOM     71  O   UNL     1     -13.607   8.261   7.268  1.00  0.00    -0.237 OA
ATOM     72  O   UNL     1     -15.534   8.366   8.818  1.00  0.00    -0.237 OA
ATOM     73  O   UNL     1     -14.056  10.322   8.542  1.00  0.00    -0.744 OA
ENDBRANCH  66  70
ENDBRANCH  49  63
BRANCH  50  74
ATOM     74  C   UNL     1      -9.907  -3.513  11.036  1.00  0.00     0.023 A 
ATOM     75  C   UNL     1     -10.846  -4.512  11.336  1.00  0.00     0.031 A 
ATOM     76  C   UNL     1      -8.572  -3.904  10.829  1.00  0.00     0.131 A 
ATOM     77  C   UNL     1     -10.432  -5.847  11.465  1.00  0.00     0.055 A 
ATOM     78  C   UNL     1      -8.174  -5.240  10.910  1.00  0.00     0.041 A 
ATOM     79  F   UNL     1      -7.635  -2.990  10.529  1.00  0.00    -0.206 F 
ATOM     80  C   UNL     1      -9.104  -6.220  11.242  1.00  0.00     0.022 A 
BRANCH  77  81
ATOM     81  S   UNL     1     -11.644  -7.085  12.002  1.00  0.00     0.124 S 
ATOM     82  O   UNL     1     -12.075  -6.542  13.285  1.00  0.00    -0.237 OA
ATOM     83  O   UNL     1     -12.625  -7.035  10.922  1.00  0.00    -0.237 OA
ATOM     84  O   UNL     1     -10.863  -8.318  12.074  1.00  0.00    -0.744 OA
ENDBRANCH  77  81
ENDBRANCH  50  74
BRANCH  62  85
ATOM     85  C   UNL     1     -12.281   1.030  15.769  1.00  0.00     0.023 A 
ATOM     86  C   UNL     1     -11.338   0.725  16.765  1.00  0.00     0.031 A 
ATOM     87  C   UNL     1     -13.626   1.179  16.150  1.00  0.00     0.131 A 
ATOM     88  C   UNL     1     -11.761   0.526  18.087  1.00  0.00     0.055 A 
ATOM     89  C   UNL     1     -14.032   1.040  17.477  1.00  0.00     0.041 A 
ATOM     90  F   UNL     1     -14.567   1.470  15.237  1.00  0.00    -0.206 F 
ATOM     91  C   UNL     1     -13.099   0.699  18.452  1.00  0.00     0.022 A 
BRANCH  88  92
ATOM     92  S   UNL     1     -10.552  -0.048  19.309  1.00  0.00     0.124 S 
ATOM     93  O   UNL     1     -10.097  -1.302  18.719  1.00  0.00    -0.237 OA
ATOM     94  O   UNL     1      -9.580   1.040  19.323  1.00  0.00    -0.237 OA
ATOM     95  O   UNL     1     -11.341  -0.188  20.532  1.00  0.00    -0.744 OA
ENDBRANCH  88  92
ENDBRANCH  62  85
ENDBRANCH  36  37
ENDBRANCH  28  31
ENDBRANCH  26  27
ENDBRANCH   1  26
TORSDOF 17
