REMARK SMILES CCC[NH2+][C@]1(C(=O)NCCCCNC(=O)c2ccc(-c3c4nc(c(-c5cc(S(=O)(=O)[O-])ccc5F)c5ccc([nH]5)c(-c5cc(S(=O)(=O)[O-])ccc5F)c5nc(c(-c6cc(S(=O)(=O)[O-])ccc6F)c6ccc3[nH]6)C=C5)C=C4)cc2)CC[C@@H](Sc2nnc(C)n2C)C1
REMARK SMILES IDX 10 1 9 2 8 3 6 4 7 5 5 7 79 8 90 9 80 10 81 11 4 12 3 15
REMARK SMILES IDX 2 16 1 17 82 18 83 19 84 20 88 21 85 22 86 23 89 24 87 25
REMARK SMILES IDX 11 26 12 27 13 28 14 29 15 31 16 32 17 33 78 34 18 35 77 36
REMARK SMILES IDX 19 37 20 38 21 39 71 40 22 41 76 42 70 43 72 44 23 45 75 46
REMARK SMILES IDX 69 47 68 48 24 50 56 51 36 52 55 53 37 54 40 55 54 56 73 57
REMARK SMILES IDX 38 58 39 59 53 61 74 62 41 63 25 64 26 65 34 66 27 67 33 68
REMARK SMILES IDX 35 69 32 70 28 71 29 72 30 73 31 74 57 75 58 76 66 77 59 78
REMARK SMILES IDX 65 79 67 80 64 81 60 82 61 83 62 84 63 85 42 86 43 87 51 88
REMARK SMILES IDX 44 89 50 90 52 91 49 92 45 93 46 94 47 95 48 96
REMARK H PARENT 8 6 4 13 4 14 13 30 72 49 40 60
REMARK Flexibility Score: inf
ROOT
ATOM      1  C   UNL     1      -2.064  -4.195   0.611  1.00  0.00     0.023 C 
ENDROOT
BRANCH   1   2
ATOM      2  C   UNL     1      -0.611  -3.967   0.208  1.00  0.00     0.116 C 
BRANCH   2   3
ATOM      3  N   UNL     1      -0.051  -2.771   0.807  1.00  0.00    -0.351 N 
ATOM      4  C   UNL     1       0.686  -2.528   1.915  1.00  0.00     0.281 C 
ATOM      5  O   UNL     1       1.020  -1.341   2.073  1.00  0.00    -0.268 OA
ATOM      6  H   UNL     1      -0.252  -1.956   0.293  1.00  0.00     0.163 HD
BRANCH   4   7
ATOM      7  C   UNL     1       1.109  -3.570   3.001  1.00  0.00     0.176 C 
ATOM      8  C   UNL     1       0.892  -5.068   2.792  1.00  0.00     0.080 C 
ATOM      9  C   UNL     1       2.663  -3.474   3.103  1.00  0.00     0.094 C 
ATOM     10  C   UNL     1       1.963  -5.759   3.622  1.00  0.00     0.022 C 
ATOM     11  C   UNL     1       3.192  -4.872   3.441  1.00  0.00     0.062 C 
BRANCH   7  12
ATOM     12  N   UNL     1       0.610  -3.101   4.330  1.00  0.00    -0.334 N 
ATOM     13  H   UNL     1       1.000  -3.711   5.048  1.00  0.00     0.347 HD
ATOM     14  H   UNL     1       0.908  -2.130   4.422  1.00  0.00     0.347 HD
BRANCH  12  15
ATOM     15  C   UNL     1      -0.847  -3.102   4.473  1.00  0.00     0.261 C 
BRANCH  15  16
ATOM     16  C   UNL     1      -1.253  -2.482   5.818  1.00  0.00     0.058 C 
ATOM     17  C   UNL     1      -0.950  -0.992   5.925  1.00  0.00     0.010 C 
ENDBRANCH  15  16
ENDBRANCH  12  15
ENDBRANCH   7  12
BRANCH  11  18
ATOM     18  S   UNL     1       4.440  -5.454   2.229  1.00  0.00    -0.082 SA
BRANCH  18  19
ATOM     19  C   UNL     1       3.582  -5.520   0.730  1.00  0.00     0.191 A 
ATOM     20  N   UNL     1       2.834  -6.522   0.334  1.00  0.00    -0.123 NA
ATOM     21  N   UNL     1       3.624  -4.565  -0.249  1.00  0.00    -0.309 N 
ATOM     22  N   UNL     1       2.363  -6.224  -0.923  1.00  0.00    -0.135 NA
ATOM     23  C   UNL     1       2.855  -5.056  -1.281  1.00  0.00     0.130 A 
ATOM     24  C   UNL     1       4.278  -3.282  -0.242  1.00  0.00     0.154 C 
ATOM     25  C   UNL     1       2.643  -4.376  -2.581  1.00  0.00     0.090 C 
ENDBRANCH  18  19
ENDBRANCH  11  18
ENDBRANCH   4   7
ENDBRANCH   2   3
ENDBRANCH   1   2
BRANCH   1  26
ATOM     26  C   UNL     1      -3.081  -3.456  -0.264  1.00  0.00     0.023 C 
BRANCH  26  27
ATOM     27  C   UNL     1      -2.955  -3.697  -1.769  1.00  0.00     0.116 C 
BRANCH  27  28
ATOM     28  N   UNL     1      -2.862  -5.098  -2.137  1.00  0.00    -0.352 N 
ATOM     29  C   UNL     1      -3.281  -5.711  -3.301  1.00  0.00     0.251 C 
ATOM     30  H   UNL     1      -2.446  -5.688  -1.468  1.00  0.00     0.163 HD
ATOM     31  O   UNL     1      -3.219  -6.924  -3.411  1.00  0.00    -0.269 OA
BRANCH  29  32
ATOM     32  C   UNL     1      -3.846  -4.881  -4.384  1.00  0.00     0.039 A 
ATOM     33  C   UNL     1      -5.065  -5.260  -4.949  1.00  0.00     0.014 A 
ATOM     34  C   UNL     1      -3.198  -3.720  -4.815  1.00  0.00     0.014 A 
ATOM     35  C   UNL     1      -5.672  -4.434  -5.898  1.00  0.00     0.010 A 
ATOM     36  C   UNL     1      -3.837  -2.862  -5.705  1.00  0.00     0.010 A 
ATOM     37  C   UNL     1      -5.081  -3.210  -6.254  1.00  0.00    -0.014 A 
BRANCH  37  38
ATOM     38  C   UNL     1      -5.756  -2.285  -7.199  1.00  0.00     0.031 A 
ATOM     39  C   UNL     1      -5.127  -1.971  -8.528  1.00  0.00     0.074 A 
ATOM     40  C   UNL     1      -6.908  -1.689  -6.833  1.00  0.00     0.049 A 
ATOM     41  N   UNL     1      -5.541  -1.164  -9.471  1.00  0.00    -0.248 NA
ATOM     42  C   UNL     1      -3.843  -2.627  -8.819  1.00  0.00     0.031 C 
ATOM     43  C   UNL     1      -7.582  -1.871  -5.545  1.00  0.00     0.029 A 
ATOM     44  N   UNL     1      -7.717  -0.809  -7.506  1.00  0.00    -0.354 N 
ATOM     45  C   UNL     1      -4.566  -1.207 -10.462  1.00  0.00     0.074 A 
ATOM     46  C   UNL     1      -3.508  -2.064  -9.970  1.00  0.00     0.031 C 
ATOM     47  C   UNL     1      -8.716  -1.152  -5.535  1.00  0.00     0.029 A 
ATOM     48  C   UNL     1      -8.834  -0.430  -6.798  1.00  0.00     0.049 A 
ATOM     49  H   UNL     1      -7.517  -0.479  -8.412  1.00  0.00     0.167 HD
ATOM     50  C   UNL     1      -4.567  -0.609 -11.680  1.00  0.00     0.034 A 
ATOM     51  C   UNL     1      -9.839   0.403  -7.130  1.00  0.00     0.034 A 
ATOM     52  C   UNL     1      -5.639   0.230 -12.157  1.00  0.00     0.049 A 
ATOM     53  C   UNL     1      -9.823   1.050  -8.491  1.00  0.00     0.074 A 
ATOM     54  C   UNL     1      -5.773   0.843 -13.390  1.00  0.00     0.029 A 
ATOM     55  N   UNL     1      -6.764   0.578 -11.419  1.00  0.00    -0.354 N 
ATOM     56  N   UNL     1      -8.922   0.953  -9.442  1.00  0.00    -0.248 NA
ATOM     57  C   UNL     1     -10.968   1.903  -8.830  1.00  0.00     0.031 C 
ATOM     58  C   UNL     1      -6.945   1.609 -13.377  1.00  0.00     0.029 A 
ATOM     59  C   UNL     1      -7.583   1.416 -12.162  1.00  0.00     0.049 A 
ATOM     60  H   UNL     1      -6.953   0.274 -10.502  1.00  0.00     0.167 HD
ATOM     61  C   UNL     1      -9.409   1.710 -10.503  1.00  0.00     0.074 A 
ATOM     62  C   UNL     1     -10.690   2.239 -10.081  1.00  0.00     0.031 C 
ATOM     63  C   UNL     1      -8.851   1.946 -11.719  1.00  0.00     0.034 A 
BRANCH  50  64
ATOM     64  C   UNL     1      -3.360  -0.833 -12.561  1.00  0.00     0.023 A 
ATOM     65  C   UNL     1      -3.004  -2.116 -13.012  1.00  0.00     0.031 A 
ATOM     66  C   UNL     1      -2.530   0.243 -12.924  1.00  0.00     0.131 A 
ATOM     67  C   UNL     1      -1.810  -2.304 -13.724  1.00  0.00     0.055 A 
ATOM     68  C   UNL     1      -1.389   0.061 -13.707  1.00  0.00     0.041 A 
ATOM     69  F   UNL     1      -2.804   1.489 -12.507  1.00  0.00    -0.206 F 
ATOM     70  C   UNL     1      -1.012  -1.221 -14.098  1.00  0.00     0.022 A 
BRANCH  67  71
ATOM     71  S   UNL     1      -1.236  -4.000 -14.018  1.00  0.00     0.124 S 
ATOM     72  O   UNL     1      -1.110  -4.507 -12.653  1.00  0.00    -0.237 OA
ATOM     73  O   UNL     1      -2.318  -4.566 -14.813  1.00  0.00    -0.237 OA
ATOM     74  O   UNL     1       0.030  -3.815 -14.725  1.00  0.00    -0.744 OA
ENDBRANCH  67  71
ENDBRANCH  50  64
BRANCH  51  75
ATOM     75  C   UNL     1     -10.949   0.670  -6.171  1.00  0.00     0.023 A 
ATOM     76  C   UNL     1     -12.263   0.265  -6.455  1.00  0.00     0.031 A 
ATOM     77  C   UNL     1     -10.718   1.370  -4.973  1.00  0.00     0.131 A 
ATOM     78  C   UNL     1     -13.305   0.604  -5.578  1.00  0.00     0.055 A 
ATOM     79  C   UNL     1     -11.750   1.661  -4.079  1.00  0.00     0.041 A 
ATOM     80  F   UNL     1      -9.479   1.772  -4.649  1.00  0.00    -0.206 F 
ATOM     81  C   UNL     1     -13.056   1.289  -4.386  1.00  0.00     0.022 A 
BRANCH  78  82
ATOM     82  S   UNL     1     -15.008   0.207  -6.059  1.00  0.00     0.124 S 
ATOM     83  O   UNL     1     -15.130   0.910  -7.331  1.00  0.00    -0.237 OA
ATOM     84  O   UNL     1     -14.969  -1.250  -6.131  1.00  0.00    -0.237 OA
ATOM     85  O   UNL     1     -15.806   0.753  -4.963  1.00  0.00    -0.744 OA
ENDBRANCH  78  82
ENDBRANCH  51  75
BRANCH  63  86
ATOM     86  C   UNL     1      -9.654   2.783 -12.684  1.00  0.00     0.023 A 
ATOM     87  C   UNL     1      -9.921   4.141 -12.440  1.00  0.00     0.031 A 
ATOM     88  C   UNL     1     -10.182   2.205 -13.852  1.00  0.00     0.131 A 
ATOM     89  C   UNL     1     -10.749   4.859 -13.315  1.00  0.00     0.055 A 
ATOM     90  C   UNL     1     -10.953   2.941 -14.752  1.00  0.00     0.041 A 
ATOM     91  F   UNL     1      -9.960   0.911 -14.135  1.00  0.00    -0.206 F 
ATOM     92  C   UNL     1     -11.254   4.272 -14.478  1.00  0.00     0.022 A 
BRANCH  89  93
ATOM     93  S   UNL     1     -11.246   6.543 -12.858  1.00  0.00     0.124 S 
ATOM     94  O   UNL     1     -11.877   6.332 -11.559  1.00  0.00    -0.237 OA
ATOM     95  O   UNL     1      -9.969   7.250 -12.838  1.00  0.00    -0.237 OA
ATOM     96  O   UNL     1     -12.155   6.936 -13.933  1.00  0.00    -0.744 OA
ENDBRANCH  89  93
ENDBRANCH  63  86
ENDBRANCH  37  38
ENDBRANCH  29  32
ENDBRANCH  27  28
ENDBRANCH  26  27
ENDBRANCH   1  26
TORSDOF 19
