REMARK SMILES C[C@H](CO)CSc1cc(Cl)ccc1C(=O)NCCCCNC(=O)c1ccc(-c2c3nc(c(-c4cc(S(=O)(=O)[O-])ccc4F)c4ccc([nH]4)c(-c4cc(S(=O)(=O)[O-])ccc4F)c4nc(c(-c5cc(S(=O)(=O)[O-])ccc5F)c5ccc2[nH]5)C=C4)C=C3)cc1
REMARK SMILES IDX 17 1 16 2 14 3 15 4 13 6 7 7 8 8 9 9 12 10 10 11 11 12 6 13
REMARK SMILES IDX 5 14 2 15 1 16 3 17 4 18 18 20 19 21 20 22 21 23 22 24 23 26
REMARK SMILES IDX 24 27 25 28 86 29 26 30 85 31 27 32 28 33 29 34 79 35 30 36
REMARK SMILES IDX 84 37 78 38 80 39 31 40 83 41 77 42 76 43 32 45 64 46 44 47
REMARK SMILES IDX 63 48 45 49 48 50 62 51 81 52 46 53 47 54 61 56 82 57 49 58
REMARK SMILES IDX 33 59 34 60 42 61 35 62 41 63 43 64 40 65 36 66 37 67 38 68
REMARK SMILES IDX 39 69 65 70 66 71 74 72 67 73 73 74 75 75 72 76 68 77 69 78
REMARK SMILES IDX 70 79 71 80 50 81 51 82 59 83 52 84 58 85 60 86 57 87 53 88
REMARK SMILES IDX 54 89 55 90 56 91
REMARK H PARENT 16 5 4 19 21 25 80 44 48 55
REMARK Flexibility Score: inf
ROOT
ATOM      1  C   UNL     1      -2.861  -0.085   1.130  1.00  0.00     0.116 C 
ENDROOT
BRANCH   1   2
ATOM      2  N   UNL     1      -2.114   0.739   0.194  1.00  0.00    -0.352 N 
ATOM      3  C   UNL     1      -1.470   0.429  -0.977  1.00  0.00     0.252 C 
ATOM      4  O   UNL     1      -1.117   1.339  -1.726  1.00  0.00    -0.269 OA
ATOM      5  H   UNL     1      -2.060   1.689   0.445  1.00  0.00     0.163 HD
BRANCH   3   6
ATOM      6  C   UNL     1      -1.194  -0.965  -1.396  1.00  0.00     0.053 A 
ATOM      7  C   UNL     1      -0.445  -1.907  -0.671  1.00  0.00     0.021 A 
ATOM      8  C   UNL     1      -0.381  -3.229  -1.155  1.00  0.00     0.036 A 
ATOM      9  C   UNL     1      -0.866  -3.551  -2.420  1.00  0.00     0.042 A 
ATOM     10  C   UNL     1      -1.613  -1.285  -2.702  1.00  0.00     0.016 A 
ATOM     11  Cl  UNL     1      -0.700  -5.155  -3.018  1.00  0.00    -0.084 Cl
ATOM     12  C   UNL     1      -1.426  -2.567  -3.223  1.00  0.00     0.021 A 
BRANCH   7  13
ATOM     13  S   UNL     1       0.677  -1.619   0.705  1.00  0.00    -0.125 SA
BRANCH  13  14
ATOM     14  C   UNL     1       1.102   0.142   0.512  1.00  0.00     0.080 C 
BRANCH  14  15
ATOM     15  C   UNL     1       2.510   0.488   0.995  1.00  0.00     0.022 C 
ATOM     16  C   UNL     1       2.567   2.001   1.240  1.00  0.00     0.011 C 
BRANCH  15  17
ATOM     17  C   UNL     1       3.576   0.051  -0.018  1.00  0.00     0.160 C 
BRANCH  17  18
ATOM     18  O   UNL     1       3.424   0.696  -1.278  1.00  0.00    -0.396 OA
ATOM     19  H   UNL     1       2.563   0.462  -1.659  1.00  0.00     0.210 HD
ENDBRANCH  17  18
ENDBRANCH  15  17
ENDBRANCH  14  15
ENDBRANCH  13  14
ENDBRANCH   7  13
ENDBRANCH   3   6
ENDBRANCH   1   2
BRANCH   1  20
ATOM     20  C   UNL     1      -2.160  -0.366   2.463  1.00  0.00     0.023 C 
BRANCH  20  21
ATOM     21  C   UNL     1      -1.496   0.828   3.156  1.00  0.00     0.023 C 
BRANCH  21  22
ATOM     22  C   UNL     1      -2.448   1.745   3.902  1.00  0.00     0.116 C 
BRANCH  22  23
ATOM     23  N   UNL     1      -3.044   1.097   5.055  1.00  0.00    -0.352 N 
ATOM     24  C   UNL     1      -3.228   1.574   6.330  1.00  0.00     0.251 C 
ATOM     25  H   UNL     1      -3.364   0.179   4.901  1.00  0.00     0.163 HD
ATOM     26  O   UNL     1      -3.595   0.796   7.205  1.00  0.00    -0.269 OA
BRANCH  24  27
ATOM     27  C   UNL     1      -2.965   2.997   6.656  1.00  0.00     0.039 A 
ATOM     28  C   UNL     1      -2.459   3.310   7.921  1.00  0.00     0.014 A 
ATOM     29  C   UNL     1      -3.252   4.025   5.753  1.00  0.00     0.014 A 
ATOM     30  C   UNL     1      -2.229   4.643   8.270  1.00  0.00     0.010 A 
ATOM     31  C   UNL     1      -2.931   5.342   6.064  1.00  0.00     0.010 A 
ATOM     32  C   UNL     1      -2.455   5.669   7.340  1.00  0.00    -0.014 A 
BRANCH  32  33
ATOM     33  C   UNL     1      -2.291   7.095   7.719  1.00  0.00     0.031 A 
ATOM     34  C   UNL     1      -3.498   7.998   7.737  1.00  0.00     0.074 A 
ATOM     35  C   UNL     1      -1.068   7.575   8.013  1.00  0.00     0.049 A 
ATOM     36  N   UNL     1      -3.574   9.276   8.004  1.00  0.00    -0.248 NA
ATOM     37  C   UNL     1      -4.785   7.388   7.366  1.00  0.00     0.031 C 
ATOM     38  C   UNL     1       0.174   6.800   7.977  1.00  0.00     0.029 A 
ATOM     39  N   UNL     1      -0.667   8.826   8.402  1.00  0.00    -0.354 N 
ATOM     40  C   UNL     1      -4.909   9.623   7.813  1.00  0.00     0.074 A 
ATOM     41  C   UNL     1      -5.586   8.440   7.334  1.00  0.00     0.031 C 
ATOM     42  C   UNL     1       1.193   7.585   8.365  1.00  0.00     0.029 A 
ATOM     43  C   UNL     1       0.684   8.924   8.643  1.00  0.00     0.049 A 
ATOM     44  H   UNL     1      -1.288   9.584   8.501  1.00  0.00     0.167 HD
ATOM     45  C   UNL     1      -5.520  10.811   8.050  1.00  0.00     0.034 A 
ATOM     46  C   UNL     1       1.423   9.976   9.046  1.00  0.00     0.034 A 
ATOM     47  C   UNL     1      -4.827  11.968   8.559  1.00  0.00     0.049 A 
ATOM     48  C   UNL     1       0.721  11.283   9.318  1.00  0.00     0.074 A 
ATOM     49  C   UNL     1      -5.343  13.207   8.895  1.00  0.00     0.029 A 
ATOM     50  N   UNL     1      -3.460  12.026   8.806  1.00  0.00    -0.354 N 
ATOM     51  N   UNL     1      -0.552  11.580   9.190  1.00  0.00    -0.248 NA
ATOM     52  C   UNL     1       1.553  12.389   9.807  1.00  0.00     0.031 C 
ATOM     53  C   UNL     1      -4.281  14.030   9.288  1.00  0.00     0.029 A 
ATOM     54  C   UNL     1      -3.112  13.286   9.266  1.00  0.00     0.049 A 
ATOM     55  H   UNL     1      -2.831  11.280   8.674  1.00  0.00     0.167 HD
ATOM     56  C   UNL     1      -0.676  12.903   9.604  1.00  0.00     0.074 A 
ATOM     57  C   UNL     1       0.647  13.334  10.009  1.00  0.00     0.031 C 
ATOM     58  C   UNL     1      -1.780  13.693   9.648  1.00  0.00     0.034 A 
BRANCH  45  59
ATOM     59  C   UNL     1      -6.997  10.906   7.741  1.00  0.00     0.023 A 
ATOM     60  C   UNL     1      -7.944  10.098   8.396  1.00  0.00     0.031 A 
ATOM     61  C   UNL     1      -7.463  11.780   6.743  1.00  0.00     0.131 A 
ATOM     62  C   UNL     1      -9.286  10.112   7.986  1.00  0.00     0.055 A 
ATOM     63  C   UNL     1      -8.815  11.854   6.400  1.00  0.00     0.041 A 
ATOM     64  F   UNL     1      -6.608  12.563   6.066  1.00  0.00    -0.206 F 
ATOM     65  C   UNL     1      -9.733  11.004   7.009  1.00  0.00     0.022 A 
BRANCH  62  66
ATOM     66  S   UNL     1     -10.403   8.838   8.633  1.00  0.00     0.124 S 
ATOM     67  O   UNL     1      -9.746   7.614   8.180  1.00  0.00    -0.237 OA
ATOM     68  O   UNL     1     -10.369   9.087  10.069  1.00  0.00    -0.237 OA
ATOM     69  O   UNL     1     -11.676   9.132   7.978  1.00  0.00    -0.744 OA
ENDBRANCH  62  66
ENDBRANCH  45  59
BRANCH  46  70
ATOM     70  C   UNL     1       2.896   9.841   9.228  1.00  0.00     0.023 A 
ATOM     71  C   UNL     1       3.484   9.971  10.497  1.00  0.00     0.031 A 
ATOM     72  C   UNL     1       3.744   9.611   8.131  1.00  0.00     0.131 A 
ATOM     73  C   UNL     1       4.880   9.914  10.632  1.00  0.00     0.055 A 
ATOM     74  C   UNL     1       5.129   9.505   8.277  1.00  0.00     0.041 A 
ATOM     75  F   UNL     1       3.234   9.470   6.897  1.00  0.00    -0.206 F 
ATOM     76  C   UNL     1       5.705   9.669   9.533  1.00  0.00     0.022 A 
BRANCH  73  77
ATOM     77  S   UNL     1       5.610  10.241  12.261  1.00  0.00     0.124 S 
ATOM     78  O   UNL     1       5.088  11.570  12.560  1.00  0.00    -0.237 OA
ATOM     79  O   UNL     1       5.071   9.145  13.059  1.00  0.00    -0.237 OA
ATOM     80  O   UNL     1       7.048  10.177  12.008  1.00  0.00    -0.744 OA
ENDBRANCH  73  77
ENDBRANCH  46  70
BRANCH  58  81
ATOM     81  C   UNL     1      -1.591  15.091  10.181  1.00  0.00     0.023 A 
ATOM     82  C   UNL     1      -0.830  16.046   9.484  1.00  0.00     0.031 A 
ATOM     83  C   UNL     1      -2.165  15.466  11.408  1.00  0.00     0.131 A 
ATOM     84  C   UNL     1      -0.610  17.309  10.050  1.00  0.00     0.055 A 
ATOM     85  C   UNL     1      -1.994  16.746  11.937  1.00  0.00     0.041 A 
ATOM     86  F   UNL     1      -2.901  14.592  12.114  1.00  0.00    -0.206 F 
ATOM     87  C   UNL     1      -1.201  17.671  11.264  1.00  0.00     0.022 A 
BRANCH  84  88
ATOM     88  S   UNL     1       0.542  18.441   9.226  1.00  0.00     0.124 S 
ATOM     89  O   UNL     1       1.772  17.656   9.200  1.00  0.00    -0.237 OA
ATOM     90  O   UNL     1      -0.103  18.657   7.934  1.00  0.00    -0.237 OA
ATOM     91  O   UNL     1       0.568  19.606  10.107  1.00  0.00    -0.744 OA
ENDBRANCH  84  88
ENDBRANCH  58  81
ENDBRANCH  32  33
ENDBRANCH  24  27
ENDBRANCH  22  23
ENDBRANCH  21  22
ENDBRANCH  20  21
ENDBRANCH   1  20
TORSDOF 19
