REMARK SMILES [NH3+]CCOCC(=O)N[C@H](C(=O)NCCCCNC(=O)c1ccc(-c2c3nc(c(-c4cc(S(=O)(=O)[O-])ccc4F)c4ccc([nH]4)c(-c4cc(S(=O)(=O)[O-])ccc4F)c4nc(c(-c5cc(S(=O)(=O)[O-])ccc5F)c5ccc2[nH]5)C=C4)C=C3)cc1)C1CCCCC1
REMARK SMILES IDX 13 1 12 2 10 3 11 4 9 6 8 7 6 8 7 9 5 11 4 12 3 13 2 14 1 15
REMARK SMILES IDX 83 19 84 20 88 21 85 22 87 23 86 24 14 25 15 26 16 27 17 28
REMARK SMILES IDX 18 29 19 31 20 32 21 33 82 34 22 35 81 36 23 37 24 38 25 39
REMARK SMILES IDX 75 40 26 41 80 42 74 43 76 44 27 45 79 46 73 47 72 48 28 50
REMARK SMILES IDX 60 51 40 52 59 53 41 54 44 55 58 56 77 57 42 58 43 59 57 61
REMARK SMILES IDX 78 62 45 63 29 64 30 65 38 66 31 67 37 68 39 69 36 70 32 71
REMARK SMILES IDX 33 72 34 73 35 74 61 75 62 76 70 77 63 78 69 79 71 80 68 81
REMARK SMILES IDX 64 82 65 83 66 84 67 85 46 86 47 87 55 88 48 89 54 90 56 91
REMARK SMILES IDX 53 92 49 93 50 94 51 95 52 96
REMARK H PARENT 12 5 8 10 1 16 1 17 1 18 17 30 76 49 44 60
REMARK Flexibility Score: inf
ROOT
ATOM      1  C   UNL     1       5.468  -5.118  -1.537  1.00  0.00     0.116 C 
ENDROOT
BRANCH   1   2
ATOM      2  N   UNL     1       4.947  -4.138  -0.605  1.00  0.00    -0.354 N 
ATOM      3  C   UNL     1       3.649  -3.936  -0.220  1.00  0.00     0.242 C 
ATOM      4  O   UNL     1       3.436  -3.223   0.763  1.00  0.00    -0.273 OA
ATOM      5  H   UNL     1       5.614  -3.539  -0.197  1.00  0.00     0.163 HD
BRANCH   3   6
ATOM      6  C   UNL     1       2.494  -4.707  -0.911  1.00  0.00     0.174 C 
BRANCH   6   7
ATOM      7  N   UNL     1       2.593  -4.676  -2.377  1.00  0.00    -0.342 N 
ATOM      8  C   UNL     1       2.573  -3.602  -3.219  1.00  0.00     0.246 C 
ATOM      9  O   UNL     1       2.440  -3.821  -4.427  1.00  0.00    -0.272 OA
ATOM     10  H   UNL     1       2.688  -5.553  -2.814  1.00  0.00     0.164 HD
BRANCH   8  11
ATOM     11  C   UNL     1       2.737  -2.167  -2.698  1.00  0.00     0.260 C 
BRANCH  11  12
ATOM     12  O   UNL     1       1.541  -1.481  -2.389  1.00  0.00    -0.366 OA
BRANCH  12  13
ATOM     13  C   UNL     1       0.615  -1.355  -3.468  1.00  0.00     0.222 C 
BRANCH  13  14
ATOM     14  C   UNL     1       1.036  -0.363  -4.568  1.00  0.00     0.287 C 
BRANCH  14  15
ATOM     15  N   UNL     1       1.990  -0.880  -5.552  1.00  0.00    -0.356 N 
ATOM     16  H   UNL     1       2.204  -0.152  -6.233  1.00  0.00     0.344 HD
ATOM     17  H   UNL     1       1.584  -1.684  -6.030  1.00  0.00     0.344 HD
ATOM     18  H   UNL     1       2.847  -1.164  -5.078  1.00  0.00     0.344 HD
ENDBRANCH  14  15
ENDBRANCH  13  14
ENDBRANCH  12  13
ENDBRANCH  11  12
ENDBRANCH   8  11
ENDBRANCH   6   7
BRANCH   6  19
ATOM     19  C   UNL     1       2.515  -6.147  -0.290  1.00  0.00     0.021 C 
ATOM     20  C   UNL     1       1.468  -6.287   0.830  1.00  0.00     0.006 C 
ATOM     21  C   UNL     1       2.368  -7.335  -1.259  1.00  0.00     0.006 C 
ATOM     22  C   UNL     1       1.648  -7.606   1.584  1.00  0.00     0.000 C 
ATOM     23  C   UNL     1       2.594  -8.655  -0.520  1.00  0.00     0.000 C 
ATOM     24  C   UNL     1       1.635  -8.817   0.653  1.00  0.00     0.000 C 
ENDBRANCH   6  19
ENDBRANCH   3   6
ENDBRANCH   1   2
BRANCH   1  25
ATOM     25  C   UNL     1       5.942  -4.505  -2.849  1.00  0.00     0.023 C 
BRANCH  25  26
ATOM     26  C   UNL     1       7.278  -3.777  -2.765  1.00  0.00     0.023 C 
BRANCH  26  27
ATOM     27  C   UNL     1       8.397  -4.565  -2.102  1.00  0.00     0.116 C 
BRANCH  27  28
ATOM     28  N   UNL     1       8.547  -5.922  -2.614  1.00  0.00    -0.352 N 
ATOM     29  C   UNL     1       9.705  -6.661  -2.707  1.00  0.00     0.251 C 
ATOM     30  H   UNL     1       7.725  -6.361  -2.930  1.00  0.00     0.163 HD
ATOM     31  O   UNL     1       9.699  -7.779  -3.202  1.00  0.00    -0.269 OA
BRANCH  29  32
ATOM     32  C   UNL     1      10.955  -6.033  -2.242  1.00  0.00     0.039 A 
ATOM     33  C   UNL     1      11.994  -5.854  -3.155  1.00  0.00     0.014 A 
ATOM     34  C   UNL     1      11.022  -5.492  -0.956  1.00  0.00     0.014 A 
ATOM     35  C   UNL     1      13.079  -5.053  -2.801  1.00  0.00     0.010 A 
ATOM     36  C   UNL     1      12.060  -4.628  -0.639  1.00  0.00     0.010 A 
ATOM     37  C   UNL     1      13.095  -4.396  -1.560  1.00  0.00    -0.014 A 
BRANCH  37  38
ATOM     38  C   UNL     1      14.191  -3.467  -1.191  1.00  0.00     0.031 A 
ATOM     39  C   UNL     1      15.066  -3.792  -0.014  1.00  0.00     0.074 A 
ATOM     40  C   UNL     1      14.337  -2.304  -1.855  1.00  0.00     0.049 A 
ATOM     41  N   UNL     1      15.995  -3.069   0.554  1.00  0.00    -0.248 NA
ATOM     42  C   UNL     1      14.829  -5.090   0.638  1.00  0.00     0.031 C 
ATOM     43  C   UNL     1      13.509  -1.858  -2.979  1.00  0.00     0.029 A 
ATOM     44  N   UNL     1      15.226  -1.275  -1.673  1.00  0.00    -0.354 N 
ATOM     45  C   UNL     1      16.434  -3.811   1.645  1.00  0.00     0.074 A 
ATOM     46  C   UNL     1      15.621  -5.008   1.695  1.00  0.00     0.031 C 
ATOM     47  C   UNL     1      13.945  -0.658  -3.398  1.00  0.00     0.029 A 
ATOM     48  C   UNL     1      15.053  -0.231  -2.551  1.00  0.00     0.049 A 
ATOM     49  H   UNL     1      15.923  -1.284  -0.977  1.00  0.00     0.167 HD
ATOM     50  C   UNL     1      17.441  -3.532   2.509  1.00  0.00     0.034 A 
ATOM     51  C   UNL     1      15.710   0.942  -2.653  1.00  0.00     0.034 A 
ATOM     52  C   UNL     1      18.259  -2.349   2.420  1.00  0.00     0.049 A 
ATOM     53  C   UNL     1      16.836   1.225  -1.692  1.00  0.00     0.074 A 
ATOM     54  C   UNL     1      19.348  -1.991   3.195  1.00  0.00     0.029 A 
ATOM     55  N   UNL     1      18.076  -1.327   1.496  1.00  0.00    -0.354 N 
ATOM     56  N   UNL     1      17.274   0.491  -0.695  1.00  0.00    -0.248 NA
ATOM     57  C   UNL     1      17.561   2.489  -1.875  1.00  0.00     0.031 C 
ATOM     58  C   UNL     1      19.791  -0.732   2.774  1.00  0.00     0.029 A 
ATOM     59  C   UNL     1      19.018  -0.331   1.695  1.00  0.00     0.049 A 
ATOM     60  H   UNL     1      17.379  -1.313   0.801  1.00  0.00     0.167 HD
ATOM     61  C   UNL     1      18.346   1.192  -0.151  1.00  0.00     0.074 A 
ATOM     62  C   UNL     1      18.493   2.400  -0.937  1.00  0.00     0.031 C 
ATOM     63  C   UNL     1      19.140   0.868   0.901  1.00  0.00     0.034 A 
BRANCH  50  64
ATOM     64  C   UNL     1      17.686  -4.520   3.623  1.00  0.00     0.023 A 
ATOM     65  C   UNL     1      18.067  -5.848   3.359  1.00  0.00     0.031 A 
ATOM     66  C   UNL     1      17.486  -4.147   4.963  1.00  0.00     0.131 A 
ATOM     67  C   UNL     1      18.144  -6.776   4.407  1.00  0.00     0.055 A 
ATOM     68  C   UNL     1      17.650  -5.056   6.012  1.00  0.00     0.041 A 
ATOM     69  F   UNL     1      17.102  -2.900   5.277  1.00  0.00    -0.206 F 
ATOM     70  C   UNL     1      17.963  -6.384   5.735  1.00  0.00     0.022 A 
BRANCH  67  71
ATOM     71  S   UNL     1      18.326  -8.532   3.993  1.00  0.00     0.124 S 
ATOM     72  O   UNL     1      17.124  -8.772   3.198  1.00  0.00    -0.237 OA
ATOM     73  O   UNL     1      19.589  -8.555   3.264  1.00  0.00    -0.237 OA
ATOM     74  O   UNL     1      18.345  -9.192   5.297  1.00  0.00    -0.744 OA
ENDBRANCH  67  71
ENDBRANCH  50  64
BRANCH  51  75
ATOM     75  C   UNL     1      15.328   1.937  -3.694  1.00  0.00     0.023 A 
ATOM     76  C   UNL     1      16.203   2.253  -4.745  1.00  0.00     0.031 A 
ATOM     77  C   UNL     1      14.096   2.613  -3.634  1.00  0.00     0.131 A 
ATOM     78  C   UNL     1      15.856   3.251  -5.669  1.00  0.00     0.055 A 
ATOM     79  C   UNL     1      13.736   3.573  -4.582  1.00  0.00     0.041 A 
ATOM     80  F   UNL     1      13.219   2.340  -2.656  1.00  0.00    -0.206 F 
ATOM     81  C   UNL     1      14.624   3.906  -5.601  1.00  0.00     0.022 A 
BRANCH  78  82
ATOM     82  S   UNL     1      17.075   3.734  -6.923  1.00  0.00     0.124 S 
ATOM     83  O   UNL     1      18.205   4.144  -6.097  1.00  0.00    -0.237 OA
ATOM     84  O   UNL     1      17.244   2.494  -7.673  1.00  0.00    -0.237 OA
ATOM     85  O   UNL     1      16.407   4.813  -7.648  1.00  0.00    -0.744 OA
ENDBRANCH  78  82
ENDBRANCH  51  75
BRANCH  63  86
ATOM     86  C   UNL     1      20.264   1.819   1.224  1.00  0.00     0.023 A 
ATOM     87  C   UNL     1      20.019   3.096   1.756  1.00  0.00     0.031 A 
ATOM     88  C   UNL     1      21.597   1.439   0.990  1.00  0.00     0.131 A 
ATOM     89  C   UNL     1      21.091   3.968   1.993  1.00  0.00     0.055 A 
ATOM     90  C   UNL     1      22.663   2.291   1.277  1.00  0.00     0.041 A 
ATOM     91  F   UNL     1      21.883   0.229   0.482  1.00  0.00    -0.206 F 
ATOM     92  C   UNL     1      22.412   3.568   1.772  1.00  0.00     0.022 A 
BRANCH  89  93
ATOM     93  S   UNL     1      20.733   5.663   2.529  1.00  0.00     0.124 S 
ATOM     94  O   UNL     1      19.931   6.168   1.420  1.00  0.00    -0.237 OA
ATOM     95  O   UNL     1      20.021   5.450   3.785  1.00  0.00    -0.237 OA
ATOM     96  O   UNL     1      22.057   6.268   2.663  1.00  0.00    -0.744 OA
ENDBRANCH  89  93
ENDBRANCH  63  86
ENDBRANCH  37  38
ENDBRANCH  29  32
ENDBRANCH  27  28
ENDBRANCH  26  27
ENDBRANCH  25  26
ENDBRANCH   1  25
TORSDOF 21
