REMARK SMILES Cc1ccccc1Sc1cncc(C(=O)NCCCCNC(=O)c2ccc(-c3c4nc(c(-c5cc(S(=O)(=O)[O-])ccc5F)c5ccc([nH]5)c(-c5cc(S(=O)(=O)[O-])ccc5F)c5nc(c(-c6cc(S(=O)(=O)[O-])ccc6F)c6ccc3[nH]6)C=C5)C=C4)cc2)n1
REMARK SMILES IDX 19 1 18 2 17 3 16 4 14 5 15 6 13 8 9 9 10 10 87 11 11 12
REMARK SMILES IDX 12 13 8 14 7 15 1 16 2 17 3 18 4 19 6 20 5 21 20 22 21 23
REMARK SMILES IDX 22 24 23 26 24 27 25 28 86 29 26 30 85 31 27 32 28 33 29 34
REMARK SMILES IDX 79 35 30 36 84 37 78 38 80 39 31 40 83 41 77 42 76 43 32 45
REMARK SMILES IDX 64 46 44 47 63 48 45 49 48 50 62 51 81 52 46 53 47 54 61 56
REMARK SMILES IDX 82 57 49 58 33 59 34 60 42 61 35 62 41 63 43 64 40 65 36 66
REMARK SMILES IDX 37 67 38 68 39 69 65 70 66 71 74 72 67 73 73 74 75 75 72 76
REMARK SMILES IDX 68 77 69 78 70 79 71 80 50 81 51 82 59 83 52 84 58 85 60 86
REMARK SMILES IDX 57 87 53 88 54 89 55 90 56 91
REMARK H PARENT 16 7 21 25 80 44 48 55
REMARK Flexibility Score: inf
ROOT
ATOM      1  C   UNL     1       3.501   3.085   5.638  1.00  0.00     0.023 C 
ENDROOT
BRANCH   1   2
ATOM      2  C   UNL     1       2.916   3.131   4.219  1.00  0.00     0.023 C 
BRANCH   2   3
ATOM      3  C   UNL     1       3.654   4.056   3.241  1.00  0.00     0.116 C 
BRANCH   3   4
ATOM      4  N   UNL     1       5.038   3.631   3.019  1.00  0.00    -0.351 N 
ATOM      5  C   UNL     1       5.646   3.006   1.953  1.00  0.00     0.271 C 
ATOM      6  O   UNL     1       6.857   2.780   2.026  1.00  0.00    -0.267 OA
ATOM      7  H   UNL     1       5.645   3.827   3.770  1.00  0.00     0.163 HD
BRANCH   5   8
ATOM      8  C   UNL     1       4.918   2.605   0.716  1.00  0.00     0.147 A 
ATOM      9  C   UNL     1       2.966   2.347  -0.478  1.00  0.00     0.120 A 
ATOM     10  C   UNL     1       3.709   1.971  -1.592  1.00  0.00     0.146 A 
ATOM     11  N   UNL     1       3.569   2.650   0.692  1.00  0.00    -0.233 NA
ATOM     12  N   UNL     1       5.061   1.849  -1.575  1.00  0.00    -0.259 NA
ATOM     13  C   UNL     1       5.645   2.192  -0.395  1.00  0.00     0.145 A 
BRANCH   9  14
ATOM     14  S   UNL     1       1.227   2.567  -0.550  1.00  0.00    -0.068 SA
BRANCH  14  15
ATOM     15  C   UNL     1       0.417   1.008  -0.210  1.00  0.00     0.017 A 
ATOM     16  C   UNL     1       2.418  -0.546   0.293  1.00  0.00     0.045 C 
ATOM     17  C   UNL     1       0.959  -0.259   0.085  1.00  0.00    -0.037 A 
ATOM     18  C   UNL     1       0.086  -1.364   0.213  1.00  0.00     0.004 A 
ATOM     19  C   UNL     1      -1.296  -1.224   0.107  1.00  0.00     0.000 A 
ATOM     20  C   UNL     1      -0.990   1.125  -0.280  1.00  0.00     0.016 A 
ATOM     21  C   UNL     1      -1.837   0.029  -0.121  1.00  0.00     0.001 A 
ENDBRANCH  14  15
ENDBRANCH   9  14
ENDBRANCH   5   8
ENDBRANCH   3   4
ENDBRANCH   2   3
ENDBRANCH   1   2
BRANCH   1  22
ATOM     22  C   UNL     1       3.498   4.424   6.369  1.00  0.00     0.116 C 
BRANCH  22  23
ATOM     23  N   UNL     1       2.389   4.652   7.281  1.00  0.00    -0.352 N 
ATOM     24  C   UNL     1       2.102   5.782   8.036  1.00  0.00     0.251 C 
ATOM     25  H   UNL     1       1.756   3.905   7.377  1.00  0.00     0.163 HD
ATOM     26  O   UNL     1       1.222   5.771   8.880  1.00  0.00    -0.269 OA
BRANCH  24  27
ATOM     27  C   UNL     1       2.793   7.063   7.714  1.00  0.00     0.039 A 
ATOM     28  C   UNL     1       1.987   8.194   7.528  1.00  0.00     0.014 A 
ATOM     29  C   UNL     1       4.143   7.111   7.378  1.00  0.00     0.014 A 
ATOM     30  C   UNL     1       2.470   9.271   6.785  1.00  0.00     0.010 A 
ATOM     31  C   UNL     1       4.595   8.131   6.562  1.00  0.00     0.010 A 
ATOM     32  C   UNL     1       3.739   9.179   6.212  1.00  0.00    -0.014 A 
BRANCH  32  33
ATOM     33  C   UNL     1       4.177  10.032   5.112  1.00  0.00     0.031 A 
ATOM     34  C   UNL     1       5.184  11.091   5.306  1.00  0.00     0.074 A 
ATOM     35  C   UNL     1       3.683   9.831   3.871  1.00  0.00     0.049 A 
ATOM     36  N   UNL     1       5.202  12.194   4.634  1.00  0.00    -0.248 NA
ATOM     37  C   UNL     1       6.251  10.995   6.295  1.00  0.00     0.031 C 
ATOM     38  C   UNL     1       4.154  10.422   2.621  1.00  0.00     0.029 A 
ATOM     39  N   UNL     1       2.483   9.216   3.532  1.00  0.00    -0.354 N 
ATOM     40  C   UNL     1       6.417  12.790   4.866  1.00  0.00     0.074 A 
ATOM     41  C   UNL     1       6.999  12.054   5.967  1.00  0.00     0.031 C 
ATOM     42  C   UNL     1       3.161  10.376   1.720  1.00  0.00     0.029 A 
ATOM     43  C   UNL     1       1.980   9.871   2.396  1.00  0.00     0.049 A 
ATOM     44  H   UNL     1       2.063   8.460   4.002  1.00  0.00     0.167 HD
ATOM     45  C   UNL     1       6.894  13.736   4.010  1.00  0.00     0.034 A 
ATOM     46  C   UNL     1       0.757  10.474   2.418  1.00  0.00     0.034 A 
ATOM     47  C   UNL     1       5.995  13.974   2.885  1.00  0.00     0.049 A 
ATOM     48  C   UNL     1       0.815  11.961   2.145  1.00  0.00     0.074 A 
ATOM     49  C   UNL     1       6.012  13.553   1.565  1.00  0.00     0.029 A 
ATOM     50  N   UNL     1       4.734  14.517   3.105  1.00  0.00    -0.354 N 
ATOM     51  N   UNL     1       1.909  12.671   2.179  1.00  0.00    -0.248 NA
ATOM     52  C   UNL     1      -0.357  12.769   1.829  1.00  0.00     0.031 C 
ATOM     53  C   UNL     1       4.740  13.820   0.999  1.00  0.00     0.029 A 
ATOM     54  C   UNL     1       3.956  14.423   1.966  1.00  0.00     0.049 A 
ATOM     55  H   UNL     1       4.436  14.914   3.955  1.00  0.00     0.167 HD
ATOM     56  C   UNL     1       1.620  13.991   1.924  1.00  0.00     0.074 A 
ATOM     57  C   UNL     1       0.186  13.991   1.688  1.00  0.00     0.031 C 
ATOM     58  C   UNL     1       2.596  14.952   1.941  1.00  0.00     0.034 A 
BRANCH  45  59
ATOM     59  C   UNL     1       8.332  14.187   4.045  1.00  0.00     0.023 A 
ATOM     60  C   UNL     1       9.033  14.408   2.843  1.00  0.00     0.031 A 
ATOM     61  C   UNL     1       9.067  14.383   5.230  1.00  0.00     0.131 A 
ATOM     62  C   UNL     1      10.409  14.694   2.842  1.00  0.00     0.055 A 
ATOM     63  C   UNL     1      10.449  14.615   5.231  1.00  0.00     0.041 A 
ATOM     64  F   UNL     1       8.465  14.370   6.430  1.00  0.00    -0.206 F 
ATOM     65  C   UNL     1      11.131  14.757   4.030  1.00  0.00     0.022 A 
BRANCH  62  66
ATOM     66  S   UNL     1      11.242  14.989   1.257  1.00  0.00     0.124 S 
ATOM     67  O   UNL     1      10.988  13.746   0.536  1.00  0.00    -0.237 OA
ATOM     68  O   UNL     1      10.552  16.175   0.762  1.00  0.00    -0.237 OA
ATOM     69  O   UNL     1      12.637  15.204   1.642  1.00  0.00    -0.744 OA
ENDBRANCH  62  66
ENDBRANCH  45  59
BRANCH  46  70
ATOM     70  C   UNL     1      -0.218   9.776   3.307  1.00  0.00     0.023 A 
ATOM     71  C   UNL     1      -0.449   8.407   3.043  1.00  0.00     0.031 A 
ATOM     72  C   UNL     1      -0.559  10.265   4.574  1.00  0.00     0.131 A 
ATOM     73  C   UNL     1      -0.814   7.538   4.080  1.00  0.00     0.055 A 
ATOM     74  C   UNL     1      -1.011   9.405   5.585  1.00  0.00     0.041 A 
ATOM     75  F   UNL     1      -0.338  11.548   4.895  1.00  0.00    -0.206 F 
ATOM     76  C   UNL     1      -1.092   8.029   5.356  1.00  0.00     0.022 A 
BRANCH  73  77
ATOM     77  S   UNL     1      -0.612   5.747   3.817  1.00  0.00     0.124 S 
ATOM     78  O   UNL     1      -1.909   5.372   3.267  1.00  0.00    -0.237 OA
ATOM     79  O   UNL     1       0.519   5.686   2.893  1.00  0.00    -0.237 OA
ATOM     80  O   UNL     1      -0.317   5.234   5.153  1.00  0.00    -0.744 OA
ENDBRANCH  73  77
ENDBRANCH  46  70
BRANCH  58  81
ATOM     81  C   UNL     1       2.409  16.460   1.846  1.00  0.00     0.023 A 
ATOM     82  C   UNL     1       1.164  17.103   1.895  1.00  0.00     0.031 A 
ATOM     83  C   UNL     1       3.529  17.330   1.752  1.00  0.00     0.131 A 
ATOM     84  C   UNL     1       1.053  18.504   1.785  1.00  0.00     0.055 A 
ATOM     85  C   UNL     1       3.422  18.724   1.710  1.00  0.00     0.041 A 
ATOM     86  F   UNL     1       4.787  16.869   1.706  1.00  0.00    -0.206 F 
ATOM     87  C   UNL     1       2.175  19.322   1.713  1.00  0.00     0.022 A 
BRANCH  84  88
ATOM     88  S   UNL     1      -0.605  19.229   1.687  1.00  0.00     0.124 S 
ATOM     89  O   UNL     1      -1.115  18.648   0.448  1.00  0.00    -0.237 OA
ATOM     90  O   UNL     1      -1.230  18.747   2.915  1.00  0.00    -0.237 OA
ATOM     91  O   UNL     1      -0.352  20.667   1.641  1.00  0.00    -0.744 OA
ENDBRANCH  84  88
ENDBRANCH  58  81
ENDBRANCH  32  33
ENDBRANCH  24  27
ENDBRANCH  22  23
ENDBRANCH   1  22
TORSDOF 16
