REMARK SMILES CC(=O)Nc1cc(NC(C)=O)cc(C(=O)Nc2ccc(Br)cc2C(=O)NCCCCNC(=O)c2ccc(-c3c4nc(c(-c5cc(S(=O)(=O)[O-])ccc5F)c5ccc([nH]5)c(-c5cc(S(=O)(=O)[O-])ccc5F)c5nc(c(-c6cc(S(=O)(=O)[O-])ccc6F)c6ccc3[nH]6)C=C5)C=C4)cc2)c1
REMARK SMILES IDX 28 1 27 2 26 3 24 4 25 5 23 7 17 8 18 9 19 10 22 11 20 12
REMARK SMILES IDX 21 13 16 14 14 15 15 16 13 18 5 19 6 20 97 21 7 22 12 23
REMARK SMILES IDX 4 24 1 25 2 26 3 27 8 29 9 30 10 32 11 33 29 34 30 35 31 36
REMARK SMILES IDX 32 37 33 39 34 40 35 41 96 42 36 43 95 44 37 45 38 46 39 47
REMARK SMILES IDX 89 48 40 49 94 50 88 51 90 52 41 53 93 54 87 55 86 56 42 58
REMARK SMILES IDX 74 59 54 60 73 61 55 62 58 63 72 64 91 65 56 66 57 67 71 69
REMARK SMILES IDX 92 70 59 71 43 72 44 73 52 74 45 75 51 76 53 77 50 78 46 79
REMARK SMILES IDX 47 80 48 81 49 82 75 83 76 84 84 85 77 86 83 87 85 88 82 89
REMARK SMILES IDX 78 90 79 91 80 92 81 93 60 94 61 95 69 96 62 97 68 98 70 99
REMARK SMILES IDX 67 100 63 101 64 102 65 103 66 104
REMARK H PARENT 26 6 16 17 4 28 8 31 31 38 90 57 58 68
REMARK Flexibility Score: inf
ROOT
ATOM      1  C   UNL     1       7.794  -3.400   0.531  1.00  0.00     0.023 C 
ENDROOT
BRANCH   1   2
ATOM      2  C   UNL     1       6.536  -2.564   0.334  1.00  0.00     0.116 C 
BRANCH   2   3
ATOM      3  N   UNL     1       5.533  -2.732   1.363  1.00  0.00    -0.352 N 
ATOM      4  C   UNL     1       4.499  -1.903   1.723  1.00  0.00     0.253 C 
ATOM      5  O   UNL     1       3.773  -2.245   2.656  1.00  0.00    -0.269 OA
ATOM      6  H   UNL     1       5.601  -3.565   1.883  1.00  0.00     0.163 HD
BRANCH   4   7
ATOM      7  C   UNL     1       4.280  -0.568   1.096  1.00  0.00     0.064 A 
ATOM      8  C   UNL     1       4.369  -0.243  -0.273  1.00  0.00     0.054 A 
ATOM      9  C   UNL     1       4.354   1.113  -0.647  1.00  0.00     0.028 A 
ATOM     10  C   UNL     1       4.077   2.117   0.283  1.00  0.00     0.018 A 
ATOM     11  C   UNL     1       3.963   0.451   2.020  1.00  0.00     0.031 A 
ATOM     12  C   UNL     1       3.838   1.775   1.607  1.00  0.00     0.018 A 
ATOM     13  Br  UNL     1       3.338   3.111   2.845  1.00  0.00    -0.051 Br
BRANCH   8  14
ATOM     14  N   UNL     1       4.385  -1.136  -1.369  1.00  0.00    -0.321 N 
ATOM     15  C   UNL     1       3.791  -2.369  -1.562  1.00  0.00     0.255 C 
ATOM     16  O   UNL     1       4.147  -3.062  -2.512  1.00  0.00    -0.269 OA
ATOM     17  H   UNL     1       4.917  -0.822  -2.136  1.00  0.00     0.170 HD
BRANCH  15  18
ATOM     18  C   UNL     1       2.693  -2.848  -0.693  1.00  0.00     0.044 A 
ATOM     19  C   UNL     1       0.870  -2.356   0.809  1.00  0.00     0.044 A 
ATOM     20  C   UNL     1       0.826  -3.717   1.151  1.00  0.00     0.052 A 
ATOM     21  C   UNL     1       1.764  -1.946  -0.168  1.00  0.00     0.040 A 
ATOM     22  C   UNL     1       1.650  -4.659   0.520  1.00  0.00     0.044 A 
ATOM     23  C   UNL     1       2.602  -4.211  -0.396  1.00  0.00     0.040 A 
BRANCH  19  24
ATOM     24  N   UNL     1       0.080  -1.472   1.569  1.00  0.00    -0.326 N 
ATOM     25  C   UNL     1       0.029   0.600   0.170  1.00  0.00     0.114 C 
ATOM     26  C   UNL     1      -0.214  -0.145   1.452  1.00  0.00     0.221 C 
ATOM     27  O   UNL     1      -0.729   0.438   2.411  1.00  0.00    -0.275 OA
ATOM     28  H   UNL     1      -0.348  -1.900   2.345  1.00  0.00     0.169 HD
ENDBRANCH  19  24
BRANCH  22  29
ATOM     29  N   UNL     1       1.591  -6.049   0.768  1.00  0.00    -0.326 N 
ATOM     30  C   UNL     1       0.696  -6.716   1.585  1.00  0.00     0.221 C 
ATOM     31  H   UNL     1       2.262  -6.603   0.308  1.00  0.00     0.169 HD
ATOM     32  C   UNL     1       0.906  -8.211   1.601  1.00  0.00     0.114 C 
ATOM     33  O   UNL     1      -0.213  -6.212   2.236  1.00  0.00    -0.275 OA
ENDBRANCH  22  29
ENDBRANCH  15  18
ENDBRANCH   8  14
ENDBRANCH   4   7
ENDBRANCH   2   3
ENDBRANCH   1   2
BRANCH   1  34
ATOM     34  C   UNL     1       7.601  -4.919   0.559  1.00  0.00     0.023 C 
BRANCH  34  35
ATOM     35  C   UNL     1       6.682  -5.527  -0.500  1.00  0.00     0.116 C 
BRANCH  35  36
ATOM     36  N   UNL     1       7.090  -5.266  -1.871  1.00  0.00    -0.352 N 
ATOM     37  C   UNL     1       7.448  -6.143  -2.873  1.00  0.00     0.251 C 
ATOM     38  H   UNL     1       7.115  -4.315  -2.123  1.00  0.00     0.163 HD
ATOM     39  O   UNL     1       7.858  -5.716  -3.944  1.00  0.00    -0.269 OA
BRANCH  37  40
ATOM     40  C   UNL     1       7.377  -7.603  -2.632  1.00  0.00     0.039 A 
ATOM     41  C   UNL     1       8.495  -8.389  -2.916  1.00  0.00     0.014 A 
ATOM     42  C   UNL     1       6.227  -8.186  -2.094  1.00  0.00     0.014 A 
ATOM     43  C   UNL     1       8.501  -9.739  -2.552  1.00  0.00     0.010 A 
ATOM     44  C   UNL     1       6.263  -9.511  -1.663  1.00  0.00     0.010 A 
ATOM     45  C   UNL     1       7.409 -10.296  -1.866  1.00  0.00    -0.014 A 
BRANCH  45  46
ATOM     46  C   UNL     1       7.465 -11.680  -1.316  1.00  0.00     0.031 A 
ATOM     47  C   UNL     1       6.498 -12.729  -1.792  1.00  0.00     0.074 A 
ATOM     48  C   UNL     1       8.335 -11.967  -0.325  1.00  0.00     0.049 A 
ATOM     49  N   UNL     1       6.329 -13.954  -1.364  1.00  0.00    -0.248 NA
ATOM     50  C   UNL     1       5.577 -12.336  -2.869  1.00  0.00     0.031 C 
ATOM     51  C   UNL     1       9.290 -11.023   0.262  1.00  0.00     0.029 A 
ATOM     52  N   UNL     1       8.551 -13.129   0.375  1.00  0.00    -0.354 N 
ATOM     53  C   UNL     1       5.275 -14.475  -2.107  1.00  0.00     0.074 A 
ATOM     54  C   UNL     1       4.807 -13.409  -2.969  1.00  0.00     0.031 C 
ATOM     55  C   UNL     1      10.002 -11.649   1.212  1.00  0.00     0.029 A 
ATOM     56  C   UNL     1       9.528 -13.023   1.340  1.00  0.00     0.049 A 
ATOM     57  H   UNL     1       8.053 -13.960   0.203  1.00  0.00     0.167 HD
ATOM     58  C   UNL     1       4.761 -15.731  -2.089  1.00  0.00     0.034 A 
ATOM     59  C   UNL     1       9.982 -13.923   2.235  1.00  0.00     0.034 A 
ATOM     60  C   UNL     1       5.251 -16.790  -1.239  1.00  0.00     0.049 A 
ATOM     61  C   UNL     1       9.389 -15.310   2.241  1.00  0.00     0.074 A 
ATOM     62  C   UNL     1       4.843 -18.112  -1.188  1.00  0.00     0.029 A 
ATOM     63  N   UNL     1       6.253 -16.649  -0.288  1.00  0.00    -0.354 N 
ATOM     64  N   UNL     1       8.428 -15.800   1.492  1.00  0.00    -0.248 NA
ATOM     65  C   UNL     1       9.949 -16.266   3.205  1.00  0.00     0.031 C 
ATOM     66  C   UNL     1       5.551 -18.753  -0.166  1.00  0.00     0.029 A 
ATOM     67  C   UNL     1       6.455 -17.852   0.373  1.00  0.00     0.049 A 
ATOM     68  H   UNL     1       6.748 -15.817  -0.109  1.00  0.00     0.167 HD
ATOM     69  C   UNL     1       8.295 -17.133   1.874  1.00  0.00     0.074 A 
ATOM     70  C   UNL     1       9.281 -17.371   2.907  1.00  0.00     0.031 C 
ATOM     71  C   UNL     1       7.438 -18.076   1.407  1.00  0.00     0.034 A 
BRANCH  58  72
ATOM     72  C   UNL     1       3.594 -16.017  -3.003  1.00  0.00     0.023 A 
ATOM     73  C   UNL     1       3.716 -15.937  -4.402  1.00  0.00     0.031 A 
ATOM     74  C   UNL     1       2.337 -16.355  -2.472  1.00  0.00     0.131 A 
ATOM     75  C   UNL     1       2.587 -16.115  -5.215  1.00  0.00     0.055 A 
ATOM     76  C   UNL     1       1.236 -16.614  -3.291  1.00  0.00     0.041 A 
ATOM     77  F   UNL     1       2.154 -16.428  -1.144  1.00  0.00    -0.206 F 
ATOM     78  C   UNL     1       1.354 -16.479  -4.671  1.00  0.00     0.022 A 
BRANCH  75  79
ATOM     79  S   UNL     1       2.724 -15.722  -6.980  1.00  0.00     0.124 S 
ATOM     80  O   UNL     1       3.112 -14.314  -6.938  1.00  0.00    -0.237 OA
ATOM     81  O   UNL     1       3.750 -16.654  -7.433  1.00  0.00    -0.237 OA
ATOM     82  O   UNL     1       1.379 -15.975  -7.493  1.00  0.00    -0.744 OA
ENDBRANCH  75  79
ENDBRANCH  58  72
BRANCH  59  83
ATOM     83  C   UNL     1      11.047 -13.551   3.212  1.00  0.00     0.023 A 
ATOM     84  C   UNL     1      12.305 -14.172   3.180  1.00  0.00     0.031 A 
ATOM     85  C   UNL     1      10.804 -12.605   4.223  1.00  0.00     0.131 A 
ATOM     86  C   UNL     1      13.255 -13.881   4.172  1.00  0.00     0.055 A 
ATOM     87  C   UNL     1      11.771 -12.278   5.176  1.00  0.00     0.041 A 
ATOM     88  F   UNL     1       9.620 -11.976   4.295  1.00  0.00    -0.206 F 
ATOM     89  C   UNL     1      13.001 -12.929   5.162  1.00  0.00     0.022 A 
BRANCH  86  90
ATOM     90  S   UNL     1      14.798 -14.834   4.203  1.00  0.00     0.124 S 
ATOM     91  O   UNL     1      14.301 -16.200   4.314  1.00  0.00    -0.237 OA
ATOM     92  O   UNL     1      15.402 -14.472   2.925  1.00  0.00    -0.237 OA
ATOM     93  O   UNL     1      15.490 -14.322   5.384  1.00  0.00    -0.744 OA
ENDBRANCH  86  90
ENDBRANCH  59  83
BRANCH  71  94
ATOM     94  C   UNL     1       7.568 -19.466   1.981  1.00  0.00     0.023 A 
ATOM     95  C   UNL     1       7.256 -19.748   3.322  1.00  0.00     0.031 A 
ATOM     96  C   UNL     1       8.023 -20.522   1.171  1.00  0.00     0.131 A 
ATOM     97  C   UNL     1       7.454 -21.042   3.828  1.00  0.00     0.055 A 
ATOM     98  C   UNL     1       8.162 -21.820   1.664  1.00  0.00     0.041 A 
ATOM     99  F   UNL     1       8.337 -20.309  -0.117  1.00  0.00    -0.206 F 
ATOM    100  C   UNL     1       7.889 -22.083   3.004  1.00  0.00     0.022 A 
BRANCH  97 101
ATOM    101  S   UNL     1       7.218 -21.329   5.604  1.00  0.00     0.124 S 
ATOM    102  O   UNL     1       8.173 -20.395   6.191  1.00  0.00    -0.237 OA
ATOM    103  O   UNL     1       5.808 -21.000   5.788  1.00  0.00    -0.237 OA
ATOM    104  O   UNL     1       7.550 -22.743   5.770  1.00  0.00    -0.744 OA
ENDBRANCH  97 101
ENDBRANCH  71  94
ENDBRANCH  45  46
ENDBRANCH  37  40
ENDBRANCH  35  36
ENDBRANCH  34  35
ENDBRANCH   1  34
TORSDOF 18
