REMARK SMILES CCCc1nnc(SCC(=O)NCCCCNC(=O)c2ccc(-c3c4nc(c(-c5cc(S(=O)(=O)[O-])ccc5F)c5ccc([nH]5)c(-c5cc(S(=O)(=O)[O-])ccc5F)c5nc(c(-c6cc(S(=O)(=O)[O-])ccc6F)c6ccc3[nH]6)C=C5)C=C4)cc2)n1C[C@H]1CCCO1
REMARK SMILES IDX 14 1 13 2 12 3 10 4 11 5 9 7 8 8 7 9 4 10 5 11 83 12 6 13
REMARK SMILES IDX 3 14 2 15 1 16 84 17 85 18 86 19 89 20 87 21 88 22 15 23
REMARK SMILES IDX 16 24 17 25 18 26 19 28 20 29 21 30 82 31 22 32 81 33 23 34
REMARK SMILES IDX 24 35 25 36 75 37 26 38 80 39 74 40 76 41 27 42 79 43 73 44
REMARK SMILES IDX 72 45 28 47 60 48 40 49 59 50 41 51 44 52 58 53 77 54 42 55
REMARK SMILES IDX 43 56 57 58 78 59 45 60 29 61 30 62 38 63 31 64 37 65 39 66
REMARK SMILES IDX 36 67 32 68 33 69 34 70 35 71 61 72 62 73 70 74 63 75 69 76
REMARK SMILES IDX 71 77 68 78 64 79 65 80 66 81 67 82 46 83 47 84 55 85 48 86
REMARK SMILES IDX 54 87 56 88 53 89 49 90 50 91 51 92 52 93
REMARK H PARENT 12 6 17 27 76 46 44 57
REMARK Flexibility Score: inf
ROOT
ATOM      1  C   UNL     1      -6.394  -1.526   5.678  1.00  0.00     0.023 C 
ENDROOT
BRANCH   1   2
ATOM      2  C   UNL     1      -6.652  -2.326   4.406  1.00  0.00     0.116 C 
BRANCH   2   3
ATOM      3  N   UNL     1      -6.485  -1.496   3.236  1.00  0.00    -0.355 N 
ATOM      4  C   UNL     1      -5.294  -1.190   2.656  1.00  0.00     0.230 C 
ATOM      5  O   UNL     1      -5.204  -0.200   1.933  1.00  0.00    -0.274 OA
ATOM      6  H   UNL     1      -7.298  -1.122   2.826  1.00  0.00     0.163 HD
BRANCH   4   7
ATOM      7  C   UNL     1      -4.165  -2.166   2.815  1.00  0.00     0.178 C 
BRANCH   7   8
ATOM      8  S   UNL     1      -3.047  -1.918   4.171  1.00  0.00    -0.076 SA
BRANCH   8   9
ATOM      9  C   UNL     1      -1.932  -0.681   3.740  1.00  0.00     0.191 A 
ATOM     10  C   UNL     1      -1.090   1.126   2.885  1.00  0.00     0.133 A 
ATOM     11  N   UNL     1      -0.700   1.046   4.145  1.00  0.00    -0.134 NA
ATOM     12  N   UNL     1      -1.622  -0.116   2.524  1.00  0.00    -0.303 N 
ATOM     13  N   UNL     1      -1.236  -0.081   4.680  1.00  0.00    -0.123 NA
BRANCH  10  14
ATOM     14  C   UNL     1      -0.973   2.421   2.134  1.00  0.00     0.077 C 
BRANCH  14  15
ATOM     15  C   UNL     1      -1.838   2.693   0.911  1.00  0.00     0.005 C 
ATOM     16  C   UNL     1      -3.337   2.612   1.154  1.00  0.00     0.004 C 
ENDBRANCH  14  15
ENDBRANCH  10  14
BRANCH  12  17
ATOM     17  C   UNL     1      -1.879  -0.579   1.179  1.00  0.00     0.158 C 
BRANCH  17  18
ATOM     18  C   UNL     1      -1.278  -1.891   0.600  1.00  0.00     0.138 C 
ATOM     19  C   UNL     1      -1.543  -3.280   1.164  1.00  0.00     0.036 C 
ATOM     20  O   UNL     1      -1.749  -1.988  -0.769  1.00  0.00    -0.376 OA
ATOM     21  C   UNL     1      -2.683  -3.869   0.358  1.00  0.00     0.031 C 
ATOM     22  C   UNL     1      -2.771  -2.992  -0.868  1.00  0.00     0.160 C 
ENDBRANCH  17  18
ENDBRANCH  12  17
ENDBRANCH   8   9
ENDBRANCH   7   8
ENDBRANCH   4   7
ENDBRANCH   2   3
ENDBRANCH   1   2
BRANCH   1  23
ATOM     23  C   UNL     1      -7.202  -0.228   5.804  1.00  0.00     0.023 C 
BRANCH  23  24
ATOM     24  C   UNL     1      -8.709  -0.417   5.708  1.00  0.00     0.116 C 
BRANCH  24  25
ATOM     25  N   UNL     1      -9.192  -1.405   6.666  1.00  0.00    -0.352 N 
ATOM     26  C   UNL     1     -10.402  -2.058   6.688  1.00  0.00     0.251 C 
ATOM     27  H   UNL     1      -8.569  -1.635   7.394  1.00  0.00     0.163 HD
ATOM     28  O   UNL     1     -10.798  -2.597   7.721  1.00  0.00    -0.269 OA
BRANCH  26  29
ATOM     29  C   UNL     1     -11.208  -2.108   5.459  1.00  0.00     0.039 A 
ATOM     30  C   UNL     1     -12.567  -1.807   5.473  1.00  0.00     0.014 A 
ATOM     31  C   UNL     1     -10.566  -2.434   4.266  1.00  0.00     0.014 A 
ATOM     32  C   UNL     1     -13.250  -1.754   4.261  1.00  0.00     0.010 A 
ATOM     33  C   UNL     1     -11.204  -2.269   3.062  1.00  0.00     0.010 A 
ATOM     34  C   UNL     1     -12.557  -1.964   3.055  1.00  0.00    -0.014 A 
BRANCH  34  35
ATOM     35  C   UNL     1     -13.199  -1.694   1.773  1.00  0.00     0.031 A 
ATOM     36  C   UNL     1     -13.769  -0.325   1.669  1.00  0.00     0.074 A 
ATOM     37  C   UNL     1     -13.099  -2.497   0.692  1.00  0.00     0.049 A 
ATOM     38  N   UNL     1     -15.017   0.005   1.655  1.00  0.00    -0.248 NA
ATOM     39  C   UNL     1     -12.856   0.827   1.773  1.00  0.00     0.031 C 
ATOM     40  C   UNL     1     -12.309  -3.721   0.535  1.00  0.00     0.029 A 
ATOM     41  N   UNL     1     -13.613  -2.317  -0.556  1.00  0.00    -0.354 N 
ATOM     42  C   UNL     1     -15.045   1.383   1.475  1.00  0.00     0.074 A 
ATOM     43  C   UNL     1     -13.720   1.844   1.790  1.00  0.00     0.031 C 
ATOM     44  C   UNL     1     -12.209  -4.032  -0.777  1.00  0.00     0.029 A 
ATOM     45  C   UNL     1     -13.056  -3.131  -1.540  1.00  0.00     0.049 A 
ATOM     46  H   UNL     1     -14.322  -1.662  -0.748  1.00  0.00     0.167 HD
ATOM     47  C   UNL     1     -16.084   1.981   0.826  1.00  0.00     0.034 A 
ATOM     48  C   UNL     1     -13.254  -3.049  -2.885  1.00  0.00     0.034 A 
ATOM     49  C   UNL     1     -17.225   1.089   0.754  1.00  0.00     0.049 A 
ATOM     50  C   UNL     1     -14.540  -2.333  -3.078  1.00  0.00     0.074 A 
ATOM     51  C   UNL     1     -17.954   0.384   1.697  1.00  0.00     0.029 A 
ATOM     52  N   UNL     1     -17.501   0.470  -0.447  1.00  0.00    -0.354 N 
ATOM     53  N   UNL     1     -15.691  -2.817  -2.696  1.00  0.00    -0.248 NA
ATOM     54  C   UNL     1     -14.498  -0.885  -3.221  1.00  0.00     0.031 C 
ATOM     55  C   UNL     1     -18.155  -0.902   1.112  1.00  0.00     0.029 A 
ATOM     56  C   UNL     1     -17.645  -0.873  -0.188  1.00  0.00     0.049 A 
ATOM     57  H   UNL     1     -17.581   0.908  -1.325  1.00  0.00     0.167 HD
ATOM     58  C   UNL     1     -16.358  -1.746  -2.122  1.00  0.00     0.074 A 
ATOM     59  C   UNL     1     -15.614  -0.564  -2.559  1.00  0.00     0.031 C 
ATOM     60  C   UNL     1     -17.267  -1.925  -1.116  1.00  0.00     0.034 A 
BRANCH  47  61
ATOM     61  C   UNL     1     -15.954   3.198  -0.068  1.00  0.00     0.023 A 
ATOM     62  C   UNL     1     -17.128   3.664  -0.691  1.00  0.00     0.031 A 
ATOM     63  C   UNL     1     -14.746   3.740  -0.566  1.00  0.00     0.131 A 
ATOM     64  C   UNL     1     -17.068   4.513  -1.810  1.00  0.00     0.055 A 
ATOM     65  C   UNL     1     -14.696   4.641  -1.634  1.00  0.00     0.041 A 
ATOM     66  F   UNL     1     -13.541   3.370  -0.119  1.00  0.00    -0.206 F 
ATOM     67  C   UNL     1     -15.858   5.005  -2.288  1.00  0.00     0.022 A 
BRANCH  64  68
ATOM     68  S   UNL     1     -18.591   4.804  -2.744  1.00  0.00     0.124 S 
ATOM     69  O   UNL     1     -19.024   3.439  -3.023  1.00  0.00    -0.237 OA
ATOM     70  O   UNL     1     -19.393   5.552  -1.782  1.00  0.00    -0.237 OA
ATOM     71  O   UNL     1     -18.135   5.566  -3.904  1.00  0.00    -0.744 OA
ENDBRANCH  64  68
ENDBRANCH  47  61
BRANCH  48  72
ATOM     72  C   UNL     1     -12.257  -3.261  -3.976  1.00  0.00     0.023 A 
ATOM     73  C   UNL     1     -12.629  -3.423  -5.331  1.00  0.00     0.031 A 
ATOM     74  C   UNL     1     -10.883  -3.048  -3.723  1.00  0.00     0.131 A 
ATOM     75  C   UNL     1     -11.651  -3.358  -6.355  1.00  0.00     0.055 A 
ATOM     76  C   UNL     1      -9.924  -2.983  -4.738  1.00  0.00     0.041 A 
ATOM     77  F   UNL     1     -10.432  -2.804  -2.483  1.00  0.00    -0.206 F 
ATOM     78  C   UNL     1     -10.306  -3.126  -6.061  1.00  0.00     0.022 A 
BRANCH  75  79
ATOM     79  S   UNL     1     -12.128  -3.473  -8.113  1.00  0.00     0.124 S 
ATOM     80  O   UNL     1     -12.442  -4.890  -8.255  1.00  0.00    -0.237 OA
ATOM     81  O   UNL     1     -13.251  -2.546  -8.198  1.00  0.00    -0.237 OA
ATOM     82  O   UNL     1     -10.923  -3.037  -8.821  1.00  0.00    -0.744 OA
ENDBRANCH  75  79
ENDBRANCH  48  72
BRANCH  60  83
ATOM     83  C   UNL     1     -17.762  -3.331  -0.813  1.00  0.00     0.023 A 
ATOM     84  C   UNL     1     -16.939  -4.449  -0.537  1.00  0.00     0.031 A 
ATOM     85  C   UNL     1     -19.153  -3.511  -0.697  1.00  0.00     0.131 A 
ATOM     86  C   UNL     1     -17.518  -5.686  -0.180  1.00  0.00     0.055 A 
ATOM     87  C   UNL     1     -19.721  -4.727  -0.319  1.00  0.00     0.041 A 
ATOM     88  F   UNL     1     -19.994  -2.488  -0.923  1.00  0.00    -0.206 F 
ATOM     89  C   UNL     1     -18.905  -5.823  -0.067  1.00  0.00     0.022 A 
BRANCH  86  90
ATOM     90  S   UNL     1     -16.484  -7.160   0.111  1.00  0.00     0.124 S 
ATOM     91  O   UNL     1     -15.521  -7.128  -0.984  1.00  0.00    -0.237 OA
ATOM     92  O   UNL     1     -15.943  -6.907   1.444  1.00  0.00    -0.237 OA
ATOM     93  O   UNL     1     -17.443  -8.265   0.046  1.00  0.00    -0.744 OA
ENDBRANCH  86  90
ENDBRANCH  60  83
ENDBRANCH  34  35
ENDBRANCH  26  29
ENDBRANCH  24  25
ENDBRANCH  23  24
ENDBRANCH   1  23
TORSDOF 20
