REMARK SMILES O=C(NCCCCNC(=O)c1ccc(-c2c3nc(c(-c4cc(S(=O)(=O)[O-])ccc4F)c4ccc([nH]4)c(-c4cc(S(=O)(=O)[O-])ccc4F)c4nc(c(-c5cc(S(=O)(=O)[O-])ccc5F)c5ccc2[nH]5)C=C4)C=C3)cc1)C1=NN(c2ccc([N+](=O)[O-])cc2)[C@H](c2ccccc2)C1
REMARK SMILES IDX 6 1 5 2 4 3 3 4 1 5 2 6 74 8 75 9 93 10 76 11 86 12 77 13
REMARK SMILES IDX 78 14 85 15 79 16 84 17 80 18 81 19 82 20 83 21 87 22 88 23
REMARK SMILES IDX 92 24 89 25 91 26 90 27 7 28 8 29 9 30 10 32 11 33 12 34
REMARK SMILES IDX 73 35 13 36 72 37 14 38 15 39 16 40 66 41 17 42 71 43 65 44
REMARK SMILES IDX 67 45 18 46 70 47 64 48 63 49 19 51 51 52 31 53 50 54 32 55
REMARK SMILES IDX 35 56 49 57 68 58 33 59 34 60 48 62 69 63 36 64 20 65 21 66
REMARK SMILES IDX 29 67 22 68 28 69 30 70 27 71 23 72 24 73 25 74 26 75 52 76
REMARK SMILES IDX 53 77 61 78 54 79 60 80 62 81 59 82 55 83 56 84 57 85 58 86
REMARK SMILES IDX 37 87 38 88 46 89 39 90 45 91 47 92 44 93 40 94 41 95 42 96
REMARK SMILES IDX 43 97
REMARK H PARENT 3 7 8 31 67 50 35 61
REMARK Flexibility Score: inf
ROOT
ATOM      1  C   UNL     1       4.404  -3.339   1.582  1.00  0.00     0.023 C 
ENDROOT
BRANCH   1   2
ATOM      2  C   UNL     1       4.863  -1.887   1.480  1.00  0.00     0.023 C 
BRANCH   2   3
ATOM      3  C   UNL     1       4.436  -1.158   0.210  1.00  0.00     0.116 C 
BRANCH   3   4
ATOM      4  N   UNL     1       2.992  -0.992   0.113  1.00  0.00    -0.351 N 
ATOM      5  O   UNL     1       1.065   0.214  -0.118  1.00  0.00    -0.268 OA
ATOM      6  C   UNL     1       2.287   0.179  -0.038  1.00  0.00     0.267 C 
ATOM      7  H   UNL     1       2.456  -1.816   0.162  1.00  0.00     0.163 HD
BRANCH   6   8
ATOM      8  C   UNL     1       3.040   1.478  -0.043  1.00  0.00     0.128 C 
ATOM      9  N   UNL     1       4.101   1.672  -0.760  1.00  0.00    -0.171 NA
ATOM     10  C   UNL     1       2.563   2.627   0.776  1.00  0.00     0.096 C 
ATOM     11  N   UNL     1       4.623   2.851  -0.340  1.00  0.00    -0.257 N 
ATOM     12  C   UNL     1       3.761   3.579   0.609  1.00  0.00     0.144 C 
BRANCH  11  13
ATOM     13  C   UNL     1       5.646   3.410  -1.089  1.00  0.00     0.061 A 
ATOM     14  C   UNL     1       5.475   3.685  -2.453  1.00  0.00     0.035 A 
ATOM     15  C   UNL     1       6.904   3.642  -0.516  1.00  0.00     0.035 A 
ATOM     16  C   UNL     1       6.514   4.226  -3.218  1.00  0.00     0.088 A 
ATOM     17  C   UNL     1       7.953   4.184  -1.262  1.00  0.00     0.088 A 
ATOM     18  C   UNL     1       7.749   4.483  -2.612  1.00  0.00     0.269 A 
BRANCH  18  19
ATOM     19  N   UNL     1       8.838   5.074  -3.397  1.00  0.00     0.062 N 
ATOM     20  O   UNL     1       8.660   5.222  -4.614  1.00  0.00    -0.258 OA
ATOM     21  O   UNL     1       9.867   5.411  -2.793  1.00  0.00    -0.258 OA
ENDBRANCH  18  19
ENDBRANCH  11  13
BRANCH  12  22
ATOM     22  C   UNL     1       4.491   3.986   1.883  1.00  0.00    -0.023 A 
ATOM     23  C   UNL     1       4.439   3.262   3.085  1.00  0.00     0.006 A 
ATOM     24  C   UNL     1       5.280   5.153   1.860  1.00  0.00     0.006 A 
ATOM     25  C   UNL     1       5.136   3.697   4.218  1.00  0.00     0.000 A 
ATOM     26  C   UNL     1       6.009   5.564   2.978  1.00  0.00     0.000 A 
ATOM     27  C   UNL     1       5.929   4.839   4.162  1.00  0.00     0.000 A 
ENDBRANCH  12  22
ENDBRANCH   6   8
ENDBRANCH   3   4
ENDBRANCH   2   3
ENDBRANCH   1   2
BRANCH   1  28
ATOM     28  C   UNL     1       4.793  -4.235   0.410  1.00  0.00     0.116 C 
BRANCH  28  29
ATOM     29  N   UNL     1       6.230  -4.323   0.209  1.00  0.00    -0.352 N 
ATOM     30  C   UNL     1       7.027  -5.436   0.068  1.00  0.00     0.251 C 
ATOM     31  H   UNL     1       6.702  -3.460   0.167  1.00  0.00     0.163 HD
ATOM     32  O   UNL     1       8.248  -5.305   0.040  1.00  0.00    -0.269 OA
BRANCH  30  33
ATOM     33  C   UNL     1       6.419  -6.784  -0.009  1.00  0.00     0.039 A 
ATOM     34  C   UNL     1       6.980  -7.819   0.745  1.00  0.00     0.014 A 
ATOM     35  C   UNL     1       5.299  -7.031  -0.807  1.00  0.00     0.014 A 
ATOM     36  C   UNL     1       6.370  -9.077   0.761  1.00  0.00     0.010 A 
ATOM     37  C   UNL     1       4.651  -8.263  -0.733  1.00  0.00     0.010 A 
ATOM     38  C   UNL     1       5.175  -9.298   0.057  1.00  0.00    -0.014 A 
BRANCH  38  39
ATOM     39  C   UNL     1       4.456 -10.598   0.142  1.00  0.00     0.031 A 
ATOM     40  C   UNL     1       4.280 -11.447  -1.088  1.00  0.00     0.074 A 
ATOM     41  C   UNL     1       3.902 -10.981   1.310  1.00  0.00     0.049 A 
ATOM     42  N   UNL     1       3.608 -12.559  -1.238  1.00  0.00    -0.248 NA
ATOM     43  C   UNL     1       4.925 -10.965  -2.319  1.00  0.00     0.031 C 
ATOM     44  C   UNL     1       3.970 -10.227   2.565  1.00  0.00     0.029 A 
ATOM     45  N   UNL     1       3.164 -12.092   1.634  1.00  0.00    -0.354 N 
ATOM     46  C   UNL     1       3.737 -12.905  -2.579  1.00  0.00     0.074 A 
ATOM     47  C   UNL     1       4.504 -11.851  -3.209  1.00  0.00     0.031 C 
ATOM     48  C   UNL     1       3.319 -10.907   3.523  1.00  0.00     0.029 A 
ATOM     49  C   UNL     1       2.746 -12.118   2.945  1.00  0.00     0.049 A 
ATOM     50  H   UNL     1       2.952 -12.804   0.988  1.00  0.00     0.167 HD
ATOM     51  C   UNL     1       3.277 -14.008  -3.221  1.00  0.00     0.034 A 
ATOM     52  C   UNL     1       1.975 -13.007   3.604  1.00  0.00     0.034 A 
ATOM     53  C   UNL     1       2.525 -15.058  -2.578  1.00  0.00     0.049 A 
ATOM     54  C   UNL     1       1.455 -14.213   2.862  1.00  0.00     0.074 A 
ATOM     55  C   UNL     1       2.057 -16.241  -3.123  1.00  0.00     0.029 A 
ATOM     56  N   UNL     1       2.126 -15.052  -1.247  1.00  0.00    -0.354 N 
ATOM     57  N   UNL     1       1.625 -14.545   1.603  1.00  0.00    -0.248 NA
ATOM     58  C   UNL     1       0.648 -15.168   3.633  1.00  0.00     0.031 C 
ATOM     59  C   UNL     1       1.323 -16.919  -2.143  1.00  0.00     0.029 A 
ATOM     60  C   UNL     1       1.394 -16.196  -0.964  1.00  0.00     0.049 A 
ATOM     61  H   UNL     1       2.332 -14.340  -0.600  1.00  0.00     0.167 HD
ATOM     62  C   UNL     1       0.972 -15.765   1.443  1.00  0.00     0.074 A 
ATOM     63  C   UNL     1       0.421 -16.115   2.735  1.00  0.00     0.031 C 
ATOM     64  C   UNL     1       0.842 -16.529   0.328  1.00  0.00     0.034 A 
BRANCH  51  65
ATOM     65  C   UNL     1       3.559 -14.120  -4.700  1.00  0.00     0.023 A 
ATOM     66  C   UNL     1       4.871 -14.222  -5.195  1.00  0.00     0.031 A 
ATOM     67  C   UNL     1       2.504 -14.109  -5.630  1.00  0.00     0.131 A 
ATOM     68  C   UNL     1       5.099 -14.238  -6.579  1.00  0.00     0.055 A 
ATOM     69  C   UNL     1       2.733 -14.206  -7.004  1.00  0.00     0.041 A 
ATOM     70  F   UNL     1       1.232 -13.994  -5.219  1.00  0.00    -0.206 F 
ATOM     71  C   UNL     1       4.037 -14.257  -7.487  1.00  0.00     0.022 A 
BRANCH  68  72
ATOM     72  S   UNL     1       6.805 -14.100  -7.177  1.00  0.00     0.124 S 
ATOM     73  O   UNL     1       7.211 -12.814  -6.616  1.00  0.00    -0.237 OA
ATOM     74  O   UNL     1       7.439 -15.279  -6.598  1.00  0.00    -0.237 OA
ATOM     75  O   UNL     1       6.661 -14.120  -8.632  1.00  0.00    -0.744 OA
ENDBRANCH  68  72
ENDBRANCH  51  65
BRANCH  52  76
ATOM     76  C   UNL     1       1.627 -12.793   5.039  1.00  0.00     0.023 A 
ATOM     77  C   UNL     1       2.058 -13.691   6.028  1.00  0.00     0.031 A 
ATOM     78  C   UNL     1       0.809 -11.720   5.434  1.00  0.00     0.131 A 
ATOM     79  C   UNL     1       1.626 -13.531   7.354  1.00  0.00     0.055 A 
ATOM     80  C   UNL     1       0.428 -11.533   6.764  1.00  0.00     0.041 A 
ATOM     81  F   UNL     1       0.372 -10.829   4.529  1.00  0.00    -0.206 F 
ATOM     82  C   UNL     1       0.825 -12.451   7.731  1.00  0.00     0.022 A 
BRANCH  79  83
ATOM     83  S   UNL     1       2.050 -14.814   8.565  1.00  0.00     0.124 S 
ATOM     84  O   UNL     1       1.489 -16.007   7.942  1.00  0.00    -0.237 OA
ATOM     85  O   UNL     1       3.506 -14.730   8.597  1.00  0.00    -0.237 OA
ATOM     86  O   UNL     1       1.375 -14.368   9.782  1.00  0.00    -0.744 OA
ENDBRANCH  79  83
ENDBRANCH  52  76
BRANCH  64  87
ATOM     87  C   UNL     1       0.114 -17.842   0.479  1.00  0.00     0.023 A 
ATOM     88  C   UNL     1      -1.262 -17.898   0.762  1.00  0.00     0.031 A 
ATOM     89  C   UNL     1       0.813 -19.055   0.351  1.00  0.00     0.131 A 
ATOM     90  C   UNL     1      -1.884 -19.139   0.963  1.00  0.00     0.055 A 
ATOM     91  C   UNL     1       0.177 -20.289   0.494  1.00  0.00     0.041 A 
ATOM     92  F   UNL     1       2.129 -19.061   0.083  1.00  0.00    -0.206 F 
ATOM     93  C   UNL     1      -1.177 -20.335   0.815  1.00  0.00     0.022 A 
BRANCH  90  94
ATOM     94  S   UNL     1      -3.613 -19.169   1.510  1.00  0.00     0.124 S 
ATOM     95  O   UNL     1      -3.550 -18.419   2.760  1.00  0.00    -0.237 OA
ATOM     96  O   UNL     1      -4.301 -18.509   0.405  1.00  0.00    -0.237 OA
ATOM     97  O   UNL     1      -3.903 -20.595   1.655  1.00  0.00    -0.744 OA
ENDBRANCH  90  94
ENDBRANCH  64  87
ENDBRANCH  38  39
ENDBRANCH  30  33
ENDBRANCH  28  29
ENDBRANCH   1  28
TORSDOF 17
