REMARK SMILES COc1ccccc1[C@@H]1CN(C(=O)Cc2csc(C)n2)C[C@H]1C(=O)NCCCCNC(=O)c1ccc(-c2c3nc(c(-c4cc(S(=O)(=O)[O-])ccc4F)c4ccc([nH]4)c(-c4cc(S(=O)(=O)[O-])ccc4F)c4nc(c(-c5cc(S(=O)(=O)[O-])ccc5F)c5ccc2[nH]5)C=C4)C=C3)cc1
REMARK SMILES IDX 27 1 26 2 25 3 23 4 24 5 22 7 9 8 10 9 11 10 21 11 8 12 3 13
REMARK SMILES IDX 4 14 5 15 7 16 6 17 2 18 1 19 12 20 13 21 14 22 15 23 16 24
REMARK SMILES IDX 20 25 17 26 18 27 19 28 28 29 29 30 30 31 31 32 32 34 33 35
REMARK SMILES IDX 34 36 95 37 35 38 94 39 36 40 37 41 38 42 88 43 39 44 93 45
REMARK SMILES IDX 87 46 89 47 40 48 92 49 86 50 85 51 41 53 73 54 53 55 72 56
REMARK SMILES IDX 54 57 57 58 71 59 90 60 55 61 56 62 70 64 91 65 58 66 42 67
REMARK SMILES IDX 43 68 51 69 44 70 50 71 52 72 49 73 45 74 46 75 47 76 48 77
REMARK SMILES IDX 74 78 75 79 83 80 76 81 82 82 84 83 81 84 77 85 78 86 79 87
REMARK SMILES IDX 80 88 59 89 60 90 68 91 61 92 67 93 69 94 66 95 62 96 63 97
REMARK SMILES IDX 64 98 65 99
REMARK H PARENT 25 6 30 33 89 52 57 63
REMARK Flexibility Score: inf
ROOT
ATOM      1  C   UNL     1       6.209  -0.458   3.015  1.00  0.00     0.023 C 
ENDROOT
BRANCH   1   2
ATOM      2  C   UNL     1       5.547  -1.336   1.959  1.00  0.00     0.116 C 
BRANCH   2   3
ATOM      3  N   UNL     1       4.344  -1.958   2.476  1.00  0.00    -0.356 N 
ATOM      4  C   UNL     1       3.040  -1.782   2.143  1.00  0.00     0.225 C 
ATOM      5  O   UNL     1       2.199  -2.422   2.779  1.00  0.00    -0.275 OA
ATOM      6  H   UNL     1       4.498  -2.620   3.188  1.00  0.00     0.163 HD
BRANCH   4   7
ATOM      7  C   UNL     1       2.603  -0.853   1.026  1.00  0.00     0.107 C 
ATOM      8  C   UNL     1       2.934   0.635   1.251  1.00  0.00     0.057 C 
ATOM      9  C   UNL     1       3.337   1.165  -0.122  1.00  0.00     0.128 C 
ATOM     10  N   UNL     1       3.822  -0.004  -0.835  1.00  0.00    -0.341 N 
ATOM     11  C   UNL     1       3.229  -1.226  -0.316  1.00  0.00     0.133 C 
BRANCH   8  12
ATOM     12  C   UNL     1       1.892   1.441   1.998  1.00  0.00    -0.000 A 
ATOM     13  C   UNL     1       0.641   1.837   1.496  1.00  0.00     0.122 A 
ATOM     14  C   UNL     1      -0.241   2.578   2.296  1.00  0.00     0.047 A 
ATOM     15  C   UNL     1       0.116   2.962   3.588  1.00  0.00     0.004 A 
ATOM     16  C   UNL     1       2.232   1.852   3.307  1.00  0.00     0.008 A 
ATOM     17  C   UNL     1       1.365   2.618   4.086  1.00  0.00     0.001 A 
BRANCH  13  18
ATOM     18  O   UNL     1       0.292   1.746   0.175  1.00  0.00    -0.496 OA
ATOM     19  C   UNL     1      -0.177   0.467  -0.233  1.00  0.00     0.278 C 
ENDBRANCH  13  18
ENDBRANCH   8  12
BRANCH  10  20
ATOM     20  C   UNL     1       4.637  -0.026  -1.949  1.00  0.00     0.228 C 
ATOM     21  O   UNL     1       4.966  -1.093  -2.475  1.00  0.00    -0.274 OA
BRANCH  20  22
ATOM     22  C   UNL     1       5.217   1.289  -2.443  1.00  0.00     0.157 C 
BRANCH  22  23
ATOM     23  C   UNL     1       4.188   2.245  -2.954  1.00  0.00     0.061 A 
ATOM     24  C   UNL     1       4.270   3.625  -2.910  1.00  0.00     0.091 A 
ATOM     25  N   UNL     1       3.019   1.761  -3.518  1.00  0.00    -0.246 NA
ATOM     26  S   UNL     1       2.846   4.325  -3.556  1.00  0.00    -0.127 S 
ATOM     27  C   UNL     1       2.226   2.752  -3.855  1.00  0.00     0.090 A 
ATOM     28  C   UNL     1       0.877   2.575  -4.454  1.00  0.00     0.079 C 
ENDBRANCH  22  23
ENDBRANCH  20  22
ENDBRANCH  10  20
ENDBRANCH   4   7
ENDBRANCH   2   3
ENDBRANCH   1   2
BRANCH   1  29
ATOM     29  C   UNL     1       6.775  -1.232   4.203  1.00  0.00     0.023 C 
BRANCH  29  30
ATOM     30  C   UNL     1       7.684  -2.394   3.825  1.00  0.00     0.116 C 
BRANCH  30  31
ATOM     31  N   UNL     1       8.759  -1.993   2.932  1.00  0.00    -0.352 N 
ATOM     32  C   UNL     1      10.087  -2.342   2.970  1.00  0.00     0.251 C 
ATOM     33  H   UNL     1       8.499  -1.388   2.200  1.00  0.00     0.163 HD
ATOM     34  O   UNL     1      10.886  -1.773   2.240  1.00  0.00    -0.269 OA
BRANCH  32  35
ATOM     35  C   UNL     1      10.531  -3.377   3.926  1.00  0.00     0.039 A 
ATOM     36  C   UNL     1      11.678  -3.140   4.682  1.00  0.00     0.014 A 
ATOM     37  C   UNL     1       9.801  -4.558   4.096  1.00  0.00     0.014 A 
ATOM     38  C   UNL     1      12.062  -4.068   5.649  1.00  0.00     0.010 A 
ATOM     39  C   UNL     1      10.133  -5.434   5.123  1.00  0.00     0.010 A 
ATOM     40  C   UNL     1      11.274  -5.205   5.904  1.00  0.00    -0.014 A 
BRANCH  40  41
ATOM     41  C   UNL     1      11.654  -6.154   6.981  1.00  0.00     0.031 A 
ATOM     42  C   UNL     1      12.008  -7.578   6.650  1.00  0.00     0.074 A 
ATOM     43  C   UNL     1      11.673  -5.726   8.259  1.00  0.00     0.049 A 
ATOM     44  N   UNL     1      12.396  -8.539   7.449  1.00  0.00    -0.248 NA
ATOM     45  C   UNL     1      11.884  -7.985   5.241  1.00  0.00     0.031 C 
ATOM     46  C   UNL     1      11.285  -4.384   8.706  1.00  0.00     0.029 A 
ATOM     47  N   UNL     1      12.042  -6.363   9.416  1.00  0.00    -0.354 N 
ATOM     48  C   UNL     1      12.575  -9.656   6.640  1.00  0.00     0.074 A 
ATOM     49  C   UNL     1      12.166  -9.277   5.305  1.00  0.00     0.031 C 
ATOM     50  C   UNL     1      11.479  -4.287  10.030  1.00  0.00     0.029 A 
ATOM     51  C   UNL     1      11.963  -5.567  10.536  1.00  0.00     0.049 A 
ATOM     52  H   UNL     1      12.335  -7.302   9.443  1.00  0.00     0.167 HD
ATOM     53  C   UNL     1      13.071 -10.874   6.971  1.00  0.00     0.034 A 
ATOM     54  C   UNL     1      12.249  -5.838  11.825  1.00  0.00     0.034 A 
ATOM     55  C   UNL     1      13.470 -11.238   8.309  1.00  0.00     0.049 A 
ATOM     56  C   UNL     1      12.788  -7.205  12.168  1.00  0.00     0.074 A 
ATOM     57  C   UNL     1      14.000 -12.435   8.757  1.00  0.00     0.029 A 
ATOM     58  N   UNL     1      13.379 -10.406   9.419  1.00  0.00    -0.354 N 
ATOM     59  N   UNL     1      13.004  -8.233  11.378  1.00  0.00    -0.248 NA
ATOM     60  C   UNL     1      13.145  -7.438  13.572  1.00  0.00     0.031 C 
ATOM     61  C   UNL     1      14.168 -12.350  10.143  1.00  0.00     0.029 A 
ATOM     62  C   UNL     1      13.825 -11.072  10.552  1.00  0.00     0.049 A 
ATOM     63  H   UNL     1      13.047  -9.480   9.404  1.00  0.00     0.167 HD
ATOM     64  C   UNL     1      13.550  -9.225  12.189  1.00  0.00     0.074 A 
ATOM     65  C   UNL     1      13.665  -8.653  13.515  1.00  0.00     0.031 C 
ATOM     66  C   UNL     1      13.916 -10.494  11.873  1.00  0.00     0.034 A 
BRANCH  53  67
ATOM     67  C   UNL     1      13.201 -11.895   5.865  1.00  0.00     0.023 A 
ATOM     68  C   UNL     1      14.046 -11.676   4.761  1.00  0.00     0.031 A 
ATOM     69  C   UNL     1      12.466 -13.092   5.900  1.00  0.00     0.131 A 
ATOM     70  C   UNL     1      14.084 -12.604   3.710  1.00  0.00     0.055 A 
ATOM     71  C   UNL     1      12.571 -14.051   4.890  1.00  0.00     0.041 A 
ATOM     72  F   UNL     1      11.624 -13.348   6.914  1.00  0.00    -0.206 F 
ATOM     73  C   UNL     1      13.374 -13.804   3.780  1.00  0.00     0.022 A 
BRANCH  70  74
ATOM     74  S   UNL     1      14.968 -12.157   2.191  1.00  0.00     0.124 S 
ATOM     75  O   UNL     1      14.249 -10.955   1.775  1.00  0.00    -0.237 OA
ATOM     76  O   UNL     1      16.331 -11.954   2.667  1.00  0.00    -0.237 OA
ATOM     77  O   UNL     1      14.775 -13.320   1.327  1.00  0.00    -0.744 OA
ENDBRANCH  70  74
ENDBRANCH  53  67
BRANCH  54  78
ATOM     78  C   UNL     1      12.030  -4.812  12.887  1.00  0.00     0.023 A 
ATOM     79  C   UNL     1      13.093  -4.329  13.668  1.00  0.00     0.031 A 
ATOM     80  C   UNL     1      10.736  -4.348  13.182  1.00  0.00     0.131 A 
ATOM     81  C   UNL     1      12.835  -3.467  14.746  1.00  0.00     0.055 A 
ATOM     82  C   UNL     1      10.493  -3.438  14.212  1.00  0.00     0.041 A 
ATOM     83  F   UNL     1       9.682  -4.771  12.465  1.00  0.00    -0.206 F 
ATOM     84  C   UNL     1      11.544  -3.007  15.014  1.00  0.00     0.022 A 
BRANCH  81  85
ATOM     85  S   UNL     1      14.197  -3.050  15.870  1.00  0.00     0.124 S 
ATOM     86  O   UNL     1      14.657  -4.370  16.282  1.00  0.00    -0.237 OA
ATOM     87  O   UNL     1      15.092  -2.301  14.995  1.00  0.00    -0.237 OA
ATOM     88  O   UNL     1      13.545  -2.260  16.914  1.00  0.00    -0.744 OA
ENDBRANCH  81  85
ENDBRANCH  54  78
BRANCH  66  89
ATOM     89  C   UNL     1      14.510 -11.326  12.987  1.00  0.00     0.023 A 
ATOM     90  C   UNL     1      13.772 -11.649  14.139  1.00  0.00     0.031 A 
ATOM     91  C   UNL     1      15.850 -11.749  12.923  1.00  0.00     0.131 A 
ATOM     92  C   UNL     1      14.403 -12.282  15.220  1.00  0.00     0.055 A 
ATOM     93  C   UNL     1      16.449 -12.454  13.968  1.00  0.00     0.041 A 
ATOM     94  F   UNL     1      16.606 -11.470  11.849  1.00  0.00    -0.206 F 
ATOM     95  C   UNL     1      15.732 -12.704  15.134  1.00  0.00     0.022 A 
BRANCH  92  96
ATOM     96  S   UNL     1      13.510 -12.400  16.794  1.00  0.00     0.124 S 
ATOM     97  O   UNL     1      13.156 -11.007  17.046  1.00  0.00    -0.237 OA
ATOM     98  O   UNL     1      12.402 -13.288  16.457  1.00  0.00    -0.237 OA
ATOM     99  O   UNL     1      14.501 -12.964  17.708  1.00  0.00    -0.744 OA
ENDBRANCH  92  96
ENDBRANCH  66  89
ENDBRANCH  40  41
ENDBRANCH  32  35
ENDBRANCH  30  31
ENDBRANCH  29  30
ENDBRANCH   1  29
TORSDOF 19
