REMARK SMILES CS(=O)(=O)c1ccc(C2=NN(c3ccc(C(=O)NCCCCNC(=O)c4ccc(-c5c6nc(c(-c7cc(S(=O)(=O)[O-])ccc7F)c7ccc([nH]7)c(-c7cc(S(=O)(=O)[O-])ccc7F)c7nc(c(-c8cc(S(=O)(=O)[O-])ccc8F)c8ccc5[nH]8)C=C7)C=C6)cc4)cc3)[C@H](c3ccc(F)cc3)C2)cc1
REMARK SMILES IDX 20 1 19 2 18 3 16 4 17 5 15 7 12 8 13 9 90 10 14 11 89 12
REMARK SMILES IDX 11 13 9 14 10 15 99 16 91 17 8 18 5 19 6 20 101 21 7 22
REMARK SMILES IDX 100 23 2 24 1 25 3 26 4 27 92 28 93 29 98 30 94 31 97 32
REMARK SMILES IDX 95 33 96 34 21 35 22 36 23 37 24 38 25 40 26 41 27 42 88 43
REMARK SMILES IDX 28 44 87 45 29 46 30 47 31 48 81 49 32 50 86 51 80 52 82 53
REMARK SMILES IDX 33 54 85 55 79 56 78 57 34 59 66 60 46 61 65 62 47 63 50 64
REMARK SMILES IDX 64 65 83 66 48 67 49 68 63 70 84 71 51 72 35 73 36 74 44 75
REMARK SMILES IDX 37 76 43 77 45 78 42 79 38 80 39 81 40 82 41 83 67 84 68 85
REMARK SMILES IDX 76 86 69 87 75 88 77 89 74 90 70 91 71 92 72 93 73 94 52 95
REMARK SMILES IDX 53 96 61 97 54 98 60 99 62 100 59 101 55 102 56 103 57 104
REMARK SMILES IDX 58 105
REMARK H PARENT 18 6 23 39 82 58 50 69
REMARK Flexibility Score: inf
ROOT
ATOM      1  C   UNL     1       2.551  -7.700 -13.281  1.00  0.00     0.023 C 
ENDROOT
BRANCH   1   2
ATOM      2  C   UNL     1       2.722  -6.240 -13.706  1.00  0.00     0.116 C 
BRANCH   2   3
ATOM      3  N   UNL     1       1.435  -5.606 -13.930  1.00  0.00    -0.352 N 
ATOM      4  C   UNL     1       0.711  -4.743 -13.144  1.00  0.00     0.251 C 
ATOM      5  O   UNL     1      -0.325  -4.256 -13.592  1.00  0.00    -0.269 OA
ATOM      6  H   UNL     1       1.009  -5.833 -14.788  1.00  0.00     0.163 HD
BRANCH   4   7
ATOM      7  C   UNL     1       1.183  -4.328 -11.798  1.00  0.00     0.039 A 
ATOM      8  C   UNL     1       2.175  -3.383  -9.340  1.00  0.00     0.060 A 
ATOM      9  C   UNL     1       1.463  -2.531 -10.190  1.00  0.00     0.029 A 
ATOM     10  C   UNL     1       2.308  -4.726  -9.694  1.00  0.00     0.029 A 
ATOM     11  C   UNL     1       0.966  -3.000 -11.410  1.00  0.00     0.016 A 
ATOM     12  C   UNL     1       1.803  -5.200 -10.903  1.00  0.00     0.016 A 
BRANCH   8  13
ATOM     13  N   UNL     1       2.767  -2.929  -8.177  1.00  0.00    -0.257 N 
ATOM     14  C   UNL     1       2.680  -2.161  -6.208  1.00  0.00     0.071 C 
ATOM     15  N   UNL     1       2.068  -2.960  -7.023  1.00  0.00    -0.176 NA
ATOM     16  C   UNL     1       3.873  -1.437  -6.774  1.00  0.00     0.091 C 
ATOM     17  C   UNL     1       3.995  -2.139  -8.139  1.00  0.00     0.144 C 
BRANCH  14  18
ATOM     18  C   UNL     1       2.208  -1.960  -4.830  1.00  0.00    -0.002 A 
ATOM     19  C   UNL     1       1.146  -1.643  -2.278  1.00  0.00     0.067 A 
ATOM     20  C   UNL     1       1.198  -2.917  -2.853  1.00  0.00     0.021 A 
ATOM     21  C   UNL     1       1.628  -0.527  -2.971  1.00  0.00     0.021 A 
ATOM     22  C   UNL     1       1.716  -3.071  -4.137  1.00  0.00     0.011 A 
ATOM     23  C   UNL     1       2.171  -0.689  -4.251  1.00  0.00     0.011 A 
BRANCH  19  24
ATOM     24  S   UNL     1       0.451  -1.508  -0.648  1.00  0.00     0.175 S 
ATOM     25  C   UNL     1       1.094  -0.021   0.062  1.00  0.00     0.163 C 
ATOM     26  O   UNL     1       1.000  -2.611   0.128  1.00  0.00    -0.224 OA
ATOM     27  O   UNL     1      -0.975  -1.344  -0.815  1.00  0.00    -0.224 OA
ENDBRANCH  19  24
ENDBRANCH  14  18
BRANCH  17  28
ATOM     28  C   UNL     1       5.205  -3.042  -8.380  1.00  0.00    -0.023 A 
ATOM     29  C   UNL     1       5.997  -3.584  -7.354  1.00  0.00     0.009 A 
ATOM     30  C   UNL     1       5.508  -3.412  -9.710  1.00  0.00     0.009 A 
ATOM     31  C   UNL     1       7.060  -4.446  -7.649  1.00  0.00     0.039 A 
ATOM     32  C   UNL     1       6.552  -4.292 -10.002  1.00  0.00     0.039 A 
ATOM     33  C   UNL     1       7.324  -4.796  -8.967  1.00  0.00     0.123 A 
ATOM     34  F   UNL     1       8.329  -5.638  -9.239  1.00  0.00    -0.207 F 
ENDBRANCH  17  28
ENDBRANCH   8  13
ENDBRANCH   4   7
ENDBRANCH   2   3
ENDBRANCH   1   2
BRANCH   1  35
ATOM     35  C   UNL     1       2.197  -8.650 -14.424  1.00  0.00     0.023 C 
BRANCH  35  36
ATOM     36  C   UNL     1       3.269  -8.788 -15.495  1.00  0.00     0.116 C 
BRANCH  36  37
ATOM     37  N   UNL     1       4.538  -9.279 -14.978  1.00  0.00    -0.352 N 
ATOM     38  C   UNL     1       5.426 -10.134 -15.588  1.00  0.00     0.251 C 
ATOM     39  H   UNL     1       4.792  -8.960 -14.082  1.00  0.00     0.163 HD
ATOM     40  O   UNL     1       6.407 -10.550 -14.981  1.00  0.00    -0.269 OA
BRANCH  38  41
ATOM     41  C   UNL     1       5.147 -10.574 -16.970  1.00  0.00     0.039 A 
ATOM     42  C   UNL     1       5.107 -11.941 -17.251  1.00  0.00     0.014 A 
ATOM     43  C   UNL     1       4.841  -9.634 -17.958  1.00  0.00     0.014 A 
ATOM     44  C   UNL     1       4.678 -12.370 -18.509  1.00  0.00     0.010 A 
ATOM     45  C   UNL     1       4.346 -10.066 -19.183  1.00  0.00     0.010 A 
ATOM     46  C   UNL     1       4.252 -11.437 -19.469  1.00  0.00    -0.014 A 
BRANCH  46  47
ATOM     47  C   UNL     1       3.695 -11.865 -20.779  1.00  0.00     0.031 A 
ATOM     48  C   UNL     1       4.403 -11.480 -22.049  1.00  0.00     0.074 A 
ATOM     49  C   UNL     1       2.515 -12.515 -20.827  1.00  0.00     0.049 A 
ATOM     50  N   UNL     1       4.018 -11.630 -23.289  1.00  0.00    -0.248 NA
ATOM     51  C   UNL     1       5.701 -10.804 -21.898  1.00  0.00     0.031 C 
ATOM     52  C   UNL     1       1.719 -12.912 -19.663  1.00  0.00     0.029 A 
ATOM     53  N   UNL     1       1.767 -12.940 -21.897  1.00  0.00    -0.354 N 
ATOM     54  C   UNL     1       5.015 -11.049 -24.067  1.00  0.00     0.074 A 
ATOM     55  C   UNL     1       5.992 -10.497 -23.152  1.00  0.00     0.031 C 
ATOM     56  C   UNL     1       0.604 -13.531 -20.082  1.00  0.00     0.029 A 
ATOM     57  C   UNL     1       0.575 -13.530 -21.541  1.00  0.00     0.049 A 
ATOM     58  H   UNL     1       2.056 -12.833 -22.832  1.00  0.00     0.167 HD
ATOM     59  C   UNL     1       5.112 -10.999 -25.418  1.00  0.00     0.034 A 
ATOM     60  C   UNL     1      -0.436 -13.994 -22.303  1.00  0.00     0.034 A 
ATOM     61  C   UNL     1       4.137 -11.572 -26.312  1.00  0.00     0.049 A 
ATOM     62  C   UNL     1      -0.316 -13.905 -23.805  1.00  0.00     0.074 A 
ATOM     63  C   UNL     1       4.168 -11.635 -27.694  1.00  0.00     0.029 A 
ATOM     64  N   UNL     1       2.949 -12.174 -25.915  1.00  0.00    -0.354 N 
ATOM     65  N   UNL     1       0.658 -13.397 -24.526  1.00  0.00    -0.248 NA
ATOM     66  C   UNL     1      -1.424 -14.456 -24.595  1.00  0.00     0.031 C 
ATOM     67  C   UNL     1       2.971 -12.208 -28.135  1.00  0.00     0.029 A 
ATOM     68  C   UNL     1       2.227 -12.579 -27.026  1.00  0.00     0.049 A 
ATOM     69  H   UNL     1       2.663 -12.295 -24.981  1.00  0.00     0.167 HD
ATOM     70  C   UNL     1       0.292 -13.601 -25.854  1.00  0.00     0.074 A 
ATOM     71  C   UNL     1      -0.984 -14.286 -25.833  1.00  0.00     0.031 C 
ATOM     72  C   UNL     1       0.954 -13.260 -26.989  1.00  0.00     0.034 A 
BRANCH  59  73
ATOM     73  C   UNL     1       6.301 -10.276 -26.005  1.00  0.00     0.023 A 
ATOM     74  C   UNL     1       7.617 -10.720 -25.790  1.00  0.00     0.031 A 
ATOM     75  C   UNL     1       6.115  -9.116 -26.777  1.00  0.00     0.131 A 
ATOM     76  C   UNL     1       8.698  -9.969 -26.278  1.00  0.00     0.055 A 
ATOM     77  C   UNL     1       7.192  -8.419 -27.330  1.00  0.00     0.041 A 
ATOM     78  F   UNL     1       4.883  -8.631 -26.998  1.00  0.00    -0.206 F 
ATOM     79  C   UNL     1       8.493  -8.837 -27.069  1.00  0.00     0.022 A 
BRANCH  76  80
ATOM     80  S   UNL     1      10.373 -10.417 -25.746  1.00  0.00     0.124 S 
ATOM     81  O   UNL     1      10.266 -10.284 -24.295  1.00  0.00    -0.237 OA
ATOM     82  O   UNL     1      10.513 -11.776 -26.255  1.00  0.00    -0.237 OA
ATOM     83  O   UNL     1      11.217  -9.416 -26.395  1.00  0.00    -0.744 OA
ENDBRANCH  76  80
ENDBRANCH  59  73
BRANCH  60  84
ATOM     84  C   UNL     1      -1.663 -14.563 -21.672  1.00  0.00     0.023 A 
ATOM     85  C   UNL     1      -2.019 -15.907 -21.863  1.00  0.00     0.031 A 
ATOM     86  C   UNL     1      -2.528 -13.755 -20.912  1.00  0.00     0.131 A 
ATOM     87  C   UNL     1      -3.232 -16.392 -21.348  1.00  0.00     0.055 A 
ATOM     88  C   UNL     1      -3.705 -14.257 -20.352  1.00  0.00     0.041 A 
ATOM     89  F   UNL     1      -2.236 -12.463 -20.695  1.00  0.00    -0.206 F 
ATOM     90  C   UNL     1      -4.070 -15.579 -20.582  1.00  0.00     0.022 A 
BRANCH  87  91
ATOM     91  S   UNL     1      -3.747 -18.077 -21.779  1.00  0.00     0.124 S 
ATOM     92  O   UNL     1      -3.754 -18.021 -23.236  1.00  0.00    -0.237 OA
ATOM     93  O   UNL     1      -2.690 -18.880 -21.172  1.00  0.00    -0.237 OA
ATOM     94  O   UNL     1      -5.060 -18.202 -21.151  1.00  0.00    -0.744 OA
ENDBRANCH  87  91
ENDBRANCH  60  84
BRANCH  72  95
ATOM     95  C   UNL     1       0.335 -13.675 -28.301  1.00  0.00     0.023 A 
ATOM     96  C   UNL     1      -0.865 -13.112 -28.769  1.00  0.00     0.031 A 
ATOM     97  C   UNL     1       0.967 -14.647 -29.099  1.00  0.00     0.131 A 
ATOM     98  C   UNL     1      -1.418 -13.557 -29.980  1.00  0.00     0.055 A 
ATOM     99  C   UNL     1       0.442 -15.042 -30.329  1.00  0.00     0.041 A 
ATOM    100  F   UNL     1       2.114 -15.219 -28.698  1.00  0.00    -0.206 F 
ATOM    101  C   UNL     1      -0.763 -14.505 -30.771  1.00  0.00     0.022 A 
BRANCH  98 102
ATOM    102  S   UNL     1      -3.049 -12.935 -30.475  1.00  0.00     0.124 S 
ATOM    103  O   UNL     1      -3.888 -13.366 -29.362  1.00  0.00    -0.237 OA
ATOM    104  O   UNL     1      -2.817 -11.498 -30.580  1.00  0.00    -0.237 OA
ATOM    105  O   UNL     1      -3.304 -13.614 -31.744  1.00  0.00    -0.744 OA
ENDBRANCH  98 102
ENDBRANCH  72  95
ENDBRANCH  46  47
ENDBRANCH  38  41
ENDBRANCH  36  37
ENDBRANCH  35  36
ENDBRANCH   1  35
TORSDOF 18
