REMARK SMILES CC(C)(C(=O)NCCCCNC(=O)c1ccc(-c2c3nc(c(-c4cc(S(=O)(=O)[O-])ccc4F)c4ccc([nH]4)c(-c4cc(S(=O)(=O)[O-])ccc4F)c4nc(c(-c5cc(S(=O)(=O)[O-])ccc5F)c5ccc2[nH]5)C=C4)C=C3)cc1)n1cccc1
REMARK SMILES IDX 9 1 8 2 7 3 6 4 4 5 5 6 2 8 1 9 3 10 77 11 78 12 81 13 79 14
REMARK SMILES IDX 80 15 10 16 11 17 12 18 13 20 14 21 15 22 76 23 16 24 75 25
REMARK SMILES IDX 17 26 18 27 19 28 69 29 20 30 74 31 68 32 70 33 21 34 73 35
REMARK SMILES IDX 67 36 66 37 22 39 54 40 34 41 53 42 35 43 38 44 52 45 71 46
REMARK SMILES IDX 36 47 37 48 51 50 72 51 39 52 23 53 24 54 32 55 25 56 31 57
REMARK SMILES IDX 33 58 30 59 26 60 27 61 28 62 29 63 55 64 56 65 64 66 57 67
REMARK SMILES IDX 63 68 65 69 62 70 58 71 59 72 60 73 61 74 40 75 41 76 49 77
REMARK SMILES IDX 42 78 48 79 50 80 47 81 43 82 44 83 45 84 46 85
REMARK H PARENT 6 7 11 19 70 38 38 49
REMARK Flexibility Score: inf
ROOT
ATOM      1  C   UNL     1      -2.809   0.528  -2.965  1.00  0.00     0.023 C 
ENDROOT
BRANCH   1   2
ATOM      2  C   UNL     1      -1.319   0.621  -2.631  1.00  0.00     0.023 C 
BRANCH   2   3
ATOM      3  C   UNL     1      -0.950   1.723  -1.641  1.00  0.00     0.116 C 
BRANCH   3   4
ATOM      4  N   UNL     1      -1.441   1.443  -0.305  1.00  0.00    -0.354 N 
ATOM      5  C   UNL     1      -0.821   1.181   0.882  1.00  0.00     0.245 C 
ATOM      6  O   UNL     1      -1.589   1.013   1.836  1.00  0.00    -0.272 OA
ATOM      7  H   UNL     1      -2.423   1.442  -0.242  1.00  0.00     0.163 HD
BRANCH   5   8
ATOM      8  C   UNL     1       0.726   1.123   1.042  1.00  0.00     0.117 C 
ATOM      9  C   UNL     1       1.350   0.074   0.095  1.00  0.00     0.045 C 
ATOM     10  C   UNL     1       1.332   2.510   0.731  1.00  0.00     0.045 C 
BRANCH   8  11
ATOM     11  N   UNL     1       1.059   0.727   2.447  1.00  0.00    -0.340 N 
ATOM     12  C   UNL     1       1.511   1.552   3.454  1.00  0.00     0.086 A 
ATOM     13  C   UNL     1       0.982  -0.555   2.953  1.00  0.00     0.086 A 
ATOM     14  C   UNL     1       1.765   0.787   4.571  1.00  0.00     0.019 A 
ATOM     15  C   UNL     1       1.431  -0.545   4.254  1.00  0.00     0.019 A 
ENDBRANCH   8  11
ENDBRANCH   5   8
ENDBRANCH   3   4
ENDBRANCH   2   3
ENDBRANCH   1   2
BRANCH   1  16
ATOM     16  C   UNL     1      -3.455   1.816  -3.468  1.00  0.00     0.116 C 
BRANCH  16  17
ATOM     17  N   UNL     1      -2.783   2.381  -4.628  1.00  0.00    -0.352 N 
ATOM     18  C   UNL     1      -3.330   2.922  -5.767  1.00  0.00     0.251 C 
ATOM     19  H   UNL     1      -1.799   2.376  -4.592  1.00  0.00     0.163 HD
ATOM     20  O   UNL     1      -2.599   3.249  -6.698  1.00  0.00    -0.269 OA
BRANCH  18  21
ATOM     21  C   UNL     1      -4.798   3.067  -5.879  1.00  0.00     0.039 A 
ATOM     22  C   UNL     1      -5.434   2.613  -7.037  1.00  0.00     0.014 A 
ATOM     23  C   UNL     1      -5.546   3.618  -4.835  1.00  0.00     0.014 A 
ATOM     24  C   UNL     1      -6.828   2.640  -7.116  1.00  0.00     0.010 A 
ATOM     25  C   UNL     1      -6.937   3.581  -4.888  1.00  0.00     0.010 A 
ATOM     26  C   UNL     1      -7.593   3.084  -6.026  1.00  0.00    -0.014 A 
BRANCH  26  27
ATOM     27  C   UNL     1      -9.078   3.030  -6.051  1.00  0.00     0.031 A 
ATOM     28  C   UNL     1      -9.880   4.301  -5.987  1.00  0.00     0.074 A 
ATOM     29  C   UNL     1      -9.702   1.835  -6.062  1.00  0.00     0.049 A 
ATOM     30  N   UNL     1     -11.175   4.460  -5.897  1.00  0.00    -0.248 NA
ATOM     31  C   UNL     1      -9.118   5.559  -5.994  1.00  0.00     0.031 C 
ATOM     32  C   UNL     1      -9.033   0.532  -6.081  1.00  0.00     0.029 A 
ATOM     33  N   UNL     1     -11.038   1.520  -6.045  1.00  0.00    -0.354 N 
ATOM     34  C   UNL     1     -11.385   5.833  -5.827  1.00  0.00     0.074 A 
ATOM     35  C   UNL     1     -10.077   6.455  -5.822  1.00  0.00     0.031 C 
ATOM     36  C   UNL     1      -9.960  -0.439  -6.089  1.00  0.00     0.029 A 
ATOM     37  C   UNL     1     -11.287   0.167  -6.033  1.00  0.00     0.049 A 
ATOM     38  H   UNL     1     -11.751   2.199  -6.042  1.00  0.00     0.167 HD
ATOM     39  C   UNL     1     -12.559   6.512  -5.796  1.00  0.00     0.034 A 
ATOM     40  C   UNL     1     -12.451  -0.511  -5.969  1.00  0.00     0.034 A 
ATOM     41  C   UNL     1     -13.854   5.877  -5.809  1.00  0.00     0.049 A 
ATOM     42  C   UNL     1     -13.743   0.264  -5.923  1.00  0.00     0.074 A 
ATOM     43  C   UNL     1     -15.105   6.469  -5.814  1.00  0.00     0.029 A 
ATOM     44  N   UNL     1     -14.067   4.504  -5.818  1.00  0.00    -0.354 N 
ATOM     45  N   UNL     1     -13.925   1.564  -5.889  1.00  0.00    -0.248 NA
ATOM     46  C   UNL     1     -14.985  -0.519  -5.919  1.00  0.00     0.031 C 
ATOM     47  C   UNL     1     -16.071   5.457  -5.768  1.00  0.00     0.029 A 
ATOM     48  C   UNL     1     -15.427   4.232  -5.809  1.00  0.00     0.049 A 
ATOM     49  H   UNL     1     -13.356   3.823  -5.830  1.00  0.00     0.167 HD
ATOM     50  C   UNL     1     -15.304   1.753  -5.887  1.00  0.00     0.074 A 
ATOM     51  C   UNL     1     -15.904   0.436  -5.939  1.00  0.00     0.031 C 
ATOM     52  C   UNL     1     -16.011   2.912  -5.849  1.00  0.00     0.034 A 
BRANCH  39  53
ATOM     53  C   UNL     1     -12.484   8.018  -5.724  1.00  0.00     0.023 A 
ATOM     54  C   UNL     1     -11.910   8.775  -6.761  1.00  0.00     0.031 A 
ATOM     55  C   UNL     1     -12.965   8.707  -4.597  1.00  0.00     0.131 A 
ATOM     56  C   UNL     1     -11.763  10.163  -6.618  1.00  0.00     0.055 A 
ATOM     57  C   UNL     1     -12.891  10.098  -4.496  1.00  0.00     0.041 A 
ATOM     58  F   UNL     1     -13.505   8.037  -3.566  1.00  0.00    -0.206 F 
ATOM     59  C   UNL     1     -12.273  10.833  -5.504  1.00  0.00     0.022 A 
BRANCH  56  60
ATOM     60  S   UNL     1     -10.773  11.059  -7.844  1.00  0.00     0.124 S 
ATOM     61  O   UNL     1      -9.473  10.405  -7.707  1.00  0.00    -0.237 OA
ATOM     62  O   UNL     1     -11.492  10.796  -9.085  1.00  0.00    -0.237 OA
ATOM     63  O   UNL     1     -10.819  12.443  -7.377  1.00  0.00    -0.744 OA
ENDBRANCH  56  60
ENDBRANCH  39  53
BRANCH  40  64
ATOM     64  C   UNL     1     -12.453  -2.001  -5.929  1.00  0.00     0.023 A 
ATOM     65  C   UNL     1     -12.990  -2.754  -6.984  1.00  0.00     0.031 A 
ATOM     66  C   UNL     1     -11.944  -2.693  -4.816  1.00  0.00     0.131 A 
ATOM     67  C   UNL     1     -13.046  -4.153  -6.887  1.00  0.00     0.055 A 
ATOM     68  C   UNL     1     -11.957  -4.087  -4.745  1.00  0.00     0.041 A 
ATOM     69  F   UNL     1     -11.410  -2.020  -3.784  1.00  0.00    -0.206 F 
ATOM     70  C   UNL     1     -12.522  -4.825  -5.780  1.00  0.00     0.022 A 
BRANCH  67  71
ATOM     71  S   UNL     1     -13.883  -5.083  -8.200  1.00  0.00     0.124 S 
ATOM     72  O   UNL     1     -15.222  -4.506  -8.167  1.00  0.00    -0.237 OA
ATOM     73  O   UNL     1     -13.071  -4.754  -9.368  1.00  0.00    -0.237 OA
ATOM     74  O   UNL     1     -13.788  -6.470  -7.749  1.00  0.00    -0.744 OA
ENDBRANCH  67  71
ENDBRANCH  40  64
BRANCH  52  75
ATOM     75  C   UNL     1     -17.514   2.799  -5.907  1.00  0.00     0.023 A 
ATOM     76  C   UNL     1     -18.256   2.238  -4.853  1.00  0.00     0.031 A 
ATOM     77  C   UNL     1     -18.212   3.253  -7.040  1.00  0.00     0.131 A 
ATOM     78  C   UNL     1     -19.647   2.098  -4.975  1.00  0.00     0.055 A 
ATOM     79  C   UNL     1     -19.601   3.163  -7.132  1.00  0.00     0.041 A 
ATOM     80  F   UNL     1     -17.552   3.795  -8.077  1.00  0.00    -0.206 F 
ATOM     81  C   UNL     1     -20.325   2.571  -6.101  1.00  0.00     0.022 A 
BRANCH  78  82
ATOM     82  S   UNL     1     -20.551   1.210  -3.678  1.00  0.00     0.124 S 
ATOM     83  O   UNL     1     -19.899  -0.096  -3.693  1.00  0.00    -0.237 OA
ATOM     84  O   UNL     1     -20.298   2.035  -2.501  1.00  0.00    -0.237 OA
ATOM     85  O   UNL     1     -21.933   1.219  -4.154  1.00  0.00    -0.744 OA
ENDBRANCH  78  82
ENDBRANCH  52  75
ENDBRANCH  26  27
ENDBRANCH  18  21
ENDBRANCH  16  17
ENDBRANCH   1  16
TORSDOF 15
