REMARK SMILES C[C@@H](CC(=O)NCCCNC(=O)c1ccc(-c2c3nc(c(-c4cc(S(=O)(=O)[O-])ccc4F)c4ccc([nH]4)c(-c4cc(S(=O)(=O)[O-])ccc4F)c4nc(c(-c5cc(S(=O)(=O)[O-])ccc5F)c5ccc2[nH]5)C=C4)C=C3)cc1)CC(=O)N(C)C[C@H]1CCC[N@H+]1C
REMARK SMILES IDX 4 1 5 2 6 3 3 5 2 6 1 7 76 8 77 9 78 10 79 11 80 12 81 13
REMARK SMILES IDX 82 14 83 15 86 16 84 17 85 18 87 19 7 21 8 22 9 23 10 24
REMARK SMILES IDX 11 25 12 27 13 28 14 29 75 30 15 31 74 32 16 33 17 34 18 35
REMARK SMILES IDX 68 36 19 37 73 38 67 39 69 40 20 41 72 42 66 43 65 44 21 46
REMARK SMILES IDX 53 47 33 48 52 49 34 50 37 51 51 52 70 53 35 54 36 55 50 57
REMARK SMILES IDX 71 58 38 59 22 60 23 61 31 62 24 63 30 64 32 65 29 66 25 67
REMARK SMILES IDX 26 68 27 69 28 70 54 71 55 72 63 73 56 74 62 75 64 76 61 77
REMARK SMILES IDX 57 78 58 79 59 80 60 81 39 82 40 83 48 84 41 85 47 86 49 87
REMARK SMILES IDX 46 88 42 89 43 90 44 91 45 92
REMARK H PARENT 6 4 86 20 10 26 69 45 37 56
REMARK Flexibility Score: inf
ROOT
ATOM      1  C   UNL     1       0.573   2.384  -1.496  1.00  0.00     0.220 C 
ATOM      2  O   UNL     1      -0.358   3.130  -1.809  1.00  0.00    -0.275 OA
ATOM      3  N   UNL     1       1.096   1.583  -2.461  1.00  0.00    -0.356 N 
ATOM      4  H   UNL     1       0.699   1.703  -3.353  1.00  0.00     0.163 HD
ENDROOT
BRANCH   1   5
ATOM      5  C   UNL     1       1.107   2.370  -0.074  1.00  0.00     0.103 C 
BRANCH   5   6
ATOM      6  C   UNL     1       0.455   1.378   0.917  1.00  0.00     0.004 C 
ATOM      7  C   UNL     1       1.347   0.159   1.165  1.00  0.00     0.009 C 
BRANCH   6   8
ATOM      8  C   UNL     1      -1.000   1.020   0.555  1.00  0.00     0.104 C 
BRANCH   8   9
ATOM      9  C   UNL     1      -1.632   0.018   1.514  1.00  0.00     0.222 C 
ATOM     10  O   UNL     1      -1.992   0.420   2.623  1.00  0.00    -0.275 OA
BRANCH   9  11
ATOM     11  N   UNL     1      -1.735  -1.318   1.144  1.00  0.00    -0.340 N 
ATOM     12  C   UNL     1      -1.423  -1.865  -0.169  1.00  0.00     0.147 C 
BRANCH  11  13
ATOM     13  C   UNL     1      -2.285  -2.289   2.111  1.00  0.00     0.184 C 
BRANCH  13  14
ATOM     14  C   UNL     1      -1.474  -2.435   3.434  1.00  0.00     0.203 C 
ATOM     15  C   UNL     1      -2.263  -1.866   4.622  1.00  0.00     0.073 C 
ATOM     16  N   UNL     1      -1.259  -3.804   3.946  1.00  0.00    -0.333 N 
ATOM     17  C   UNL     1      -3.105  -3.029   5.143  1.00  0.00     0.068 C 
ATOM     18  C   UNL     1      -2.544  -4.268   4.460  1.00  0.00     0.262 C 
ATOM     19  C   UNL     1      -0.625  -4.747   3.044  1.00  0.00     0.333 C 
ATOM     20  H   UNL     1      -0.555  -3.755   4.683  1.00  0.00     0.348 HD
ENDBRANCH  13  14
ENDBRANCH  11  13
ENDBRANCH   9  11
ENDBRANCH   8   9
ENDBRANCH   6   8
ENDBRANCH   5   6
ENDBRANCH   1   5
BRANCH   3  21
ATOM     21  C   UNL     1       2.143   0.579  -2.395  1.00  0.00     0.117 C 
BRANCH  21  22
ATOM     22  C   UNL     1       1.569  -0.835  -2.385  1.00  0.00     0.042 C 
BRANCH  22  23
ATOM     23  C   UNL     1       0.908  -1.275  -3.687  1.00  0.00     0.118 C 
BRANCH  23  24
ATOM     24  N   UNL     1       1.878  -1.688  -4.683  1.00  0.00    -0.352 N 
ATOM     25  C   UNL     1       2.111  -2.922  -5.244  1.00  0.00     0.251 C 
ATOM     26  H   UNL     1       2.465  -0.969  -5.011  1.00  0.00     0.163 HD
ATOM     27  O   UNL     1       3.140  -3.078  -5.899  1.00  0.00    -0.269 OA
BRANCH  25  28
ATOM     28  C   UNL     1       1.173  -4.061  -5.064  1.00  0.00     0.039 A 
ATOM     29  C   UNL     1       1.707  -5.351  -4.960  1.00  0.00     0.014 A 
ATOM     30  C   UNL     1      -0.216  -3.900  -5.078  1.00  0.00     0.014 A 
ATOM     31  C   UNL     1       0.863  -6.460  -4.832  1.00  0.00     0.010 A 
ATOM     32  C   UNL     1      -1.058  -5.000  -4.879  1.00  0.00     0.010 A 
ATOM     33  C   UNL     1      -0.530  -6.296  -4.767  1.00  0.00    -0.014 A 
BRANCH  33  34
ATOM     34  C   UNL     1      -1.438  -7.469  -4.620  1.00  0.00     0.031 A 
ATOM     35  C   UNL     1      -2.399  -7.830  -5.724  1.00  0.00     0.074 A 
ATOM     36  C   UNL     1      -1.425  -8.194  -3.483  1.00  0.00     0.049 A 
ATOM     37  N   UNL     1      -3.309  -8.772  -5.758  1.00  0.00    -0.248 NA
ATOM     38  C   UNL     1      -2.345  -7.007  -6.941  1.00  0.00     0.031 C 
ATOM     39  C   UNL     1      -0.559  -7.941  -2.330  1.00  0.00     0.029 A 
ATOM     40  N   UNL     1      -2.166  -9.287  -3.106  1.00  0.00    -0.354 N 
ATOM     41  C   UNL     1      -3.943  -8.647  -6.991  1.00  0.00     0.074 A 
ATOM     42  C   UNL     1      -3.349  -7.503  -7.649  1.00  0.00     0.031 C 
ATOM     43  C   UNL     1      -0.805  -8.863  -1.385  1.00  0.00     0.029 A 
ATOM     44  C   UNL     1      -1.874  -9.746  -1.841  1.00  0.00     0.049 A 
ATOM     45  H   UNL     1      -2.844  -9.704  -3.686  1.00  0.00     0.167 HD
ATOM     46  C   UNL     1      -4.914  -9.425  -7.534  1.00  0.00     0.034 A 
ATOM     47  C   UNL     1      -2.410 -10.755  -1.125  1.00  0.00     0.034 A 
ATOM     48  C   UNL     1      -5.488 -10.576  -6.879  1.00  0.00     0.049 A 
ATOM     49  C   UNL     1      -3.506 -11.591  -1.740  1.00  0.00     0.074 A 
ATOM     50  C   UNL     1      -6.441 -11.457  -7.362  1.00  0.00     0.029 A 
ATOM     51  N   UNL     1      -5.167 -11.006  -5.598  1.00  0.00    -0.354 N 
ATOM     52  N   UNL     1      -4.066 -11.479  -2.922  1.00  0.00    -0.248 NA
ATOM     53  C   UNL     1      -4.032 -12.696  -0.927  1.00  0.00     0.031 C 
ATOM     54  C   UNL     1      -6.740 -12.380  -6.353  1.00  0.00     0.029 A 
ATOM     55  C   UNL     1      -5.922 -12.121  -5.265  1.00  0.00     0.049 A 
ATOM     56  H   UNL     1      -4.500 -10.582  -5.011  1.00  0.00     0.167 HD
ATOM     57  C   UNL     1      -4.988 -12.520  -3.004  1.00  0.00     0.074 A 
ATOM     58  C   UNL     1      -4.898 -13.255  -1.760  1.00  0.00     0.031 C 
ATOM     59  C   UNL     1      -5.831 -12.841  -4.018  1.00  0.00     0.034 A 
BRANCH  46  60
ATOM     60  C   UNL     1      -5.434  -9.037  -8.898  1.00  0.00     0.023 A 
ATOM     61  C   UNL     1      -4.609  -9.061 -10.037  1.00  0.00     0.031 A 
ATOM     62  C   UNL     1      -6.768  -8.623  -9.062  1.00  0.00     0.131 A 
ATOM     63  C   UNL     1      -5.104  -8.610 -11.270  1.00  0.00     0.055 A 
ATOM     64  C   UNL     1      -7.277  -8.252 -10.308  1.00  0.00     0.041 A 
ATOM     65  F   UNL     1      -7.598  -8.563  -8.008  1.00  0.00    -0.206 F 
ATOM     66  C   UNL     1      -6.439  -8.229 -11.419  1.00  0.00     0.022 A 
BRANCH  63  67
ATOM     67  S   UNL     1      -3.939  -8.400 -12.645  1.00  0.00     0.124 S 
ATOM     68  O   UNL     1      -2.999  -7.430 -12.087  1.00  0.00    -0.237 OA
ATOM     69  O   UNL     1      -3.427  -9.751 -12.834  1.00  0.00    -0.237 OA
ATOM     70  O   UNL     1      -4.778  -7.891 -13.729  1.00  0.00    -0.744 OA
ENDBRANCH  63  67
ENDBRANCH  46  60
BRANCH  47  71
ATOM     71  C   UNL     1      -1.938 -11.033   0.262  1.00  0.00     0.023 A 
ATOM     72  C   UNL     1      -1.302 -12.243   0.581  1.00  0.00     0.031 A 
ATOM     73  C   UNL     1      -2.165 -10.113   1.302  1.00  0.00     0.131 A 
ATOM     74  C   UNL     1      -0.961 -12.524   1.913  1.00  0.00     0.055 A 
ATOM     75  C   UNL     1      -1.776 -10.375   2.616  1.00  0.00     0.041 A 
ATOM     76  F   UNL     1      -2.763  -8.937   1.050  1.00  0.00    -0.206 F 
ATOM     77  C   UNL     1      -1.183 -11.594   2.930  1.00  0.00     0.022 A 
BRANCH  74  78
ATOM     78  S   UNL     1      -0.302 -14.167   2.311  1.00  0.00     0.124 S 
ATOM     79  O   UNL     1      -1.363 -15.039   1.819  1.00  0.00    -0.237 OA
ATOM     80  O   UNL     1       0.945 -14.182   1.554  1.00  0.00    -0.237 OA
ATOM     81  O   UNL     1      -0.148 -14.128   3.763  1.00  0.00    -0.744 OA
ENDBRANCH  74  78
ENDBRANCH  47  71
BRANCH  59  82
ATOM     82  C   UNL     1      -6.687 -14.070  -3.835  1.00  0.00     0.023 A 
ATOM     83  C   UNL     1      -7.718 -14.119  -2.880  1.00  0.00     0.031 A 
ATOM     84  C   UNL     1      -6.458 -15.214  -4.620  1.00  0.00     0.131 A 
ATOM     85  C   UNL     1      -8.444 -15.305  -2.695  1.00  0.00     0.055 A 
ATOM     86  C   UNL     1      -7.221 -16.373  -4.471  1.00  0.00     0.041 A 
ATOM     87  F   UNL     1      -5.486 -15.223  -5.546  1.00  0.00    -0.206 F 
ATOM     88  C   UNL     1      -8.213 -16.428  -3.495  1.00  0.00     0.022 A 
BRANCH  85  89
ATOM     89  S   UNL     1      -9.642 -15.392  -1.335  1.00  0.00     0.124 S 
ATOM     90  O   UNL     1      -8.802 -15.121  -0.173  1.00  0.00    -0.237 OA
ATOM     91  O   UNL     1     -10.594 -14.345  -1.691  1.00  0.00    -0.237 OA
ATOM     92  O   UNL     1     -10.161 -16.755  -1.421  1.00  0.00    -0.744 OA
ENDBRANCH  85  89
ENDBRANCH  59  82
ENDBRANCH  33  34
ENDBRANCH  25  28
ENDBRANCH  23  24
ENDBRANCH  22  23
ENDBRANCH  21  22
ENDBRANCH   3  21
TORSDOF 19
