REMARK SMILES O=C(CSc1ccccc1C(=O)NCCCNC(=O)c1ccc(-c2c3nc(c(-c4cc(S(=O)(=O)[O-])ccc4F)c4ccc([nH]4)c(-c4cc(S(=O)(=O)[O-])ccc4F)c4nc(c(-c5cc(S(=O)(=O)[O-])ccc5F)c5ccc2[nH]5)C=C4)C=C3)cc1)c1ccc(Cl)cc1
REMARK SMILES IDX 14 1 13 2 11 3 12 4 10 6 5 7 6 8 7 9 9 10 8 11 4 12 3 13
REMARK SMILES IDX 2 14 1 15 83 16 84 17 89 18 85 19 88 20 86 21 87 22 15 23
REMARK SMILES IDX 16 24 17 25 18 26 19 28 20 29 21 30 82 31 22 32 81 33 23 34
REMARK SMILES IDX 24 35 25 36 75 37 26 38 80 39 74 40 76 41 27 42 79 43 73 44
REMARK SMILES IDX 72 45 28 47 60 48 40 49 59 50 41 51 44 52 58 53 77 54 42 55
REMARK SMILES IDX 43 56 57 58 78 59 45 60 29 61 30 62 38 63 31 64 37 65 39 66
REMARK SMILES IDX 36 67 32 68 33 69 34 70 35 71 61 72 62 73 70 74 63 75 69 76
REMARK SMILES IDX 71 77 68 78 64 79 65 80 66 81 67 82 46 83 47 84 55 85 48 86
REMARK SMILES IDX 54 87 56 88 53 89 49 90 50 91 51 92 52 93
REMARK H PARENT 13 5 17 27 76 46 44 57
REMARK Flexibility Score: inf
ROOT
ATOM      1  C   UNL     1       3.946  -2.596  -3.046  1.00  0.00     0.118 C 
ENDROOT
BRANCH   1   2
ATOM      2  N   UNL     1       2.579  -2.437  -3.513  1.00  0.00    -0.352 N 
ATOM      3  C   UNL     1       1.766  -1.381  -3.830  1.00  0.00     0.252 C 
ATOM      4  O   UNL     1       0.605  -1.700  -4.117  1.00  0.00    -0.269 OA
ATOM      5  H   UNL     1       2.124  -3.302  -3.631  1.00  0.00     0.163 HD
BRANCH   3   6
ATOM      6  C   UNL     1       2.130   0.068  -3.956  1.00  0.00     0.053 A 
ATOM      7  C   UNL     1       2.975   0.865  -3.163  1.00  0.00     0.020 A 
ATOM      8  C   UNL     1       3.111   2.243  -3.461  1.00  0.00     0.016 A 
ATOM      9  C   UNL     1       2.380   2.854  -4.476  1.00  0.00     0.001 A 
ATOM     10  C   UNL     1       1.398   0.723  -4.981  1.00  0.00     0.015 A 
ATOM     11  C   UNL     1       1.508   2.093  -5.232  1.00  0.00     0.001 A 
BRANCH   7  12
ATOM     12  S   UNL     1       3.909   0.389  -1.726  1.00  0.00    -0.117 SA
BRANCH  12  13
ATOM     13  C   UNL     1       2.571   0.154  -0.518  1.00  0.00     0.156 C 
BRANCH  13  14
ATOM     14  C   UNL     1       2.162   1.464   0.107  1.00  0.00     0.173 C 
ATOM     15  O   UNL     1       1.164   2.095  -0.222  1.00  0.00    -0.293 OA
BRANCH  14  16
ATOM     16  C   UNL     1       3.014   1.968   1.202  1.00  0.00     0.018 A 
ATOM     17  C   UNL     1       4.218   2.615   0.905  1.00  0.00     0.013 A 
ATOM     18  C   UNL     1       2.617   1.762   2.525  1.00  0.00     0.013 A 
ATOM     19  C   UNL     1       5.046   3.036   1.943  1.00  0.00     0.021 A 
ATOM     20  C   UNL     1       3.449   2.193   3.561  1.00  0.00     0.021 A 
ATOM     21  C   UNL     1       4.659   2.824   3.266  1.00  0.00     0.041 A 
ATOM     22  Cl  UNL     1       5.685   3.352   4.540  1.00  0.00    -0.084 Cl
ENDBRANCH  14  16
ENDBRANCH  13  14
ENDBRANCH  12  13
ENDBRANCH   7  12
ENDBRANCH   3   6
ENDBRANCH   1   2
BRANCH   1  23
ATOM     23  C   UNL     1       3.951  -2.850  -1.534  1.00  0.00     0.042 C 
BRANCH  23  24
ATOM     24  C   UNL     1       3.817  -4.311  -1.121  1.00  0.00     0.118 C 
BRANCH  24  25
ATOM     25  N   UNL     1       5.112  -4.960  -1.025  1.00  0.00    -0.352 N 
ATOM     26  C   UNL     1       5.882  -5.302   0.063  1.00  0.00     0.251 C 
ATOM     27  H   UNL     1       5.511  -5.198  -1.893  1.00  0.00     0.163 HD
ATOM     28  O   UNL     1       7.062  -5.586  -0.145  1.00  0.00    -0.269 OA
BRANCH  26  29
ATOM     29  C   UNL     1       5.359  -5.330   1.458  1.00  0.00     0.039 A 
ATOM     30  C   UNL     1       6.264  -5.112   2.507  1.00  0.00     0.014 A 
ATOM     31  C   UNL     1       4.042  -5.668   1.775  1.00  0.00     0.014 A 
ATOM     32  C   UNL     1       5.849  -5.210   3.843  1.00  0.00     0.010 A 
ATOM     33  C   UNL     1       3.605  -5.671   3.105  1.00  0.00     0.010 A 
ATOM     34  C   UNL     1       4.508  -5.472   4.160  1.00  0.00    -0.014 A 
BRANCH  34  35
ATOM     35  C   UNL     1       4.055  -5.601   5.577  1.00  0.00     0.031 A 
ATOM     36  C   UNL     1       3.466  -6.903   6.071  1.00  0.00     0.074 A 
ATOM     37  C   UNL     1       4.133  -4.547   6.416  1.00  0.00     0.049 A 
ATOM     38  N   UNL     1       2.950  -7.193   7.239  1.00  0.00    -0.248 NA
ATOM     39  C   UNL     1       3.424  -8.015   5.110  1.00  0.00     0.031 C 
ATOM     40  C   UNL     1       4.650  -3.224   6.062  1.00  0.00     0.029 A 
ATOM     41  N   UNL     1       3.773  -4.418   7.736  1.00  0.00    -0.354 N 
ATOM     42  C   UNL     1       2.497  -8.507   7.143  1.00  0.00     0.074 A 
ATOM     43  C   UNL     1       2.749  -8.934   5.784  1.00  0.00     0.031 C 
ATOM     44  C   UNL     1       4.598  -2.427   7.142  1.00  0.00     0.029 A 
ATOM     45  C   UNL     1       4.001  -3.162   8.253  1.00  0.00     0.049 A 
ATOM     46  H   UNL     1       3.388  -5.154   8.263  1.00  0.00     0.167 HD
ATOM     47  C   UNL     1       1.945  -9.294   8.102  1.00  0.00     0.034 A 
ATOM     48  C   UNL     1       3.750  -2.655   9.478  1.00  0.00     0.034 A 
ATOM     49  C   UNL     1       1.732  -8.870   9.465  1.00  0.00     0.049 A 
ATOM     50  C   UNL     1       3.138  -3.548  10.529  1.00  0.00     0.074 A 
ATOM     51  C   UNL     1       1.247  -9.607  10.532  1.00  0.00     0.029 A 
ATOM     52  N   UNL     1       1.988  -7.595   9.952  1.00  0.00    -0.354 N 
ATOM     53  N   UNL     1       2.764  -4.803  10.432  1.00  0.00    -0.248 NA
ATOM     54  C   UNL     1       2.927  -2.959  11.858  1.00  0.00     0.031 C 
ATOM     55  C   UNL     1       1.146  -8.762  11.643  1.00  0.00     0.029 A 
ATOM     56  C   UNL     1       1.643  -7.517  11.293  1.00  0.00     0.049 A 
ATOM     57  H   UNL     1       2.362  -6.853   9.422  1.00  0.00     0.167 HD
ATOM     58  C   UNL     1       2.305  -5.161  11.697  1.00  0.00     0.074 A 
ATOM     59  C   UNL     1       2.465  -3.996  12.542  1.00  0.00     0.031 C 
ATOM     60  C   UNL     1       1.799  -6.347  12.124  1.00  0.00     0.034 A 
BRANCH  47  61
ATOM     61  C   UNL     1       1.508 -10.685   7.701  1.00  0.00     0.023 A 
ATOM     62  C   UNL     1       2.423 -11.649   7.243  1.00  0.00     0.031 A 
ATOM     63  C   UNL     1       0.149 -11.048   7.758  1.00  0.00     0.131 A 
ATOM     64  C   UNL     1       1.963 -12.895   6.787  1.00  0.00     0.055 A 
ATOM     65  C   UNL     1      -0.292 -12.319   7.384  1.00  0.00     0.041 A 
ATOM     66  F   UNL     1      -0.776 -10.167   8.170  1.00  0.00    -0.206 F 
ATOM     67  C   UNL     1       0.615 -13.246   6.879  1.00  0.00     0.022 A 
BRANCH  64  68
ATOM     68  S   UNL     1       3.132 -13.991   5.938  1.00  0.00     0.124 S 
ATOM     69  O   UNL     1       3.564 -13.152   4.822  1.00  0.00    -0.237 OA
ATOM     70  O   UNL     1       4.129 -14.249   6.967  1.00  0.00    -0.237 OA
ATOM     71  O   UNL     1       2.310 -15.141   5.559  1.00  0.00    -0.744 OA
ENDBRANCH  64  68
ENDBRANCH  47  61
BRANCH  48  72
ATOM     72  C   UNL     1       4.062  -1.227   9.784  1.00  0.00     0.023 A 
ATOM     73  C   UNL     1       5.020  -0.886  10.753  1.00  0.00     0.031 A 
ATOM     74  C   UNL     1       3.371  -0.181   9.146  1.00  0.00     0.131 A 
ATOM     75  C   UNL     1       5.225   0.460  11.093  1.00  0.00     0.055 A 
ATOM     76  C   UNL     1       3.618   1.159   9.448  1.00  0.00     0.041 A 
ATOM     77  F   UNL     1       2.449  -0.449   8.207  1.00  0.00    -0.206 F 
ATOM     78  C   UNL     1       4.540   1.486  10.438  1.00  0.00     0.022 A 
BRANCH  75  79
ATOM     79  S   UNL     1       6.335   0.849  12.474  1.00  0.00     0.124 S 
ATOM     80  O   UNL     1       5.730   0.091  13.563  1.00  0.00    -0.237 OA
ATOM     81  O   UNL     1       7.615   0.352  11.980  1.00  0.00    -0.237 OA
ATOM     82  O   UNL     1       6.236   2.302  12.592  1.00  0.00    -0.744 OA
ENDBRANCH  75  79
ENDBRANCH  48  72
BRANCH  60  83
ATOM     83  C   UNL     1       1.429  -6.450  13.584  1.00  0.00     0.023 A 
ATOM     84  C   UNL     1       0.371  -5.705  14.135  1.00  0.00     0.031 A 
ATOM     85  C   UNL     1       2.158  -7.295  14.440  1.00  0.00     0.131 A 
ATOM     86  C   UNL     1       0.110  -5.774  15.512  1.00  0.00     0.055 A 
ATOM     87  C   UNL     1       1.853  -7.407  15.797  1.00  0.00     0.041 A 
ATOM     88  F   UNL     1       3.179  -8.029  13.969  1.00  0.00    -0.206 F 
ATOM     89  C   UNL     1       0.834  -6.633  16.344  1.00  0.00     0.022 A 
BRANCH  86  90
ATOM     90  S   UNL     1      -1.125  -4.652  16.223  1.00  0.00     0.124 S 
ATOM     91  O   UNL     1      -0.599  -3.344  15.846  1.00  0.00    -0.237 OA
ATOM     92  O   UNL     1      -2.349  -5.066  15.545  1.00  0.00    -0.237 OA
ATOM     93  O   UNL     1      -1.078  -4.950  17.653  1.00  0.00    -0.744 OA
ENDBRANCH  86  90
ENDBRANCH  60  83
ENDBRANCH  34  35
ENDBRANCH  26  29
ENDBRANCH  24  25
ENDBRANCH  23  24
ENDBRANCH   1  23
TORSDOF 17
