REMARK SMILES CC(C)CCc1cc2c(cc1Cl)C=C(C(=O)NCCCNC(=O)c1ccc(-c3c4nc(c(-c5cc(S(=O)(=O)[O-])ccc5F)c5ccc([nH]5)c(-c5cc(S(=O)(=O)[O-])ccc5F)c5nc(c(-c6cc(S(=O)(=O)[O-])ccc6F)c6ccc3[nH]6)C=C5)C=C4)cc1)[C@@H](C(F)(F)F)O2
REMARK SMILES IDX 19 1 18 2 17 3 15 4 16 5 14 7 6 8 7 9 11 10 8 11 10 12 12 13
REMARK SMILES IDX 9 14 92 15 13 16 87 17 5 18 4 19 2 20 1 21 3 22 88 23 89 24
REMARK SMILES IDX 90 25 91 26 20 27 21 28 22 29 23 31 24 32 25 33 86 34 26 35
REMARK SMILES IDX 85 36 27 37 28 38 29 39 79 40 30 41 84 42 78 43 80 44 31 45
REMARK SMILES IDX 83 46 77 47 76 48 32 50 64 51 44 52 63 53 45 54 48 55 62 56
REMARK SMILES IDX 81 57 46 58 47 59 61 61 82 62 49 63 33 64 34 65 42 66 35 67
REMARK SMILES IDX 41 68 43 69 40 70 36 71 37 72 38 73 39 74 65 75 66 76 74 77
REMARK SMILES IDX 67 78 73 79 75 80 72 81 68 82 69 83 70 84 71 85 50 86 51 87
REMARK SMILES IDX 59 88 52 89 58 90 60 91 57 92 53 93 54 94 55 95 56 96
REMARK H PARENT 17 6 21 30 80 49 48 60
REMARK Flexibility Score: inf
ROOT
ATOM      1  C   UNL     1       1.518   5.685  -8.775  1.00  0.00     0.042 C 
ENDROOT
BRANCH   1   2
ATOM      2  C   UNL     1       0.307   4.794  -8.996  1.00  0.00     0.118 C 
BRANCH   2   3
ATOM      3  N   UNL     1       0.691   3.417  -9.267  1.00  0.00    -0.352 N 
ATOM      4  C   UNL     1       0.681   2.235  -8.611  1.00  0.00     0.251 C 
ATOM      5  O   UNL     1       1.126   1.276  -9.252  1.00  0.00    -0.270 OA
ATOM      6  H   UNL     1       1.058   3.319 -10.175  1.00  0.00     0.163 HD
BRANCH   4   7
ATOM      7  C   UNL     1       0.175   2.022  -7.226  1.00  0.00     0.067 C 
ATOM      8  C   UNL     1      -1.242  -0.013  -2.824  1.00  0.00    -0.026 A 
ATOM      9  C   UNL     1      -0.953   1.293  -3.263  1.00  0.00     0.052 A 
ATOM     10  C   UNL     1      -1.085  -1.065  -3.746  1.00  0.00     0.045 A 
ATOM     11  C   UNL     1      -0.512   1.529  -4.563  1.00  0.00     0.128 A 
ATOM     12  C   UNL     1      -0.578  -0.826  -5.031  1.00  0.00     0.032 A 
ATOM     13  Cl  UNL     1      -1.535  -2.694  -3.393  1.00  0.00    -0.084 Cl
ATOM     14  C   UNL     1      -0.291   0.474  -5.443  1.00  0.00     0.019 A 
ATOM     15  O   UNL     1      -0.297   2.831  -4.925  1.00  0.00    -0.475 OA
ATOM     16  C   UNL     1       0.234   0.756  -6.772  1.00  0.00     0.025 C 
ATOM     17  C   UNL     1      -0.416   3.095  -6.354  1.00  0.00     0.314 C 
BRANCH   8  18
ATOM     18  C   UNL     1      -1.744  -0.175  -1.404  1.00  0.00     0.037 C 
BRANCH  18  19
ATOM     19  C   UNL     1      -1.030  -1.195  -0.503  1.00  0.00     0.008 C 
BRANCH  19  20
ATOM     20  C   UNL     1       0.509  -1.139  -0.517  1.00  0.00    -0.017 C 
ATOM     21  C   UNL     1       1.040   0.099   0.203  1.00  0.00     0.007 C 
ATOM     22  C   UNL     1       1.075  -2.408   0.125  1.00  0.00     0.007 C 
ENDBRANCH  19  20
ENDBRANCH  18  19
ENDBRANCH   8  18
BRANCH  17  23
ATOM     23  C   UNL     1      -1.888   3.393  -6.711  1.00  0.00     0.429 C 
ATOM     24  F   UNL     1      -2.276   4.582  -6.187  1.00  0.00    -0.167 F 
ATOM     25  F   UNL     1      -2.092   3.477  -8.048  1.00  0.00    -0.167 F 
ATOM     26  F   UNL     1      -2.743   2.451  -6.251  1.00  0.00    -0.167 F 
ENDBRANCH  17  23
ENDBRANCH   4   7
ENDBRANCH   2   3
ENDBRANCH   1   2
BRANCH   1  27
ATOM     27  C   UNL     1       2.245   6.011 -10.073  1.00  0.00     0.118 C 
BRANCH  27  28
ATOM     28  N   UNL     1       1.442   6.851 -10.959  1.00  0.00    -0.352 N 
ATOM     29  C   UNL     1       1.596   8.171 -11.314  1.00  0.00     0.251 C 
ATOM     30  H   UNL     1       0.667   6.401 -11.367  1.00  0.00     0.163 HD
ATOM     31  O   UNL     1       0.678   8.757 -11.882  1.00  0.00    -0.269 OA
BRANCH  29  32
ATOM     32  C   UNL     1       2.850   8.880 -10.988  1.00  0.00     0.039 A 
ATOM     33  C   UNL     1       4.077   8.236 -11.141  1.00  0.00     0.014 A 
ATOM     34  C   UNL     1       2.803  10.193 -10.512  1.00  0.00     0.014 A 
ATOM     35  C   UNL     1       5.224   8.815 -10.619  1.00  0.00     0.010 A 
ATOM     36  C   UNL     1       3.982  10.822 -10.096  1.00  0.00     0.010 A 
ATOM     37  C   UNL     1       5.194  10.116 -10.091  1.00  0.00    -0.014 A 
BRANCH  37  38
ATOM     38  C   UNL     1       6.450  10.702  -9.552  1.00  0.00     0.031 A 
ATOM     39  C   UNL     1       6.566  11.078  -8.099  1.00  0.00     0.074 A 
ATOM     40  C   UNL     1       7.516  10.817 -10.369  1.00  0.00     0.049 A 
ATOM     41  N   UNL     1       7.602  11.549  -7.454  1.00  0.00    -0.248 NA
ATOM     42  C   UNL     1       5.368  10.912  -7.260  1.00  0.00     0.031 C 
ATOM     43  C   UNL     1       7.513  10.474 -11.792  1.00  0.00     0.029 A 
ATOM     44  N   UNL     1       8.808  11.209 -10.126  1.00  0.00    -0.354 N 
ATOM     45  C   UNL     1       7.178  11.757  -6.146  1.00  0.00     0.074 A 
ATOM     46  C   UNL     1       5.781  11.392  -6.095  1.00  0.00     0.031 C 
ATOM     47  C   UNL     1       8.756  10.591 -12.275  1.00  0.00     0.029 A 
ATOM     48  C   UNL     1       9.630  11.103 -11.224  1.00  0.00     0.049 A 
ATOM     49  H   UNL     1       9.118  11.534  -9.249  1.00  0.00     0.167 HD
ATOM     50  C   UNL     1       7.896  12.198  -5.086  1.00  0.00     0.034 A 
ATOM     51  C   UNL     1      10.938  11.394 -11.379  1.00  0.00     0.034 A 
ATOM     52  C   UNL     1       9.296  12.533  -5.152  1.00  0.00     0.049 A 
ATOM     53  C   UNL     1      11.709  11.897 -10.188  1.00  0.00     0.074 A 
ATOM     54  C   UNL     1      10.118  12.974  -4.130  1.00  0.00     0.029 A 
ATOM     55  N   UNL     1      10.085  12.454  -6.291  1.00  0.00    -0.354 N 
ATOM     56  N   UNL     1      11.296  12.066  -8.954  1.00  0.00    -0.248 NA
ATOM     57  C   UNL     1      13.117  12.254 -10.404  1.00  0.00     0.031 C 
ATOM     58  C   UNL     1      11.385  13.216  -4.661  1.00  0.00     0.029 A 
ATOM     59  C   UNL     1      11.378  12.860  -6.001  1.00  0.00     0.049 A 
ATOM     60  H   UNL     1       9.773  12.155  -7.175  1.00  0.00     0.167 HD
ATOM     61  C   UNL     1      12.394  12.539  -8.244  1.00  0.00     0.074 A 
ATOM     62  C   UNL     1      13.498  12.597  -9.180  1.00  0.00     0.031 C 
ATOM     63  C   UNL     1      12.475  12.902  -6.939  1.00  0.00     0.034 A 
BRANCH  50  64
ATOM     64  C   UNL     1       7.204  12.346  -3.753  1.00  0.00     0.023 A 
ATOM     65  C   UNL     1       7.090  13.616  -3.155  1.00  0.00     0.031 A 
ATOM     66  C   UNL     1       6.769  11.227  -3.021  1.00  0.00     0.131 A 
ATOM     67  C   UNL     1       6.585  13.732  -1.854  1.00  0.00     0.055 A 
ATOM     68  C   UNL     1       6.230  11.352  -1.739  1.00  0.00     0.041 A 
ATOM     69  F   UNL     1       6.854   9.994  -3.546  1.00  0.00    -0.206 F 
ATOM     70  C   UNL     1       6.149  12.607  -1.145  1.00  0.00     0.022 A 
BRANCH  67  71
ATOM     71  S   UNL     1       6.532  15.334  -1.005  1.00  0.00     0.124 S 
ATOM     72  O   UNL     1       5.104  15.478  -0.729  1.00  0.00    -0.237 OA
ATOM     73  O   UNL     1       7.372  15.088   0.164  1.00  0.00    -0.237 OA
ATOM     74  O   UNL     1       7.072  16.269  -1.986  1.00  0.00    -0.744 OA
ENDBRANCH  67  71
ENDBRANCH  50  64
BRANCH  51  75
ATOM     75  C   UNL     1      11.579  11.165 -12.708  1.00  0.00     0.023 A 
ATOM     76  C   UNL     1      11.108  11.826 -13.858  1.00  0.00     0.031 A 
ATOM     77  C   UNL     1      12.573  10.187 -12.870  1.00  0.00     0.131 A 
ATOM     78  C   UNL     1      11.564  11.436 -15.123  1.00  0.00     0.055 A 
ATOM     79  C   UNL     1      13.085   9.859 -14.127  1.00  0.00     0.041 A 
ATOM     80  F   UNL     1      13.047   9.521 -11.806  1.00  0.00    -0.206 F 
ATOM     81  C   UNL     1      12.563  10.468 -15.264  1.00  0.00     0.022 A 
BRANCH  78  82
ATOM     82  S   UNL     1      10.758  12.051 -16.629  1.00  0.00     0.124 S 
ATOM     83  O   UNL     1      11.854  12.745 -17.298  1.00  0.00    -0.237 OA
ATOM     84  O   UNL     1      10.317  10.810 -17.260  1.00  0.00    -0.237 OA
ATOM     85  O   UNL     1       9.686  12.902 -16.122  1.00  0.00    -0.744 OA
ENDBRANCH  78  82
ENDBRANCH  51  75
BRANCH  63  86
ATOM     86  C   UNL     1      13.797  13.404  -6.414  1.00  0.00     0.023 A 
ATOM     87  C   UNL     1      14.466  12.693  -5.399  1.00  0.00     0.031 A 
ATOM     88  C   UNL     1      14.309  14.654  -6.801  1.00  0.00     0.131 A 
ATOM     89  C   UNL     1      15.585  13.258  -4.776  1.00  0.00     0.055 A 
ATOM     90  C   UNL     1      15.453  15.191  -6.209  1.00  0.00     0.041 A 
ATOM     91  F   UNL     1      13.700  15.373  -7.757  1.00  0.00    -0.206 F 
ATOM     92  C   UNL     1      16.086  14.500  -5.181  1.00  0.00     0.022 A 
BRANCH  89  93
ATOM     93  S   UNL     1      16.373  12.449  -3.357  1.00  0.00     0.124 S 
ATOM     94  O   UNL     1      17.725  12.212  -3.858  1.00  0.00    -0.237 OA
ATOM     95  O   UNL     1      16.263  13.470  -2.319  1.00  0.00    -0.237 OA
ATOM     96  O   UNL     1      15.570  11.249  -3.144  1.00  0.00    -0.744 OA
ENDBRANCH  89  93
ENDBRANCH  63  86
ENDBRANCH  37  38
ENDBRANCH  29  32
ENDBRANCH  27  28
ENDBRANCH   1  27
TORSDOF 17
