REMARK SMILES C[C@@H](Oc1ccc(I)cc1)C(=O)NCc1ccc(C(=O)NCCCNC(=O)c2ccc(-c3c4nc(c(-c5cc(S(=O)(=O)[O-])ccc5F)c5ccc([nH]5)c(-c5cc(S(=O)(=O)[O-])ccc5F)c5nc(c(-c6cc(S(=O)(=O)[O-])ccc6F)c6ccc3[nH]6)C=C5)C=C4)cc2)cc1
REMARK SMILES IDX 22 1 21 2 19 3 20 4 18 6 15 7 16 8 92 9 17 10 91 11 14 12
REMARK SMILES IDX 13 13 11 14 12 15 2 17 1 18 3 19 4 20 5 21 10 22 6 23 9 24
REMARK SMILES IDX 7 25 8 26 23 27 24 28 25 29 26 30 27 32 28 33 29 34 90 35
REMARK SMILES IDX 30 36 89 37 31 38 32 39 33 40 83 41 34 42 88 43 82 44 84 45
REMARK SMILES IDX 35 46 87 47 81 48 80 49 36 51 68 52 48 53 67 54 49 55 52 56
REMARK SMILES IDX 66 57 85 58 50 59 51 60 65 62 86 63 53 64 37 65 38 66 46 67
REMARK SMILES IDX 39 68 45 69 47 70 44 71 40 72 41 73 42 74 43 75 69 76 70 77
REMARK SMILES IDX 78 78 71 79 77 80 79 81 76 82 72 83 73 84 74 85 75 86 54 87
REMARK SMILES IDX 55 88 63 89 56 90 62 91 64 92 61 93 57 94 58 95 59 96 60 97
REMARK H PARENT 21 5 13 16 25 31 84 50 52 61
REMARK Flexibility Score: inf
ROOT
ATOM      1  C   UNL     1      -2.375  -0.609   7.501  1.00  0.00     0.118 C 
ENDROOT
BRANCH   1   2
ATOM      2  N   UNL     1      -1.941   0.709   7.069  1.00  0.00    -0.352 N 
ATOM      3  C   UNL     1      -1.557   1.185   5.841  1.00  0.00     0.251 C 
ATOM      4  O   UNL     1      -1.332   2.390   5.729  1.00  0.00    -0.269 OA
ATOM      5  H   UNL     1      -1.918   1.381   7.788  1.00  0.00     0.163 HD
BRANCH   3   6
ATOM      6  C   UNL     1      -1.458   0.319   4.638  1.00  0.00     0.039 A 
ATOM      7  C   UNL     1      -1.339  -1.204   2.257  1.00  0.00    -0.029 A 
ATOM      8  C   UNL     1      -1.717   0.143   2.221  1.00  0.00     0.006 A 
ATOM      9  C   UNL     1      -0.985  -1.764   3.495  1.00  0.00     0.006 A 
ATOM     10  C   UNL     1      -1.773   0.896   3.399  1.00  0.00     0.014 A 
ATOM     11  C   UNL     1      -1.021  -1.005   4.668  1.00  0.00     0.014 A 
BRANCH   7  12
ATOM     12  C   UNL     1      -1.276  -2.095   1.042  1.00  0.00     0.151 C 
BRANCH  12  13
ATOM     13  N   UNL     1      -1.646  -1.463  -0.209  1.00  0.00    -0.349 N 
ATOM     14  C   UNL     1      -0.864  -1.027  -1.239  1.00  0.00     0.261 C 
ATOM     15  O   UNL     1      -1.437  -0.606  -2.250  1.00  0.00    -0.271 OA
ATOM     16  H   UNL     1      -2.613  -1.328  -0.335  1.00  0.00     0.163 HD
BRANCH  14  17
ATOM     17  C   UNL     1       0.671  -0.960  -1.119  1.00  0.00     0.258 C 
ATOM     18  C   UNL     1       1.021   0.234  -0.234  1.00  0.00     0.064 C 
BRANCH  17  19
ATOM     19  O   UNL     1       1.161  -2.212  -0.637  1.00  0.00    -0.481 OA
BRANCH  19  20
ATOM     20  C   UNL     1       2.498  -2.429  -0.795  1.00  0.00     0.120 A 
ATOM     21  C   UNL     1       3.432  -1.830   0.048  1.00  0.00     0.047 A 
ATOM     22  C   UNL     1       2.897  -3.419  -1.691  1.00  0.00     0.047 A 
ATOM     23  C   UNL     1       4.781  -2.176  -0.044  1.00  0.00     0.018 A 
ATOM     24  C   UNL     1       4.245  -3.779  -1.777  1.00  0.00     0.018 A 
ATOM     25  C   UNL     1       5.183  -3.151  -0.956  1.00  0.00     0.013 A 
ATOM     26  I   UNL     1       7.184  -3.700  -1.058  1.00  0.00    -0.044 I 
ENDBRANCH  19  20
ENDBRANCH  17  19
ENDBRANCH  14  17
ENDBRANCH  12  13
ENDBRANCH   7  12
ENDBRANCH   3   6
ENDBRANCH   1   2
BRANCH   1  27
ATOM     27  C   UNL     1      -1.278  -1.327   8.285  1.00  0.00     0.042 C 
BRANCH  27  28
ATOM     28  C   UNL     1      -1.080  -0.779   9.696  1.00  0.00     0.118 C 
BRANCH  28  29
ATOM     29  N   UNL     1      -2.208  -1.090  10.561  1.00  0.00    -0.352 N 
ATOM     30  C   UNL     1      -2.245  -1.783  11.746  1.00  0.00     0.251 C 
ATOM     31  H   UNL     1      -3.078  -0.753  10.249  1.00  0.00     0.163 HD
ATOM     32  O   UNL     1      -3.331  -2.148  12.187  1.00  0.00    -0.269 OA
BRANCH  30  33
ATOM     33  C   UNL     1      -0.997  -2.099  12.479  1.00  0.00     0.039 A 
ATOM     34  C   UNL     1      -0.887  -3.339  13.116  1.00  0.00     0.014 A 
ATOM     35  C   UNL     1       0.040  -1.168  12.585  1.00  0.00     0.014 A 
ATOM     36  C   UNL     1       0.278  -3.662  13.816  1.00  0.00     0.010 A 
ATOM     37  C   UNL     1       1.229  -1.519  13.221  1.00  0.00     0.010 A 
ATOM     38  C   UNL     1       1.357  -2.765  13.852  1.00  0.00    -0.014 A 
BRANCH  38  39
ATOM     39  C   UNL     1       2.621  -3.109  14.555  1.00  0.00     0.031 A 
ATOM     40  C   UNL     1       3.058  -2.318  15.758  1.00  0.00     0.074 A 
ATOM     41  C   UNL     1       3.403  -4.093  14.072  1.00  0.00     0.049 A 
ATOM     42  N   UNL     1       4.150  -2.426  16.470  1.00  0.00    -0.248 NA
ATOM     43  C   UNL     1       2.158  -1.242  16.195  1.00  0.00     0.031 C 
ATOM     44  C   UNL     1       3.102  -4.908  12.893  1.00  0.00     0.029 A 
ATOM     45  N   UNL     1       4.610  -4.576  14.509  1.00  0.00    -0.354 N 
ATOM     46  C   UNL     1       4.079  -1.420  17.429  1.00  0.00     0.074 A 
ATOM     47  C   UNL     1       2.866  -0.676  17.160  1.00  0.00     0.031 C 
ATOM     48  C   UNL     1       4.080  -5.811  12.723  1.00  0.00     0.029 A 
ATOM     49  C   UNL     1       5.098  -5.612  13.749  1.00  0.00     0.049 A 
ATOM     50  H   UNL     1       5.082  -4.215  15.294  1.00  0.00     0.167 HD
ATOM     51  C   UNL     1       4.934  -1.155  18.450  1.00  0.00     0.034 A 
ATOM     52  C   UNL     1       6.240  -6.318  13.863  1.00  0.00     0.034 A 
ATOM     53  C   UNL     1       6.135  -1.917  18.704  1.00  0.00     0.049 A 
ATOM     54  C   UNL     1       7.192  -5.987  14.981  1.00  0.00     0.074 A 
ATOM     55  C   UNL     1       7.037  -1.786  19.746  1.00  0.00     0.029 A 
ATOM     56  N   UNL     1       6.611  -2.945  17.898  1.00  0.00    -0.354 N 
ATOM     57  N   UNL     1       7.085  -5.071  15.915  1.00  0.00    -0.248 NA
ATOM     58  C   UNL     1       8.417  -6.792  15.061  1.00  0.00     0.031 C 
ATOM     59  C   UNL     1       8.092  -2.681  19.530  1.00  0.00     0.029 A 
ATOM     60  C   UNL     1       7.813  -3.427  18.396  1.00  0.00     0.049 A 
ATOM     61  H   UNL     1       6.161  -3.281  17.090  1.00  0.00     0.167 HD
ATOM     62  C   UNL     1       8.216  -5.212  16.715  1.00  0.00     0.074 A 
ATOM     63  C   UNL     1       8.984  -6.307  16.156  1.00  0.00     0.031 C 
ATOM     64  C   UNL     1       8.582  -4.506  17.816  1.00  0.00     0.034 A 
BRANCH  51  65
ATOM     65  C   UNL     1       4.611   0.030  19.333  1.00  0.00     0.023 A 
ATOM     66  C   UNL     1       3.414   0.101  20.069  1.00  0.00     0.031 A 
ATOM     67  C   UNL     1       5.481   1.133  19.395  1.00  0.00     0.131 A 
ATOM     68  C   UNL     1       3.072   1.283  20.743  1.00  0.00     0.055 A 
ATOM     69  C   UNL     1       5.179   2.271  20.147  1.00  0.00     0.041 A 
ATOM     70  F   UNL     1       6.631   1.137  18.702  1.00  0.00    -0.206 F 
ATOM     71  C   UNL     1       3.958   2.360  20.809  1.00  0.00     0.022 A 
BRANCH  68  72
ATOM     72  S   UNL     1       1.378   1.461  21.368  1.00  0.00     0.124 S 
ATOM     73  O   UNL     1       0.591   1.228  20.159  1.00  0.00    -0.237 OA
ATOM     74  O   UNL     1       1.308   0.420  22.387  1.00  0.00    -0.237 OA
ATOM     75  O   UNL     1       1.340   2.833  21.871  1.00  0.00    -0.744 OA
ENDBRANCH  68  72
ENDBRANCH  51  65
BRANCH  52  76
ATOM     76  C   UNL     1       6.540  -7.417  12.903  1.00  0.00     0.023 A 
ATOM     77  C   UNL     1       6.578  -8.752  13.332  1.00  0.00     0.031 A 
ATOM     78  C   UNL     1       6.809  -7.149  11.549  1.00  0.00     0.131 A 
ATOM     79  C   UNL     1       6.910  -9.770  12.425  1.00  0.00     0.055 A 
ATOM     80  C   UNL     1       7.095  -8.169  10.640  1.00  0.00     0.041 A 
ATOM     81  F   UNL     1       6.777  -5.889  11.086  1.00  0.00    -0.206 F 
ATOM     82  C   UNL     1       7.156  -9.489  11.079  1.00  0.00     0.022 A 
BRANCH  79  83
ATOM     83  S   UNL     1       7.068 -11.467  13.044  1.00  0.00     0.124 S 
ATOM     84  O   UNL     1       8.141 -11.328  14.022  1.00  0.00    -0.237 OA
ATOM     85  O   UNL     1       5.736 -11.719  13.582  1.00  0.00    -0.237 OA
ATOM     86  O   UNL     1       7.408 -12.234  11.847  1.00  0.00    -0.744 OA
ENDBRANCH  79  83
ENDBRANCH  52  76
BRANCH  64  87
ATOM     87  C   UNL     1       9.855  -4.932  18.507  1.00  0.00     0.023 A 
ATOM     88  C   UNL     1      11.113  -4.792  17.895  1.00  0.00     0.031 A 
ATOM     89  C   UNL     1       9.804  -5.508  19.789  1.00  0.00     0.131 A 
ATOM     90  C   UNL     1      12.261  -5.277  18.539  1.00  0.00     0.055 A 
ATOM     91  C   UNL     1      10.957  -5.932  20.451  1.00  0.00     0.041 A 
ATOM     92  F   UNL     1       8.630  -5.671  20.420  1.00  0.00    -0.206 F 
ATOM     93  C   UNL     1      12.194  -5.830  19.820  1.00  0.00     0.022 A 
BRANCH  90  94
ATOM     94  S   UNL     1      13.835  -5.268  17.637  1.00  0.00     0.124 S 
ATOM     95  O   UNL     1      13.517  -6.073  16.462  1.00  0.00    -0.237 OA
ATOM     96  O   UNL     1      14.049  -3.845  17.396  1.00  0.00    -0.237 OA
ATOM     97  O   UNL     1      14.772  -5.885  18.575  1.00  0.00    -0.744 OA
ENDBRANCH  90  94
ENDBRANCH  64  87
ENDBRANCH  38  39
ENDBRANCH  30  33
ENDBRANCH  28  29
ENDBRANCH  27  28
ENDBRANCH   1  27
TORSDOF 18
