REMARK SMILES COc1cccc([C@H](CC(=O)NCCCNC(=O)c2ccc(-c3c4nc(c(-c5cc(S(=O)(=O)[O-])ccc5F)c5ccc([nH]5)c(-c5cc(S(=O)(=O)[O-])ccc5F)c5nc(c(-c6cc(S(=O)(=O)[O-])ccc6F)c6ccc3[nH]6)C=C5)C=C4)cc2)NS(=O)(=O)c2ccc3c(c2)C[C@@H](C)N3C(C)=O)c1
REMARK SMILES IDX 13 1 12 2 10 3 11 4 9 6 8 7 7 8 3 9 4 10 99 11 5 12 6 13
REMARK SMILES IDX 2 14 1 15 82 16 83 18 84 19 85 20 86 21 87 22 91 23 88 24
REMARK SMILES IDX 90 25 89 26 92 27 95 28 93 29 94 30 96 31 97 32 98 33 14 34
REMARK SMILES IDX 15 35 16 36 17 37 18 39 19 40 20 41 81 42 21 43 80 44 22 45
REMARK SMILES IDX 23 46 24 47 74 48 25 49 79 50 73 51 75 52 26 53 78 54 72 55
REMARK SMILES IDX 71 56 27 58 59 59 39 60 58 61 40 62 43 63 57 64 76 65 41 66
REMARK SMILES IDX 42 67 56 69 77 70 44 71 28 72 29 73 37 74 30 75 36 76 38 77
REMARK SMILES IDX 35 78 31 79 32 80 33 81 34 82 60 83 61 84 69 85 62 86 68 87
REMARK SMILES IDX 70 88 67 89 63 90 64 91 65 92 66 93 45 94 46 95 54 96 47 97
REMARK SMILES IDX 53 98 55 99 52 100 48 101 49 102 50 103 51 104
REMARK H PARENT 12 5 82 17 16 38 75 57 43 68
REMARK Flexibility Score: inf
ROOT
ATOM      1  C   UNL     1       2.011   4.201  -5.911  1.00  0.00     0.117 C 
ENDROOT
BRANCH   1   2
ATOM      2  N   UNL     1       1.829   2.794  -5.587  1.00  0.00    -0.356 N 
ATOM      3  C   UNL     1       2.146   2.087  -4.469  1.00  0.00     0.221 C 
ATOM      4  O   UNL     1       1.855   0.890  -4.422  1.00  0.00    -0.275 OA
ATOM      5  H   UNL     1       1.404   2.263  -6.299  1.00  0.00     0.163 HD
BRANCH   3   6
ATOM      6  C   UNL     1       2.772   2.772  -3.279  1.00  0.00     0.124 C 
BRANCH   6   7
ATOM      7  C   UNL     1       4.326   2.830  -3.152  1.00  0.00     0.109 C 
BRANCH   7   8
ATOM      8  C   UNL     1       5.124   2.309  -4.338  1.00  0.00    -0.026 A 
ATOM      9  C   UNL     1       6.780   2.604  -6.125  1.00  0.00     0.119 A 
ATOM     10  C   UNL     1       6.589   1.297  -6.545  1.00  0.00     0.046 A 
ATOM     11  C   UNL     1       6.012   3.105  -5.073  1.00  0.00     0.051 A 
ATOM     12  C   UNL     1       5.698   0.478  -5.857  1.00  0.00     0.004 A 
ATOM     13  C   UNL     1       5.005   0.967  -4.743  1.00  0.00     0.005 A 
BRANCH   9  14
ATOM     14  O   UNL     1       7.673   3.359  -6.834  1.00  0.00    -0.497 OA
ATOM     15  C   UNL     1       8.456   4.244  -6.027  1.00  0.00     0.278 C 
ENDBRANCH   9  14
ENDBRANCH   7   8
BRANCH   7  16
ATOM     16  N   UNL     1       4.623   4.189  -2.639  1.00  0.00    -0.203 NA
ATOM     17  H   UNL     1       3.995   4.285  -1.841  1.00  0.00     0.142 HD
BRANCH  16  18
ATOM     18  S   UNL     1       6.035   4.897  -2.113  1.00  0.00     0.241 S 
ATOM     19  O   UNL     1       7.024   5.024  -3.153  1.00  0.00    -0.207 OA
ATOM     20  O   UNL     1       5.526   6.087  -1.454  1.00  0.00    -0.207 OA
BRANCH  18  21
ATOM     21  C   UNL     1       6.751   3.903  -0.847  1.00  0.00     0.082 A 
ATOM     22  C   UNL     1       6.891   2.506  -0.943  1.00  0.00     0.024 A 
ATOM     23  C   UNL     1       7.202   4.599   0.277  1.00  0.00     0.027 A 
ATOM     24  C   UNL     1       7.365   1.768   0.151  1.00  0.00     0.028 A 
ATOM     25  C   UNL     1       7.650   3.863   1.341  1.00  0.00    -0.021 A 
ATOM     26  C   UNL     1       7.678   2.464   1.302  1.00  0.00     0.047 A 
ATOM     27  C   UNL     1       8.192   4.376   2.640  1.00  0.00     0.063 C 
ATOM     28  N   UNL     1       8.100   2.005   2.563  1.00  0.00    -0.309 N 
ATOM     29  C   UNL     1       7.915   3.143   3.505  1.00  0.00     0.092 C 
ATOM     30  C   UNL     1       6.453   3.184   4.008  1.00  0.00     0.032 C 
BRANCH  28  31
ATOM     31  C   UNL     1       8.888   0.885   2.712  1.00  0.00     0.224 C 
ATOM     32  C   UNL     1      10.177   1.142   3.458  1.00  0.00     0.115 C 
ATOM     33  O   UNL     1       8.685  -0.192   2.156  1.00  0.00    -0.275 OA
ENDBRANCH  28  31
ENDBRANCH  18  21
ENDBRANCH  16  18
ENDBRANCH   7  16
ENDBRANCH   6   7
ENDBRANCH   3   6
ENDBRANCH   1   2
BRANCH   1  34
ATOM     34  C   UNL     1       3.300   4.494  -6.669  1.00  0.00     0.042 C 
BRANCH  34  35
ATOM     35  C   UNL     1       3.530   3.652  -7.924  1.00  0.00     0.118 C 
BRANCH  35  36
ATOM     36  N   UNL     1       2.899   4.263  -9.078  1.00  0.00    -0.352 N 
ATOM     37  C   UNL     1       3.470   4.755 -10.225  1.00  0.00     0.251 C 
ATOM     38  H   UNL     1       1.918   4.334  -9.033  1.00  0.00     0.163 HD
ATOM     39  O   UNL     1       2.805   5.526 -10.916  1.00  0.00    -0.269 OA
BRANCH  37  40
ATOM     40  C   UNL     1       4.848   4.384 -10.650  1.00  0.00     0.039 A 
ATOM     41  C   UNL     1       5.604   5.345 -11.332  1.00  0.00     0.014 A 
ATOM     42  C   UNL     1       5.362   3.090 -10.505  1.00  0.00     0.014 A 
ATOM     43  C   UNL     1       6.857   5.016 -11.860  1.00  0.00     0.010 A 
ATOM     44  C   UNL     1       6.639   2.775 -10.994  1.00  0.00     0.010 A 
ATOM     45  C   UNL     1       7.392   3.728 -11.697  1.00  0.00    -0.014 A 
BRANCH  45  46
ATOM     46  C   UNL     1       8.716   3.391 -12.300  1.00  0.00     0.031 A 
ATOM     47  C   UNL     1       8.812   2.443 -13.469  1.00  0.00     0.074 A 
ATOM     48  C   UNL     1       9.837   3.967 -11.821  1.00  0.00     0.049 A 
ATOM     49  N   UNL     1       9.866   2.082 -14.160  1.00  0.00    -0.248 NA
ATOM     50  C   UNL     1       7.562   1.808 -13.913  1.00  0.00     0.031 C 
ATOM     51  C   UNL     1       9.891   4.879 -10.677  1.00  0.00     0.029 A 
ATOM     52  N   UNL     1      11.143   3.882 -12.239  1.00  0.00    -0.354 N 
ATOM     53  C   UNL     1       9.408   1.191 -15.125  1.00  0.00     0.074 A 
ATOM     54  C   UNL     1       7.989   1.020 -14.890  1.00  0.00     0.031 C 
ATOM     55  C   UNL     1      11.158   5.290 -10.503  1.00  0.00     0.029 A 
ATOM     56  C   UNL     1      12.013   4.649 -11.499  1.00  0.00     0.049 A 
ATOM     57  H   UNL     1      11.429   3.324 -12.998  1.00  0.00     0.167 HD
ATOM     58  C   UNL     1      10.096   0.589 -16.129  1.00  0.00     0.034 A 
ATOM     59  C   UNL     1      13.347   4.820 -11.607  1.00  0.00     0.034 A 
ATOM     60  C   UNL     1      11.512   0.757 -16.360  1.00  0.00     0.049 A 
ATOM     61  C   UNL     1      14.093   4.122 -12.718  1.00  0.00     0.074 A 
ATOM     62  C   UNL     1      12.295   0.201 -17.359  1.00  0.00     0.029 A 
ATOM     63  N   UNL     1      12.360   1.534 -15.584  1.00  0.00    -0.354 N 
ATOM     64  N   UNL     1      13.631   3.314 -13.645  1.00  0.00    -0.248 NA
ATOM     65  C   UNL     1      15.537   4.375 -12.808  1.00  0.00     0.031 C 
ATOM     66  C   UNL     1      13.622   0.598 -17.154  1.00  0.00     0.029 A 
ATOM     67  C   UNL     1      13.658   1.456 -16.069  1.00  0.00     0.049 A 
ATOM     68  H   UNL     1      12.081   2.064 -14.803  1.00  0.00     0.167 HD
ATOM     69  C   UNL     1      14.726   2.987 -14.441  1.00  0.00     0.074 A 
ATOM     70  C   UNL     1      15.862   3.705 -13.903  1.00  0.00     0.031 C 
ATOM     71  C   UNL     1      14.789   2.166 -15.520  1.00  0.00     0.034 A 
BRANCH  58  72
ATOM     72  C   UNL     1       9.322  -0.323 -17.052  1.00  0.00     0.023 A 
ATOM     73  C   UNL     1       8.322   0.175 -17.906  1.00  0.00     0.031 A 
ATOM     74  C   UNL     1       9.590  -1.702 -17.085  1.00  0.00     0.131 A 
ATOM     75  C   UNL     1       7.588  -0.706 -18.714  1.00  0.00     0.055 A 
ATOM     76  C   UNL     1       8.904  -2.565 -17.944  1.00  0.00     0.041 A 
ATOM     77  F   UNL     1      10.523  -2.237 -16.282  1.00  0.00    -0.206 F 
ATOM     78  C   UNL     1       7.889  -2.070 -18.757  1.00  0.00     0.022 A 
BRANCH  75  79
ATOM     79  S   UNL     1       6.162  -0.062 -19.631  1.00  0.00     0.124 S 
ATOM     80  O   UNL     1       5.302   0.407 -18.548  1.00  0.00    -0.237 OA
ATOM     81  O   UNL     1       6.763   0.973 -20.465  1.00  0.00    -0.237 OA
ATOM     82  O   UNL     1       5.662  -1.231 -20.353  1.00  0.00    -0.744 OA
ENDBRANCH  75  79
ENDBRANCH  58  72
BRANCH  59  83
ATOM     83  C   UNL     1      14.084   5.673 -10.629  1.00  0.00     0.023 A 
ATOM     84  C   UNL     1      14.760   6.833 -11.039  1.00  0.00     0.031 A 
ATOM     85  C   UNL     1      14.184   5.294  -9.279  1.00  0.00     0.131 A 
ATOM     86  C   UNL     1      15.556   7.539 -10.124  1.00  0.00     0.055 A 
ATOM     87  C   UNL     1      14.929   6.033  -8.359  1.00  0.00     0.041 A 
ATOM     88  F   UNL     1      13.556   4.194  -8.833  1.00  0.00    -0.206 F 
ATOM     89  C   UNL     1      15.636   7.153  -8.784  1.00  0.00     0.022 A 
BRANCH  86  90
ATOM     90  S   UNL     1      16.581   8.906 -10.736  1.00  0.00     0.124 S 
ATOM     91  O   UNL     1      17.333   8.260 -11.805  1.00  0.00    -0.237 OA
ATOM     92  O   UNL     1      15.573   9.875 -11.154  1.00  0.00    -0.237 OA
ATOM     93  O   UNL     1      17.366   9.292  -9.565  1.00  0.00    -0.744 OA
ENDBRANCH  86  90
ENDBRANCH  59  83
BRANCH  71  94
ATOM     94  C   UNL     1      16.129   2.037 -16.205  1.00  0.00     0.023 A 
ATOM     95  C   UNL     1      17.230   1.436 -15.568  1.00  0.00     0.031 A 
ATOM     96  C   UNL     1      16.317   2.556 -17.498  1.00  0.00     0.131 A 
ATOM     97  C   UNL     1      18.484   1.428 -16.197  1.00  0.00     0.055 A 
ATOM     98  C   UNL     1      17.553   2.493 -18.143  1.00  0.00     0.041 A 
ATOM     99  F   UNL     1      15.302   3.140 -18.154  1.00  0.00    -0.206 F 
ATOM    100  C   UNL     1      18.650   1.941 -17.486  1.00  0.00     0.022 A 
BRANCH  97 101
ATOM    101  S   UNL     1      19.923   0.831 -15.266  1.00  0.00     0.124 S 
ATOM    102  O   UNL     1      19.906   1.696 -14.090  1.00  0.00    -0.237 OA
ATOM    103  O   UNL     1      19.583  -0.569 -15.033  1.00  0.00    -0.237 OA
ATOM    104  O   UNL     1      21.040   1.052 -16.182  1.00  0.00    -0.744 OA
ENDBRANCH  97 101
ENDBRANCH  71  94
ENDBRANCH  45  46
ENDBRANCH  37  40
ENDBRANCH  35  36
ENDBRANCH  34  35
ENDBRANCH   1  34
TORSDOF 20
