REMARK SMILES CC(C)[C@@](C)(CC(=O)N[C@H]1CCCC1(C)C)C(=O)NCCCNC(=O)c1ccc(-c2c3nc(c(-c4cc(S(=O)(=O)[O-])ccc4F)c4ccc([nH]4)c(-c4cc(S(=O)(=O)[O-])ccc4F)c4nc(c(-c5cc(S(=O)(=O)[O-])ccc5F)c5ccc2[nH]5)C=C4)C=C3)cc1
REMARK SMILES IDX 21 1 20 2 19 3 17 4 18 5 4 7 5 8 2 9 1 10 3 11 6 12 7 13
REMARK SMILES IDX 8 14 9 15 10 17 11 18 14 19 12 20 13 21 15 22 16 23 22 24
REMARK SMILES IDX 23 25 24 26 25 28 26 29 27 30 88 31 28 32 87 33 29 34 30 35
REMARK SMILES IDX 31 36 81 37 32 38 86 39 80 40 82 41 33 42 85 43 79 44 78 45
REMARK SMILES IDX 34 47 66 48 46 49 65 50 47 51 50 52 64 53 83 54 48 55 49 56
REMARK SMILES IDX 63 58 84 59 51 60 35 61 36 62 44 63 37 64 43 65 45 66 42 67
REMARK SMILES IDX 38 68 39 69 40 70 41 71 67 72 68 73 76 74 69 75 75 76 77 77
REMARK SMILES IDX 74 78 70 79 71 80 72 81 73 82 52 83 53 84 61 85 54 86 60 87
REMARK SMILES IDX 62 88 59 89 55 90 56 91 57 92 58 93
REMARK H PARENT 19 6 9 16 23 27 82 46 50 57
REMARK Flexibility Score: inf
ROOT
ATOM      1  C   UNL     1      -5.058   0.124   2.428  1.00  0.00     0.042 C 
ENDROOT
BRANCH   1   2
ATOM      2  C   UNL     1      -4.290  -0.176   1.150  1.00  0.00     0.117 C 
BRANCH   2   3
ATOM      3  N   UNL     1      -3.323   0.861   0.847  1.00  0.00    -0.356 N 
ATOM      4  C   UNL     1      -1.978   0.917   0.748  1.00  0.00     0.226 C 
ATOM      5  O   UNL     1      -1.546   2.038   0.459  1.00  0.00    -0.274 OA
ATOM      6  H   UNL     1      -3.749   1.731   0.672  1.00  0.00     0.163 HD
BRANCH   4   7
ATOM      7  C   UNL     1      -1.043  -0.303   0.884  1.00  0.00     0.057 C 
ATOM      8  C   UNL     1      -1.466  -1.361  -0.176  1.00  0.00     0.022 C 
BRANCH   7   9
ATOM      9  C   UNL     1       0.455   0.117   0.545  1.00  0.00    -0.002 C 
ATOM     10  C   UNL     1       0.746   0.390  -0.942  1.00  0.00     0.008 C 
ATOM     11  C   UNL     1       1.018   1.307   1.343  1.00  0.00     0.008 C 
ENDBRANCH   7   9
BRANCH   7  12
ATOM     12  C   UNL     1      -1.158  -1.026   2.261  1.00  0.00     0.116 C 
BRANCH  12  13
ATOM     13  C   UNL     1      -0.819  -0.293   3.548  1.00  0.00     0.221 C 
ATOM     14  O   UNL     1      -1.621   0.478   4.072  1.00  0.00    -0.275 OA
ATOM     15  N   UNL     1       0.365  -0.566   4.185  1.00  0.00    -0.353 N 
ATOM     16  H   UNL     1       0.410  -0.326   5.139  1.00  0.00     0.163 HD
BRANCH  15  17
ATOM     17  C   UNL     1       1.561  -1.169   3.616  1.00  0.00     0.087 C 
ATOM     18  C   UNL     1       2.774  -0.248   3.811  1.00  0.00     0.025 C 
ATOM     19  C   UNL     1       1.994  -2.533   4.184  1.00  0.00    -0.015 C 
ATOM     20  C   UNL     1       3.642  -0.883   4.891  1.00  0.00     0.003 C 
ATOM     21  C   UNL     1       2.910  -2.140   5.350  1.00  0.00     0.008 C 
ATOM     22  C   UNL     1       0.841  -3.425   4.649  1.00  0.00     0.013 C 
ATOM     23  C   UNL     1       2.784  -3.292   3.092  1.00  0.00     0.013 C 
ENDBRANCH  15  17
ENDBRANCH  12  13
ENDBRANCH   7  12
ENDBRANCH   4   7
ENDBRANCH   2   3
ENDBRANCH   1   2
BRANCH   1  24
ATOM     24  C   UNL     1      -5.736   1.489   2.438  1.00  0.00     0.118 C 
BRANCH  24  25
ATOM     25  N   UNL     1      -6.643   1.674   1.310  1.00  0.00    -0.352 N 
ATOM     26  C   UNL     1      -8.004   1.842   1.294  1.00  0.00     0.251 C 
ATOM     27  H   UNL     1      -6.212   1.678   0.425  1.00  0.00     0.163 HD
ATOM     28  O   UNL     1      -8.614   1.756   0.230  1.00  0.00    -0.269 OA
BRANCH  26  29
ATOM     29  C   UNL     1      -8.730   2.099   2.555  1.00  0.00     0.039 A 
ATOM     30  C   UNL     1      -9.940   1.444   2.789  1.00  0.00     0.014 A 
ATOM     31  C   UNL     1      -8.211   2.978   3.508  1.00  0.00     0.014 A 
ATOM     32  C   UNL     1     -10.590   1.616   4.013  1.00  0.00     0.010 A 
ATOM     33  C   UNL     1      -8.804   3.068   4.761  1.00  0.00     0.010 A 
ATOM     34  C   UNL     1     -10.005   2.395   5.026  1.00  0.00    -0.014 A 
BRANCH  34  35
ATOM     35  C   UNL     1     -10.642   2.530   6.362  1.00  0.00     0.031 A 
ATOM     36  C   UNL     1     -11.077   3.884   6.853  1.00  0.00     0.074 A 
ATOM     37  C   UNL     1     -10.778   1.444   7.149  1.00  0.00     0.049 A 
ATOM     38  N   UNL     1     -11.588   4.220   8.010  1.00  0.00    -0.248 NA
ATOM     39  C   UNL     1     -10.880   5.016   5.934  1.00  0.00     0.031 C 
ATOM     40  C   UNL     1     -10.352   0.087   6.797  1.00  0.00     0.029 A 
ATOM     41  N   UNL     1     -11.306   1.307   8.408  1.00  0.00    -0.354 N 
ATOM     42  C   UNL     1     -11.766   5.599   7.959  1.00  0.00     0.074 A 
ATOM     43  C   UNL     1     -11.236   6.043   6.688  1.00  0.00     0.031 C 
ATOM     44  C   UNL     1     -10.666  -0.748   7.801  1.00  0.00     0.029 A 
ATOM     45  C   UNL     1     -11.264   0.018   8.890  1.00  0.00     0.049 A 
ATOM     46  H   UNL     1     -11.680   2.060   8.920  1.00  0.00     0.167 HD
ATOM     47  C   UNL     1     -12.346   6.414   8.874  1.00  0.00     0.034 A 
ATOM     48  C   UNL     1     -11.650  -0.486  10.079  1.00  0.00     0.034 A 
ATOM     49  C   UNL     1     -12.872   5.951  10.134  1.00  0.00     0.049 A 
ATOM     50  C   UNL     1     -12.256   0.447  11.097  1.00  0.00     0.074 A 
ATOM     51  C   UNL     1     -13.516   6.680  11.119  1.00  0.00     0.029 A 
ATOM     52  N   UNL     1     -12.807   4.640  10.591  1.00  0.00    -0.354 N 
ATOM     53  N   UNL     1     -12.466   1.741  11.012  1.00  0.00    -0.248 NA
ATOM     54  C   UNL     1     -12.690  -0.150  12.366  1.00  0.00     0.031 C 
ATOM     55  C   UNL     1     -13.771   5.828  12.199  1.00  0.00     0.029 A 
ATOM     56  C   UNL     1     -13.370   4.547  11.854  1.00  0.00     0.049 A 
ATOM     57  H   UNL     1     -12.418   3.887  10.089  1.00  0.00     0.167 HD
ATOM     58  C   UNL     1     -13.088   2.104  12.204  1.00  0.00     0.074 A 
ATOM     59  C   UNL     1     -13.235   0.889  12.979  1.00  0.00     0.031 C 
ATOM     60  C   UNL     1     -13.503   3.328  12.620  1.00  0.00     0.034 A 
BRANCH  47  61
ATOM     61  C   UNL     1     -12.418   7.888   8.545  1.00  0.00     0.023 A 
ATOM     62  C   UNL     1     -13.128   8.361   7.427  1.00  0.00     0.031 A 
ATOM     63  C   UNL     1     -11.746   8.832   9.341  1.00  0.00     0.131 A 
ATOM     64  C   UNL     1     -13.085   9.722   7.091  1.00  0.00     0.055 A 
ATOM     65  C   UNL     1     -11.781  10.198   9.052  1.00  0.00     0.041 A 
ATOM     66  F   UNL     1     -11.032   8.443  10.409  1.00  0.00    -0.206 F 
ATOM     67  C   UNL     1     -12.439  10.648   7.912  1.00  0.00     0.022 A 
BRANCH  64  68
ATOM     68  S   UNL     1     -13.753  10.239   5.486  1.00  0.00     0.124 S 
ATOM     69  O   UNL     1     -12.953   9.437   4.562  1.00  0.00    -0.237 OA
ATOM     70  O   UNL     1     -15.160   9.872   5.596  1.00  0.00    -0.237 OA
ATOM     71  O   UNL     1     -13.482  11.674   5.448  1.00  0.00    -0.744 OA
ENDBRANCH  64  68
ENDBRANCH  47  61
BRANCH  48  72
ATOM     72  C   UNL     1     -11.468  -1.936  10.384  1.00  0.00     0.023 A 
ATOM     73  C   UNL     1     -12.570  -2.767  10.642  1.00  0.00     0.031 A 
ATOM     74  C   UNL     1     -10.183  -2.501  10.476  1.00  0.00     0.131 A 
ATOM     75  C   UNL     1     -12.366  -4.099  11.034  1.00  0.00     0.055 A 
ATOM     76  C   UNL     1      -9.988  -3.844  10.804  1.00  0.00     0.041 A 
ATOM     77  F   UNL     1      -9.093  -1.755  10.238  1.00  0.00    -0.206 F 
ATOM     78  C   UNL     1     -11.084  -4.648  11.101  1.00  0.00     0.022 A 
BRANCH  75  79
ATOM     79  S   UNL     1     -13.800  -5.079  11.559  1.00  0.00     0.124 S 
ATOM     80  O   UNL     1     -14.336  -4.262  12.642  1.00  0.00    -0.237 OA
ATOM     81  O   UNL     1     -14.597  -5.129  10.338  1.00  0.00    -0.237 OA
ATOM     82  O   UNL     1     -13.210  -6.351  11.970  1.00  0.00    -0.744 OA
ENDBRANCH  75  79
ENDBRANCH  48  72
BRANCH  60  83
ATOM     83  C   UNL     1     -14.204   3.399  13.956  1.00  0.00     0.023 A 
ATOM     84  C   UNL     1     -13.543   3.099  15.159  1.00  0.00     0.031 A 
ATOM     85  C   UNL     1     -15.562   3.760  14.021  1.00  0.00     0.131 A 
ATOM     86  C   UNL     1     -14.255   3.102  16.368  1.00  0.00     0.055 A 
ATOM     87  C   UNL     1     -16.247   3.831  15.235  1.00  0.00     0.041 A 
ATOM     88  F   UNL     1     -16.247   4.053  12.904  1.00  0.00    -0.206 F 
ATOM     89  C   UNL     1     -15.598   3.486  16.416  1.00  0.00     0.022 A 
BRANCH  86  90
ATOM     90  S   UNL     1     -13.433   2.490  17.865  1.00  0.00     0.124 S 
ATOM     91  O   UNL     1     -13.052   1.138  17.470  1.00  0.00    -0.237 OA
ATOM     92  O   UNL     1     -12.337   3.439  18.029  1.00  0.00    -0.237 OA
ATOM     93  O   UNL     1     -14.476   2.567  18.885  1.00  0.00    -0.744 OA
ENDBRANCH  86  90
ENDBRANCH  60  83
ENDBRANCH  34  35
ENDBRANCH  26  29
ENDBRANCH  24  25
ENDBRANCH   1  24
TORSDOF 17
