REMARK SMILES C[C@@H](Oc1ccc(/C=C2\C(=O)[NH+]=C(NCCCNC(=O)c3ccc(-c4c5nc(c(-c6cc(S(=O)(=O)[O-])ccc6F)c6ccc([nH]6)c(-c6cc(S(=O)(=O)[O-])ccc6F)c6nc(c(-c7cc(S(=O)(=O)[O-])ccc7F)c7ccc4[nH]7)C=C6)C=C5)cc3)N(c3ccc4c(c3)OCO4)C2=O)cc1)C(=O)[O-]
REMARK SMILES IDX 16 1 15 2 14 3 8 4 9 5 10 6 94 7 11 8 12 9 84 10 95 11 13 12
REMARK SMILES IDX 7 15 4 16 5 17 97 18 6 19 96 20 3 21 2 22 1 23 98 24 99 25
REMARK SMILES IDX 100 26 85 27 86 28 90 29 87 30 89 31 88 32 91 33 93 34 92 35
REMARK SMILES IDX 17 36 18 37 19 38 20 40 21 41 22 42 83 43 23 44 82 45 24 46
REMARK SMILES IDX 25 47 26 48 76 49 27 50 81 51 75 52 77 53 28 54 80 55 74 56
REMARK SMILES IDX 73 57 29 59 61 60 41 61 60 62 42 63 45 64 59 65 78 66 43 67
REMARK SMILES IDX 44 68 58 70 79 71 46 72 30 73 31 74 39 75 32 76 38 77 40 78
REMARK SMILES IDX 37 79 33 80 34 81 35 82 36 83 62 84 63 85 71 86 64 87 70 88
REMARK SMILES IDX 72 89 69 90 65 91 66 92 67 93 68 94 47 95 48 96 56 97 49 98
REMARK SMILES IDX 55 99 57 100 54 101 50 102 51 103 52 104 53 105
REMARK H PARENT 12 13 14 14 18 39 77 58 45 69
REMARK Flexibility Score: inf
ROOT
ATOM      1  C   UNL     1       7.655  -4.751   9.281  1.00  0.00     0.059 C 
ENDROOT
BRANCH   1   2
ATOM      2  C   UNL     1       7.385  -3.268   9.077  1.00  0.00     0.199 C 
BRANCH   2   3
ATOM      3  N   UNL     1       8.264  -2.716   8.064  1.00  0.00    -0.277 N 
ATOM      4  C   UNL     1       6.330  -0.799   3.547  1.00  0.00     0.031 C 
ATOM      5  C   UNL     1       6.966  -1.652   4.372  1.00  0.00     0.138 C 
ATOM      6  C   UNL     1       6.393  -2.838   5.027  1.00  0.00     0.321 C 
ATOM      7  C   UNL     1       8.378  -1.361   4.681  1.00  0.00     0.328 C 
ATOM      8  O   UNL     1       5.627  -3.595   4.454  1.00  0.00    -0.250 OA
ATOM      9  N   UNL     1       6.772  -2.988   6.331  1.00  0.00    -0.210 N 
ATOM     10  N   UNL     1       8.800  -1.886   5.898  1.00  0.00    -0.162 N 
ATOM     11  O   UNL     1       9.067  -0.678   3.923  1.00  0.00    -0.249 OA
ATOM     12  C   UNL     1       7.922  -2.556   6.744  1.00  0.00     0.366 C 
ATOM     13  H   UNL     1       6.163  -3.430   6.966  1.00  0.00     0.270 HD
ATOM     14  H   UNL     1       9.166  -2.437   8.341  1.00  0.00     0.260 HD
BRANCH   4  15
ATOM     15  C   UNL     1       4.922  -0.754   3.123  1.00  0.00    -0.024 A 
ATOM     16  C   UNL     1       2.267  -0.443   2.246  1.00  0.00     0.120 A 
ATOM     17  C   UNL     1       2.531  -1.047   3.471  1.00  0.00     0.047 A 
ATOM     18  C   UNL     1       3.316   0.049   1.478  1.00  0.00     0.047 A 
ATOM     19  C   UNL     1       3.851  -1.189   3.913  1.00  0.00     0.012 A 
ATOM     20  C   UNL     1       4.634  -0.119   1.907  1.00  0.00     0.012 A 
BRANCH  16  21
ATOM     21  O   UNL     1       0.962  -0.221   1.910  1.00  0.00    -0.485 OA
BRANCH  21  22
ATOM     22  C   UNL     1       0.531  -0.923   0.736  1.00  0.00     0.216 C 
ATOM     23  C   UNL     1       0.735  -0.088  -0.526  1.00  0.00     0.059 C 
BRANCH  22  24
ATOM     24  C   UNL     1      -0.962  -1.202   0.862  1.00  0.00     0.082 C 
ATOM     25  O   UNL     1      -1.538  -2.210   0.476  1.00  0.00    -0.546 OA
ATOM     26  O   UNL     1      -1.678  -0.176   1.369  1.00  0.00    -0.546 OA
ENDBRANCH  22  24
ENDBRANCH  21  22
ENDBRANCH  16  21
ENDBRANCH   4  15
BRANCH  10  27
ATOM     27  C   UNL     1      10.128  -1.579   6.292  1.00  0.00     0.115 A 
ATOM     28  C   UNL     1      11.122  -2.580   6.239  1.00  0.00     0.048 A 
ATOM     29  C   UNL     1      10.461  -0.249   6.577  1.00  0.00     0.094 A 
ATOM     30  C   UNL     1      12.469  -2.241   6.410  1.00  0.00     0.054 A 
ATOM     31  C   UNL     1      11.794   0.051   6.723  1.00  0.00     0.169 A 
ATOM     32  C   UNL     1      12.772  -0.912   6.623  1.00  0.00     0.166 A 
ATOM     33  O   UNL     1      12.306   1.297   6.906  1.00  0.00    -0.453 OA
ATOM     34  O   UNL     1      14.021  -0.378   6.708  1.00  0.00    -0.454 OA
ATOM     35  C   UNL     1      13.704   1.030   6.675  1.00  0.00     0.468 C 
ENDBRANCH  10  27
ENDBRANCH   2   3
ENDBRANCH   1   2
BRANCH   1  36
ATOM     36  C   UNL     1       9.068  -5.058   9.766  1.00  0.00     0.119 C 
BRANCH  36  37
ATOM     37  N   UNL     1       9.367  -4.464  11.063  1.00  0.00    -0.352 N 
ATOM     38  C   UNL     1       9.768  -5.055  12.236  1.00  0.00     0.251 C 
ATOM     39  H   UNL     1       9.264  -3.486  11.106  1.00  0.00     0.163 HD
ATOM     40  O   UNL     1       9.792  -4.386  13.266  1.00  0.00    -0.269 OA
BRANCH  38  41
ATOM     41  C   UNL     1      10.143  -6.486  12.265  1.00  0.00     0.039 A 
ATOM     42  C   UNL     1       9.701  -7.277  13.329  1.00  0.00     0.014 A 
ATOM     43  C   UNL     1      10.932  -7.048  11.259  1.00  0.00     0.014 A 
ATOM     44  C   UNL     1       9.987  -8.645  13.343  1.00  0.00     0.010 A 
ATOM     45  C   UNL     1      11.146  -8.424  11.232  1.00  0.00     0.010 A 
ATOM     46  C   UNL     1      10.674  -9.239  12.272  1.00  0.00    -0.014 A 
BRANCH  46  47
ATOM     47  C   UNL     1      10.897 -10.709  12.217  1.00  0.00     0.031 A 
ATOM     48  C   UNL     1      12.296 -11.264  12.220  1.00  0.00     0.074 A 
ATOM     49  C   UNL     1       9.841 -11.539  12.099  1.00  0.00     0.049 A 
ATOM     50  N   UNL     1      12.695 -12.504  12.092  1.00  0.00    -0.248 NA
ATOM     51  C   UNL     1      13.391 -10.292  12.355  1.00  0.00     0.031 C 
ATOM     52  C   UNL     1       8.439 -11.119  12.049  1.00  0.00     0.029 A 
ATOM     53  N   UNL     1       9.780 -12.906  11.989  1.00  0.00    -0.354 N 
ATOM     54  C   UNL     1      14.085 -12.460  12.120  1.00  0.00     0.074 A 
ATOM     55  C   UNL     1      14.457 -11.064  12.213  1.00  0.00     0.031 C 
ATOM     56  C   UNL     1       7.657 -12.206  11.946  1.00  0.00     0.029 A 
ATOM     57  C   UNL     1       8.499 -13.395  11.866  1.00  0.00     0.049 A 
ATOM     58  H   UNL     1      10.577 -13.483  11.998  1.00  0.00     0.167 HD
ATOM     59  C   UNL     1      14.968 -13.491  12.094  1.00  0.00     0.034 A 
ATOM     60  C   UNL     1       8.052 -14.655  11.691  1.00  0.00     0.034 A 
ATOM     61  C   UNL     1      14.579 -14.878  12.007  1.00  0.00     0.049 A 
ATOM     62  C   UNL     1       9.054 -15.780  11.625  1.00  0.00     0.074 A 
ATOM     63  C   UNL     1      15.387 -16.002  12.023  1.00  0.00     0.029 A 
ATOM     64  N   UNL     1      13.272 -15.334  11.879  1.00  0.00    -0.354 N 
ATOM     65  N   UNL     1      10.364 -15.726  11.699  1.00  0.00    -0.248 NA
ATOM     66  C   UNL     1       8.516 -17.137  11.463  1.00  0.00     0.031 C 
ATOM     67  C   UNL     1      14.580 -17.127  11.827  1.00  0.00     0.029 A 
ATOM     68  C   UNL     1      13.257 -16.718  11.780  1.00  0.00     0.049 A 
ATOM     69  H   UNL     1      12.473 -14.759  11.861  1.00  0.00     0.167 HD
ATOM     70  C   UNL     1      10.802 -17.046  11.631  1.00  0.00     0.074 A 
ATOM     71  C   UNL     1       9.617 -17.872  11.521  1.00  0.00     0.031 C 
ATOM     72  C   UNL     1      12.070 -17.532  11.664  1.00  0.00     0.034 A 
BRANCH  59  73
ATOM     73  C   UNL     1      16.440 -13.149  12.130  1.00  0.00     0.023 A 
ATOM     74  C   UNL     1      17.017 -12.480  13.224  1.00  0.00     0.031 A 
ATOM     75  C   UNL     1      17.275 -13.478  11.047  1.00  0.00     0.131 A 
ATOM     76  C   UNL     1      18.366 -12.094  13.178  1.00  0.00     0.055 A 
ATOM     77  C   UNL     1      18.637 -13.169  11.046  1.00  0.00     0.041 A 
ATOM     78  F   UNL     1      16.780 -14.097   9.964  1.00  0.00    -0.206 F 
ATOM     79  C   UNL     1      19.187 -12.458  12.109  1.00  0.00     0.022 A 
BRANCH  76  80
ATOM     80  S   UNL     1      18.990 -10.978  14.464  1.00  0.00     0.124 S 
ATOM     81  O   UNL     1      18.095  -9.831  14.318  1.00  0.00    -0.237 OA
ATOM     82  O   UNL     1      18.822 -11.769  15.677  1.00  0.00    -0.237 OA
ATOM     83  O   UNL     1      20.374 -10.733  14.063  1.00  0.00    -0.744 OA
ENDBRANCH  76  80
ENDBRANCH  59  73
BRANCH  60  84
ATOM     84  C   UNL     1       6.591 -14.927  11.551  1.00  0.00     0.023 A 
ATOM     85  C   UNL     1       5.908 -15.709  12.495  1.00  0.00     0.031 A 
ATOM     86  C   UNL     1       5.866 -14.445  10.447  1.00  0.00     0.131 A 
ATOM     87  C   UNL     1       4.556 -16.030  12.292  1.00  0.00     0.055 A 
ATOM     88  C   UNL     1       4.507 -14.717  10.280  1.00  0.00     0.041 A 
ATOM     89  F   UNL     1       6.469 -13.690   9.515  1.00  0.00    -0.206 F 
ATOM     90  C   UNL     1       3.848 -15.527  11.199  1.00  0.00     0.022 A 
BRANCH  87  91
ATOM     91  S   UNL     1       3.762 -17.199  13.429  1.00  0.00     0.124 S 
ATOM     92  O   UNL     1       4.619 -18.371  13.296  1.00  0.00    -0.237 OA
ATOM     93  O   UNL     1       3.841 -16.486  14.700  1.00  0.00    -0.237 OA
ATOM     94  O   UNL     1       2.415 -17.344  12.881  1.00  0.00    -0.744 OA
ENDBRANCH  87  91
ENDBRANCH  60  84
BRANCH  72  95
ATOM     95  C   UNL     1      12.234 -19.033  11.640  1.00  0.00     0.023 A 
ATOM     96  C   UNL     1      11.880 -19.805  10.520  1.00  0.00     0.031 A 
ATOM     97  C   UNL     1      12.752 -19.701  12.765  1.00  0.00     0.131 A 
ATOM     98  C   UNL     1      11.996 -21.203  10.569  1.00  0.00     0.055 A 
ATOM     99  C   UNL     1      12.927 -21.085  12.784  1.00  0.00     0.041 A 
ATOM    100  F   UNL     1      13.104 -19.016  13.865  1.00  0.00    -0.206 F 
ATOM    101  C   UNL     1      12.535 -21.846  11.686  1.00  0.00     0.022 A 
BRANCH  98 102
ATOM    102  S   UNL     1      11.344 -22.182   9.188  1.00  0.00     0.124 S 
ATOM    103  O   UNL     1       9.943 -21.775   9.162  1.00  0.00    -0.237 OA
ATOM    104  O   UNL     1      12.161 -21.726   8.069  1.00  0.00    -0.237 OA
ATOM    105  O   UNL     1      11.581 -23.563   9.604  1.00  0.00    -0.744 OA
ENDBRANCH  98 102
ENDBRANCH  72  95
ENDBRANCH  46  47
ENDBRANCH  38  41
ENDBRANCH  36  37
ENDBRANCH   1  36
TORSDOF 17
