REMARK SMILES [NH3+][C@@]1(C(=O)NCCCNC(=O)c2ccc(-c3c4nc(c(-c5cc(S(=O)(=O)[O-])ccc5F)c5ccc([nH]5)c(-c5cc(S(=O)(=O)[O-])ccc5F)c5nc(c(-c6cc(S(=O)(=O)[O-])ccc6F)c6ccc3[nH]6)C=C5)C=C4)cc2)CCC[C@H]1CCOC1CCCCCC1
REMARK SMILES IDX 3 1 4 2 5 3 2 5 75 6 78 7 76 8 77 9 1 10 79 14 80 15 81 16
REMARK SMILES IDX 82 17 83 18 84 19 85 20 88 22 87 23 86 24 6 26 7 27 8 28
REMARK SMILES IDX 9 29 10 30 11 32 12 33 13 34 74 35 14 36 73 37 15 38 16 39
REMARK SMILES IDX 17 40 67 41 18 42 72 43 66 44 68 45 19 46 71 47 65 48 64 49
REMARK SMILES IDX 20 51 52 52 32 53 51 54 33 55 36 56 50 57 69 58 34 59 35 60
REMARK SMILES IDX 49 62 70 63 37 64 21 65 22 66 30 67 23 68 29 69 31 70 28 71
REMARK SMILES IDX 24 72 25 73 26 74 27 75 53 76 54 77 62 78 55 79 61 80 63 81
REMARK SMILES IDX 60 82 56 83 57 84 58 85 59 86 38 87 39 88 47 89 40 90 46 91
REMARK SMILES IDX 48 92 45 93 41 94 42 95 43 96 44 97
REMARK H PARENT 5 4 1 11 1 12 1 13 9 31 68 50 36 61
REMARK Flexibility Score: 90.00
ROOT
ATOM      1  C   UNL     1      -1.262   0.498   1.271  1.00  0.00     0.281 C 
ATOM      2  O   UNL     1      -2.264   0.297   0.521  1.00  0.00    -0.268 OA
ATOM      3  N   UNL     1      -2.182   0.621   2.384  1.00  0.00    -0.351 N 
ATOM      4  H   UNL     1      -3.069   0.394   2.022  1.00  0.00     0.163 HD
ENDROOT
BRANCH   1   5
ATOM      5  C   UNL     1       0.757   0.742   0.853  1.00  0.00     0.176 C 
ATOM      6  C   UNL     1       2.142   0.187   1.771  1.00  0.00     0.079 C 
ATOM      7  C   UNL     1       1.567   2.233   0.562  1.00  0.00     0.063 C 
ATOM      8  C   UNL     1       2.758   1.317   2.568  1.00  0.00     0.008 C 
ATOM      9  C   UNL     1       2.764   2.439   1.559  1.00  0.00     0.011 C 
BRANCH   5  10
ATOM     10  N   UNL     1       1.308  -0.117  -0.302  1.00  0.00    -0.345 N 
ATOM     11  H   UNL     1       0.903  -1.052  -0.253  1.00  0.00     0.345 HD
ATOM     12  H   UNL     1       2.323  -0.181  -0.223  1.00  0.00     0.345 HD
ATOM     13  H   UNL     1       1.063   0.314  -1.193  1.00  0.00     0.345 HD
ENDBRANCH   5  10
BRANCH   7  14
ATOM     14  C   UNL     1       2.047   2.567  -0.860  1.00  0.00     0.039 C 
BRANCH  14  15
ATOM     15  C   UNL     1       1.025   2.438  -1.978  1.00  0.00     0.161 C 
BRANCH  15  16
ATOM     16  O   UNL     1      -0.301   2.733  -1.599  1.00  0.00    -0.378 OA
BRANCH  16  17
ATOM     17  C   UNL     1      -0.998   1.867  -0.683  1.00  0.00     0.118 C 
BRANCH  17  18
ATOM     18  C   UNL     1      -1.022   0.103  -1.179  1.00  0.00     0.032 C 
BRANCH  18  19
ATOM     19  C   UNL     1      -0.762  -1.349  -0.058  1.00  0.00     0.003 C 
BRANCH  19  20
ATOM     20  C   UNL     1      -0.230  -1.390   1.704  1.00  0.00     0.000 CG0
ATOM     21  G   UNL     1       0.010   0.013   2.949  1.00  0.00     0.000 G0
ENDBRANCH  19  20
ENDBRANCH  18  19
ENDBRANCH  17  18
BRANCH  17  22
ATOM     22  C   UNL     1      -1.030   2.629   1.002  1.00  0.00     0.032 C 
BRANCH  22  23
ATOM     23  C   UNL     1      -0.227   1.910   2.571  1.00  0.00     0.003 C 
BRANCH  23  24
ATOM     24  C   UNL     1       0.010   0.013   2.949  1.00  0.00     0.000 CG0
ATOM     25  G   UNL     1      -0.230  -1.390   1.704  1.00  0.00     0.000 G0
ENDBRANCH  23  24
ENDBRANCH  22  23
ENDBRANCH  17  22
ENDBRANCH  16  17
ENDBRANCH  15  16
ENDBRANCH  14  15
ENDBRANCH   7  14
ENDBRANCH   1   5
BRANCH   3  26
ATOM     26  C   UNL     1      -2.407   0.939   3.853  1.00  0.00     0.118 C 
BRANCH  26  27
ATOM     27  C   UNL     1      -2.965   2.328   4.115  1.00  0.00     0.042 C 
BRANCH  27  28
ATOM     28  C   UNL     1      -4.392   2.235   4.570  1.00  0.00     0.118 C 
BRANCH  28  29
ATOM     29  N   UNL     1      -4.465   1.698   5.932  1.00  0.00    -0.352 N 
ATOM     30  C   UNL     1      -4.773   2.371   7.094  1.00  0.00     0.251 C 
ATOM     31  H   UNL     1      -4.271   0.738   6.028  1.00  0.00     0.163 HD
ATOM     32  O   UNL     1      -4.475   1.901   8.185  1.00  0.00    -0.269 OA
BRANCH  30  33
ATOM     33  C   UNL     1      -5.450   3.675   6.974  1.00  0.00     0.039 A 
ATOM     34  C   UNL     1      -5.093   4.745   7.792  1.00  0.00     0.014 A 
ATOM     35  C   UNL     1      -6.393   3.839   5.959  1.00  0.00     0.014 A 
ATOM     36  C   UNL     1      -5.653   5.998   7.541  1.00  0.00     0.010 A 
ATOM     37  C   UNL     1      -6.778   5.109   5.589  1.00  0.00     0.010 A 
ATOM     38  C   UNL     1      -6.473   6.193   6.417  1.00  0.00    -0.014 A 
BRANCH  38  39
ATOM     39  C   UNL     1      -7.132   7.486   6.125  1.00  0.00     0.031 A 
ATOM     40  C   UNL     1      -8.638   7.520   6.027  1.00  0.00     0.074 A 
ATOM     41  C   UNL     1      -6.389   8.581   5.882  1.00  0.00     0.049 A 
ATOM     42  N   UNL     1      -9.423   8.503   5.675  1.00  0.00    -0.248 NA
ATOM     43  C   UNL     1      -9.354   6.260   6.298  1.00  0.00     0.031 C 
ATOM     44  C   UNL     1      -4.924   8.633   5.885  1.00  0.00     0.029 A 
ATOM     45  N   UNL     1      -6.764   9.864   5.587  1.00  0.00    -0.354 N 
ATOM     46  C   UNL     1     -10.707   7.967   5.656  1.00  0.00     0.074 A 
ATOM     47  C   UNL     1     -10.584   6.554   5.917  1.00  0.00     0.031 C 
ATOM     48  C   UNL     1      -4.529   9.896   5.660  1.00  0.00     0.029 A 
ATOM     49  C   UNL     1      -5.705  10.730   5.443  1.00  0.00     0.049 A 
ATOM     50  H   UNL     1      -7.703  10.141   5.486  1.00  0.00     0.167 HD
ATOM     51  C   UNL     1     -11.889   8.605   5.488  1.00  0.00     0.034 A 
ATOM     52  C   UNL     1      -5.697  12.048   5.167  1.00  0.00     0.034 A 
ATOM     53  C   UNL     1     -11.981  10.025   5.276  1.00  0.00     0.049 A 
ATOM     54  C   UNL     1      -7.023  12.743   4.987  1.00  0.00     0.074 A 
ATOM     55  C   UNL     1     -13.112  10.808   5.157  1.00  0.00     0.029 A 
ATOM     56  N   UNL     1     -10.888  10.876   5.156  1.00  0.00    -0.354 N 
ATOM     57  N   UNL     1      -8.236  12.237   5.035  1.00  0.00    -0.248 NA
ATOM     58  C   UNL     1      -6.982  14.187   4.732  1.00  0.00     0.031 C 
ATOM     59  C   UNL     1     -12.704  12.119   4.892  1.00  0.00     0.029 A 
ATOM     60  C   UNL     1     -11.319  12.172   4.933  1.00  0.00     0.049 A 
ATOM     61  H   UNL     1      -9.946  10.597   5.221  1.00  0.00     0.167 HD
ATOM     62  C   UNL     1      -9.103  13.308   4.845  1.00  0.00     0.074 A 
ATOM     63  C   UNL     1      -8.272  14.488   4.705  1.00  0.00     0.031 C 
ATOM     64  C   UNL     1     -10.460  13.324   4.791  1.00  0.00     0.034 A 
BRANCH  51  65
ATOM     65  C   UNL     1     -13.146   7.768   5.521  1.00  0.00     0.023 A 
ATOM     66  C   UNL     1     -13.505   7.011   6.652  1.00  0.00     0.031 A 
ATOM     67  C   UNL     1     -13.974   7.683   4.388  1.00  0.00     0.131 A 
ATOM     68  C   UNL     1     -14.603   6.140   6.596  1.00  0.00     0.055 A 
ATOM     69  C   UNL     1     -15.120   6.885   4.371  1.00  0.00     0.041 A 
ATOM     70  F   UNL     1     -13.672   8.358   3.268  1.00  0.00    -0.206 F 
ATOM     71  C   UNL     1     -15.431   6.093   5.473  1.00  0.00     0.022 A 
BRANCH  68  72
ATOM     72  S   UNL     1     -14.836   4.953   7.948  1.00  0.00     0.124 S 
ATOM     73  O   UNL     1     -13.583   4.203   7.901  1.00  0.00    -0.237 OA
ATOM     74  O   UNL     1     -15.017   5.822   9.105  1.00  0.00    -0.237 OA
ATOM     75  O   UNL     1     -16.020   4.198   7.542  1.00  0.00    -0.744 OA
ENDBRANCH  68  72
ENDBRANCH  51  65
BRANCH  52  76
ATOM     76  C   UNL     1      -4.410  12.794   5.058  1.00  0.00     0.023 A 
ATOM     77  C   UNL     1      -4.096  13.829   5.953  1.00  0.00     0.031 A 
ATOM     78  C   UNL     1      -3.485  12.505   4.038  1.00  0.00     0.131 A 
ATOM     79  C   UNL     1      -2.917  14.572   5.782  1.00  0.00     0.055 A 
ATOM     80  C   UNL     1      -2.286  13.209   3.907  1.00  0.00     0.041 A 
ATOM     81  F   UNL     1      -3.729  11.521   3.159  1.00  0.00    -0.206 F 
ATOM     82  C   UNL     1      -2.003  14.260   4.774  1.00  0.00     0.022 A 
BRANCH  79  83
ATOM     83  S   UNL     1      -2.641  16.019   6.841  1.00  0.00     0.124 S 
ATOM     84  O   UNL     1      -3.838  16.810   6.580  1.00  0.00    -0.237 OA
ATOM     85  O   UNL     1      -2.548  15.412   8.164  1.00  0.00    -0.237 OA
ATOM     86  O   UNL     1      -1.395  16.583   6.327  1.00  0.00    -0.744 OA
ENDBRANCH  79  83
ENDBRANCH  52  76
BRANCH  64  87
ATOM     87  C   UNL     1     -11.119  14.668   4.614  1.00  0.00     0.023 A 
ATOM     88  C   UNL     1     -10.968  15.413   3.433  1.00  0.00     0.031 A 
ATOM     89  C   UNL     1     -11.908  15.208   5.645  1.00  0.00     0.131 A 
ATOM     90  C   UNL     1     -11.546  16.686   3.336  1.00  0.00     0.055 A 
ATOM     91  C   UNL     1     -12.541  16.443   5.514  1.00  0.00     0.041 A 
ATOM     92  F   UNL     1     -12.084  14.537   6.795  1.00  0.00    -0.206 F 
ATOM     93  C   UNL     1     -12.348  17.197   4.360  1.00  0.00     0.022 A 
BRANCH  90  94
ATOM     94  S   UNL     1     -11.145  17.711   1.896  1.00  0.00     0.124 S 
ATOM     95  O   UNL     1      -9.691  17.794   1.979  1.00  0.00    -0.237 OA
ATOM     96  O   UNL     1     -11.676  16.919   0.791  1.00  0.00    -0.237 OA
ATOM     97  O   UNL     1     -11.854  18.962   2.158  1.00  0.00    -0.744 OA
ENDBRANCH  90  94
ENDBRANCH  64  87
ENDBRANCH  38  39
ENDBRANCH  30  33
ENDBRANCH  28  29
ENDBRANCH  27  28
ENDBRANCH  26  27
ENDBRANCH   3  26
TORSDOF 18
