REMARK SMILES COC[C@@H](C)CC(=O)N1CC(CC(=O)NCCCNC(=O)c2ccc(-c3c4nc(c(-c5cc(S(=O)(=O)[O-])ccc5F)c5ccc([nH]5)c(-c5cc(S(=O)(=O)[O-])ccc5F)c5nc(c(-c6cc(S(=O)(=O)[O-])ccc6F)c6ccc3[nH]6)C=C5)C=C4)cc2)C1
REMARK SMILES IDX 16 1 15 2 13 3 14 4 12 6 11 7 7 8 8 9 9 10 10 11 85 12 6 13
REMARK SMILES IDX 4 14 5 15 3 16 2 17 1 18 17 19 18 20 19 21 20 22 21 24 22 25
REMARK SMILES IDX 23 26 84 27 24 28 83 29 25 30 26 31 27 32 77 33 28 34 82 35
REMARK SMILES IDX 76 36 78 37 29 38 81 39 75 40 74 41 30 43 62 44 42 45 61 46
REMARK SMILES IDX 43 47 46 48 60 49 79 50 44 51 45 52 59 54 80 55 47 56 31 57
REMARK SMILES IDX 32 58 40 59 33 60 39 61 41 62 38 63 34 64 35 65 36 66 37 67
REMARK SMILES IDX 63 68 64 69 72 70 65 71 71 72 73 73 70 74 66 75 67 76 68 77
REMARK SMILES IDX 69 78 48 79 49 80 57 81 50 82 56 83 58 84 55 85 51 86 52 87
REMARK SMILES IDX 53 88 54 89
REMARK H PARENT 15 5 19 23 78 42 46 53
REMARK Flexibility Score: inf
ROOT
ATOM      1  C   UNL     1       1.654   0.450  -4.816  1.00  0.00     0.117 C 
ENDROOT
BRANCH   1   2
ATOM      2  N   UNL     1       0.690   1.001  -5.758  1.00  0.00    -0.356 N 
ATOM      3  C   UNL     1       0.455   2.280  -6.166  1.00  0.00     0.220 C 
ATOM      4  O   UNL     1      -0.464   2.469  -6.967  1.00  0.00    -0.275 OA
ATOM      5  H   UNL     1       0.103   0.330  -6.174  1.00  0.00     0.163 HD
BRANCH   3   6
ATOM      6  C   UNL     1       1.260   3.455  -5.635  1.00  0.00     0.107 C 
BRANCH   6   7
ATOM      7  C   UNL     1       0.532   4.197  -4.517  1.00  0.00     0.037 C 
ATOM      8  C   UNL     1       0.723   5.238  -1.353  1.00  0.00     0.222 C 
ATOM      9  O   UNL     1       0.133   6.309  -1.222  1.00  0.00    -0.275 OA
ATOM     10  N   UNL     1       1.091   4.748  -2.584  1.00  0.00    -0.342 N 
ATOM     11  C   UNL     1       1.149   5.446  -3.866  1.00  0.00     0.125 C 
ATOM     12  C   UNL     1       0.660   3.499  -3.170  1.00  0.00     0.125 C 
BRANCH   8  13
ATOM     13  C   UNL     1       1.290   4.483  -0.147  1.00  0.00     0.106 C 
BRANCH  13  14
ATOM     14  C   UNL     1       0.534   3.269   0.430  1.00  0.00     0.021 C 
ATOM     15  C   UNL     1       0.960   3.055   1.890  1.00  0.00     0.010 C 
BRANCH  14  16
ATOM     16  C   UNL     1       0.776   1.993  -0.391  1.00  0.00     0.163 C 
BRANCH  16  17
ATOM     17  O   UNL     1       0.445   0.793   0.294  1.00  0.00    -0.384 OA
ATOM     18  C   UNL     1       1.566   0.010   0.678  1.00  0.00     0.194 C 
ENDBRANCH  16  17
ENDBRANCH  14  16
ENDBRANCH  13  14
ENDBRANCH   8  13
ENDBRANCH   6   7
ENDBRANCH   3   6
ENDBRANCH   1   2
BRANCH   1  19
ATOM     19  C   UNL     1       1.022   0.127  -3.462  1.00  0.00     0.042 C 
BRANCH  19  20
ATOM     20  C   UNL     1       0.259  -1.190  -3.373  1.00  0.00     0.118 C 
BRANCH  20  21
ATOM     21  N   UNL     1       1.134  -2.340  -3.226  1.00  0.00    -0.352 N 
ATOM     22  C   UNL     1       1.262  -3.267  -2.213  1.00  0.00     0.251 C 
ATOM     23  H   UNL     1       1.744  -2.484  -3.985  1.00  0.00     0.163 HD
ATOM     24  O   UNL     1       2.208  -4.048  -2.275  1.00  0.00    -0.269 OA
BRANCH  22  25
ATOM     25  C   UNL     1       0.336  -3.327  -1.047  1.00  0.00     0.039 A 
ATOM     26  C   UNL     1       0.860  -3.730   0.192  1.00  0.00     0.014 A 
ATOM     27  C   UNL     1      -1.029  -3.048  -1.138  1.00  0.00     0.014 A 
ATOM     28  C   UNL     1       0.046  -3.780   1.332  1.00  0.00     0.010 A 
ATOM     29  C   UNL     1      -1.829  -3.038   0.011  1.00  0.00     0.010 A 
ATOM     30  C   UNL     1      -1.304  -3.409   1.258  1.00  0.00    -0.014 A 
BRANCH  30  31
ATOM     31  C   UNL     1      -2.187  -3.455   2.458  1.00  0.00     0.031 A 
ATOM     32  C   UNL     1      -3.307  -4.460   2.527  1.00  0.00     0.074 A 
ATOM     33  C   UNL     1      -2.026  -2.567   3.461  1.00  0.00     0.049 A 
ATOM     34  N   UNL     1      -4.224  -4.620   3.447  1.00  0.00    -0.248 NA
ATOM     35  C   UNL     1      -3.423  -5.394   1.397  1.00  0.00     0.031 C 
ATOM     36  C   UNL     1      -1.008  -1.518   3.500  1.00  0.00     0.029 A 
ATOM     37  N   UNL     1      -2.726  -2.391   4.631  1.00  0.00    -0.354 N 
ATOM     38  C   UNL     1      -5.037  -5.655   2.999  1.00  0.00     0.074 A 
ATOM     39  C   UNL     1      -4.528  -6.056   1.705  1.00  0.00     0.031 C 
ATOM     40  C   UNL     1      -1.148  -0.808   4.632  1.00  0.00     0.029 A 
ATOM     41  C   UNL     1      -2.288  -1.325   5.385  1.00  0.00     0.049 A 
ATOM     42  H   UNL     1      -3.472  -2.972   4.904  1.00  0.00     0.167 HD
ATOM     43  C   UNL     1      -6.100  -6.229   3.616  1.00  0.00     0.034 A 
ATOM     44  C   UNL     1      -2.762  -0.809   6.539  1.00  0.00     0.034 A 
ATOM     45  C   UNL     1      -6.588  -5.838   4.916  1.00  0.00     0.049 A 
ATOM     46  C   UNL     1      -3.951  -1.462   7.202  1.00  0.00     0.074 A 
ATOM     47  C   UNL     1      -7.605  -6.411   5.661  1.00  0.00     0.029 A 
ATOM     48  N   UNL     1      -6.106  -4.770   5.660  1.00  0.00    -0.354 N 
ATOM     49  N   UNL     1      -4.660  -2.492   6.800  1.00  0.00    -0.248 NA
ATOM     50  C   UNL     1      -4.396  -0.892   8.482  1.00  0.00     0.031 C 
ATOM     51  C   UNL     1      -7.782  -5.650   6.822  1.00  0.00     0.029 A 
ATOM     52  C   UNL     1      -6.827  -4.647   6.838  1.00  0.00     0.049 A 
ATOM     53  H   UNL     1      -5.361  -4.186   5.391  1.00  0.00     0.167 HD
ATOM     54  C   UNL     1      -5.611  -2.710   7.794  1.00  0.00     0.074 A 
ATOM     55  C   UNL     1      -5.376  -1.717   8.820  1.00  0.00     0.031 C 
ATOM     56  C   UNL     1      -6.587  -3.651   7.855  1.00  0.00     0.034 A 
BRANCH  43  57
ATOM     57  C   UNL     1      -6.828  -7.323   2.874  1.00  0.00     0.023 A 
ATOM     58  C   UNL     1      -6.213  -8.550   2.571  1.00  0.00     0.031 A 
ATOM     59  C   UNL     1      -8.157  -7.131   2.456  1.00  0.00     0.131 A 
ATOM     60  C   UNL     1      -6.902  -9.511   1.816  1.00  0.00     0.055 A 
ATOM     61  C   UNL     1      -8.863  -8.121   1.770  1.00  0.00     0.041 A 
ATOM     62  F   UNL     1      -8.790  -5.973   2.701  1.00  0.00    -0.206 F 
ATOM     63  C   UNL     1      -8.231  -9.314   1.434  1.00  0.00     0.022 A 
BRANCH  60  64
ATOM     64  S   UNL     1      -5.996 -10.970   1.234  1.00  0.00     0.124 S 
ATOM     65  O   UNL     1      -4.947 -10.360   0.420  1.00  0.00    -0.237 OA
ATOM     66  O   UNL     1      -5.559 -11.588   2.480  1.00  0.00    -0.237 OA
ATOM     67  O   UNL     1      -7.000 -11.721   0.483  1.00  0.00    -0.744 OA
ENDBRANCH  60  64
ENDBRANCH  43  57
BRANCH  44  68
ATOM     68  C   UNL     1      -2.142   0.409   7.140  1.00  0.00     0.023 A 
ATOM     69  C   UNL     1      -1.517   0.363   8.396  1.00  0.00     0.031 A 
ATOM     70  C   UNL     1      -2.231   1.655   6.494  1.00  0.00     0.131 A 
ATOM     71  C   UNL     1      -1.056   1.548   8.993  1.00  0.00     0.055 A 
ATOM     72  C   UNL     1      -1.723   2.822   7.067  1.00  0.00     0.041 A 
ATOM     73  F   UNL     1      -2.817   1.756   5.290  1.00  0.00    -0.206 F 
ATOM     74  C   UNL     1      -1.146   2.775   8.332  1.00  0.00     0.022 A 
BRANCH  71  75
ATOM     75  S   UNL     1      -0.430   1.478  10.695  1.00  0.00     0.124 S 
ATOM     76  O   UNL     1      -1.560   0.890  11.405  1.00  0.00    -0.237 OA
ATOM     77  O   UNL     1       0.747   0.628  10.547  1.00  0.00    -0.237 OA
ATOM     78  O   UNL     1      -0.150   2.876  11.013  1.00  0.00    -0.744 OA
ENDBRANCH  71  75
ENDBRANCH  44  68
BRANCH  56  79
ATOM     79  C   UNL     1      -7.439  -3.682   9.101  1.00  0.00     0.023 A 
ATOM     80  C   UNL     1      -8.335  -2.645   9.415  1.00  0.00     0.031 A 
ATOM     81  C   UNL     1      -7.345  -4.767   9.992  1.00  0.00     0.131 A 
ATOM     82  C   UNL     1      -9.065  -2.691  10.614  1.00  0.00     0.055 A 
ATOM     83  C   UNL     1      -8.115  -4.834  11.153  1.00  0.00     0.041 A 
ATOM     84  F   UNL     1      -6.504  -5.784   9.743  1.00  0.00    -0.206 F 
ATOM     85  C   UNL     1      -8.972  -3.786  11.476  1.00  0.00     0.022 A 
BRANCH  82  86
ATOM     86  S   UNL     1     -10.079  -1.259  11.075  1.00  0.00     0.124 S 
ATOM     87  O   UNL     1      -9.089  -0.187  11.119  1.00  0.00    -0.237 OA
ATOM     88  O   UNL     1     -11.041  -1.192   9.980  1.00  0.00    -0.237 OA
ATOM     89  O   UNL     1     -10.640  -1.638  12.370  1.00  0.00    -0.744 OA
ENDBRANCH  82  86
ENDBRANCH  56  79
ENDBRANCH  30  31
ENDBRANCH  22  25
ENDBRANCH  20  21
ENDBRANCH  19  20
ENDBRANCH   1  19
TORSDOF 18
