REMARK SMILES CC[C@@]1(CO)CCCN(c2nc(-c3ccc(C)s3)ccc2C(=O)NCCCNC(=O)c2ccc(-c3c4nc(c(-c5cc(S(=O)(=O)[O-])ccc5F)c5ccc([nH]5)c(-c5cc(S(=O)(=O)[O-])ccc5F)c5nc(c(-c6cc(S(=O)(=O)[O-])ccc6F)c6ccc3[nH]6)C=C5)C=C4)cc2)C1
REMARK SMILES IDX 26 1 25 2 24 3 22 4 23 5 21 7 10 8 11 9 12 10 20 11 19 12
REMARK SMILES IDX 9 13 3 14 6 15 94 16 7 17 8 18 2 19 1 20 4 21 5 22 13 24
REMARK SMILES IDX 14 25 18 26 15 27 16 28 17 29 27 30 28 31 29 32 30 34 31 35
REMARK SMILES IDX 32 36 93 37 33 38 92 39 34 40 35 41 36 42 86 43 37 44 91 45
REMARK SMILES IDX 85 46 87 47 38 48 90 49 84 50 83 51 39 53 71 54 51 55 70 56
REMARK SMILES IDX 52 57 55 58 69 59 88 60 53 61 54 62 68 64 89 65 56 66 40 67
REMARK SMILES IDX 41 68 49 69 42 70 48 71 50 72 47 73 43 74 44 75 45 76 46 77
REMARK SMILES IDX 72 78 73 79 81 80 74 81 80 82 82 83 79 84 75 85 76 86 77 87
REMARK SMILES IDX 78 88 57 89 58 90 66 91 59 92 65 93 67 94 64 95 60 96 61 97
REMARK SMILES IDX 62 98 63 99
REMARK H PARENT 24 6 5 23 28 33 87 52 55 63
REMARK Flexibility Score: inf
ROOT
ATOM      1  C   UNL     1      -3.133   9.152   3.688  1.00  0.00     0.042 C 
ENDROOT
BRANCH   1   2
ATOM      2  C   UNL     1      -3.065   8.673   2.237  1.00  0.00     0.118 C 
BRANCH   2   3
ATOM      3  N   UNL     1      -1.746   8.159   1.924  1.00  0.00    -0.352 N 
ATOM      4  C   UNL     1      -1.147   6.923   1.922  1.00  0.00     0.255 C 
ATOM      5  O   UNL     1       0.043   6.970   1.619  1.00  0.00    -0.269 OA
ATOM      6  H   UNL     1      -1.127   8.872   1.644  1.00  0.00     0.163 HD
BRANCH   4   7
ATOM      7  C   UNL     1      -1.864   5.630   2.200  1.00  0.00     0.082 A 
ATOM      8  C   UNL     1      -1.408   4.394   1.686  1.00  0.00     0.142 A 
ATOM      9  N   UNL     1      -2.211   3.286   1.693  1.00  0.00    -0.229 NA
ATOM     10  C   UNL     1      -3.415   3.347   2.298  1.00  0.00     0.083 A 
ATOM     11  C   UNL     1      -3.073   5.615   2.906  1.00  0.00     0.020 A 
ATOM     12  C   UNL     1      -3.868   4.477   2.945  1.00  0.00     0.031 A 
BRANCH   8  13
ATOM     13  N   UNL     1      -0.158   4.167   1.158  1.00  0.00    -0.355 N 
ATOM     14  C   UNL     1       0.854   2.373  -0.217  1.00  0.00     0.011 C 
ATOM     15  C   UNL     1       2.196   2.695   0.503  1.00  0.00     0.013 C 
ATOM     16  C   UNL     1      -0.053   3.624  -0.183  1.00  0.00     0.127 C 
ATOM     17  C   UNL     1       1.998   3.275   1.906  1.00  0.00     0.022 C 
ATOM     18  C   UNL     1       1.069   4.486   1.878  1.00  0.00     0.118 C 
BRANCH  14  19
ATOM     19  C   UNL     1       1.196   2.019  -1.696  1.00  0.00     0.008 C 
ATOM     20  C   UNL     1       0.002   1.675  -2.579  1.00  0.00     0.004 C 
ENDBRANCH  14  19
BRANCH  14  21
ATOM     21  C   UNL     1       0.134   1.198   0.489  1.00  0.00     0.164 C 
BRANCH  21  22
ATOM     22  O   UNL     1       0.864  -0.019   0.334  1.00  0.00    -0.396 OA
ATOM     23  H   UNL     1       0.936  -0.234  -0.610  1.00  0.00     0.210 HD
ENDBRANCH  21  22
ENDBRANCH  14  21
ENDBRANCH   8  13
BRANCH  10  24
ATOM     24  C   UNL     1      -4.261   2.161   2.215  1.00  0.00     0.053 A 
ATOM     25  C   UNL     1      -5.467   2.014   1.555  1.00  0.00     0.022 A 
ATOM     26  S   UNL     1      -3.853   0.749   3.089  1.00  0.00    -0.139 S 
ATOM     27  C   UNL     1      -6.080   0.755   1.816  1.00  0.00     0.016 A 
ATOM     28  C   UNL     1      -5.323  -0.023   2.667  1.00  0.00     0.002 A 
ATOM     29  C   UNL     1      -5.644  -1.367   3.224  1.00  0.00     0.056 C 
ENDBRANCH  10  24
ENDBRANCH   4   7
ENDBRANCH   2   3
ENDBRANCH   1   2
BRANCH   1  30
ATOM     30  C   UNL     1      -2.246  10.364   3.973  1.00  0.00     0.118 C 
BRANCH  30  31
ATOM     31  N   UNL     1      -2.693  11.542   3.249  1.00  0.00    -0.352 N 
ATOM     32  C   UNL     1      -3.167  12.738   3.719  1.00  0.00     0.251 C 
ATOM     33  H   UNL     1      -2.649  11.469   2.269  1.00  0.00     0.163 HD
ATOM     34  O   UNL     1      -3.759  13.486   2.938  1.00  0.00    -0.269 OA
BRANCH  32  35
ATOM     35  C   UNL     1      -2.981  13.137   5.132  1.00  0.00     0.039 A 
ATOM     36  C   UNL     1      -3.997  13.862   5.762  1.00  0.00     0.014 A 
ATOM     37  C   UNL     1      -1.789  12.875   5.814  1.00  0.00     0.014 A 
ATOM     38  C   UNL     1      -3.830  14.297   7.079  1.00  0.00     0.010 A 
ATOM     39  C   UNL     1      -1.652  13.248   7.151  1.00  0.00     0.010 A 
ATOM     40  C   UNL     1      -2.663  13.979   7.792  1.00  0.00    -0.014 A 
BRANCH  40  41
ATOM     41  C   UNL     1      -2.478  14.438   9.193  1.00  0.00     0.031 A 
ATOM     42  C   UNL     1      -1.391  15.425   9.529  1.00  0.00     0.074 A 
ATOM     43  C   UNL     1      -3.261  13.933  10.166  1.00  0.00     0.049 A 
ATOM     44  N   UNL     1      -1.047  15.915  10.693  1.00  0.00    -0.248 NA
ATOM     45  C   UNL     1      -0.563  15.900   8.411  1.00  0.00     0.031 C 
ATOM     46  C   UNL     1      -4.314  12.934   9.969  1.00  0.00     0.029 A 
ATOM     47  N   UNL     1      -3.293  14.185  11.514  1.00  0.00    -0.354 N 
ATOM     48  C   UNL     1       0.047  16.741  10.451  1.00  0.00     0.074 A 
ATOM     49  C   UNL     1       0.342  16.637   9.037  1.00  0.00     0.031 C 
ATOM     50  C   UNL     1      -4.901  12.675  11.148  1.00  0.00     0.029 A 
ATOM     51  C   UNL     1      -4.247  13.460  12.190  1.00  0.00     0.049 A 
ATOM     52  H   UNL     1      -2.689  14.824  11.957  1.00  0.00     0.167 HD
ATOM     53  C   UNL     1       0.728  17.527  11.322  1.00  0.00     0.034 A 
ATOM     54  C   UNL     1      -4.556  13.428  13.501  1.00  0.00     0.034 A 
ATOM     55  C   UNL     1       0.406  17.632  12.725  1.00  0.00     0.049 A 
ATOM     56  C   UNL     1      -3.800  14.326  14.446  1.00  0.00     0.074 A 
ATOM     57  C   UNL     1       0.989  18.440  13.687  1.00  0.00     0.029 A 
ATOM     58  N   UNL     1      -0.585  16.902  13.370  1.00  0.00    -0.354 N 
ATOM     59  N   UNL     1      -2.806  15.145  14.190  1.00  0.00    -0.248 NA
ATOM     60  C   UNL     1      -4.223  14.309  15.851  1.00  0.00     0.031 C 
ATOM     61  C   UNL     1       0.392  18.155  14.921  1.00  0.00     0.029 A 
ATOM     62  C   UNL     1      -0.614  17.223  14.720  1.00  0.00     0.049 A 
ATOM     63  H   UNL     1      -1.181  16.252  12.933  1.00  0.00     0.167 HD
ATOM     64  C   UNL     1      -2.502  15.760  15.401  1.00  0.00     0.074 A 
ATOM     65  C   UNL     1      -3.435  15.235  16.378  1.00  0.00     0.031 C 
ATOM     66  C   UNL     1      -1.540  16.677  15.684  1.00  0.00     0.034 A 
BRANCH  53  67
ATOM     67  C   UNL     1       1.903  18.310  10.781  1.00  0.00     0.023 A 
ATOM     68  C   UNL     1       1.742  19.299   9.794  1.00  0.00     0.031 A 
ATOM     69  C   UNL     1       3.207  18.044  11.235  1.00  0.00     0.131 A 
ATOM     70  C   UNL     1       2.867  19.928   9.239  1.00  0.00     0.055 A 
ATOM     71  C   UNL     1       4.316  18.732  10.738  1.00  0.00     0.041 A 
ATOM     72  F   UNL     1       3.428  17.099  12.162  1.00  0.00    -0.206 F 
ATOM     73  C   UNL     1       4.152  19.669   9.722  1.00  0.00     0.022 A 
BRANCH  70  74
ATOM     74  S   UNL     1       2.641  20.982   7.780  1.00  0.00     0.124 S 
ATOM     75  O   UNL     1       2.059  20.041   6.825  1.00  0.00    -0.237 OA
ATOM     76  O   UNL     1       1.748  22.022   8.277  1.00  0.00    -0.237 OA
ATOM     77  O   UNL     1       3.997  21.423   7.462  1.00  0.00    -0.744 OA
ENDBRANCH  70  74
ENDBRANCH  53  67
BRANCH  54  78
ATOM     78  C   UNL     1      -5.628  12.521  14.002  1.00  0.00     0.023 A 
ATOM     79  C   UNL     1      -6.811  13.034  14.556  1.00  0.00     0.031 A 
ATOM     80  C   UNL     1      -5.466  11.125  13.968  1.00  0.00     0.131 A 
ATOM     81  C   UNL     1      -7.766  12.161  15.099  1.00  0.00     0.055 A 
ATOM     82  C   UNL     1      -6.441  10.258  14.463  1.00  0.00     0.041 A 
ATOM     83  F   UNL     1      -4.358  10.582  13.439  1.00  0.00    -0.206 F 
ATOM     84  C   UNL     1      -7.594  10.775  15.046  1.00  0.00     0.022 A 
BRANCH  81  85
ATOM     85  S   UNL     1      -9.204  12.866  15.950  1.00  0.00     0.124 S 
ATOM     86  O   UNL     1      -8.571  13.683  16.978  1.00  0.00    -0.237 OA
ATOM     87  O   UNL     1      -9.867  13.591  14.871  1.00  0.00    -0.237 OA
ATOM     88  O   UNL     1      -9.920  11.690  16.439  1.00  0.00    -0.744 OA
ENDBRANCH  81  85
ENDBRANCH  54  78
BRANCH  66  89
ATOM     89  C   UNL     1      -1.486  17.188  17.103  1.00  0.00     0.023 A 
ATOM     90  C   UNL     1      -1.145  16.348  18.177  1.00  0.00     0.031 A 
ATOM     91  C   UNL     1      -1.816  18.525  17.387  1.00  0.00     0.131 A 
ATOM     92  C   UNL     1      -1.210  16.832  19.492  1.00  0.00     0.055 A 
ATOM     93  C   UNL     1      -1.817  19.019  18.692  1.00  0.00     0.041 A 
ATOM     94  F   UNL     1      -2.152  19.371  16.401  1.00  0.00    -0.206 F 
ATOM     95  C   UNL     1      -1.530  18.167  19.755  1.00  0.00     0.022 A 
BRANCH  92  96
ATOM     96  S   UNL     1      -0.987  15.664  20.861  1.00  0.00     0.124 S 
ATOM     97  O   UNL     1      -2.012  14.665  20.579  1.00  0.00    -0.237 OA
ATOM     98  O   UNL     1       0.394  15.230  20.677  1.00  0.00    -0.237 OA
ATOM     99  O   UNL     1      -1.226  16.480  22.050  1.00  0.00    -0.744 OA
ENDBRANCH  92  96
ENDBRANCH  66  89
ENDBRANCH  40  41
ENDBRANCH  32  35
ENDBRANCH  30  31
ENDBRANCH   1  30
TORSDOF 18
