REMARK SMILES CC[C@](C)(NC(=O)CNC(=O)c1cccc(Cl)c1)C(=O)NCCCNC(=O)c1ccc(-c2c3nc(c(-c4cc(S(=O)(=O)[O-])ccc4F)c4ccc([nH]4)c(-c4cc(S(=O)(=O)[O-])ccc4F)c4nc(c(-c5cc(S(=O)(=O)[O-])ccc5F)c5ccc2[nH]5)C=C4)C=C3)cc1
REMARK SMILES IDX 22 1 21 2 19 3 20 4 3 6 4 7 2 8 1 9 5 10 6 11 7 13 8 14 9 15
REMARK SMILES IDX 10 16 11 18 12 19 13 20 18 21 14 22 16 23 15 24 17 25 23 26
REMARK SMILES IDX 24 27 25 28 26 29 27 31 28 32 29 33 90 34 30 35 89 36 31 37
REMARK SMILES IDX 32 38 33 39 83 40 34 41 88 42 82 43 84 44 35 45 87 46 81 47
REMARK SMILES IDX 80 48 36 50 68 51 48 52 67 53 49 54 52 55 66 56 85 57 50 58
REMARK SMILES IDX 51 59 65 61 86 62 53 63 37 64 38 65 46 66 39 67 45 68 47 69
REMARK SMILES IDX 44 70 40 71 41 72 42 73 43 74 69 75 70 76 78 77 71 78 77 79
REMARK SMILES IDX 79 80 76 81 72 82 73 83 74 84 75 85 54 86 55 87 63 88 56 89
REMARK SMILES IDX 62 90 64 91 61 92 57 93 58 94 59 95 60 96
REMARK H PARENT 21 5 5 12 9 17 25 30 84 49 52 60
REMARK Flexibility Score: inf
ROOT
ATOM      1  C   UNL     1       1.980   3.226  -4.150  1.00  0.00     0.117 C 
ENDROOT
BRANCH   1   2
ATOM      2  N   UNL     1       2.541   2.263  -3.209  1.00  0.00    -0.354 N 
ATOM      3  C   UNL     1       1.989   1.615  -2.130  1.00  0.00     0.245 C 
ATOM      4  O   UNL     1       2.460   0.516  -1.831  1.00  0.00    -0.272 OA
ATOM      5  H   UNL     1       3.484   2.036  -3.377  1.00  0.00     0.163 HD
BRANCH   3   6
ATOM      6  C   UNL     1       0.726   2.121  -1.409  1.00  0.00     0.116 C 
ATOM      7  C   UNL     1       0.567   1.557   0.018  1.00  0.00     0.045 C 
BRANCH   6   8
ATOM      8  C   UNL     1      -0.474   1.610  -2.272  1.00  0.00     0.035 C 
ATOM      9  C   UNL     1      -0.691   0.090  -2.234  1.00  0.00     0.007 C 
ENDBRANCH   6   8
BRANCH   6  10
ATOM     10  N   UNL     1       0.742   3.591  -1.300  1.00  0.00    -0.340 N 
ATOM     11  C   UNL     1       1.662   4.384  -0.657  1.00  0.00     0.240 C 
ATOM     12  H   UNL     1       0.001   4.064  -1.744  1.00  0.00     0.164 HD
ATOM     13  O   UNL     1       1.254   5.466  -0.226  1.00  0.00    -0.273 OA
BRANCH  11  14
ATOM     14  C   UNL     1       3.175   4.032  -0.586  1.00  0.00     0.216 C 
BRANCH  14  15
ATOM     15  N   UNL     1       3.675   3.067   0.377  1.00  0.00    -0.343 N 
ATOM     16  C   UNL     1       4.661   2.107   0.279  1.00  0.00     0.251 C 
ATOM     17  H   UNL     1       3.231   3.103   1.255  1.00  0.00     0.164 HD
ATOM     18  O   UNL     1       5.039   1.540   1.303  1.00  0.00    -0.269 OA
BRANCH  16  19
ATOM     19  C   UNL     1       5.217   1.647  -1.021  1.00  0.00     0.041 A 
ATOM     20  C   UNL     1       5.803   2.489  -1.968  1.00  0.00     0.014 A 
ATOM     21  C   UNL     1       5.121   0.273  -1.291  1.00  0.00     0.034 A 
ATOM     22  C   UNL     1       6.170   1.981  -3.224  1.00  0.00     0.002 A 
ATOM     23  C   UNL     1       5.450  -0.219  -2.553  1.00  0.00     0.041 A 
ATOM     24  C   UNL     1       5.959   0.633  -3.529  1.00  0.00     0.020 A 
ATOM     25  Cl  UNL     1       5.151  -1.872  -2.933  1.00  0.00    -0.084 Cl
ENDBRANCH  16  19
ENDBRANCH  14  15
ENDBRANCH  11  14
ENDBRANCH   6  10
ENDBRANCH   3   6
ENDBRANCH   1   2
BRANCH   1  26
ATOM     26  C   UNL     1       2.461   4.675  -4.079  1.00  0.00     0.042 C 
BRANCH  26  27
ATOM     27  C   UNL     1       3.955   4.952  -4.175  1.00  0.00     0.118 C 
BRANCH  27  28
ATOM     28  N   UNL     1       4.588   4.425  -5.366  1.00  0.00    -0.352 N 
ATOM     29  C   UNL     1       5.415   5.054  -6.266  1.00  0.00     0.251 C 
ATOM     30  H   UNL     1       4.398   3.479  -5.559  1.00  0.00     0.163 HD
ATOM     31  O   UNL     1       5.803   4.429  -7.251  1.00  0.00    -0.269 OA
BRANCH  29  32
ATOM     32  C   UNL     1       5.804   6.472  -6.083  1.00  0.00     0.039 A 
ATOM     33  C   UNL     1       5.686   7.336  -7.175  1.00  0.00     0.014 A 
ATOM     34  C   UNL     1       6.292   6.956  -4.865  1.00  0.00     0.014 A 
ATOM     35  C   UNL     1       5.995   8.692  -7.032  1.00  0.00     0.010 A 
ATOM     36  C   UNL     1       6.544   8.323  -4.707  1.00  0.00     0.010 A 
ATOM     37  C   UNL     1       6.395   9.207  -5.788  1.00  0.00    -0.014 A 
BRANCH  37  38
ATOM     38  C   UNL     1       6.656  10.665  -5.618  1.00  0.00     0.031 A 
ATOM     39  C   UNL     1       8.041  11.162  -5.298  1.00  0.00     0.074 A 
ATOM     40  C   UNL     1       5.638  11.545  -5.725  1.00  0.00     0.049 A 
ATOM     41  N   UNL     1       8.454  12.387  -5.088  1.00  0.00    -0.248 NA
ATOM     42  C   UNL     1       9.094  10.145  -5.178  1.00  0.00     0.031 C 
ATOM     43  C   UNL     1       4.245  11.191  -6.005  1.00  0.00     0.029 A 
ATOM     44  N   UNL     1       5.614  12.914  -5.612  1.00  0.00    -0.354 N 
ATOM     45  C   UNL     1       9.813  12.289  -4.807  1.00  0.00     0.074 A 
ATOM     46  C   UNL     1      10.136  10.877  -4.814  1.00  0.00     0.031 C 
ATOM     47  C   UNL     1       3.510  12.313  -6.067  1.00  0.00     0.029 A 
ATOM     48  C   UNL     1       4.364  13.463  -5.786  1.00  0.00     0.049 A 
ATOM     49  H   UNL     1       6.416  13.452  -5.423  1.00  0.00     0.167 HD
ATOM     50  C   UNL     1      10.711  13.282  -4.587  1.00  0.00     0.034 A 
ATOM     51  C   UNL     1       3.946  14.744  -5.715  1.00  0.00     0.034 A 
ATOM     52  C   UNL     1      10.376  14.687  -4.585  1.00  0.00     0.049 A 
ATOM     53  C   UNL     1       4.955  15.828  -5.422  1.00  0.00     0.074 A 
ATOM     54  C   UNL     1      11.219  15.773  -4.418  1.00  0.00     0.029 A 
ATOM     55  N   UNL     1       9.096  15.203  -4.743  1.00  0.00    -0.354 N 
ATOM     56  N   UNL     1       6.247  15.719  -5.210  1.00  0.00    -0.248 NA
ATOM     57  C   UNL     1       4.452  17.206  -5.371  1.00  0.00     0.031 C 
ATOM     58  C   UNL     1      10.441  16.936  -4.399  1.00  0.00     0.029 A 
ATOM     59  C   UNL     1       9.123  16.586  -4.641  1.00  0.00     0.049 A 
ATOM     60  H   UNL     1       8.287  14.665  -4.905  1.00  0.00     0.167 HD
ATOM     61  C   UNL     1       6.712  17.020  -5.033  1.00  0.00     0.074 A 
ATOM     62  C   UNL     1       5.568  17.894  -5.180  1.00  0.00     0.031 C 
ATOM     63  C   UNL     1       7.974  17.452  -4.778  1.00  0.00     0.034 A 
BRANCH  50  64
ATOM     64  C   UNL     1      12.139  12.877  -4.301  1.00  0.00     0.023 A 
ATOM     65  C   UNL     1      12.914  12.182  -5.247  1.00  0.00     0.031 A 
ATOM     66  C   UNL     1      12.730  13.171  -3.059  1.00  0.00     0.131 A 
ATOM     67  C   UNL     1      14.200  11.735  -4.908  1.00  0.00     0.055 A 
ATOM     68  C   UNL     1      14.043  12.799  -2.760  1.00  0.00     0.041 A 
ATOM     69  F   UNL     1      12.037  13.815  -2.107  1.00  0.00    -0.206 F 
ATOM     70  C   UNL     1      14.780  12.062  -3.681  1.00  0.00     0.022 A 
BRANCH  67  71
ATOM     71  S   UNL     1      15.041  10.589  -6.035  1.00  0.00     0.124 S 
ATOM     72  O   UNL     1      14.084   9.487  -6.102  1.00  0.00    -0.237 OA
ATOM     73  O   UNL     1      15.183  11.386  -7.248  1.00  0.00    -0.237 OA
ATOM     74  O   UNL     1      16.288  10.279  -5.341  1.00  0.00    -0.744 OA
ENDBRANCH  67  71
ENDBRANCH  50  64
BRANCH  51  75
ATOM     75  C   UNL     1       2.505  15.083  -5.906  1.00  0.00     0.023 A 
ATOM     76  C   UNL     1       2.085  15.894  -6.973  1.00  0.00     0.031 A 
ATOM     77  C   UNL     1       1.532  14.645  -4.991  1.00  0.00     0.131 A 
ATOM     78  C   UNL     1       0.739  16.282  -7.070  1.00  0.00     0.055 A 
ATOM     79  C   UNL     1       0.185  14.985  -5.124  1.00  0.00     0.041 A 
ATOM     80  F   UNL     1       1.877  13.867  -3.952  1.00  0.00    -0.206 F 
ATOM     81  C   UNL     1      -0.216  15.821  -6.162  1.00  0.00     0.022 A 
BRANCH  78  82
ATOM     82  S   UNL     1       0.269  17.477  -8.351  1.00  0.00     0.124 S 
ATOM     83  O   UNL     1       1.127  18.611  -8.027  1.00  0.00    -0.237 OA
ATOM     84  O   UNL     1       0.596  16.753  -9.575  1.00  0.00    -0.237 OA
ATOM     85  O   UNL     1      -1.158  17.685  -8.115  1.00  0.00    -0.744 OA
ENDBRANCH  78  82
ENDBRANCH  51  75
BRANCH  63  86
ATOM     86  C   UNL     1       8.188  18.946  -4.691  1.00  0.00     0.023 A 
ATOM     87  C   UNL     1       7.620  19.720  -3.665  1.00  0.00     0.031 A 
ATOM     88  C   UNL     1       8.969  19.604  -5.659  1.00  0.00     0.131 A 
ATOM     89  C   UNL     1       7.792  21.113  -3.662  1.00  0.00     0.055 A 
ATOM     90  C   UNL     1       9.191  20.981  -5.613  1.00  0.00     0.041 A 
ATOM     91  F   UNL     1       9.533  18.917  -6.665  1.00  0.00    -0.206 F 
ATOM     92  C   UNL     1       8.590  21.746  -4.619  1.00  0.00     0.022 A 
BRANCH  89  93
ATOM     93  S   UNL     1       6.880  22.103  -2.445  1.00  0.00     0.124 S 
ATOM     94  O   UNL     1       5.496  21.748  -2.742  1.00  0.00    -0.237 OA
ATOM     95  O   UNL     1       7.408  21.606  -1.179  1.00  0.00    -0.237 OA
ATOM     96  O   UNL     1       7.252  23.478  -2.773  1.00  0.00    -0.744 OA
ENDBRANCH  89  93
ENDBRANCH  63  86
ENDBRANCH  37  38
ENDBRANCH  29  32
ENDBRANCH  27  28
ENDBRANCH  26  27
ENDBRANCH   1  26
TORSDOF 18
