REMARK SMILES [NH2+]=C1S[C@@H](C(=O)Nc2ccc(C(=O)NCCCNC(=O)c3ccc(-c4c5nc(c(-c6cc(S(=O)(=O)[O-])ccc6F)c6ccc([nH]6)c(-c6cc(S(=O)(=O)[O-])ccc6F)c6nc(c(-c7cc(S(=O)(=O)[O-])ccc7F)c7ccc4[nH]7)C=C6)C=C5)cc3)cc2)CC(=O)N1/N=C/c1ccc(Cl)cc1
REMARK SMILES IDX 15 1 14 2 12 3 13 4 11 6 8 7 9 8 85 9 10 10 84 11 7 12 5 13
REMARK SMILES IDX 6 14 4 16 1 17 2 18 3 21 89 22 87 23 86 24 88 25 90 26 91 27
REMARK SMILES IDX 92 28 93 29 98 30 94 31 97 32 95 33 96 34 16 35 17 36 18 37
REMARK SMILES IDX 19 38 20 40 21 41 22 42 83 43 23 44 82 45 24 46 25 47 26 48
REMARK SMILES IDX 76 49 27 50 81 51 75 52 77 53 28 54 80 55 74 56 73 57 29 59
REMARK SMILES IDX 61 60 41 61 60 62 42 63 45 64 59 65 78 66 43 67 44 68 58 70
REMARK SMILES IDX 79 71 46 72 30 73 31 74 39 75 32 76 38 77 40 78 37 79 33 80
REMARK SMILES IDX 34 81 35 82 36 83 62 84 63 85 71 86 64 87 70 88 72 89 69 90
REMARK SMILES IDX 65 91 66 92 67 93 68 94 47 95 48 96 56 97 49 98 55 99 57 100
REMARK SMILES IDX 54 101 50 102 51 103 52 104 53 105
REMARK H PARENT 14 5 7 15 1 19 1 20 18 39 77 58 45 69
REMARK Flexibility Score: inf
ROOT
ATOM      1  C   UNL     1      -4.875   0.396   0.627  1.00  0.00     0.118 C 
ENDROOT
BRANCH   1   2
ATOM      2  N   UNL     1      -4.981  -0.970   0.123  1.00  0.00    -0.352 N 
ATOM      3  C   UNL     1      -4.121  -1.671  -0.686  1.00  0.00     0.251 C 
ATOM      4  O   UNL     1      -4.245  -2.888  -0.797  1.00  0.00    -0.269 OA
ATOM      5  H   UNL     1      -5.787  -1.460   0.405  1.00  0.00     0.163 HD
BRANCH   3   6
ATOM      6  C   UNL     1      -2.991  -0.993  -1.359  1.00  0.00     0.039 A 
ATOM      7  C   UNL     1      -0.768   0.335  -2.386  1.00  0.00     0.041 A 
ATOM      8  C   UNL     1      -0.620  -0.940  -1.839  1.00  0.00     0.027 A 
ATOM      9  C   UNL     1      -2.041   0.878  -2.556  1.00  0.00     0.027 A 
ATOM     10  C   UNL     1      -1.729  -1.594  -1.300  1.00  0.00     0.016 A 
ATOM     11  C   UNL     1      -3.157   0.208  -2.052  1.00  0.00     0.016 A 
BRANCH   7  12
ATOM     12  N   UNL     1       0.371   0.992  -2.841  1.00  0.00    -0.325 N 
ATOM     13  C   UNL     1       0.783   2.281  -2.689  1.00  0.00     0.238 C 
ATOM     14  O   UNL     1       1.618   2.696  -3.505  1.00  0.00    -0.273 OA
ATOM     15  H   UNL     1       0.986   0.427  -3.363  1.00  0.00     0.169 HD
BRANCH  13  16
ATOM     16  C   UNL     1       0.473   3.130  -1.441  1.00  0.00     0.160 C 
ATOM     17  N   UNL     1       1.154   0.262   0.910  1.00  0.00    -0.279 N 
ATOM     18  C   UNL     1       0.537   1.339   0.558  1.00  0.00     0.338 C 
ATOM     19  H   UNL     1       2.128   0.190   0.786  1.00  0.00     0.302 HD
ATOM     20  H   UNL     1       0.651  -0.488   1.302  1.00  0.00     0.302 HD
ATOM     21  S   UNL     1       1.525   2.618  -0.063  1.00  0.00    -0.022 SA
ATOM     22  N   UNL     1      -0.835   1.552   0.686  1.00  0.00    -0.057 N 
ATOM     23  C   UNL     1      -1.558   2.607   0.112  1.00  0.00     0.337 C 
ATOM     24  C   UNL     1      -0.925   3.440  -0.986  1.00  0.00     0.155 C 
ATOM     25  O   UNL     1      -2.701   2.923   0.467  1.00  0.00    -0.244 OA
BRANCH  22  26
ATOM     26  N   UNL     1      -1.636   0.654   1.415  1.00  0.00    -0.082 NA
ATOM     27  C   UNL     1      -1.175   0.178   2.527  1.00  0.00     0.167 C 
BRANCH  27  28
ATOM     28  C   UNL     1      -1.990  -0.710   3.384  1.00  0.00    -0.003 A 
ATOM     29  C   UNL     1      -1.888  -0.553   4.769  1.00  0.00     0.011 A 
ATOM     30  C   UNL     1      -2.878  -1.645   2.849  1.00  0.00     0.011 A 
ATOM     31  C   UNL     1      -2.704  -1.308   5.617  1.00  0.00     0.021 A 
ATOM     32  C   UNL     1      -3.693  -2.402   3.698  1.00  0.00     0.021 A 
ATOM     33  C   UNL     1      -3.607  -2.225   5.078  1.00  0.00     0.041 A 
ATOM     34  Cl  UNL     1      -4.617  -3.140   6.127  1.00  0.00    -0.084 Cl
ENDBRANCH  27  28
ENDBRANCH  22  26
ENDBRANCH  13  16
ENDBRANCH   7  12
ENDBRANCH   3   6
ENDBRANCH   1   2
BRANCH   1  35
ATOM     35  C   UNL     1      -6.096   1.227   0.269  1.00  0.00     0.042 C 
BRANCH  35  36
ATOM     36  C   UNL     1      -7.306   0.879   1.125  1.00  0.00     0.118 C 
BRANCH  36  37
ATOM     37  N   UNL     1      -7.280   1.534   2.426  1.00  0.00    -0.352 N 
ATOM     38  C   UNL     1      -8.268   2.279   3.038  1.00  0.00     0.251 C 
ATOM     39  H   UNL     1      -6.446   1.431   2.938  1.00  0.00     0.163 HD
ATOM     40  O   UNL     1      -8.026   2.891   4.068  1.00  0.00    -0.269 OA
BRANCH  38  41
ATOM     41  C   UNL     1      -9.608   2.364   2.409  1.00  0.00     0.039 A 
ATOM     42  C   UNL     1     -10.220   3.614   2.284  1.00  0.00     0.014 A 
ATOM     43  C   UNL     1     -10.238   1.223   1.907  1.00  0.00     0.014 A 
ATOM     44  C   UNL     1     -11.424   3.728   1.583  1.00  0.00     0.010 A 
ATOM     45  C   UNL     1     -11.389   1.351   1.135  1.00  0.00     0.010 A 
ATOM     46  C   UNL     1     -11.997   2.605   0.964  1.00  0.00    -0.014 A 
BRANCH  46  47
ATOM     47  C   UNL     1     -13.225   2.719   0.131  1.00  0.00     0.031 A 
ATOM     48  C   UNL     1     -14.472   1.970   0.519  1.00  0.00     0.074 A 
ATOM     49  C   UNL     1     -13.193   3.421  -1.019  1.00  0.00     0.049 A 
ATOM     50  N   UNL     1     -15.610   1.864  -0.119  1.00  0.00    -0.248 NA
ATOM     51  C   UNL     1     -14.413   1.207   1.774  1.00  0.00     0.031 C 
ATOM     52  C   UNL     1     -12.026   4.137  -1.540  1.00  0.00     0.029 A 
ATOM     53  N   UNL     1     -14.162   3.633  -1.969  1.00  0.00    -0.354 N 
ATOM     54  C   UNL     1     -16.392   1.002   0.643  1.00  0.00     0.074 A 
ATOM     55  C   UNL     1     -15.571   0.566   1.752  1.00  0.00     0.031 C 
ATOM     56  C   UNL     1     -12.351   4.720  -2.704  1.00  0.00     0.029 A 
ATOM     57  C   UNL     1     -13.732   4.386  -3.038  1.00  0.00     0.049 A 
ATOM     58  H   UNL     1     -15.077   3.280  -1.892  1.00  0.00     0.167 HD
ATOM     59  C   UNL     1     -17.682   0.628   0.447  1.00  0.00     0.034 A 
ATOM     60  C   UNL     1     -14.370   4.752  -4.168  1.00  0.00     0.034 A 
ATOM     61  C   UNL     1     -18.490   1.089  -0.657  1.00  0.00     0.049 A 
ATOM     62  C   UNL     1     -15.803   4.335  -4.366  1.00  0.00     0.074 A 
ATOM     63  C   UNL     1     -19.830   0.848  -0.905  1.00  0.00     0.029 A 
ATOM     64  N   UNL     1     -18.029   1.872  -1.709  1.00  0.00    -0.354 N 
ATOM     65  N   UNL     1     -16.558   3.584  -3.597  1.00  0.00    -0.248 NA
ATOM     66  C   UNL     1     -16.474   4.825  -5.576  1.00  0.00     0.031 C 
ATOM     67  C   UNL     1     -20.159   1.420  -2.139  1.00  0.00     0.029 A 
ATOM     68  C   UNL     1     -19.047   2.090  -2.626  1.00  0.00     0.049 A 
ATOM     69  H   UNL     1     -17.112   2.222  -1.791  1.00  0.00     0.167 HD
ATOM     70  C   UNL     1     -17.801   3.529  -4.221  1.00  0.00     0.074 A 
ATOM     71  C   UNL     1     -17.697   4.336  -5.420  1.00  0.00     0.031 C 
ATOM     72  C   UNL     1     -18.927   2.876  -3.833  1.00  0.00     0.034 A 
BRANCH  59  73
ATOM     73  C   UNL     1     -18.276  -0.352   1.436  1.00  0.00     0.023 A 
ATOM     74  C   UNL     1     -18.373  -0.054   2.807  1.00  0.00     0.031 A 
ATOM     75  C   UNL     1     -18.699  -1.624   1.012  1.00  0.00     0.131 A 
ATOM     76  C   UNL     1     -18.779  -1.045   3.714  1.00  0.00     0.055 A 
ATOM     77  C   UNL     1     -19.194  -2.574   1.908  1.00  0.00     0.041 A 
ATOM     78  F   UNL     1     -18.617  -1.977  -0.281  1.00  0.00    -0.206 F 
ATOM     79  C   UNL     1     -19.215  -2.295   3.272  1.00  0.00     0.022 A 
BRANCH  76  80
ATOM     80  S   UNL     1     -18.552  -0.737   5.488  1.00  0.00     0.124 S 
ATOM     81  O   UNL     1     -17.123  -0.438   5.555  1.00  0.00    -0.237 OA
ATOM     82  O   UNL     1     -19.452   0.385   5.730  1.00  0.00    -0.237 OA
ATOM     83  O   UNL     1     -18.946  -2.000   6.109  1.00  0.00    -0.744 OA
ENDBRANCH  76  80
ENDBRANCH  59  73
BRANCH  60  84
ATOM     84  C   UNL     1     -13.649   5.544  -5.204  1.00  0.00     0.023 A 
ATOM     85  C   UNL     1     -13.996   6.876  -5.477  1.00  0.00     0.031 A 
ATOM     86  C   UNL     1     -12.595   4.971  -5.939  1.00  0.00     0.131 A 
ATOM     87  C   UNL     1     -13.313   7.584  -6.479  1.00  0.00     0.055 A 
ATOM     88  C   UNL     1     -11.891   5.693  -6.904  1.00  0.00     0.041 A 
ATOM     89  F   UNL     1     -12.218   3.703  -5.709  1.00  0.00    -0.206 F 
ATOM     90  C   UNL     1     -12.255   7.006  -7.184  1.00  0.00     0.022 A 
BRANCH  87  91
ATOM     91  S   UNL     1     -13.858   9.267  -6.883  1.00  0.00     0.124 S 
ATOM     92  O   UNL     1     -15.229   9.037  -7.325  1.00  0.00    -0.237 OA
ATOM     93  O   UNL     1     -13.701   9.952  -5.605  1.00  0.00    -0.237 OA
ATOM     94  O   UNL     1     -12.926   9.684  -7.929  1.00  0.00    -0.744 OA
ENDBRANCH  87  91
ENDBRANCH  60  84
BRANCH  72  95
ATOM     95  C   UNL     1     -20.150   3.039  -4.705  1.00  0.00     0.023 A 
ATOM     96  C   UNL     1     -20.205   2.519  -6.010  1.00  0.00     0.031 A 
ATOM     97  C   UNL     1     -21.274   3.733  -4.222  1.00  0.00     0.131 A 
ATOM     98  C   UNL     1     -21.339   2.746  -6.805  1.00  0.00     0.055 A 
ATOM     99  C   UNL     1     -22.423   3.902  -4.996  1.00  0.00     0.041 A 
ATOM    100  F   UNL     1     -21.276   4.255  -2.985  1.00  0.00    -0.206 F 
ATOM    101  C   UNL     1     -22.455   3.418  -6.300  1.00  0.00     0.022 A 
BRANCH  98 102
ATOM    102  S   UNL     1     -21.303   2.230  -8.544  1.00  0.00     0.124 S 
ATOM    103  O   UNL     1     -20.153   2.969  -9.055  1.00  0.00    -0.237 OA
ATOM    104  O   UNL     1     -21.137   0.785  -8.438  1.00  0.00    -0.237 OA
ATOM    105  O   UNL     1     -22.599   2.669  -9.059  1.00  0.00    -0.744 OA
ENDBRANCH  98 102
ENDBRANCH  72  95
ENDBRANCH  46  47
ENDBRANCH  38  41
ENDBRANCH  36  37
ENDBRANCH  35  36
ENDBRANCH   1  35
TORSDOF 17
