REMARK SMILES NC(=O)c1cc(NC(=O)/C=C\C(=O)NCCCNC(=O)c2ccc(-c3c4nc(c(-c5cc(S(=O)(=O)[O-])ccc5F)c5ccc([nH]5)c(-c5cc(S(=O)(=O)[O-])ccc5F)c5nc(c(-c6cc(S(=O)(=O)[O-])ccc6F)c6ccc3[nH]6)C=C5)C=C4)cc2)ccc1N1CCOCC1
REMARK SMILES IDX 16 1 15 2 14 3 12 4 13 5 11 7 10 8 8 9 7 10 9 12 6 13 4 14
REMARK SMILES IDX 5 15 86 16 85 17 84 18 2 19 1 20 3 23 87 24 88 25 92 26
REMARK SMILES IDX 89 27 91 28 90 29 17 30 18 31 19 32 20 34 21 35 22 36 83 37
REMARK SMILES IDX 23 38 82 39 24 40 25 41 26 42 76 43 27 44 81 45 75 46 77 47
REMARK SMILES IDX 28 48 80 49 74 50 73 51 29 53 61 54 41 55 60 56 42 57 45 58
REMARK SMILES IDX 59 59 78 60 43 61 44 62 58 64 79 65 46 66 30 67 31 68 39 69
REMARK SMILES IDX 32 70 38 71 40 72 37 73 33 74 34 75 35 76 36 77 62 78 63 79
REMARK SMILES IDX 71 80 64 81 70 82 72 83 69 84 65 85 66 86 67 87 68 88 47 89
REMARK SMILES IDX 48 90 56 91 49 92 55 93 57 94 54 95 50 96 51 97 52 98 53 99
REMARK H PARENT 14 6 7 11 1 21 1 22 18 33 77 52 45 63
REMARK Flexibility Score: inf
ROOT
ATOM      1  C   UNL     1       1.069   5.647  -5.702  1.00  0.00     0.042 C 
ENDROOT
BRANCH   1   2
ATOM      2  C   UNL     1       0.018   4.543  -5.748  1.00  0.00     0.118 C 
BRANCH   2   3
ATOM      3  N   UNL     1       0.245   3.396  -4.894  1.00  0.00    -0.352 N 
ATOM      4  C   UNL     1      -0.521   3.003  -3.844  1.00  0.00     0.244 C 
ATOM      5  O   UNL     1      -0.791   1.815  -3.692  1.00  0.00    -0.270 OA
ATOM      6  H   UNL     1       1.036   2.844  -5.096  1.00  0.00     0.163 HD
BRANCH   4   7
ATOM      7  C   UNL     1      -1.053   3.985  -2.879  1.00  0.00     0.077 C 
ATOM      8  C   UNL     1      -0.378   4.906  -2.175  1.00  0.00     0.077 C 
BRANCH   8   9
ATOM      9  C   UNL     1       1.034   5.352  -2.252  1.00  0.00     0.248 C 
ATOM     10  N   UNL     1       2.082   4.513  -2.462  1.00  0.00    -0.322 N 
ATOM     11  H   UNL     1       2.904   4.965  -2.762  1.00  0.00     0.170 HD
ATOM     12  O   UNL     1       1.244   6.564  -2.171  1.00  0.00    -0.270 OA
BRANCH  10  13
ATOM     13  C   UNL     1       2.207   3.127  -2.332  1.00  0.00     0.042 A 
ATOM     14  C   UNL     1       1.536   0.976  -1.441  1.00  0.00     0.064 A 
ATOM     15  C   UNL     1       1.423   2.376  -1.467  1.00  0.00     0.042 A 
ATOM     16  C   UNL     1       2.470   0.296  -2.242  1.00  0.00     0.050 A 
ATOM     17  C   UNL     1       3.272   1.091  -3.082  1.00  0.00     0.029 A 
ATOM     18  C   UNL     1       3.166   2.482  -3.109  1.00  0.00     0.028 A 
BRANCH  14  19
ATOM     19  C   UNL     1       0.664   0.314  -0.456  1.00  0.00     0.250 C 
ATOM     20  N   UNL     1       1.049   0.461   0.847  1.00  0.00    -0.366 N 
ATOM     21  H   UNL     1       0.518   0.048   1.566  1.00  0.00     0.159 HD
ATOM     22  H   UNL     1       1.856   0.980   1.066  1.00  0.00     0.159 HD
ATOM     23  O   UNL     1      -0.357  -0.289  -0.762  1.00  0.00    -0.269 OA
ENDBRANCH  14  19
BRANCH  16  24
ATOM     24  N   UNL     1       2.742  -1.058  -2.221  1.00  0.00    -0.366 N 
ATOM     25  C   UNL     1       1.711  -2.104  -2.249  1.00  0.00     0.145 C 
ATOM     26  C   UNL     1       4.024  -1.477  -1.638  1.00  0.00     0.145 C 
ATOM     27  C   UNL     1       1.605  -2.832  -0.894  1.00  0.00     0.181 C 
ATOM     28  C   UNL     1       3.759  -2.085  -0.256  1.00  0.00     0.181 C 
ATOM     29  O   UNL     1       2.889  -3.225  -0.366  1.00  0.00    -0.378 OA
ENDBRANCH  16  24
ENDBRANCH  10  13
ENDBRANCH   8   9
ENDBRANCH   4   7
ENDBRANCH   2   3
ENDBRANCH   1   2
BRANCH   1  30
ATOM     30  C   UNL     1       2.523   5.223  -5.887  1.00  0.00     0.118 C 
BRANCH  30  31
ATOM     31  N   UNL     1       2.791   4.636  -7.186  1.00  0.00    -0.352 N 
ATOM     32  C   UNL     1       3.704   5.021  -8.136  1.00  0.00     0.251 C 
ATOM     33  H   UNL     1       2.241   3.853  -7.418  1.00  0.00     0.163 HD
ATOM     34  O   UNL     1       3.668   4.512  -9.252  1.00  0.00    -0.269 OA
BRANCH  32  35
ATOM     35  C   UNL     1       4.719   6.051  -7.823  1.00  0.00     0.039 A 
ATOM     36  C   UNL     1       4.836   7.159  -8.665  1.00  0.00     0.014 A 
ATOM     37  C   UNL     1       5.589   5.898  -6.738  1.00  0.00     0.014 A 
ATOM     38  C   UNL     1       5.806   8.131  -8.404  1.00  0.00     0.010 A 
ATOM     39  C   UNL     1       6.533   6.892  -6.458  1.00  0.00     0.010 A 
ATOM     40  C   UNL     1       6.657   8.017  -7.291  1.00  0.00    -0.014 A 
BRANCH  40  41
ATOM     41  C   UNL     1       7.677   9.066  -7.007  1.00  0.00     0.031 A 
ATOM     42  C   UNL     1       9.146   8.757  -7.112  1.00  0.00     0.074 A 
ATOM     43  C   UNL     1       7.283  10.298  -6.628  1.00  0.00     0.049 A 
ATOM     44  N   UNL     1      10.177   9.533  -6.884  1.00  0.00    -0.248 NA
ATOM     45  C   UNL     1       9.500   7.388  -7.505  1.00  0.00     0.031 C 
ATOM     46  C   UNL     1       5.892  10.720  -6.462  1.00  0.00     0.029 A 
ATOM     47  N   UNL     1       8.011  11.418  -6.308  1.00  0.00    -0.354 N 
ATOM     48  C   UNL     1      11.303   8.746  -7.100  1.00  0.00     0.074 A 
ATOM     49  C   UNL     1      10.822   7.416  -7.414  1.00  0.00     0.031 C 
ATOM     50  C   UNL     1       5.866  12.009  -6.089  1.00  0.00     0.029 A 
ATOM     51  C   UNL     1       7.236  12.495  -5.942  1.00  0.00     0.049 A 
ATOM     52  H   UNL     1       8.994  11.448  -6.338  1.00  0.00     0.167 HD
ATOM     53  C   UNL     1      12.614   9.102  -7.059  1.00  0.00     0.034 A 
ATOM     54  C   UNL     1       7.582  13.727  -5.518  1.00  0.00     0.034 A 
ATOM     55  C   UNL     1      13.077  10.432  -6.732  1.00  0.00     0.049 A 
ATOM     56  C   UNL     1       9.041  14.092  -5.427  1.00  0.00     0.074 A 
ATOM     57  C   UNL     1      14.376  10.912  -6.713  1.00  0.00     0.029 A 
ATOM     58  N   UNL     1      12.263  11.490  -6.343  1.00  0.00    -0.354 N 
ATOM     59  N   UNL     1      10.095  13.353  -5.689  1.00  0.00    -0.248 NA
ATOM     60  C   UNL     1       9.358  15.459  -4.995  1.00  0.00     0.031 C 
ATOM     61  C   UNL     1      14.355  12.224  -6.226  1.00  0.00     0.029 A 
ATOM     62  C   UNL     1      13.036  12.602  -6.036  1.00  0.00     0.049 A 
ATOM     63  H   UNL     1      11.281  11.455  -6.292  1.00  0.00     0.167 HD
ATOM     64  C   UNL     1      11.199  14.176  -5.479  1.00  0.00     0.074 A 
ATOM     65  C   UNL     1      10.681  15.469  -5.081  1.00  0.00     0.031 C 
ATOM     66  C   UNL     1      12.520  13.887  -5.616  1.00  0.00     0.034 A 
BRANCH  53  67
ATOM     67  C   UNL     1      13.635   8.018  -7.333  1.00  0.00     0.023 A 
ATOM     68  C   UNL     1      13.661   7.315  -8.551  1.00  0.00     0.031 A 
ATOM     69  C   UNL     1      14.563   7.643  -6.345  1.00  0.00     0.131 A 
ATOM     70  C   UNL     1      14.512   6.211  -8.707  1.00  0.00     0.055 A 
ATOM     71  C   UNL     1      15.480   6.608  -6.546  1.00  0.00     0.041 A 
ATOM     72  F   UNL     1      14.582   8.261  -5.153  1.00  0.00    -0.206 F 
ATOM     73  C   UNL     1      15.442   5.869  -7.724  1.00  0.00     0.022 A 
BRANCH  70  74
ATOM     74  S   UNL     1      14.244   5.109 -10.124  1.00  0.00     0.124 S 
ATOM     75  O   UNL     1      12.834   4.760  -9.963  1.00  0.00    -0.237 OA
ATOM     76  O   UNL     1      14.564   5.970 -11.257  1.00  0.00    -0.237 OA
ATOM     77  O   UNL     1      15.179   4.012  -9.887  1.00  0.00    -0.744 OA
ENDBRANCH  70  74
ENDBRANCH  53  67
BRANCH  54  78
ATOM     78  C   UNL     1       6.521  14.698  -5.121  1.00  0.00     0.023 A 
ATOM     79  C   UNL     1       6.298  15.879  -5.846  1.00  0.00     0.031 A 
ATOM     80  C   UNL     1       5.712  14.452  -3.996  1.00  0.00     0.131 A 
ATOM     81  C   UNL     1       5.308  16.781  -5.425  1.00  0.00     0.055 A 
ATOM     82  C   UNL     1       4.695  15.326  -3.612  1.00  0.00     0.041 A 
ATOM     83  F   UNL     1       5.884  13.337  -3.268  1.00  0.00    -0.206 F 
ATOM     84  C   UNL     1       4.493  16.503  -4.324  1.00  0.00     0.022 A 
BRANCH  81  85
ATOM     85  S   UNL     1       5.133  18.358  -6.304  1.00  0.00     0.124 S 
ATOM     86  O   UNL     1       6.447  18.958  -6.102  1.00  0.00    -0.237 OA
ATOM     87  O   UNL     1       4.830  17.918  -7.662  1.00  0.00    -0.237 OA
ATOM     88  O   UNL     1       4.031  19.017  -5.605  1.00  0.00    -0.744 OA
ENDBRANCH  81  85
ENDBRANCH  54  78
BRANCH  66  89
ATOM     89  C   UNL     1      13.504  15.009  -5.372  1.00  0.00     0.023 A 
ATOM     90  C   UNL     1      13.669  15.597  -4.105  1.00  0.00     0.031 A 
ATOM     91  C   UNL     1      14.293  15.498  -6.430  1.00  0.00     0.131 A 
ATOM     92  C   UNL     1      14.559  16.671  -3.941  1.00  0.00     0.055 A 
ATOM     93  C   UNL     1      15.225  16.520  -6.246  1.00  0.00     0.041 A 
ATOM     94  F   UNL     1      14.174  14.983  -7.665  1.00  0.00    -0.206 F 
ATOM     95  C   UNL     1      15.353  17.122  -4.998  1.00  0.00     0.022 A 
BRANCH  92  96
ATOM     96  S   UNL     1      14.597  17.540  -2.348  1.00  0.00     0.124 S 
ATOM     97  O   UNL     1      13.211  17.977  -2.210  1.00  0.00    -0.237 OA
ATOM     98  O   UNL     1      15.030  16.492  -1.430  1.00  0.00    -0.237 OA
ATOM     99  O   UNL     1      15.566  18.613  -2.565  1.00  0.00    -0.744 OA
ENDBRANCH  92  96
ENDBRANCH  66  89
ENDBRANCH  40  41
ENDBRANCH  32  35
ENDBRANCH  30  31
ENDBRANCH   1  30
TORSDOF 17
