REMARK SMILES O=C(CSc1ccc(NC(=O)c2cccc3ccccc23)cc1)NCCCNC(=O)c1ccc(-c2c3nc(c(-c4cc(S(=O)(=O)[O-])ccc4F)c4ccc([nH]4)c(-c4cc(S(=O)(=O)[O-])ccc4F)c4nc(c(-c5cc(S(=O)(=O)[O-])ccc5F)c5ccc2[nH]5)C=C4)C=C3)cc1
REMARK SMILES IDX 25 1 24 2 1 3 2 4 3 6 4 7 5 8 6 9 23 10 7 11 22 12 8 13 9 14
REMARK SMILES IDX 10 15 11 17 12 18 13 19 21 20 14 21 16 22 20 23 15 24 17 25
REMARK SMILES IDX 19 26 18 27 26 28 27 29 28 30 29 31 30 33 31 34 32 35 93 36
REMARK SMILES IDX 33 37 92 38 34 39 35 40 36 41 86 42 37 43 91 44 85 45 87 46
REMARK SMILES IDX 38 47 90 48 84 49 83 50 39 52 71 53 51 54 70 55 52 56 55 57
REMARK SMILES IDX 69 58 88 59 53 60 54 61 68 63 89 64 56 65 40 66 41 67 49 68
REMARK SMILES IDX 42 69 48 70 50 71 47 72 43 73 44 74 45 75 46 76 72 77 73 78
REMARK SMILES IDX 81 79 74 80 80 81 82 82 79 83 75 84 76 85 77 86 78 87 57 88
REMARK SMILES IDX 58 89 66 90 59 91 65 92 67 93 64 94 60 95 61 96 62 97 63 98
REMARK H PARENT 24 5 9 16 28 32 87 51 55 62
REMARK Flexibility Score: inf
ROOT
ATOM      1  C   UNL     1       2.172   1.745  -1.521  1.00  0.00     0.117 C 
ENDROOT
BRANCH   1   2
ATOM      2  N   UNL     1       2.874   0.851  -0.621  1.00  0.00    -0.355 N 
ATOM      3  O   UNL     1       1.086   0.475   0.757  1.00  0.00    -0.274 OA
ATOM      4  C   UNL     1       2.238   0.209   0.416  1.00  0.00     0.230 C 
ATOM      5  H   UNL     1       3.837   0.699  -0.757  1.00  0.00     0.163 HD
BRANCH   4   6
ATOM      6  C   UNL     1       3.038  -0.861   1.139  1.00  0.00     0.174 C 
BRANCH   6   7
ATOM      7  S   UNL     1       4.060  -1.903   0.044  1.00  0.00    -0.116 SA
BRANCH   7   8
ATOM      8  C   UNL     1       2.872  -2.908  -0.838  1.00  0.00     0.008 A 
ATOM      9  C   UNL     1       1.592  -2.483  -1.193  1.00  0.00     0.017 A 
ATOM     10  C   UNL     1       3.305  -4.153  -1.308  1.00  0.00     0.017 A 
ATOM     11  C   UNL     1       0.808  -3.220  -2.080  1.00  0.00     0.027 A 
ATOM     12  C   UNL     1       2.526  -4.887  -2.209  1.00  0.00     0.027 A 
ATOM     13  C   UNL     1       1.320  -4.361  -2.678  1.00  0.00     0.041 A 
BRANCH  13  14
ATOM     14  N   UNL     1       0.755  -4.966  -3.807  1.00  0.00    -0.322 N 
ATOM     15  C   UNL     1      -0.101  -4.494  -4.776  1.00  0.00     0.256 C 
ATOM     16  H   UNL     1       1.019  -5.906  -3.930  1.00  0.00     0.170 HD
ATOM     17  O   UNL     1      -0.479  -5.285  -5.645  1.00  0.00    -0.269 OA
BRANCH  15  18
ATOM     18  C   UNL     1      -0.609  -3.099  -4.858  1.00  0.00     0.048 A 
ATOM     19  C   UNL     1      -2.012  -3.013  -4.910  1.00  0.00     0.014 A 
ATOM     20  C   UNL     1       0.197  -1.925  -4.981  1.00  0.00    -0.006 A 
ATOM     21  C   UNL     1      -2.640  -1.789  -5.099  1.00  0.00     0.001 A 
ATOM     22  C   UNL     1      -0.472  -0.688  -5.192  1.00  0.00    -0.018 A 
ATOM     23  C   UNL     1       1.613  -1.873  -4.890  1.00  0.00     0.009 A 
ATOM     24  C   UNL     1      -1.873  -0.641  -5.261  1.00  0.00     0.009 A 
ATOM     25  C   UNL     1       0.256   0.506  -5.322  1.00  0.00     0.009 A 
ATOM     26  C   UNL     1       2.315  -0.663  -4.933  1.00  0.00     0.001 A 
ATOM     27  C   UNL     1       1.639   0.524  -5.173  1.00  0.00     0.001 A 
ENDBRANCH  15  18
ENDBRANCH  13  14
ENDBRANCH   7   8
ENDBRANCH   6   7
ENDBRANCH   4   6
ENDBRANCH   1   2
BRANCH   1  28
ATOM     28  C   UNL     1       2.450   3.216  -1.252  1.00  0.00     0.042 C 
BRANCH  28  29
ATOM     29  C   UNL     1       3.904   3.626  -1.454  1.00  0.00     0.118 C 
BRANCH  29  30
ATOM     30  N   UNL     1       4.365   3.451  -2.824  1.00  0.00    -0.352 N 
ATOM     31  C   UNL     1       4.997   4.330  -3.672  1.00  0.00     0.251 C 
ATOM     32  H   UNL     1       4.197   2.559  -3.206  1.00  0.00     0.163 HD
ATOM     33  O   UNL     1       5.156   4.006  -4.844  1.00  0.00    -0.269 OA
BRANCH  31  34
ATOM     34  C   UNL     1       5.455   5.658  -3.194  1.00  0.00     0.039 A 
ATOM     35  C   UNL     1       5.351   6.754  -4.056  1.00  0.00     0.014 A 
ATOM     36  C   UNL     1       6.010   5.831  -1.924  1.00  0.00     0.014 A 
ATOM     37  C   UNL     1       5.752   8.023  -3.625  1.00  0.00     0.010 A 
ATOM     38  C   UNL     1       6.319   7.110  -1.463  1.00  0.00     0.010 A 
ATOM     39  C   UNL     1       6.212   8.220  -2.313  1.00  0.00    -0.014 A 
BRANCH  39  40
ATOM     40  C   UNL     1       6.625   9.568  -1.834  1.00  0.00     0.031 A 
ATOM     41  C   UNL     1       8.048   9.810  -1.399  1.00  0.00     0.074 A 
ATOM     42  C   UNL     1       5.718  10.563  -1.757  1.00  0.00     0.049 A 
ATOM     43  N   UNL     1       8.594  10.897  -0.914  1.00  0.00    -0.248 NA
ATOM     44  C   UNL     1       8.971   8.669  -1.493  1.00  0.00     0.031 C 
ATOM     45  C   UNL     1       4.302  10.445  -2.111  1.00  0.00     0.029 A 
ATOM     46  N   UNL     1       5.849  11.870  -1.356  1.00  0.00    -0.354 N 
ATOM     47  C   UNL     1       9.917  10.567  -0.637  1.00  0.00     0.074 A 
ATOM     48  C   UNL     1      10.067   9.159  -0.935  1.00  0.00     0.031 C 
ATOM     49  C   UNL     1       3.707  11.637  -1.948  1.00  0.00     0.029 A 
ATOM     50  C   UNL     1       4.681  12.593  -1.431  1.00  0.00     0.049 A 
ATOM     51  H   UNL     1       6.701  12.254  -1.044  1.00  0.00     0.167 HD
ATOM     52  C   UNL     1      10.922  11.368  -0.203  1.00  0.00     0.034 A 
ATOM     53  C   UNL     1       4.421  13.878  -1.113  1.00  0.00     0.034 A 
ATOM     54  C   UNL     1      10.759  12.773   0.081  1.00  0.00     0.049 A 
ATOM     55  C   UNL     1       5.548  14.744  -0.604  1.00  0.00     0.074 A 
ATOM     56  C   UNL     1      11.716  13.688   0.484  1.00  0.00     0.029 A 
ATOM     57  N   UNL     1       9.559  13.469  -0.002  1.00  0.00    -0.354 N 
ATOM     58  N   UNL     1       6.805  14.427  -0.392  1.00  0.00    -0.248 NA
ATOM     59  C   UNL     1       5.223  16.145  -0.308  1.00  0.00     0.031 C 
ATOM     60  C   UNL     1      11.083  14.912   0.720  1.00  0.00     0.029 A 
ATOM     61  C   UNL     1       9.747  14.791   0.372  1.00  0.00     0.049 A 
ATOM     62  H   UNL     1       8.700  13.080  -0.285  1.00  0.00     0.167 HD
ATOM     63  C   UNL     1       7.428  15.602   0.020  1.00  0.00     0.074 A 
ATOM     64  C   UNL     1       6.411  16.633   0.014  1.00  0.00     0.031 C 
ATOM     65  C   UNL     1       8.725  15.812   0.365  1.00  0.00     0.034 A 
BRANCH  52  66
ATOM     66  C   UNL     1      12.276  10.730   0.014  1.00  0.00     0.023 A 
ATOM     67  C   UNL     1      12.987  10.126  -1.039  1.00  0.00     0.031 A 
ATOM     68  C   UNL     1      12.854  10.699   1.296  1.00  0.00     0.131 A 
ATOM     69  C   UNL     1      14.186   9.446  -0.778  1.00  0.00     0.055 A 
ATOM     70  C   UNL     1      14.094  10.101   1.532  1.00  0.00     0.041 A 
ATOM     71  F   UNL     1      12.216  11.237   2.347  1.00  0.00    -0.206 F 
ATOM     72  C   UNL     1      14.759   9.454   0.495  1.00  0.00     0.022 A 
BRANCH  69  73
ATOM     73  S   UNL     1      14.898   8.415  -2.089  1.00  0.00     0.124 S 
ATOM     74  O   UNL     1      13.803   7.487  -2.361  1.00  0.00    -0.237 OA
ATOM     75  O   UNL     1      15.187   9.388  -3.135  1.00  0.00    -0.237 OA
ATOM     76  O   UNL     1      16.069   7.813  -1.454  1.00  0.00    -0.744 OA
ENDBRANCH  69  73
ENDBRANCH  52  66
BRANCH  53  77
ATOM     77  C   UNL     1       3.043  14.433  -1.260  1.00  0.00     0.023 A 
ATOM     78  C   UNL     1       2.776  15.487  -2.150  1.00  0.00     0.031 A 
ATOM     79  C   UNL     1       1.981  13.953  -0.473  1.00  0.00     0.131 A 
ATOM     80  C   UNL     1       1.497  16.063  -2.190  1.00  0.00     0.055 A 
ATOM     81  C   UNL     1       0.694  14.489  -0.563  1.00  0.00     0.041 A 
ATOM     82  F   UNL     1       2.177  12.946   0.392  1.00  0.00    -0.206 F 
ATOM     83  C   UNL     1       0.450  15.561  -1.414  1.00  0.00     0.022 A 
BRANCH  80  84
ATOM     84  S   UNL     1       1.245  17.550  -3.199  1.00  0.00     0.124 S 
ATOM     85  O   UNL     1       2.230  18.463  -2.631  1.00  0.00    -0.237 OA
ATOM     86  O   UNL     1       1.527  17.055  -4.543  1.00  0.00    -0.237 OA
ATOM     87  O   UNL     1      -0.151  17.900  -2.946  1.00  0.00    -0.744 OA
ENDBRANCH  80  84
ENDBRANCH  53  77
BRANCH  65  88
ATOM     88  C   UNL     1       9.130  17.229   0.701  1.00  0.00     0.023 A 
ATOM     89  C   UNL     1       8.608  17.912   1.813  1.00  0.00     0.031 A 
ATOM     90  C   UNL     1      10.044  17.913  -0.122  1.00  0.00     0.131 A 
ATOM     91  C   UNL     1       8.949  19.256   2.032  1.00  0.00     0.055 A 
ATOM     92  C   UNL     1      10.436  19.225   0.143  1.00  0.00     0.041 A 
ATOM     93  F   UNL     1      10.573  17.314  -1.202  1.00  0.00    -0.206 F 
ATOM     94  C   UNL     1       9.875  19.910   1.216  1.00  0.00     0.022 A 
BRANCH  91  95
ATOM     95  S   UNL     1       8.076  20.176   3.329  1.00  0.00     0.124 S 
ATOM     96  O   UNL     1       6.681  20.010   2.932  1.00  0.00    -0.237 OA
ATOM     97  O   UNL     1       8.482  19.469   4.540  1.00  0.00    -0.237 OA
ATOM     98  O   UNL     1       8.601  21.534   3.200  1.00  0.00    -0.744 OA
ENDBRANCH  91  95
ENDBRANCH  65  88
ENDBRANCH  39  40
ENDBRANCH  31  34
ENDBRANCH  29  30
ENDBRANCH  28  29
ENDBRANCH   1  28
TORSDOF 17
