REMARK SMILES CCN(c1cccc(C)c1)c1nc(OCC(=O)NCCCNC(=O)c2ccc(-c3c4nc(c(-c5cc(S(=O)(=O)[O-])ccc5F)c5ccc([nH]5)c(-c5cc(S(=O)(=O)[O-])ccc5F)c5nc(c(-c6cc(S(=O)(=O)[O-])ccc6F)c6ccc3[nH]6)C=C5)C=C4)cc2)cc(-c2ccc(C)cc2)n1
REMARK SMILES IDX 19 1 18 2 16 3 17 4 15 6 14 7 13 8 11 9 12 10 97 11 89 12
REMARK SMILES IDX 88 13 3 14 2 15 1 16 4 17 5 18 10 19 6 20 8 21 7 22 9 23
REMARK SMILES IDX 90 24 91 25 96 26 92 27 95 28 93 29 94 30 20 31 21 32 22 33
REMARK SMILES IDX 23 34 24 36 25 37 26 38 87 39 27 40 86 41 28 42 29 43 30 44
REMARK SMILES IDX 80 45 31 46 85 47 79 48 81 49 32 50 84 51 78 52 77 53 33 55
REMARK SMILES IDX 65 56 45 57 64 58 46 59 49 60 63 61 82 62 47 63 48 64 62 66
REMARK SMILES IDX 83 67 50 68 34 69 35 70 43 71 36 72 42 73 44 74 41 75 37 76
REMARK SMILES IDX 38 77 39 78 40 79 66 80 67 81 75 82 68 83 74 84 76 85 73 86
REMARK SMILES IDX 69 87 70 88 71 89 72 90 51 91 52 92 60 93 53 94 59 95 61 96
REMARK SMILES IDX 58 97 54 98 55 99 56 100 57 101
REMARK H PARENT 18 5 22 35 81 54 49 65
REMARK Flexibility Score: inf
ROOT
ATOM      1  C   UNL     1       5.424  -2.188   6.775  1.00  0.00     0.117 C 
ENDROOT
BRANCH   1   2
ATOM      2  N   UNL     1       6.473  -1.879   5.817  1.00  0.00    -0.353 N 
ATOM      3  C   UNL     1       6.794  -0.678   5.256  1.00  0.00     0.258 C 
ATOM      4  O   UNL     1       7.686  -0.586   4.409  1.00  0.00    -0.271 OA
ATOM      5  H   UNL     1       7.028  -2.641   5.534  1.00  0.00     0.163 HD
BRANCH   3   6
ATOM      6  C   UNL     1       6.040   0.578   5.712  1.00  0.00     0.331 C 
BRANCH   6   7
ATOM      7  O   UNL     1       4.658   0.661   5.414  1.00  0.00    -0.467 OA
BRANCH   7   8
ATOM      8  C   UNL     1       4.291   0.709   4.100  1.00  0.00     0.219 A 
ATOM      9  C   UNL     1       2.470   0.549   2.686  1.00  0.00     0.233 A 
ATOM     10  N   UNL     1       2.967   0.575   3.935  1.00  0.00    -0.177 NA
ATOM     11  N   UNL     1       3.245   0.694   1.601  1.00  0.00    -0.212 NA
ATOM     12  C   UNL     1       4.564   0.884   1.793  1.00  0.00     0.080 A 
ATOM     13  C   UNL     1       5.139   0.898   3.044  1.00  0.00     0.097 A 
BRANCH   9  14
ATOM     14  N   UNL     1       1.078   0.398   2.532  1.00  0.00    -0.311 N 
BRANCH  14  15
ATOM     15  C   UNL     1       0.668  -0.498   1.445  1.00  0.00     0.122 C 
ATOM     16  C   UNL     1       0.726   0.159   0.071  1.00  0.00     0.028 C 
ENDBRANCH  14  15
BRANCH  14  17
ATOM     17  C   UNL     1       0.123   0.944   3.407  1.00  0.00     0.044 A 
ATOM     18  C   UNL     1      -1.013   0.247   3.841  1.00  0.00     0.026 A 
ATOM     19  C   UNL     1       0.305   2.246   3.914  1.00  0.00     0.029 A 
ATOM     20  C   UNL     1      -1.927   0.825   4.730  1.00  0.00     0.002 A 
ATOM     21  C   UNL     1      -0.603   2.842   4.803  1.00  0.00    -0.049 A 
ATOM     22  C   UNL     1      -1.726   2.119   5.206  1.00  0.00     0.003 A 
ATOM     23  C   UNL     1      -0.348   4.233   5.300  1.00  0.00     0.044 C 
ENDBRANCH  14  17
ENDBRANCH   9  14
BRANCH  12  24
ATOM     24  C   UNL     1       5.374   1.154   0.601  1.00  0.00     0.000 A 
ATOM     25  C   UNL     1       6.457   0.329   0.262  1.00  0.00     0.010 A 
ATOM     26  C   UNL     1       5.143   2.300  -0.175  1.00  0.00     0.010 A 
ATOM     27  C   UNL     1       7.305   0.657  -0.798  1.00  0.00     0.004 A 
ATOM     28  C   UNL     1       5.998   2.637  -1.229  1.00  0.00     0.004 A 
ATOM     29  C   UNL     1       7.092   1.823  -1.541  1.00  0.00    -0.051 A 
ATOM     30  C   UNL     1       8.039   2.218  -2.635  1.00  0.00     0.044 C 
ENDBRANCH  12  24
ENDBRANCH   7   8
ENDBRANCH   6   7
ENDBRANCH   3   6
ENDBRANCH   1   2
BRANCH   1  31
ATOM     31  C   UNL     1       4.166  -2.721   6.102  1.00  0.00     0.042 C 
BRANCH  31  32
ATOM     32  C   UNL     1       4.313  -4.140   5.558  1.00  0.00     0.118 C 
BRANCH  32  33
ATOM     33  N   UNL     1       3.803  -5.172   6.465  1.00  0.00    -0.352 N 
ATOM     34  C   UNL     1       3.587  -6.519   6.215  1.00  0.00     0.251 C 
ATOM     35  H   UNL     1       3.585  -4.868   7.375  1.00  0.00     0.163 HD
ATOM     36  O   UNL     1       3.183  -7.278   7.078  1.00  0.00    -0.269 OA
BRANCH  34  37
ATOM     37  C   UNL     1       3.967  -7.051   4.885  1.00  0.00     0.039 A 
ATOM     38  C   UNL     1       4.942  -8.053   4.841  1.00  0.00     0.014 A 
ATOM     39  C   UNL     1       3.549  -6.412   3.723  1.00  0.00     0.014 A 
ATOM     40  C   UNL     1       5.669  -8.241   3.669  1.00  0.00     0.010 A 
ATOM     41  C   UNL     1       4.325  -6.535   2.585  1.00  0.00     0.010 A 
ATOM     42  C   UNL     1       5.426  -7.399   2.581  1.00  0.00    -0.014 A 
BRANCH  42  43
ATOM     43  C   UNL     1       6.371  -7.249   1.479  1.00  0.00     0.031 A 
ATOM     44  C   UNL     1       6.109  -7.846   0.157  1.00  0.00     0.074 A 
ATOM     45  C   UNL     1       7.519  -6.559   1.661  1.00  0.00     0.049 A 
ATOM     46  N   UNL     1       7.036  -8.274  -0.634  1.00  0.00    -0.248 NA
ATOM     47  C   UNL     1       4.763  -8.037  -0.368  1.00  0.00     0.031 C 
ATOM     48  C   UNL     1       8.469  -6.138   0.636  1.00  0.00     0.029 A 
ATOM     49  N   UNL     1       8.177  -6.323   2.863  1.00  0.00    -0.354 N 
ATOM     50  C   UNL     1       6.455  -8.521  -1.854  1.00  0.00     0.074 A 
ATOM     51  C   UNL     1       5.030  -8.431  -1.618  1.00  0.00     0.031 C 
ATOM     52  C   UNL     1       9.665  -5.939   1.210  1.00  0.00     0.029 A 
ATOM     53  C   UNL     1       9.556  -6.348   2.598  1.00  0.00     0.049 A 
ATOM     54  H   UNL     1       7.754  -6.167   3.738  1.00  0.00     0.167 HD
ATOM     55  C   UNL     1       7.226  -8.630  -2.972  1.00  0.00     0.034 A 
ATOM     56  C   UNL     1      10.389  -7.217   3.240  1.00  0.00     0.034 A 
ATOM     57  C   UNL     1       8.645  -8.440  -2.688  1.00  0.00     0.049 A 
ATOM     58  C   UNL     1      11.139  -8.139   2.310  1.00  0.00     0.074 A 
ATOM     59  C   UNL     1       9.491  -7.352  -2.833  1.00  0.00     0.029 A 
ATOM     60  N   UNL     1       9.334  -9.373  -1.923  1.00  0.00    -0.354 N 
ATOM     61  N   UNL     1      10.831  -8.326   1.057  1.00  0.00    -0.248 NA
ATOM     62  C   UNL     1      12.276  -8.950   2.729  1.00  0.00     0.031 C 
ATOM     63  C   UNL     1      10.688  -7.626  -2.125  1.00  0.00     0.029 A 
ATOM     64  C   UNL     1      10.580  -8.889  -1.569  1.00  0.00     0.049 A 
ATOM     65  H   UNL     1       8.983 -10.256  -1.667  1.00  0.00     0.167 HD
ATOM     66  C   UNL     1      11.662  -9.274   0.510  1.00  0.00     0.074 A 
ATOM     67  C   UNL     1      12.570  -9.607   1.593  1.00  0.00     0.031 C 
ATOM     68  C   UNL     1      11.501  -9.701  -0.781  1.00  0.00     0.034 A 
BRANCH  55  69
ATOM     69  C   UNL     1       6.647  -8.589  -4.365  1.00  0.00     0.023 A 
ATOM     70  C   UNL     1       7.349  -7.933  -5.397  1.00  0.00     0.031 A 
ATOM     71  C   UNL     1       5.407  -9.146  -4.728  1.00  0.00     0.131 A 
ATOM     72  C   UNL     1       6.779  -7.751  -6.669  1.00  0.00     0.055 A 
ATOM     73  C   UNL     1       4.811  -8.914  -5.975  1.00  0.00     0.041 A 
ATOM     74  F   UNL     1       4.739  -9.960  -3.897  1.00  0.00    -0.206 F 
ATOM     75  C   UNL     1       5.491  -8.197  -6.949  1.00  0.00     0.022 A 
BRANCH  72  76
ATOM     76  S   UNL     1       7.752  -6.926  -7.959  1.00  0.00     0.124 S 
ATOM     77  O   UNL     1       8.068  -5.643  -7.340  1.00  0.00    -0.237 OA
ATOM     78  O   UNL     1       8.868  -7.847  -8.140  1.00  0.00    -0.237 OA
ATOM     79  O   UNL     1       6.825  -6.853  -9.088  1.00  0.00    -0.744 OA
ENDBRANCH  72  76
ENDBRANCH  55  69
BRANCH  56  80
ATOM     80  C   UNL     1       9.936  -7.553   4.620  1.00  0.00     0.023 A 
ATOM     81  C   UNL     1       9.727  -6.466   5.494  1.00  0.00     0.031 A 
ATOM     82  C   UNL     1       9.327  -8.774   4.932  1.00  0.00     0.131 A 
ATOM     83  C   UNL     1       8.764  -6.556   6.506  1.00  0.00     0.055 A 
ATOM     84  C   UNL     1       8.443  -8.886   6.014  1.00  0.00     0.041 A 
ATOM     85  F   UNL     1       9.470  -9.837   4.127  1.00  0.00    -0.206 F 
ATOM     86  C   UNL     1       8.118  -7.761   6.776  1.00  0.00     0.022 A 
BRANCH  83  87
ATOM     87  S   UNL     1       8.154  -4.999   7.206  1.00  0.00     0.124 S 
ATOM     88  O   UNL     1       9.256  -4.582   8.063  1.00  0.00    -0.237 OA
ATOM     89  O   UNL     1       7.938  -4.186   6.007  1.00  0.00    -0.237 OA
ATOM     90  O   UNL     1       6.925  -5.372   7.900  1.00  0.00    -0.744 OA
ENDBRANCH  83  87
ENDBRANCH  56  80
BRANCH  68  91
ATOM     91  C   UNL     1      12.225 -10.851  -1.464  1.00  0.00     0.023 A 
ATOM     92  C   UNL     1      13.046 -11.771  -0.796  1.00  0.00     0.031 A 
ATOM     93  C   UNL     1      12.061 -11.093  -2.854  1.00  0.00     0.131 A 
ATOM     94  C   UNL     1      13.708 -12.806  -1.486  1.00  0.00     0.055 A 
ATOM     95  C   UNL     1      12.664 -12.162  -3.526  1.00  0.00     0.041 A 
ATOM     96  F   UNL     1      11.298 -10.307  -3.627  1.00  0.00    -0.206 F 
ATOM     97  C   UNL     1      13.507 -13.021  -2.845  1.00  0.00     0.022 A 
BRANCH  94  98
ATOM     98  S   UNL     1      14.882 -13.836  -0.567  1.00  0.00     0.124 S 
ATOM     99  O   UNL     1      15.891 -12.858  -0.168  1.00  0.00    -0.237 OA
ATOM    100  O   UNL     1      14.056 -14.367   0.512  1.00  0.00    -0.237 OA
ATOM    101  O   UNL     1      15.326 -14.819  -1.552  1.00  0.00    -0.744 OA
ENDBRANCH  94  98
ENDBRANCH  68  91
ENDBRANCH  42  43
ENDBRANCH  34  37
ENDBRANCH  32  33
ENDBRANCH  31  32
ENDBRANCH   1  31
TORSDOF 19
