REMARK SMILES C[C@H]1[C@H](C(=O)NCCCNC(=O)c2ccc(-c3c4nc(c(-c5cc(S(=O)(=O)[O-])ccc5F)c5ccc([nH]5)c(-c5cc(S(=O)(=O)[O-])ccc5F)c5nc(c(-c6cc(S(=O)(=O)[O-])ccc6F)c6ccc3[nH]6)C=C5)C=C4)cc2)CCN1C(=O)[C@H]1CC=CCC1
REMARK SMILES IDX 8 1 7 2 6 3 4 4 5 5 3 7 1 8 2 9 78 10 76 11 77 12 79 13
REMARK SMILES IDX 80 14 81 15 82 16 86 17 83 18 85 19 84 20 9 21 10 22 11 23
REMARK SMILES IDX 12 25 13 26 14 27 75 28 15 29 74 30 16 31 17 32 18 33 68 34
REMARK SMILES IDX 19 35 73 36 67 37 69 38 20 39 72 40 66 41 65 42 21 44 53 45
REMARK SMILES IDX 33 46 52 47 34 48 37 49 51 50 70 51 35 52 36 53 50 55 71 56
REMARK SMILES IDX 38 57 22 58 23 59 31 60 24 61 30 62 32 63 29 64 25 65 26 66
REMARK SMILES IDX 27 67 28 68 54 69 55 70 63 71 56 72 62 73 64 74 61 75 57 76
REMARK SMILES IDX 58 77 59 78 60 79 39 80 40 81 48 82 41 83 47 84 49 85 46 86
REMARK SMILES IDX 42 87 43 88 44 89 45 90
REMARK H PARENT 6 6 10 24 69 43 37 54
REMARK Flexibility Score: inf
ROOT
ATOM      1  C   UNL     1      -0.654   0.099   4.127  1.00  0.00     0.042 C 
ENDROOT
BRANCH   1   2
ATOM      2  C   UNL     1      -1.364   0.681   2.911  1.00  0.00     0.117 C 
BRANCH   2   3
ATOM      3  N   UNL     1      -0.687   1.849   2.368  1.00  0.00    -0.356 N 
ATOM      4  C   UNL     1      -0.282   2.187   1.122  1.00  0.00     0.225 C 
ATOM      5  O   UNL     1       0.235   3.304   1.000  1.00  0.00    -0.275 OA
ATOM      6  H   UNL     1      -0.483   2.533   3.046  1.00  0.00     0.163 HD
BRANCH   4   7
ATOM      7  C   UNL     1      -0.378   1.286  -0.098  1.00  0.00     0.102 C 
ATOM      8  C   UNL     1       1.446   0.268  -1.461  1.00  0.00     0.032 C 
ATOM      9  C   UNL     1       0.707   0.195  -0.119  1.00  0.00     0.094 C 
ATOM     10  N   UNL     1      -0.024  -1.059   0.028  1.00  0.00    -0.339 N 
ATOM     11  C   UNL     1      -1.711   0.590  -0.352  1.00  0.00     0.037 C 
ATOM     12  C   UNL     1      -1.386  -0.894  -0.457  1.00  0.00     0.120 C 
BRANCH  10  13
ATOM     13  C   UNL     1       0.377  -2.303   0.458  1.00  0.00     0.226 C 
ATOM     14  O   UNL     1      -0.432  -3.242   0.387  1.00  0.00    -0.275 OA
BRANCH  13  15
ATOM     15  C   UNL     1       1.759  -2.619   1.065  1.00  0.00     0.083 C 
ATOM     16  C   UNL     1       2.969  -2.485   0.143  1.00  0.00     0.040 C 
ATOM     17  C   UNL     1       1.991  -2.121   2.494  1.00  0.00     0.018 C 
ATOM     18  C   UNL     1       3.895  -1.349   0.456  1.00  0.00    -0.030 C 
ATOM     19  C   UNL     1       2.792  -0.827   2.637  1.00  0.00     0.028 C 
ATOM     20  C   UNL     1       3.816  -0.609   1.569  1.00  0.00    -0.031 C 
ENDBRANCH  13  15
ENDBRANCH  10  13
ENDBRANCH   4   7
ENDBRANCH   2   3
ENDBRANCH   1   2
BRANCH   1  21
ATOM     21  C   UNL     1      -0.524   1.028   5.327  1.00  0.00     0.118 C 
BRANCH  21  22
ATOM     22  N   UNL     1      -1.730   1.073   6.132  1.00  0.00    -0.352 N 
ATOM     23  C   UNL     1      -1.988   0.545   7.374  1.00  0.00     0.251 C 
ATOM     24  H   UNL     1      -2.483   1.558   5.723  1.00  0.00     0.163 HD
ATOM     25  O   UNL     1      -3.157   0.531   7.770  1.00  0.00    -0.269 OA
BRANCH  23  26
ATOM     26  C   UNL     1      -0.915  -0.025   8.227  1.00  0.00     0.039 A 
ATOM     27  C   UNL     1      -1.208  -1.154   9.001  1.00  0.00     0.014 A 
ATOM     28  C   UNL     1       0.348   0.563   8.335  1.00  0.00     0.014 A 
ATOM     29  C   UNL     1      -0.232  -1.712   9.834  1.00  0.00     0.010 A 
ATOM     30  C   UNL     1       1.348  -0.044   9.101  1.00  0.00     0.010 A 
ATOM     31  C   UNL     1       1.066  -1.179   9.875  1.00  0.00    -0.014 A 
BRANCH  31  32
ATOM     32  C   UNL     1       2.116  -1.780  10.746  1.00  0.00     0.031 A 
ATOM     33  C   UNL     1       2.713  -0.985  11.880  1.00  0.00     0.074 A 
ATOM     34  C   UNL     1       2.559  -3.030  10.503  1.00  0.00     0.049 A 
ATOM     35  N   UNL     1       3.660  -1.321  12.722  1.00  0.00    -0.248 NA
ATOM     36  C   UNL     1       2.199   0.378  12.073  1.00  0.00     0.031 C 
ATOM     37  C   UNL     1       2.101  -3.891   9.411  1.00  0.00     0.029 A 
ATOM     38  N   UNL     1       3.497  -3.793  11.154  1.00  0.00    -0.354 N 
ATOM     39  C   UNL     1       3.861  -0.209  13.534  1.00  0.00     0.074 A 
ATOM     40  C   UNL     1       2.984   0.831  13.038  1.00  0.00     0.031 C 
ATOM     41  C   UNL     1       2.740  -5.069   9.482  1.00  0.00     0.029 A 
ATOM     42  C   UNL     1       3.679  -5.039  10.599  1.00  0.00     0.049 A 
ATOM     43  H   UNL     1       3.992  -3.479  11.944  1.00  0.00     0.167 HD
ATOM     44  C   UNL     1       4.678  -0.072  14.610  1.00  0.00     0.034 A 
ATOM     45  C   UNL     1       4.510  -6.043  10.944  1.00  0.00     0.034 A 
ATOM     46  C   UNL     1       5.538  -1.119  15.107  1.00  0.00     0.049 A 
ATOM     47  C   UNL     1       5.408  -5.872  12.142  1.00  0.00     0.074 A 
ATOM     48  C   UNL     1       6.368  -1.103  16.216  1.00  0.00     0.029 A 
ATOM     49  N   UNL     1       5.685  -2.373  14.525  1.00  0.00    -0.354 N 
ATOM     50  N   UNL     1       5.550  -4.830  12.927  1.00  0.00    -0.248 NA
ATOM     51  C   UNL     1       6.245  -7.022  12.509  1.00  0.00     0.031 C 
ATOM     52  C   UNL     1       7.058  -2.320  16.270  1.00  0.00     0.029 A 
ATOM     53  C   UNL     1       6.609  -3.126  15.237  1.00  0.00     0.049 A 
ATOM     54  H   UNL     1       5.204  -2.682  13.724  1.00  0.00     0.167 HD
ATOM     55  C   UNL     1       6.479  -5.207  13.894  1.00  0.00     0.074 A 
ATOM     56  C   UNL     1       6.844  -6.579  13.605  1.00  0.00     0.031 C 
ATOM     57  C   UNL     1       6.983  -4.486  14.927  1.00  0.00     0.034 A 
BRANCH  44  58
ATOM     58  C   UNL     1       4.687   1.271  15.305  1.00  0.00     0.023 A 
ATOM     59  C   UNL     1       3.535   1.789  15.923  1.00  0.00     0.031 A 
ATOM     60  C   UNL     1       5.851   2.060  15.319  1.00  0.00     0.131 A 
ATOM     61  C   UNL     1       3.546   3.089  16.451  1.00  0.00     0.055 A 
ATOM     62  C   UNL     1       5.879   3.320  15.923  1.00  0.00     0.041 A 
ATOM     63  F   UNL     1       6.978   1.629  14.731  1.00  0.00    -0.206 F 
ATOM     64  C   UNL     1       4.717   3.849  16.478  1.00  0.00     0.022 A 
BRANCH  61  65
ATOM     65  S   UNL     1       1.971   3.829  16.961  1.00  0.00     0.124 S 
ATOM     66  O   UNL     1       1.203   3.771  15.720  1.00  0.00    -0.237 OA
ATOM     67  O   UNL     1       1.532   2.933  18.027  1.00  0.00    -0.237 OA
ATOM     68  O   UNL     1       2.346   5.173  17.391  1.00  0.00    -0.744 OA
ENDBRANCH  61  65
ENDBRANCH  44  58
BRANCH  45  69
ATOM     69  C   UNL     1       4.544  -7.299  10.143  1.00  0.00     0.023 A 
ATOM     70  C   UNL     1       4.115  -8.520  10.687  1.00  0.00     0.031 A 
ATOM     71  C   UNL     1       5.040  -7.299   8.827  1.00  0.00     0.131 A 
ATOM     72  C   UNL     1       4.229  -9.699   9.934  1.00  0.00     0.055 A 
ATOM     73  C   UNL     1       5.106  -8.467   8.065  1.00  0.00     0.041 A 
ATOM     74  F   UNL     1       5.455  -6.156   8.258  1.00  0.00    -0.206 F 
ATOM     75  C   UNL     1       4.710  -9.678   8.623  1.00  0.00     0.022 A 
BRANCH  72  76
ATOM     76  S   UNL     1       3.803 -11.277  10.720  1.00  0.00     0.124 S 
ATOM     77  O   UNL     1       4.717 -11.300  11.857  1.00  0.00    -0.237 OA
ATOM     78  O   UNL     1       2.391 -11.086  11.036  1.00  0.00    -0.237 OA
ATOM     79  O   UNL     1       4.078 -12.262   9.677  1.00  0.00    -0.744 OA
ENDBRANCH  72  76
ENDBRANCH  45  69
BRANCH  57  80
ATOM     80  C   UNL     1       7.962  -5.189  15.836  1.00  0.00     0.023 A 
ATOM     81  C   UNL     1       9.232  -5.588  15.384  1.00  0.00     0.031 A 
ATOM     82  C   UNL     1       7.608  -5.490  17.163  1.00  0.00     0.131 A 
ATOM     83  C   UNL     1      10.078  -6.321  16.231  1.00  0.00     0.055 A 
ATOM     84  C   UNL     1       8.476  -6.168  18.019  1.00  0.00     0.041 A 
ATOM     85  F   UNL     1       6.407  -5.135  17.647  1.00  0.00    -0.206 F 
ATOM     86  C   UNL     1       9.714  -6.601  17.550  1.00  0.00     0.022 A 
BRANCH  83  87
ATOM     87  S   UNL     1      11.621  -6.991  15.553  1.00  0.00     0.124 S 
ATOM     88  O   UNL     1      11.138  -7.801  14.439  1.00  0.00    -0.237 OA
ATOM     89  O   UNL     1      12.355  -5.783  15.192  1.00  0.00    -0.237 OA
ATOM     90  O   UNL     1      12.186  -7.748  16.669  1.00  0.00    -0.744 OA
ENDBRANCH  83  87
ENDBRANCH  57  80
ENDBRANCH  31  32
ENDBRANCH  23  26
ENDBRANCH  21  22
ENDBRANCH   1  21
TORSDOF 15
