REMARK SMILES NC(=O)c1c(-c2ccc(Cl)cc2)csc1NC(=O)[C@H]1[C@@H](C(=O)NCCCNC(=O)c2ccc(-c3c4nc(c(-c5cc(S(=O)(=O)[O-])ccc5F)c5ccc([nH]5)c(-c5cc(S(=O)(=O)[O-])ccc5F)c5nc(c(-c6cc(S(=O)(=O)[O-])ccc6F)c6ccc3[nH]6)C=C5)C=C4)cc2)[C@@H]2CC[C@H]1O2
REMARK SMILES IDX 25 1 24 2 23 3 21 4 22 5 20 7 19 8 96 9 93 10 95 11 97 12
REMARK SMILES IDX 94 13 17 14 16 15 18 17 15 18 4 19 5 20 13 21 14 22 2 23
REMARK SMILES IDX 1 24 3 27 6 28 7 29 12 30 8 31 11 32 9 33 10 34 26 35 27 36
REMARK SMILES IDX 28 37 29 39 30 40 31 41 92 42 32 43 91 44 33 45 34 46 35 47
REMARK SMILES IDX 85 48 36 49 90 50 84 51 86 52 37 53 89 54 83 55 82 56 38 58
REMARK SMILES IDX 70 59 50 60 69 61 51 62 54 63 68 64 87 65 52 66 53 67 67 69
REMARK SMILES IDX 88 70 55 71 39 72 40 73 48 74 41 75 47 76 49 77 46 78 42 79
REMARK SMILES IDX 43 80 44 81 45 82 71 83 72 84 80 85 73 86 79 87 81 88 78 89
REMARK SMILES IDX 74 90 75 91 76 92 77 93 56 94 57 95 65 96 58 97 64 98 66 99
REMARK SMILES IDX 63 100 59 101 60 102 61 103 62 104
REMARK H PARENT 23 6 16 16 1 25 1 26 27 38 86 57 54 68
REMARK Flexibility Score: inf
ROOT
ATOM      1  C   UNL     1      -0.369  -7.928  -5.843  1.00  0.00     0.042 C 
ENDROOT
BRANCH   1   2
ATOM      2  C   UNL     1      -0.178  -7.034  -4.609  1.00  0.00     0.117 C 
BRANCH   2   3
ATOM      3  N   UNL     1       1.202  -6.637  -4.418  1.00  0.00    -0.356 N 
ATOM      4  C   UNL     1       1.922  -5.501  -4.482  1.00  0.00     0.226 C 
ATOM      5  O   UNL     1       3.128  -5.696  -4.259  1.00  0.00    -0.275 OA
ATOM      6  H   UNL     1       1.766  -7.406  -4.174  1.00  0.00     0.163 HD
BRANCH   4   7
ATOM      7  C   UNL     1       1.384  -4.069  -4.522  1.00  0.00     0.122 C 
ATOM      8  C   UNL     1       0.332  -3.473  -5.477  1.00  0.00     0.123 C 
ATOM      9  C   UNL     1       1.164  -2.505  -6.348  1.00  0.00     0.132 C 
ATOM     10  C   UNL     1       2.580  -3.133  -4.838  1.00  0.00     0.132 C 
ATOM     11  C   UNL     1       1.424  -1.196  -5.621  1.00  0.00     0.035 C 
ATOM     12  O   UNL     1       2.491  -3.069  -6.279  1.00  0.00    -0.373 OA
ATOM     13  C   UNL     1       2.298  -1.670  -4.463  1.00  0.00     0.035 C 
BRANCH   8  14
ATOM     14  C   UNL     1      -0.461  -4.319  -6.434  1.00  0.00     0.231 C 
ATOM     15  N   UNL     1      -1.808  -4.146  -6.636  1.00  0.00    -0.317 N 
ATOM     16  H   UNL     1      -2.232  -4.923  -7.066  1.00  0.00     0.170 HD
ATOM     17  O   UNL     1       0.107  -5.191  -7.093  1.00  0.00    -0.274 OA
BRANCH  15  18
ATOM     18  C   UNL     1      -2.709  -3.117  -6.370  1.00  0.00     0.108 A 
ATOM     19  C   UNL     1      -4.083  -3.129  -6.630  1.00  0.00     0.082 A 
ATOM     20  C   UNL     1      -4.697  -1.858  -6.277  1.00  0.00     0.007 A 
ATOM     21  C   UNL     1      -3.767  -0.968  -5.783  1.00  0.00     0.076 A 
ATOM     22  S   UNL     1      -2.200  -1.595  -5.829  1.00  0.00    -0.125 S 
BRANCH  19  23
ATOM     23  C   UNL     1      -4.739  -4.308  -7.193  1.00  0.00     0.252 C 
ATOM     24  N   UNL     1      -5.801  -4.083  -8.016  1.00  0.00    -0.365 N 
ATOM     25  H   UNL     1      -6.279  -4.843  -8.421  1.00  0.00     0.159 HD
ATOM     26  H   UNL     1      -6.091  -3.162  -8.205  1.00  0.00     0.159 HD
ATOM     27  O   UNL     1      -4.331  -5.449  -6.995  1.00  0.00    -0.269 OA
ENDBRANCH  19  23
BRANCH  20  28
ATOM     28  C   UNL     1      -6.088  -1.431  -6.365  1.00  0.00    -0.017 A 
ATOM     29  C   UNL     1      -6.418  -0.305  -7.136  1.00  0.00     0.010 A 
ATOM     30  C   UNL     1      -7.099  -2.118  -5.683  1.00  0.00     0.010 A 
ATOM     31  C   UNL     1      -7.742   0.130  -7.224  1.00  0.00     0.021 A 
ATOM     32  C   UNL     1      -8.425  -1.683  -5.774  1.00  0.00     0.021 A 
ATOM     33  C   UNL     1      -8.741  -0.562  -6.542  1.00  0.00     0.041 A 
ATOM     34  Cl  UNL     1     -10.371  -0.025  -6.649  1.00  0.00    -0.084 Cl
ENDBRANCH  20  28
ENDBRANCH  15  18
ENDBRANCH   8  14
ENDBRANCH   4   7
ENDBRANCH   2   3
ENDBRANCH   1   2
BRANCH   1  35
ATOM     35  C   UNL     1       0.627  -9.074  -6.014  1.00  0.00     0.118 C 
BRANCH  35  36
ATOM     36  N   UNL     1       0.384 -10.183  -5.108  1.00  0.00    -0.352 N 
ATOM     37  C   UNL     1       0.162 -11.510  -5.396  1.00  0.00     0.251 C 
ATOM     38  H   UNL     1       0.378  -9.952  -4.151  1.00  0.00     0.163 HD
ATOM     39  O   UNL     1      -0.196 -12.264  -4.494  1.00  0.00    -0.269 OA
BRANCH  37  40
ATOM     40  C   UNL     1       0.309 -12.027  -6.781  1.00  0.00     0.039 A 
ATOM     41  C   UNL     1      -0.649 -12.922  -7.267  1.00  0.00     0.014 A 
ATOM     42  C   UNL     1       1.383 -11.659  -7.598  1.00  0.00     0.014 A 
ATOM     43  C   UNL     1      -0.570 -13.389  -8.584  1.00  0.00     0.010 A 
ATOM     44  C   UNL     1       1.419 -12.066  -8.935  1.00  0.00     0.010 A 
ATOM     45  C   UNL     1       0.441 -12.934  -9.446  1.00  0.00    -0.014 A 
BRANCH  45  46
ATOM     46  C   UNL     1       0.477 -13.350 -10.878  1.00  0.00     0.031 A 
ATOM     47  C   UNL     1       1.641 -14.141 -11.418  1.00  0.00     0.074 A 
ATOM     48  C   UNL     1      -0.518 -12.979 -11.709  1.00  0.00     0.049 A 
ATOM     49  N   UNL     1       1.874 -14.544 -12.642  1.00  0.00    -0.248 NA
ATOM     50  C   UNL     1       2.692 -14.507 -10.457  1.00  0.00     0.031 C 
ATOM     51  C   UNL     1      -1.688 -12.187 -11.322  1.00  0.00     0.029 A 
ATOM     52  N   UNL     1      -0.708 -13.209 -13.051  1.00  0.00    -0.354 N 
ATOM     53  C   UNL     1       3.099 -15.202 -12.602  1.00  0.00     0.074 A 
ATOM     54  C   UNL     1       3.586 -15.089 -11.242  1.00  0.00     0.031 C 
ATOM     55  C   UNL     1      -2.483 -12.024 -12.391  1.00  0.00     0.029 A 
ATOM     56  C   UNL     1      -1.859 -12.646 -13.554  1.00  0.00     0.049 A 
ATOM     57  H   UNL     1      -0.078 -13.729 -13.601  1.00  0.00     0.167 HD
ATOM     58  C   UNL     1       3.748 -15.856 -13.598  1.00  0.00     0.034 A 
ATOM     59  C   UNL     1      -2.350 -12.615 -14.810  1.00  0.00     0.034 A 
ATOM     60  C   UNL     1       3.252 -15.960 -14.950  1.00  0.00     0.049 A 
ATOM     61  C   UNL     1      -1.584 -13.302 -15.913  1.00  0.00     0.074 A 
ATOM     62  C   UNL     1       3.808 -16.640 -16.021  1.00  0.00     0.029 A 
ATOM     63  N   UNL     1       2.095 -15.356 -15.426  1.00  0.00    -0.354 N 
ATOM     64  N   UNL     1      -0.451 -13.963 -15.846  1.00  0.00    -0.248 NA
ATOM     65  C   UNL     1      -2.167 -13.247 -17.260  1.00  0.00     0.031 C 
ATOM     66  C   UNL     1       3.036 -16.379 -17.158  1.00  0.00     0.029 A 
ATOM     67  C   UNL     1       1.944 -15.614 -16.782  1.00  0.00     0.049 A 
ATOM     68  H   UNL     1       1.473 -14.822 -14.882  1.00  0.00     0.167 HD
ATOM     69  C   UNL     1      -0.206 -14.429 -17.135  1.00  0.00     0.074 A 
ATOM     70  C   UNL     1      -1.316 -13.988 -17.953  1.00  0.00     0.031 C 
ATOM     71  C   UNL     1       0.840 -15.161 -17.598  1.00  0.00     0.034 A 
BRANCH  58  72
ATOM     72  C   UNL     1       5.084 -16.483 -13.266  1.00  0.00     0.023 A 
ATOM     73  C   UNL     1       5.205 -17.504 -12.306  1.00  0.00     0.031 A 
ATOM     74  C   UNL     1       6.257 -16.043 -13.905  1.00  0.00     0.131 A 
ATOM     75  C   UNL     1       6.473 -17.993 -11.957  1.00  0.00     0.055 A 
ATOM     76  C   UNL     1       7.507 -16.596 -13.616  1.00  0.00     0.041 A 
ATOM     77  F   UNL     1       6.212 -15.059 -14.816  1.00  0.00    -0.206 F 
ATOM     78  C   UNL     1       7.622 -17.566 -12.625  1.00  0.00     0.022 A 
BRANCH  75  79
ATOM     79  S   UNL     1       6.613 -19.082 -10.512  1.00  0.00     0.124 S 
ATOM     80  O   UNL     1       6.035 -18.251  -9.459  1.00  0.00    -0.237 OA
ATOM     81  O   UNL     1       5.828 -20.243 -10.915  1.00  0.00    -0.237 OA
ATOM     82  O   UNL     1       8.052 -19.311 -10.395  1.00  0.00    -0.744 OA
ENDBRANCH  75  79
ENDBRANCH  58  72
BRANCH  59  83
ATOM     83  C   UNL     1      -3.622 -11.891 -15.108  1.00  0.00     0.023 A 
ATOM     84  C   UNL     1      -4.749 -12.572 -15.595  1.00  0.00     0.031 A 
ATOM     85  C   UNL     1      -3.712 -10.495 -14.956  1.00  0.00     0.131 A 
ATOM     86  C   UNL     1      -5.899 -11.852 -15.959  1.00  0.00     0.055 A 
ATOM     87  C   UNL     1      -4.879  -9.792 -15.261  1.00  0.00     0.041 A 
ATOM     88  F   UNL     1      -2.665  -9.792 -14.496  1.00  0.00    -0.206 F 
ATOM     89  C   UNL     1      -5.977 -10.470 -15.779  1.00  0.00     0.022 A 
BRANCH  86  90
ATOM     90  S   UNL     1      -7.261 -12.739 -16.765  1.00  0.00     0.124 S 
ATOM     91  O   UNL     1      -6.598 -13.301 -17.936  1.00  0.00    -0.237 OA
ATOM     92  O   UNL     1      -7.658 -13.690 -15.732  1.00  0.00    -0.237 OA
ATOM     93  O   UNL     1      -8.235 -11.684 -17.044  1.00  0.00    -0.744 OA
ENDBRANCH  86  90
ENDBRANCH  59  83
BRANCH  71  94
ATOM     94  C   UNL     1       0.805 -15.575 -19.051  1.00  0.00     0.023 A 
ATOM     95  C   UNL     1       0.872 -14.636 -20.096  1.00  0.00     0.031 A 
ATOM     96  C   UNL     1       0.693 -16.935 -19.395  1.00  0.00     0.131 A 
ATOM     97  C   UNL     1       0.766 -15.063 -21.429  1.00  0.00     0.055 A 
ATOM     98  C   UNL     1       0.660 -17.360 -20.724  1.00  0.00     0.041 A 
ATOM     99  F   UNL     1       0.619 -17.878 -18.441  1.00  0.00    -0.206 F 
ATOM    100  C   UNL     1       0.682 -16.420 -21.750  1.00  0.00     0.022 A 
BRANCH  97 101
ATOM    101  S   UNL     1       0.636 -13.814 -22.738  1.00  0.00     0.124 S 
ATOM    102  O   UNL     1      -0.548 -13.066 -22.327  1.00  0.00    -0.237 OA
ATOM    103  O   UNL     1       1.908 -13.107 -22.624  1.00  0.00    -0.237 OA
ATOM    104  O   UNL     1       0.477 -14.607 -23.956  1.00  0.00    -0.744 OA
ENDBRANCH  97 101
ENDBRANCH  71  94
ENDBRANCH  45  46
ENDBRANCH  37  40
ENDBRANCH  35  36
ENDBRANCH   1  35
TORSDOF 17
