REMARK SMILES O=C(/C=C/[C@@]12C=C(O)C(=O)C=C1C(=O)C1=Cc3cc(O)c(O)cc3O[C@@H](c3ccc(O)c(O)c3)[C@@H]12)NCCCNC(=O)c1ccc(-c2c3nc(c(-c4cc(S(=O)(=O)[O-])ccc4F)c4ccc([nH]4)c(-c4cc(S(=O)(=O)[O-])ccc4F)c4nc(c(-c5cc(S(=O)(=O)[O-])ccc5F)c5ccc2[nH]5)C=C4)C=C3)cc1
REMARK SMILES IDX 1 1 2 2 36 3 3 5 4 6 5 7 6 8 12 9 35 10 7 11 11 12 13 13
REMARK SMILES IDX 15 14 9 16 14 17 16 18 10 19 8 20 17 22 18 23 24 24 19 25
REMARK SMILES IDX 23 26 21 27 25 28 26 29 27 31 28 32 34 33 29 34 32 35 30 36
REMARK SMILES IDX 33 37 31 39 20 41 22 43 37 45 38 46 39 47 40 48 41 49 42 51
REMARK SMILES IDX 43 52 44 53 105 54 45 55 104 56 46 57 47 58 48 59 98 60
REMARK SMILES IDX 49 61 103 62 97 63 99 64 50 65 102 66 96 67 95 68 51 70
REMARK SMILES IDX 83 71 63 72 82 73 64 74 67 75 81 76 100 77 65 78 66 79 80 81
REMARK SMILES IDX 101 82 68 83 52 84 53 85 61 86 54 87 60 88 62 89 59 90 55 91
REMARK SMILES IDX 56 92 57 93 58 94 84 95 85 96 93 97 86 98 92 99 94 100
REMARK SMILES IDX 91 101 87 102 88 103 89 104 90 105 69 106 70 107 78 108
REMARK SMILES IDX 71 109 77 110 79 111 76 112 72 113 73 114 74 115 75 116
REMARK H PARENT 36 4 8 21 33 38 31 40 20 42 22 44 40 50 99 69 67 80
REMARK Flexibility Score: 80.00
ROOT
ATOM      1  O   UNL     1       0.772   0.119  -0.012  1.00  0.00    -0.270 OA
ATOM      2  C   UNL     1       1.980   0.307   0.069  1.00  0.00     0.243 C 
ATOM      3  N   UNL     1       2.671   0.436   1.249  1.00  0.00    -0.352 N 
ATOM      4  H   UNL     1       3.637   0.619   1.207  1.00  0.00     0.163 HD
ENDROOT
BRANCH   2   5
ATOM      5  C   UNL     1       2.778   0.434  -1.196  1.00  0.00     0.068 C 
ATOM      6  C   UNL     1       4.112   0.303  -1.258  1.00  0.00    -0.005 C 
BRANCH   6   7
ATOM      7  C   UNL     1       5.080   0.265  -2.459  1.00  0.00     0.051 C 
ATOM      8  C   UNL     1       6.107   1.321  -2.149  1.00  0.00     0.040 C 
ATOM      9  C   UNL     1       5.675  -1.124  -2.428  1.00  0.00     0.018 C 
ATOM     10  C   UNL     1       4.475   0.274  -3.910  1.00  0.00     0.087 CG0
ATOM     11  C   UNL     1       7.324   1.034  -1.668  1.00  0.00     0.160 C 
ATOM     12  C   UNL     1       6.886  -1.468  -1.981  1.00  0.00     0.065 C 
ATOM     13  C   UNL     1       4.712  -2.025  -3.114  1.00  0.00     0.186 C 
ATOM     14  C   UNL     1       3.905  -1.131  -3.993  1.00  0.00     0.009 C 
ATOM     15  G   UNL     1       5.447   0.359  -5.147  1.00  0.00     0.000 G0
ATOM     16  C   UNL     1       7.783  -0.385  -1.514  1.00  0.00     0.220 C 
ATOM     17  O   UNL     1       4.665  -3.227  -3.047  1.00  0.00    -0.289 OA
ATOM     18  C   UNL     1       2.971  -1.528  -4.860  1.00  0.00     0.020 C 
ATOM     19  O   UNL     1       8.906  -0.608  -1.076  1.00  0.00    -0.286 OA
BRANCH  11  20
ATOM     20  O   UNL     1       8.205   2.042  -1.327  1.00  0.00    -0.504 OA
ATOM     21  H   UNL     1       7.947   2.938  -1.413  1.00  0.00     0.293 HD
ENDBRANCH  11  20
BRANCH  18  22
ATOM     22  C   UNL     1       2.565  -0.585  -5.911  1.00  0.00     0.021 A 
ATOM     23  C   UNL     1       1.207  -0.432  -6.226  1.00  0.00     0.062 A 
ATOM     24  C   UNL     1       3.534   0.124  -6.656  1.00  0.00     0.131 A 
ATOM     25  C   UNL     1       0.841   0.402  -7.282  1.00  0.00     0.158 A 
ATOM     26  C   UNL     1       3.154   0.895  -7.757  1.00  0.00     0.097 A 
ATOM     27  C   UNL     1       1.810   1.044  -8.048  1.00  0.00     0.161 A 
BRANCH  24  28
ATOM     28  O   UNL     1       4.885   0.032  -6.449  1.00  0.00    -0.484 OA
BRANCH  28  29
ATOM     29  C   UNL     1       5.447   0.359  -5.147  1.00  0.00     0.213 CG0
ATOM     30  G   UNL     1       4.475   0.274  -3.910  1.00  0.00     0.000 G0
BRANCH  29  31
ATOM     31  C   UNL     1       6.194   1.676  -5.295  1.00  0.00    -0.003 A 
ATOM     32  C   UNL     1       7.529   1.772  -4.859  1.00  0.00     0.011 A 
ATOM     33  C   UNL     1       5.593   2.817  -5.845  1.00  0.00     0.057 A 
ATOM     34  C   UNL     1       8.187   3.002  -4.822  1.00  0.00     0.050 A 
ATOM     35  C   UNL     1       6.286   4.026  -5.886  1.00  0.00     0.157 A 
ATOM     36  C   UNL     1       7.550   4.133  -5.317  1.00  0.00     0.157 A 
BRANCH  35  37
ATOM     37  O   UNL     1       5.710   5.119  -6.469  1.00  0.00    -0.504 OA
ATOM     38  H   UNL     1       6.174   5.933  -6.499  1.00  0.00     0.293 HD
ENDBRANCH  35  37
BRANCH  36  39
ATOM     39  O   UNL     1       8.165   5.349  -5.245  1.00  0.00    -0.504 OA
ATOM     40  H   UNL     1       9.016   5.422  -4.862  1.00  0.00     0.293 HD
ENDBRANCH  36  39
ENDBRANCH  29  31
ENDBRANCH  28  29
ENDBRANCH  24  28
BRANCH  25  41
ATOM     41  O   UNL     1      -0.468   0.616  -7.618  1.00  0.00    -0.504 OA
ATOM     42  H   UNL     1      -1.151   0.203  -7.128  1.00  0.00     0.293 HD
ENDBRANCH  25  41
BRANCH  27  43
ATOM     43  O   UNL     1       1.442   1.836  -9.098  1.00  0.00    -0.504 OA
ATOM     44  H   UNL     1       0.535   1.946  -9.306  1.00  0.00     0.293 HD
ENDBRANCH  27  43
ENDBRANCH  18  22
ENDBRANCH   6   7
ENDBRANCH   2   5
BRANCH   3  45
ATOM     45  C   UNL     1       2.049   0.315   2.558  1.00  0.00     0.118 C 
BRANCH  45  46
ATOM     46  C   UNL     1       2.426  -0.971   3.293  1.00  0.00     0.042 C 
BRANCH  46  47
ATOM     47  C   UNL     1       3.919  -1.177   3.551  1.00  0.00     0.118 C 
BRANCH  47  48
ATOM     48  N   UNL     1       4.519  -0.161   4.406  1.00  0.00    -0.352 N 
ATOM     49  C   UNL     1       5.182  -0.264   5.609  1.00  0.00     0.251 C 
ATOM     50  H   UNL     1       4.436   0.758   4.065  1.00  0.00     0.163 HD
ATOM     51  O   UNL     1       5.516   0.771   6.185  1.00  0.00    -0.269 OA
BRANCH  49  52
ATOM     52  C   UNL     1       5.458  -1.578   6.239  1.00  0.00     0.039 A 
ATOM     53  C   UNL     1       5.886  -2.678   5.496  1.00  0.00     0.014 A 
ATOM     54  C   UNL     1       5.300  -1.707   7.625  1.00  0.00     0.014 A 
ATOM     55  C   UNL     1       5.969  -3.935   6.096  1.00  0.00     0.010 A 
ATOM     56  C   UNL     1       5.467  -2.953   8.242  1.00  0.00     0.010 A 
ATOM     57  C   UNL     1       5.743  -4.093   7.474  1.00  0.00    -0.014 A 
BRANCH  57  58
ATOM     58  C   UNL     1       5.783  -5.453   8.084  1.00  0.00     0.031 A 
ATOM     59  C   UNL     1       4.544  -6.061   8.692  1.00  0.00     0.074 A 
ATOM     60  C   UNL     1       6.926  -6.167   8.049  1.00  0.00     0.049 A 
ATOM     61  N   UNL     1       4.385  -7.247   9.224  1.00  0.00    -0.248 NA
ATOM     62  C   UNL     1       3.328  -5.233   8.710  1.00  0.00     0.031 C 
ATOM     63  C   UNL     1       8.191  -5.689   7.492  1.00  0.00     0.029 A 
ATOM     64  N   UNL     1       7.209  -7.444   8.470  1.00  0.00    -0.354 N 
ATOM     65  C   UNL     1       3.060  -7.304   9.647  1.00  0.00     0.074 A 
ATOM     66  C   UNL     1       2.471  -6.017   9.350  1.00  0.00     0.031 C 
ATOM     67  C   UNL     1       9.099  -6.672   7.560  1.00  0.00     0.029 A 
ATOM     68  C   UNL     1       8.507  -7.832   8.223  1.00  0.00     0.049 A 
ATOM     69  H   UNL     1       6.547  -8.027   8.907  1.00  0.00     0.167 HD
ATOM     70  C   UNL     1       2.392  -8.339  10.211  1.00  0.00     0.034 A 
ATOM     71  C   UNL     1       9.155  -8.983   8.502  1.00  0.00     0.034 A 
ATOM     72  C   UNL     1       2.983  -9.625  10.484  1.00  0.00     0.049 A 
ATOM     73  C   UNL     1       8.398 -10.111   9.158  1.00  0.00     0.074 A 
ATOM     74  C   UNL     1       2.373 -10.746  11.019  1.00  0.00     0.029 A 
ATOM     75  N   UNL     1       4.306  -9.968  10.245  1.00  0.00    -0.354 N 
ATOM     76  N   UNL     1       7.131 -10.165   9.494  1.00  0.00    -0.248 NA
ATOM     77  C   UNL     1       9.151 -11.334   9.468  1.00  0.00     0.031 C 
ATOM     78  C   UNL     1       3.338 -11.742  11.166  1.00  0.00     0.029 A 
ATOM     79  C   UNL     1       4.536 -11.274  10.650  1.00  0.00     0.049 A 
ATOM     80  H   UNL     1       4.981  -9.373   9.847  1.00  0.00     0.167 HD
ATOM     81  C   UNL     1       6.930 -11.433  10.035  1.00  0.00     0.074 A 
ATOM     82  C   UNL     1       8.201 -12.123   9.955  1.00  0.00     0.031 C 
ATOM     83  C   UNL     1       5.798 -11.969  10.554  1.00  0.00     0.034 A 
BRANCH  70  84
ATOM     84  C   UNL     1       0.934  -8.159  10.562  1.00  0.00     0.023 A 
ATOM     85  C   UNL     1       0.513  -8.266  11.902  1.00  0.00     0.031 A 
ATOM     86  C   UNL     1      -0.050  -8.026   9.566  1.00  0.00     0.131 A 
ATOM     87  C   UNL     1      -0.855  -8.277  12.204  1.00  0.00     0.055 A 
ATOM     88  C   UNL     1      -1.410  -7.995   9.877  1.00  0.00     0.041 A 
ATOM     89  F   UNL     1       0.299  -7.923   8.273  1.00  0.00    -0.206 F 
ATOM     90  C   UNL     1      -1.818  -8.135  11.200  1.00  0.00     0.022 A 
BRANCH  87  91
ATOM     91  S   UNL     1      -1.440  -8.550  13.899  1.00  0.00     0.124 S 
ATOM     92  O   UNL     1      -2.208  -7.332  14.149  1.00  0.00    -0.237 OA
ATOM     93  O   UNL     1      -2.233  -9.768  13.756  1.00  0.00    -0.237 OA
ATOM     94  O   UNL     1      -0.214  -8.682  14.678  1.00  0.00    -0.744 OA
ENDBRANCH  87  91
ENDBRANCH  70  84
BRANCH  71  95
ATOM     95  C   UNL     1      10.588  -9.122   8.106  1.00  0.00     0.023 A 
ATOM     96  C   UNL     1      11.567  -8.252   8.621  1.00  0.00     0.031 A 
ATOM     97  C   UNL     1      10.979 -10.046   7.124  1.00  0.00     0.131 A 
ATOM     98  C   UNL     1      12.864  -8.270   8.094  1.00  0.00     0.055 A 
ATOM     99  C   UNL     1      12.294 -10.114   6.657  1.00  0.00     0.041 A 
ATOM    100  F   UNL     1      10.081 -10.890   6.593  1.00  0.00    -0.206 F 
ATOM    101  C   UNL     1      13.239  -9.209   7.129  1.00  0.00     0.022 A 
BRANCH  98 102
ATOM    102  S   UNL     1      14.064  -6.982   8.536  1.00  0.00     0.124 S 
ATOM    103  O   UNL     1      15.147  -7.763   9.125  1.00  0.00    -0.237 OA
ATOM    104  O   UNL     1      14.351  -6.384   7.234  1.00  0.00    -0.237 OA
ATOM    105  O   UNL     1      13.326  -6.127   9.460  1.00  0.00    -0.744 OA
ENDBRANCH  98 102
ENDBRANCH  71  95
BRANCH  83 106
ATOM    106  C   UNL     1       5.837 -13.383  11.087  1.00  0.00     0.023 A 
ATOM    107  C   UNL     1       5.021 -14.375  10.508  1.00  0.00     0.031 A 
ATOM    108  C   UNL     1       6.544 -13.705  12.258  1.00  0.00     0.131 A 
ATOM    109  C   UNL     1       4.895 -15.624  11.129  1.00  0.00     0.055 A 
ATOM    110  C   UNL     1       6.454 -14.968  12.845  1.00  0.00     0.041 A 
ATOM    111  F   UNL     1       7.326 -12.791  12.855  1.00  0.00    -0.206 F 
ATOM    112  C   UNL     1       5.614 -15.929  12.289  1.00  0.00     0.022 A 
BRANCH 109 113
ATOM    113  S   UNL     1       3.721 -16.863  10.512  1.00  0.00     0.124 S 
ATOM    114  O   UNL     1       4.603 -17.983  10.194  1.00  0.00    -0.237 OA
ATOM    115  O   UNL     1       2.851 -17.064  11.668  1.00  0.00    -0.237 OA
ATOM    116  O   UNL     1       3.098 -16.217   9.362  1.00  0.00    -0.744 OA
ENDBRANCH 109 113
ENDBRANCH  83 106
ENDBRANCH  57  58
ENDBRANCH  49  52
ENDBRANCH  47  48
ENDBRANCH  46  47
ENDBRANCH  45  46
ENDBRANCH   3  45
TORSDOF 20
