REMARK SMILES CC(C)Cn1c([C@@H](O)[C@@H](O)C(=O)NCCCNC(=O)c2ccc(-c3c4nc(c(-c5cc(S(=O)(=O)[O-])ccc5F)c5ccc([nH]5)c(-c5cc(S(=O)(=O)[O-])ccc5F)c5nc(c(-c6cc(S(=O)(=O)[O-])ccc6F)c6ccc3[nH]6)C=C5)C=C4)cc2)nc2cc(Cl)ccc21
REMARK SMILES IDX 14 1 13 2 11 3 12 4 9 6 7 7 6 8 5 9 90 10 83 11 84 12 89 13
REMARK SMILES IDX 85 14 88 15 86 16 87 17 4 18 2 19 1 20 3 21 8 22 10 24 15 26
REMARK SMILES IDX 16 27 17 28 18 29 19 31 20 32 21 33 82 34 22 35 81 36 23 37
REMARK SMILES IDX 24 38 25 39 75 40 26 41 80 42 74 43 76 44 27 45 79 46 73 47
REMARK SMILES IDX 72 48 28 50 60 51 40 52 59 53 41 54 44 55 58 56 77 57 42 58
REMARK SMILES IDX 43 59 57 61 78 62 45 63 29 64 30 65 38 66 31 67 37 68 39 69
REMARK SMILES IDX 36 70 32 71 33 72 34 73 35 74 61 75 62 76 70 77 63 78 69 79
REMARK SMILES IDX 71 80 68 81 64 82 65 83 66 84 67 85 46 86 47 87 55 88 48 89
REMARK SMILES IDX 54 90 56 91 53 92 49 93 50 94 51 95 52 96
REMARK H PARENT 13 5 8 23 10 25 17 30 76 49 44 60
REMARK Flexibility Score: inf
ROOT
ATOM      1  C   UNL     1       3.437  -0.338  -0.776  1.00  0.00     0.117 C 
ENDROOT
BRANCH   1   2
ATOM      2  N   UNL     1       3.606  -1.705  -0.311  1.00  0.00    -0.354 N 
ATOM      3  C   UNL     1       2.715  -2.704  -0.037  1.00  0.00     0.252 C 
ATOM      4  O   UNL     1       3.213  -3.820   0.165  1.00  0.00    -0.272 OA
ATOM      5  H   UNL     1       4.545  -1.961  -0.166  1.00  0.00     0.163 HD
BRANCH   3   6
ATOM      6  C   UNL     1       1.177  -2.514   0.021  1.00  0.00     0.239 C 
BRANCH   6   7
ATOM      7  C   UNL     1       0.701  -1.842   1.335  1.00  0.00     0.219 C 
BRANCH   7   8
ATOM      8  C   UNL     1      -0.817  -1.736   1.395  1.00  0.00     0.142 A 
ATOM      9  N   UNL     1      -1.611  -0.601   1.529  1.00  0.00    -0.325 N 
ATOM     10  C   UNL     1      -2.940  -1.026   1.552  1.00  0.00     0.068 A 
ATOM     11  N   UNL     1      -1.581  -2.821   1.360  1.00  0.00    -0.230 NA
ATOM     12  C   UNL     1      -2.878  -2.407   1.462  1.00  0.00     0.090 A 
ATOM     13  C   UNL     1      -4.160  -0.338   1.662  1.00  0.00     0.030 A 
ATOM     14  C   UNL     1      -4.059  -3.164   1.491  1.00  0.00     0.051 A 
ATOM     15  C   UNL     1      -5.333  -1.100   1.677  1.00  0.00     0.023 A 
ATOM     16  C   UNL     1      -5.279  -2.490   1.598  1.00  0.00     0.043 A 
ATOM     17  Cl  UNL     1      -6.747  -3.395   1.634  1.00  0.00    -0.084 Cl
BRANCH   9  18
ATOM     18  C   UNL     1      -1.307   0.814   1.730  1.00  0.00     0.127 C 
BRANCH  18  19
ATOM     19  C   UNL     1       0.021   1.406   1.264  1.00  0.00     0.003 C 
ATOM     20  C   UNL     1       0.201   1.201  -0.236  1.00  0.00     0.009 C 
ATOM     21  C   UNL     1       0.134   2.894   1.597  1.00  0.00     0.009 C 
ENDBRANCH  18  19
ENDBRANCH   9  18
ENDBRANCH   7   8
BRANCH   7  22
ATOM     22  O   UNL     1       1.100  -2.638   2.464  1.00  0.00    -0.382 OA
ATOM     23  H   UNL     1       0.683  -3.512   2.407  1.00  0.00     0.211 HD
ENDBRANCH   7  22
ENDBRANCH   6   7
BRANCH   6  24
ATOM     24  O   UNL     1       0.663  -1.863  -1.144  1.00  0.00    -0.380 OA
ATOM     25  H   UNL     1       1.017  -0.961  -1.193  1.00  0.00     0.211 HD
ENDBRANCH   6  24
ENDBRANCH   3   6
ENDBRANCH   1   2
BRANCH   1  26
ATOM     26  C   UNL     1       3.564   0.692   0.354  1.00  0.00     0.042 C 
BRANCH  26  27
ATOM     27  C   UNL     1       5.013   0.989   0.736  1.00  0.00     0.118 C 
BRANCH  27  28
ATOM     28  N   UNL     1       5.734   1.685  -0.309  1.00  0.00    -0.352 N 
ATOM     29  C   UNL     1       5.930   2.987  -0.675  1.00  0.00     0.251 C 
ATOM     30  H   UNL     1       6.203   1.062  -0.909  1.00  0.00     0.163 HD
ATOM     31  O   UNL     1       6.629   3.140  -1.681  1.00  0.00    -0.269 OA
BRANCH  29  32
ATOM     32  C   UNL     1       5.348   4.189  -0.015  1.00  0.00     0.039 A 
ATOM     33  C   UNL     1       4.642   4.219   1.190  1.00  0.00     0.014 A 
ATOM     34  C   UNL     1       5.537   5.399  -0.711  1.00  0.00     0.014 A 
ATOM     35  C   UNL     1       4.057   5.406   1.637  1.00  0.00     0.010 A 
ATOM     36  C   UNL     1       4.972   6.584  -0.264  1.00  0.00     0.010 A 
ATOM     37  C   UNL     1       4.184   6.573   0.882  1.00  0.00    -0.014 A 
BRANCH  37  38
ATOM     38  C   UNL     1       3.545   7.803   1.345  1.00  0.00     0.031 A 
ATOM     39  C   UNL     1       4.120   8.396   2.589  1.00  0.00     0.074 A 
ATOM     40  C   UNL     1       2.630   8.445   0.589  1.00  0.00     0.049 A 
ATOM     41  N   UNL     1       3.520   8.672   3.703  1.00  0.00    -0.248 NA
ATOM     42  C   UNL     1       5.577   8.598   2.637  1.00  0.00     0.031 C 
ATOM     43  C   UNL     1       2.220   8.123  -0.783  1.00  0.00     0.029 A 
ATOM     44  N   UNL     1       1.966   9.608   0.831  1.00  0.00    -0.354 N 
ATOM     45  C   UNL     1       4.484   9.256   4.531  1.00  0.00     0.074 A 
ATOM     46  C   UNL     1       5.751   9.034   3.885  1.00  0.00     0.031 C 
ATOM     47  C   UNL     1       1.600   9.193  -1.327  1.00  0.00     0.029 A 
ATOM     48  C   UNL     1       1.452  10.217  -0.307  1.00  0.00     0.049 A 
ATOM     49  H   UNL     1       1.858   9.985   1.735  1.00  0.00     0.167 HD
ATOM     50  C   UNL     1       4.151  10.045   5.595  1.00  0.00     0.034 A 
ATOM     51  C   UNL     1       1.040  11.507  -0.431  1.00  0.00     0.034 A 
ATOM     52  C   UNL     1       2.767   9.888   5.945  1.00  0.00     0.049 A 
ATOM     53  C   UNL     1       0.807  12.046   0.932  1.00  0.00     0.074 A 
ATOM     54  C   UNL     1       2.001   8.834   6.400  1.00  0.00     0.029 A 
ATOM     55  N   UNL     1       1.879  10.834   5.492  1.00  0.00    -0.354 N 
ATOM     56  N   UNL     1      -0.162  11.654   1.710  1.00  0.00    -0.248 NA
ATOM     57  C   UNL     1       1.938  12.672   1.604  1.00  0.00     0.031 C 
ATOM     58  C   UNL     1       0.748   8.987   5.745  1.00  0.00     0.029 A 
ATOM     59  C   UNL     1       0.792  10.163   4.992  1.00  0.00     0.049 A 
ATOM     60  H   UNL     1       2.000  11.810   5.521  1.00  0.00     0.167 HD
ATOM     61  C   UNL     1       0.426  11.545   2.961  1.00  0.00     0.074 A 
ATOM     62  C   UNL     1       1.691  12.274   2.855  1.00  0.00     0.031 C 
ATOM     63  C   UNL     1      -0.006  10.626   3.875  1.00  0.00     0.034 A 
BRANCH  50  64
ATOM     64  C   UNL     1       4.995  11.185   6.121  1.00  0.00     0.023 A 
ATOM     65  C   UNL     1       6.112  11.692   5.432  1.00  0.00     0.031 A 
ATOM     66  C   UNL     1       4.561  11.950   7.225  1.00  0.00     0.131 A 
ATOM     67  C   UNL     1       6.747  12.878   5.825  1.00  0.00     0.055 A 
ATOM     68  C   UNL     1       5.154  13.170   7.579  1.00  0.00     0.041 A 
ATOM     69  F   UNL     1       3.505  11.568   7.961  1.00  0.00    -0.206 F 
ATOM     70  C   UNL     1       6.253  13.642   6.876  1.00  0.00     0.022 A 
BRANCH  67  71
ATOM     71  S   UNL     1       8.229  13.457   4.954  1.00  0.00     0.124 S 
ATOM     72  O   UNL     1       7.783  14.733   4.414  1.00  0.00    -0.237 OA
ATOM     73  O   UNL     1       9.202  13.528   6.039  1.00  0.00    -0.237 OA
ATOM     74  O   UNL     1       8.479  12.400   3.971  1.00  0.00    -0.744 OA
ENDBRANCH  67  71
ENDBRANCH  50  64
BRANCH  51  75
ATOM     75  C   UNL     1       1.354  12.396  -1.580  1.00  0.00     0.023 A 
ATOM     76  C   UNL     1       2.481  12.123  -2.377  1.00  0.00     0.031 A 
ATOM     77  C   UNL     1       0.761  13.662  -1.724  1.00  0.00     0.131 A 
ATOM     78  C   UNL     1       3.015  13.096  -3.230  1.00  0.00     0.055 A 
ATOM     79  C   UNL     1       1.283  14.630  -2.595  1.00  0.00     0.041 A 
ATOM     80  F   UNL     1      -0.293  14.010  -0.970  1.00  0.00    -0.206 F 
ATOM     81  C   UNL     1       2.425  14.354  -3.343  1.00  0.00     0.022 A 
BRANCH  78  82
ATOM     82  S   UNL     1       4.552  12.756  -4.129  1.00  0.00     0.124 S 
ATOM     83  O   UNL     1       4.251  13.265  -5.465  1.00  0.00    -0.237 OA
ATOM     84  O   UNL     1       5.520  13.531  -3.361  1.00  0.00    -0.237 OA
ATOM     85  O   UNL     1       4.685  11.305  -4.039  1.00  0.00    -0.744 OA
ENDBRANCH  78  82
ENDBRANCH  51  75
BRANCH  63  86
ATOM     86  C   UNL     1      -1.263   9.829   3.588  1.00  0.00     0.023 A 
ATOM     87  C   UNL     1      -2.190   9.693   4.635  1.00  0.00     0.031 A 
ATOM     88  C   UNL     1      -1.445   9.008   2.457  1.00  0.00     0.131 A 
ATOM     89  C   UNL     1      -3.204   8.730   4.562  1.00  0.00     0.055 A 
ATOM     90  C   UNL     1      -2.506   8.104   2.354  1.00  0.00     0.041 A 
ATOM     91  F   UNL     1      -0.556   8.978   1.459  1.00  0.00    -0.206 F 
ATOM     92  C   UNL     1      -3.381   7.946   3.419  1.00  0.00     0.022 A 
BRANCH  89  93
ATOM     93  S   UNL     1      -4.196   8.339   6.024  1.00  0.00     0.124 S 
ATOM     94  O   UNL     1      -5.534   8.741   5.603  1.00  0.00    -0.237 OA
ATOM     95  O   UNL     1      -3.988   6.898   6.160  1.00  0.00    -0.237 OA
ATOM     96  O   UNL     1      -3.601   9.149   7.083  1.00  0.00    -0.744 OA
ENDBRANCH  89  93
ENDBRANCH  63  86
ENDBRANCH  37  38
ENDBRANCH  29  32
ENDBRANCH  27  28
ENDBRANCH  26  27
ENDBRANCH   1  26
TORSDOF 19
