REMARK SMILES CC(=O)NS(=O)(=O)c1cc(-c2ccn(C(F)F)c(=O)c2)ccc1C(=O)NCCCNC(=O)c1ccc(-c2c3nc(c(-c4cc(S(=O)(=O)[O-])ccc4F)c4ccc([nH]4)c(-c4cc(S(=O)(=O)[O-])ccc4F)c4nc(c(-c5cc(S(=O)(=O)[O-])ccc5F)c5ccc2[nH]5)C=C4)C=C3)cc1
REMARK SMILES IDX 28 1 27 2 26 3 24 4 25 5 23 7 8 8 9 9 10 10 22 11 21 12 5 13
REMARK SMILES IDX 6 14 7 15 4 16 1 17 2 18 3 19 11 21 12 22 20 23 13 24 18 25
REMARK SMILES IDX 14 26 19 27 15 28 16 29 17 30 29 31 30 32 31 33 32 35 33 36
REMARK SMILES IDX 34 37 95 38 35 39 94 40 36 41 37 42 38 43 88 44 39 45 93 46
REMARK SMILES IDX 87 47 89 48 40 49 92 50 86 51 85 52 41 54 73 55 53 56 72 57
REMARK SMILES IDX 54 58 57 59 71 60 90 61 55 62 56 63 70 65 91 66 58 67 42 68
REMARK SMILES IDX 43 69 51 70 44 71 50 72 52 73 49 74 45 75 46 76 47 77 48 78
REMARK SMILES IDX 74 79 75 80 83 81 76 82 82 83 84 84 81 85 77 86 78 87 79 88
REMARK SMILES IDX 80 89 59 90 60 91 68 92 61 93 67 94 69 95 66 96 62 97 63 98
REMARK SMILES IDX 64 99 65 100
REMARK H PARENT 26 6 4 20 30 34 89 53 57 64
REMARK Flexibility Score: inf
ROOT
ATOM      1  C   UNL     1       3.026  -2.013   3.591  1.00  0.00     0.042 C 
ENDROOT
BRANCH   1   2
ATOM      2  C   UNL     1       2.587  -1.978   2.136  1.00  0.00     0.118 C 
BRANCH   2   3
ATOM      3  N   UNL     1       2.040  -0.691   1.734  1.00  0.00    -0.352 N 
ATOM      4  C   UNL     1       1.906  -0.135   0.497  1.00  0.00     0.252 C 
ATOM      5  O   UNL     1       1.395   0.973   0.370  1.00  0.00    -0.269 OA
ATOM      6  H   UNL     1       1.713  -0.132   2.475  1.00  0.00     0.163 HD
BRANCH   4   7
ATOM      7  C   UNL     1       2.438  -0.801  -0.697  1.00  0.00     0.060 A 
ATOM      8  C   UNL     1       2.022  -2.019  -1.222  1.00  0.00     0.101 A 
ATOM      9  C   UNL     1       2.706  -2.572  -2.326  1.00  0.00     0.031 A 
ATOM     10  C   UNL     1       3.740  -1.876  -2.974  1.00  0.00    -0.017 A 
ATOM     11  C   UNL     1       3.425  -0.070  -1.373  1.00  0.00     0.016 A 
ATOM     12  C   UNL     1       4.049  -0.592  -2.507  1.00  0.00     0.009 A 
BRANCH   8  13
ATOM     13  S   UNL     1       0.584  -2.910  -0.703  1.00  0.00     0.264 S 
ATOM     14  O   UNL     1       1.073  -4.012   0.096  1.00  0.00    -0.201 OA
ATOM     15  O   UNL     1      -0.206  -3.157  -1.888  1.00  0.00    -0.201 OA
BRANCH  13  16
ATOM     16  N   UNL     1      -0.297  -1.953   0.306  1.00  0.00    -0.249 N 
ATOM     17  C   UNL     1      -1.185  -0.227  -1.296  1.00  0.00     0.115 C 
ATOM     18  C   UNL     1      -1.224  -0.941   0.024  1.00  0.00     0.230 C 
ATOM     19  O   UNL     1      -1.985  -0.595   0.919  1.00  0.00    -0.274 OA
ATOM     20  H   UNL     1      -0.149  -2.120   1.265  1.00  0.00     0.183 HD
ENDBRANCH  13  16
ENDBRANCH   8  13
BRANCH  10  21
ATOM     21  C   UNL     1       4.511  -2.450  -4.111  1.00  0.00    -0.011 A 
ATOM     22  C   UNL     1       5.919  -2.138  -4.326  1.00  0.00     0.027 A 
ATOM     23  C   UNL     1       3.917  -3.283  -4.987  1.00  0.00     0.080 A 
ATOM     24  C   UNL     1       6.587  -2.621  -5.378  1.00  0.00     0.095 A 
ATOM     25  C   UNL     1       4.658  -3.863  -6.146  1.00  0.00     0.255 A 
ATOM     26  N   UNL     1       5.974  -3.461  -6.284  1.00  0.00    -0.258 N 
ATOM     27  O   UNL     1       4.066  -4.635  -6.894  1.00  0.00    -0.269 OA
BRANCH  26  28
ATOM     28  C   UNL     1       6.709  -3.981  -7.407  1.00  0.00     0.451 C 
ATOM     29  F   UNL     1       6.813  -5.330  -7.343  1.00  0.00    -0.185 F 
ATOM     30  F   UNL     1       6.104  -3.661  -8.578  1.00  0.00    -0.185 F 
ENDBRANCH  26  28
ENDBRANCH  10  21
ENDBRANCH   4   7
ENDBRANCH   2   3
ENDBRANCH   1   2
BRANCH   1  31
ATOM     31  C   UNL     1       1.946  -1.602   4.588  1.00  0.00     0.118 C 
BRANCH  31  32
ATOM     32  N   UNL     1       0.783  -2.483   4.619  1.00  0.00    -0.352 N 
ATOM     33  C   UNL     1       0.349  -3.354   5.595  1.00  0.00     0.251 C 
ATOM     34  H   UNL     1       0.218  -2.450   3.813  1.00  0.00     0.163 HD
ATOM     35  O   UNL     1      -0.613  -4.084   5.376  1.00  0.00    -0.269 OA
BRANCH  33  36
ATOM     36  C   UNL     1       1.081  -3.440   6.875  1.00  0.00     0.039 A 
ATOM     37  C   UNL     1       1.445  -4.691   7.375  1.00  0.00     0.014 A 
ATOM     38  C   UNL     1       1.478  -2.280   7.536  1.00  0.00     0.014 A 
ATOM     39  C   UNL     1       2.323  -4.769   8.460  1.00  0.00     0.010 A 
ATOM     40  C   UNL     1       2.453  -2.358   8.521  1.00  0.00     0.010 A 
ATOM     41  C   UNL     1       2.899  -3.603   8.990  1.00  0.00    -0.014 A 
BRANCH  41  42
ATOM     42  C   UNL     1       3.977  -3.642  10.017  1.00  0.00     0.031 A 
ATOM     43  C   UNL     1       3.816  -2.871  11.301  1.00  0.00     0.074 A 
ATOM     44  C   UNL     1       5.146  -4.259   9.747  1.00  0.00     0.049 A 
ATOM     45  N   UNL     1       4.703  -2.590  12.221  1.00  0.00    -0.248 NA
ATOM     46  C   UNL     1       2.493  -2.280  11.542  1.00  0.00     0.031 C 
ATOM     47  C   UNL     1       5.465  -4.984   8.514  1.00  0.00     0.029 A 
ATOM     48  N   UNL     1       6.293  -4.364  10.493  1.00  0.00    -0.354 N 
ATOM     49  C   UNL     1       4.061  -1.739  13.116  1.00  0.00     0.074 A 
ATOM     50  C   UNL     1       2.736  -1.500  12.582  1.00  0.00     0.031 C 
ATOM     51  C   UNL     1       6.701  -5.499   8.611  1.00  0.00     0.029 A 
ATOM     52  C   UNL     1       7.285  -5.095   9.884  1.00  0.00     0.049 A 
ATOM     53  H   UNL     1       6.396  -3.954  11.383  1.00  0.00     0.167 HD
ATOM     54  C   UNL     1       4.521  -1.226  14.285  1.00  0.00     0.034 A 
ATOM     55  C   UNL     1       8.529  -5.402  10.301  1.00  0.00     0.034 A 
ATOM     56  C   UNL     1       5.821  -1.530  14.833  1.00  0.00     0.049 A 
ATOM     57  C   UNL     1       8.999  -4.882  11.632  1.00  0.00     0.074 A 
ATOM     58  C   UNL     1       6.368  -1.130  16.040  1.00  0.00     0.029 A 
ATOM     59  N   UNL     1       6.774  -2.327  14.211  1.00  0.00    -0.354 N 
ATOM     60  N   UNL     1       8.378  -4.090  12.474  1.00  0.00    -0.248 NA
ATOM     61  C   UNL     1      10.337  -5.301  12.068  1.00  0.00     0.031 C 
ATOM     62  C   UNL     1       7.663  -1.658  16.132  1.00  0.00     0.029 A 
ATOM     63  C   UNL     1       7.905  -2.428  15.006  1.00  0.00     0.049 A 
ATOM     64  H   UNL     1       6.662  -2.758  13.333  1.00  0.00     0.167 HD
ATOM     65  C   UNL     1       9.242  -3.935  13.553  1.00  0.00     0.074 A 
ATOM     66  C   UNL     1      10.423  -4.722  13.257  1.00  0.00     0.031 C 
ATOM     67  C   UNL     1       9.075  -3.210  14.687  1.00  0.00     0.034 A 
BRANCH  54  68
ATOM     68  C   UNL     1       3.606  -0.276  15.024  1.00  0.00     0.023 A 
ATOM     69  C   UNL     1       2.335  -0.679  15.471  1.00  0.00     0.031 A 
ATOM     70  C   UNL     1       3.968   1.070  15.207  1.00  0.00     0.131 A 
ATOM     71  C   UNL     1       1.428   0.274  15.956  1.00  0.00     0.055 A 
ATOM     72  C   UNL     1       3.096   1.994  15.790  1.00  0.00     0.041 A 
ATOM     73  F   UNL     1       5.161   1.522  14.790  1.00  0.00    -0.206 F 
ATOM     74  C   UNL     1       1.808   1.604  16.144  1.00  0.00     0.022 A 
BRANCH  71  75
ATOM     75  S   UNL     1      -0.310  -0.212  16.139  1.00  0.00     0.124 S 
ATOM     76  O   UNL     1      -0.642  -0.627  14.777  1.00  0.00    -0.237 OA
ATOM     77  O   UNL     1      -0.236  -1.278  17.131  1.00  0.00    -0.237 OA
ATOM     78  O   UNL     1      -0.964   1.015  16.586  1.00  0.00    -0.744 OA
ENDBRANCH  71  75
ENDBRANCH  54  68
BRANCH  55  79
ATOM     79  C   UNL     1       9.412  -6.257   9.464  1.00  0.00     0.023 A 
ATOM     80  C   UNL     1       9.713  -7.569   9.860  1.00  0.00     0.031 A 
ATOM     81  C   UNL     1       9.976  -5.777   8.270  1.00  0.00     0.131 A 
ATOM     82  C   UNL     1      10.586  -8.349   9.087  1.00  0.00     0.055 A 
ATOM     83  C   UNL     1      10.815  -6.570   7.484  1.00  0.00     0.041 A 
ATOM     84  F   UNL     1       9.703  -4.535   7.842  1.00  0.00    -0.206 F 
ATOM     85  C   UNL     1      11.132  -7.862   7.897  1.00  0.00     0.022 A 
BRANCH  82  86
ATOM     86  S   UNL     1      11.035 -10.001   9.686  1.00  0.00     0.124 S 
ATOM     87  O   UNL     1      11.677  -9.692  10.958  1.00  0.00    -0.237 OA
ATOM     88  O   UNL     1       9.734 -10.658   9.766  1.00  0.00    -0.237 OA
ATOM     89  O   UNL     1      11.924 -10.510   8.644  1.00  0.00    -0.744 OA
ENDBRANCH  82  86
ENDBRANCH  55  79
BRANCH  67  90
ATOM     90  C   UNL     1      10.182  -3.282  15.703  1.00  0.00     0.023 A 
ATOM     91  C   UNL     1      11.425  -2.665  15.482  1.00  0.00     0.031 A 
ATOM     92  C   UNL     1       9.995  -3.997  16.899  1.00  0.00     0.131 A 
ATOM     93  C   UNL     1      12.453  -2.815  16.425  1.00  0.00     0.055 A 
ATOM     94  C   UNL     1      11.006  -4.105  17.853  1.00  0.00     0.041 A 
ATOM     95  F   UNL     1       8.825  -4.605  17.154  1.00  0.00    -0.206 F 
ATOM     96  C   UNL     1      12.248  -3.521  17.614  1.00  0.00     0.022 A 
BRANCH  93  97
ATOM     97  S   UNL     1      14.090  -2.134  16.044  1.00  0.00     0.124 S 
ATOM     98  O   UNL     1      14.441  -2.851  14.821  1.00  0.00    -0.237 OA
ATOM     99  O   UNL     1      13.809  -0.711  15.889  1.00  0.00    -0.237 OA
ATOM    100  O   UNL     1      14.889  -2.483  17.217  1.00  0.00    -0.744 OA
ENDBRANCH  93  97
ENDBRANCH  67  90
ENDBRANCH  41  42
ENDBRANCH  33  36
ENDBRANCH  31  32
ENDBRANCH   1  31
TORSDOF 17
