REMARK SMILES NS(=O)(=O)c1ccc(-n2nc(C(=O)NCCCNC(=O)c3ccc(-c4c5nc(c(-c6cc(S(=O)(=O)[O-])ccc6F)c6ccc([nH]6)c(-c6cc(S(=O)(=O)[O-])ccc6F)c6nc(c(-c7cc(S(=O)(=O)[O-])ccc7F)c7ccc4[nH]7)C=C6)C=C5)cc3)cc2-c2cc3ccccc3s2)cc1
REMARK SMILES IDX 16 1 15 2 14 3 12 4 13 5 11 7 9 8 10 9 85 10 84 11 8 12 5 13
REMARK SMILES IDX 6 14 96 15 7 16 95 17 2 18 3 19 4 20 1 21 86 24 87 25 94 26
REMARK SMILES IDX 88 27 93 28 89 29 92 30 90 31 91 32 17 33 18 34 19 35 20 37
REMARK SMILES IDX 21 38 22 39 83 40 23 41 82 42 24 43 25 44 26 45 76 46 27 47
REMARK SMILES IDX 81 48 75 49 77 50 28 51 80 52 74 53 73 54 29 56 61 57 41 58
REMARK SMILES IDX 60 59 42 60 45 61 59 62 78 63 43 64 44 65 58 67 79 68 46 69
REMARK SMILES IDX 30 70 31 71 39 72 32 73 38 74 40 75 37 76 33 77 34 78 35 79
REMARK SMILES IDX 36 80 62 81 63 82 71 83 64 84 70 85 72 86 69 87 65 88 66 89
REMARK SMILES IDX 67 90 68 91 47 92 48 93 56 94 49 95 55 96 57 97 54 98 50 99
REMARK SMILES IDX 51 100 52 101 53 102
REMARK H PARENT 14 6 1 22 1 23 18 36 77 55 45 66
REMARK Flexibility Score: inf
ROOT
ATOM      1  C   UNL     1       3.729   6.650   9.654  1.00  0.00     0.042 C 
ENDROOT
BRANCH   1   2
ATOM      2  C   UNL     1       2.356   5.963   9.645  1.00  0.00     0.118 C 
BRANCH   2   3
ATOM      3  N   UNL     1       1.341   6.744   8.943  1.00  0.00    -0.351 N 
ATOM      4  C   UNL     1       0.900   6.703   7.628  1.00  0.00     0.271 C 
ATOM      5  O   UNL     1      -0.093   7.372   7.342  1.00  0.00    -0.267 OA
ATOM      6  H   UNL     1       0.890   7.418   9.502  1.00  0.00     0.163 HD
BRANCH   4   7
ATOM      7  C   UNL     1       1.581   5.835   6.648  1.00  0.00     0.151 A 
ATOM      8  N   UNL     1       1.784   4.318   5.128  1.00  0.00    -0.231 N 
ATOM      9  N   UNL     1       0.965   5.319   5.566  1.00  0.00    -0.162 NA
ATOM     10  C   UNL     1       2.903   4.221   5.927  1.00  0.00     0.085 A 
ATOM     11  C   UNL     1       2.908   5.388   6.662  1.00  0.00     0.066 A 
BRANCH   8  12
ATOM     12  C   UNL     1       1.466   3.629   3.933  1.00  0.00     0.065 A 
ATOM     13  C   UNL     1       0.888   2.401   1.498  1.00  0.00     0.082 A 
ATOM     14  C   UNL     1       1.438   1.651   2.543  1.00  0.00     0.024 A 
ATOM     15  C   UNL     1       0.617   3.761   1.663  1.00  0.00     0.024 A 
ATOM     16  C   UNL     1       1.754   2.273   3.757  1.00  0.00     0.030 A 
ATOM     17  C   UNL     1       0.876   4.366   2.891  1.00  0.00     0.030 A 
BRANCH  13  18
ATOM     18  S   UNL     1       0.548   1.682  -0.079  1.00  0.00     0.238 S 
ATOM     19  O   UNL     1       1.251   2.433  -1.091  1.00  0.00    -0.207 OA
ATOM     20  O   UNL     1      -0.865   1.388  -0.159  1.00  0.00    -0.207 OA
BRANCH  18  21
ATOM     21  N   UNL     1       1.315   0.185  -0.041  1.00  0.00    -0.225 NA
ATOM     22  H   UNL     1       1.163  -0.297  -0.927  1.00  0.00     0.137 HD
ATOM     23  H   UNL     1       0.932  -0.374   0.721  1.00  0.00     0.137 HD
ENDBRANCH  18  21
ENDBRANCH  13  18
ENDBRANCH   8  12
BRANCH  10  24
ATOM     24  C   UNL     1       3.858   3.176   6.164  1.00  0.00     0.054 A 
ATOM     25  C   UNL     1       5.231   3.374   6.231  1.00  0.00     0.031 A 
ATOM     26  S   UNL     1       3.455   1.986   7.357  1.00  0.00    -0.134 S 
ATOM     27  C   UNL     1       5.610   3.349   7.635  1.00  0.00    -0.007 A 
ATOM     28  C   UNL     1       4.648   2.682   8.404  1.00  0.00     0.035 A 
ATOM     29  C   UNL     1       6.677   3.986   8.313  1.00  0.00     0.009 A 
ATOM     30  C   UNL     1       4.696   2.656   9.809  1.00  0.00     0.019 A 
ATOM     31  C   UNL     1       6.703   4.009   9.713  1.00  0.00     0.001 A 
ATOM     32  C   UNL     1       5.718   3.362  10.450  1.00  0.00     0.001 A 
ENDBRANCH  10  24
ENDBRANCH   4   7
ENDBRANCH   2   3
ENDBRANCH   1   2
BRANCH   1  33
ATOM     33  C   UNL     1       3.968   7.529  10.868  1.00  0.00     0.118 C 
BRANCH  33  34
ATOM     34  N   UNL     1       4.146   6.759  12.100  1.00  0.00    -0.352 N 
ATOM     35  C   UNL     1       4.135   7.228  13.403  1.00  0.00     0.251 C 
ATOM     36  H   UNL     1       4.292   5.792  11.990  1.00  0.00     0.163 HD
ATOM     37  O   UNL     1       4.649   6.572  14.301  1.00  0.00    -0.269 OA
BRANCH  35  38
ATOM     38  C   UNL     1       3.529   8.547  13.664  1.00  0.00     0.039 A 
ATOM     39  C   UNL     1       4.194   9.511  14.423  1.00  0.00     0.014 A 
ATOM     40  C   UNL     1       2.336   8.851  13.017  1.00  0.00     0.014 A 
ATOM     41  C   UNL     1       3.716  10.823  14.412  1.00  0.00     0.010 A 
ATOM     42  C   UNL     1       1.964  10.169  12.882  1.00  0.00     0.010 A 
ATOM     43  C   UNL     1       2.625  11.168  13.595  1.00  0.00    -0.014 A 
BRANCH  43  44
ATOM     44  C   UNL     1       2.247  12.574  13.406  1.00  0.00     0.031 A 
ATOM     45  C   UNL     1       3.353  13.537  13.132  1.00  0.00     0.074 A 
ATOM     46  C   UNL     1       0.978  13.015  13.261  1.00  0.00     0.049 A 
ATOM     47  N   UNL     1       3.784  14.482  13.901  1.00  0.00    -0.248 NA
ATOM     48  C   UNL     1       4.128  13.388  11.893  1.00  0.00     0.031 C 
ATOM     49  C   UNL     1      -0.262  12.235  13.194  1.00  0.00     0.029 A 
ATOM     50  N   UNL     1       0.545  14.287  13.027  1.00  0.00    -0.354 N 
ATOM     51  C   UNL     1       4.731  15.194  13.168  1.00  0.00     0.074 A 
ATOM     52  C   UNL     1       5.020  14.375  12.018  1.00  0.00     0.031 C 
ATOM     53  C   UNL     1      -1.254  13.001  12.694  1.00  0.00     0.029 A 
ATOM     54  C   UNL     1      -0.775  14.367  12.606  1.00  0.00     0.049 A 
ATOM     55  H   UNL     1       1.118  15.079  13.146  1.00  0.00     0.167 HD
ATOM     56  C   UNL     1       5.045  16.487  13.475  1.00  0.00     0.034 A 
ATOM     57  C   UNL     1      -1.457  15.472  12.223  1.00  0.00     0.034 A 
ATOM     58  C   UNL     1       4.554  16.840  14.791  1.00  0.00     0.049 A 
ATOM     59  C   UNL     1      -0.801  16.629  12.873  1.00  0.00     0.074 A 
ATOM     60  C   UNL     1       4.724  16.324  16.063  1.00  0.00     0.029 A 
ATOM     61  N   UNL     1       3.442  17.649  14.880  1.00  0.00    -0.354 N 
ATOM     62  N   UNL     1      -0.766  16.796  14.167  1.00  0.00    -0.248 NA
ATOM     63  C   UNL     1       0.196  17.380  12.128  1.00  0.00     0.031 C 
ATOM     64  C   UNL     1       3.433  16.412  16.667  1.00  0.00     0.029 A 
ATOM     65  C   UNL     1       2.579  17.044  15.761  1.00  0.00     0.049 A 
ATOM     66  H   UNL     1       3.295  18.498  14.404  1.00  0.00     0.167 HD
ATOM     67  C   UNL     1       0.499  17.295  14.429  1.00  0.00     0.074 A 
ATOM     68  C   UNL     1       0.992  17.755  13.133  1.00  0.00     0.031 C 
ATOM     69  C   UNL     1       1.135  17.035  15.611  1.00  0.00     0.034 A 
BRANCH  56  70
ATOM     70  C   UNL     1       5.508  17.552  12.496  1.00  0.00     0.023 A 
ATOM     71  C   UNL     1       5.762  18.842  13.012  1.00  0.00     0.031 A 
ATOM     72  C   UNL     1       5.453  17.465  11.088  1.00  0.00     0.131 A 
ATOM     73  C   UNL     1       5.830  19.966  12.170  1.00  0.00     0.055 A 
ATOM     74  C   UNL     1       5.597  18.577  10.249  1.00  0.00     0.041 A 
ATOM     75  F   UNL     1       5.169  16.329  10.444  1.00  0.00    -0.206 F 
ATOM     76  C   UNL     1       5.751  19.842  10.788  1.00  0.00     0.022 A 
BRANCH  73  77
ATOM     77  S   UNL     1       5.821  21.613  12.929  1.00  0.00     0.124 S 
ATOM     78  O   UNL     1       4.670  21.518  13.820  1.00  0.00    -0.237 OA
ATOM     79  O   UNL     1       7.131  21.654  13.570  1.00  0.00    -0.237 OA
ATOM     80  O   UNL     1       5.656  22.511  11.789  1.00  0.00    -0.744 OA
ENDBRANCH  73  77
ENDBRANCH  56  70
BRANCH  57  81
ATOM     81  C   UNL     1      -2.485  15.565  11.160  1.00  0.00     0.023 A 
ATOM     82  C   UNL     1      -3.405  16.626  11.093  1.00  0.00     0.031 A 
ATOM     83  C   UNL     1      -2.417  14.703  10.041  1.00  0.00     0.131 A 
ATOM     84  C   UNL     1      -4.207  16.795   9.942  1.00  0.00     0.055 A 
ATOM     85  C   UNL     1      -3.218  14.868   8.910  1.00  0.00     0.041 A 
ATOM     86  F   UNL     1      -1.504  13.720   9.976  1.00  0.00    -0.206 F 
ATOM     87  C   UNL     1      -4.112  15.925   8.852  1.00  0.00     0.022 A 
BRANCH  84  88
ATOM     88  S   UNL     1      -5.306  18.238   9.804  1.00  0.00     0.124 S 
ATOM     89  O   UNL     1      -6.391  17.888  10.714  1.00  0.00    -0.237 OA
ATOM     90  O   UNL     1      -4.440  19.335  10.220  1.00  0.00    -0.237 OA
ATOM     91  O   UNL     1      -5.671  18.252   8.387  1.00  0.00    -0.744 OA
ENDBRANCH  84  88
ENDBRANCH  57  81
BRANCH  69  92
ATOM     92  C   UNL     1       0.328  16.468  16.765  1.00  0.00     0.023 A 
ATOM     93  C   UNL     1      -0.432  15.278  16.710  1.00  0.00     0.031 A 
ATOM     94  C   UNL     1       0.438  17.110  18.012  1.00  0.00     0.131 A 
ATOM     95  C   UNL     1      -1.057  14.782  17.872  1.00  0.00     0.055 A 
ATOM     96  C   UNL     1      -0.164  16.605  19.165  1.00  0.00     0.041 A 
ATOM     97  F   UNL     1       1.171  18.229  18.141  1.00  0.00    -0.206 F 
ATOM     98  C   UNL     1      -0.921  15.442  19.098  1.00  0.00     0.022 A 
BRANCH  95  99
ATOM     99  S   UNL     1      -2.074  13.271  17.808  1.00  0.00     0.124 S 
ATOM    100  O   UNL     1      -2.916  13.471  16.635  1.00  0.00    -0.237 OA
ATOM    101  O   UNL     1      -1.068  12.217  17.701  1.00  0.00    -0.237 OA
ATOM    102  O   UNL     1      -2.793  13.293  19.084  1.00  0.00    -0.744 OA
ENDBRANCH  95  99
ENDBRANCH  69  92
ENDBRANCH  43  44
ENDBRANCH  35  38
ENDBRANCH  33  34
ENDBRANCH   1  33
TORSDOF 17
