REMARK SMILES CCC[C@@H](C[NH2+]C(C)C)C(=O)NCCCNC(=O)c1ccc(-c2c3nc(c(-c4cc(S(=O)(=O)[O-])ccc4F)c4ccc([nH]4)c(-c4cc(S(=O)(=O)[O-])ccc4F)c4nc(c(-c5cc(S(=O)(=O)[O-])ccc5F)c5ccc2[nH]5)C=C4)C=C3)cc1
REMARK SMILES IDX 14 1 13 2 12 3 10 4 11 5 4 7 3 8 2 9 1 10 5 11 6 12 7 15
REMARK SMILES IDX 8 16 9 17 15 18 16 19 17 20 18 22 19 23 20 24 81 25 21 26
REMARK SMILES IDX 80 27 22 28 23 29 24 30 74 31 25 32 79 33 73 34 75 35 26 36
REMARK SMILES IDX 78 37 72 38 71 39 27 41 59 42 39 43 58 44 40 45 43 46 57 47
REMARK SMILES IDX 76 48 41 49 42 50 56 52 77 53 44 54 28 55 29 56 37 57 30 58
REMARK SMILES IDX 36 59 38 60 35 61 31 62 32 63 33 64 34 65 60 66 61 67 69 68
REMARK SMILES IDX 62 69 68 70 70 71 67 72 63 73 64 74 65 75 66 76 45 77 46 78
REMARK SMILES IDX 54 79 47 80 53 81 55 82 52 83 48 84 49 85 50 86 51 87
REMARK H PARENT 12 6 6 13 6 14 16 21 75 40 43 51
REMARK Flexibility Score: inf
ROOT
ATOM      1  C   UNL     1       0.724   3.372   5.269  1.00  0.00     0.042 C 
ENDROOT
BRANCH   1   2
ATOM      2  C   UNL     1      -0.058   3.634   4.000  1.00  0.00     0.117 C 
BRANCH   2   3
ATOM      3  N   UNL     1       0.730   4.240   2.945  1.00  0.00    -0.356 N 
ATOM      4  C   UNL     1       0.865   3.874   1.642  1.00  0.00     0.228 C 
ATOM      5  O   UNL     1       1.485   4.642   0.898  1.00  0.00    -0.275 OA
ATOM      6  H   UNL     1       1.244   5.036   3.211  1.00  0.00     0.163 HD
BRANCH   4   7
ATOM      7  C   UNL     1       0.300   2.563   1.087  1.00  0.00     0.133 C 
BRANCH   7   8
ATOM      8  C   UNL     1       0.954   1.336   1.756  1.00  0.00     0.019 C 
BRANCH   8   9
ATOM      9  C   UNL     1       0.517  -0.028   1.220  1.00  0.00    -0.002 C 
ATOM     10  C   UNL     1       0.947  -0.277  -0.214  1.00  0.00     0.004 C 
ENDBRANCH   8   9
ENDBRANCH   7   8
BRANCH   7  11
ATOM     11  C   UNL     1      -1.241   2.596   0.946  1.00  0.00     0.274 C 
BRANCH  11  12
ATOM     12  N   UNL     1      -1.965   2.259   2.165  1.00  0.00    -0.344 N 
ATOM     13  H   UNL     1      -1.554   2.796   2.929  1.00  0.00     0.346 HD
ATOM     14  H   UNL     1      -1.874   1.248   2.265  1.00  0.00     0.346 HD
BRANCH  12  15
ATOM     15  C   UNL     1      -3.398   2.523   2.156  1.00  0.00     0.176 C 
ATOM     16  C   UNL     1      -4.158   1.283   1.696  1.00  0.00     0.075 C 
ATOM     17  C   UNL     1      -3.796   2.889   3.589  1.00  0.00     0.075 C 
ENDBRANCH  12  15
ENDBRANCH  11  12
ENDBRANCH   7  11
ENDBRANCH   4   7
ENDBRANCH   2   3
ENDBRANCH   1   2
BRANCH   1  18
ATOM     18  C   UNL     1       1.090   4.635   6.018  1.00  0.00     0.118 C 
BRANCH  18  19
ATOM     19  N   UNL     1      -0.082   5.366   6.489  1.00  0.00    -0.352 N 
ATOM     20  C   UNL     1      -0.546   5.579   7.763  1.00  0.00     0.251 C 
ATOM     21  H   UNL     1      -0.628   5.772   5.777  1.00  0.00     0.163 HD
ATOM     22  O   UNL     1      -1.676   6.039   7.923  1.00  0.00    -0.269 OA
BRANCH  20  23
ATOM     23  C   UNL     1       0.290   5.230   8.931  1.00  0.00     0.039 A 
ATOM     24  C   UNL     1      -0.315   4.692  10.069  1.00  0.00     0.014 A 
ATOM     25  C   UNL     1       1.672   5.424   8.906  1.00  0.00     0.014 A 
ATOM     26  C   UNL     1       0.478   4.280  11.142  1.00  0.00     0.010 A 
ATOM     27  C   UNL     1       2.466   4.890   9.911  1.00  0.00     0.010 A 
ATOM     28  C   UNL     1       1.879   4.330  11.052  1.00  0.00    -0.014 A 
BRANCH  28  29
ATOM     29  C   UNL     1       2.747   3.832  12.151  1.00  0.00     0.031 A 
ATOM     30  C   UNL     1       3.716   4.767  12.826  1.00  0.00     0.074 A 
ATOM     31  C   UNL     1       2.699   2.531  12.500  1.00  0.00     0.049 A 
ATOM     32  N   UNL     1       4.593   4.515  13.764  1.00  0.00    -0.248 NA
ATOM     33  C   UNL     1       3.728   6.163  12.359  1.00  0.00     0.031 C 
ATOM     34  C   UNL     1       1.841   1.519  11.878  1.00  0.00     0.029 A 
ATOM     35  N   UNL     1       3.384   1.833  13.462  1.00  0.00    -0.354 N 
ATOM     36  C   UNL     1       5.264   5.713  13.987  1.00  0.00     0.074 A 
ATOM     37  C   UNL     1       4.752   6.667  13.028  1.00  0.00     0.031 C 
ATOM     38  C   UNL     1       2.016   0.346  12.506  1.00  0.00     0.029 A 
ATOM     39  C   UNL     1       3.037   0.504  13.536  1.00  0.00     0.049 A 
ATOM     40  H   UNL     1       4.061   2.246  14.046  1.00  0.00     0.167 HD
ATOM     41  C   UNL     1       6.198   6.002  14.926  1.00  0.00     0.034 A 
ATOM     42  C   UNL     1       3.494  -0.477  14.339  1.00  0.00     0.034 A 
ATOM     43  C   UNL     1       6.685   5.040  15.884  1.00  0.00     0.049 A 
ATOM     44  C   UNL     1       4.548  -0.138  15.362  1.00  0.00     0.074 A 
ATOM     45  C   UNL     1       7.590   5.231  16.913  1.00  0.00     0.029 A 
ATOM     46  N   UNL     1       6.314   3.701  15.925  1.00  0.00    -0.354 N 
ATOM     47  N   UNL     1       5.132   1.016  15.598  1.00  0.00    -0.248 NA
ATOM     48  C   UNL     1       4.995  -1.229  16.235  1.00  0.00     0.031 C 
ATOM     49  C   UNL     1       7.824   3.995  17.525  1.00  0.00     0.029 A 
ATOM     50  C   UNL     1       6.997   3.048  16.940  1.00  0.00     0.049 A 
ATOM     51  H   UNL     1       5.661   3.278  15.322  1.00  0.00     0.167 HD
ATOM     52  C   UNL     1       5.991   0.793  16.671  1.00  0.00     0.074 A 
ATOM     53  C   UNL     1       5.830  -0.598  17.046  1.00  0.00     0.031 C 
ATOM     54  C   UNL     1       6.836   1.657  17.292  1.00  0.00     0.034 A 
BRANCH  41  55
ATOM     55  C   UNL     1       6.759   7.405  14.943  1.00  0.00     0.023 A 
ATOM     56  C   UNL     1       5.941   8.527  15.169  1.00  0.00     0.031 A 
ATOM     57  C   UNL     1       8.126   7.630  14.700  1.00  0.00     0.131 A 
ATOM     58  C   UNL     1       6.478   9.820  15.067  1.00  0.00     0.055 A 
ATOM     59  C   UNL     1       8.671   8.915  14.690  1.00  0.00     0.041 A 
ATOM     60  F   UNL     1       8.954   6.603  14.453  1.00  0.00    -0.206 F 
ATOM     61  C   UNL     1       7.843  10.021  14.858  1.00  0.00     0.022 A 
BRANCH  58  62
ATOM     62  S   UNL     1       5.338  11.232  15.057  1.00  0.00     0.124 S 
ATOM     63  O   UNL     1       4.490  10.916  13.910  1.00  0.00    -0.237 OA
ATOM     64  O   UNL     1       4.705  11.136  16.366  1.00  0.00    -0.237 OA
ATOM     65  O   UNL     1       6.220  12.382  14.872  1.00  0.00    -0.744 OA
ENDBRANCH  58  62
ENDBRANCH  41  55
BRANCH  42  66
ATOM     66  C   UNL     1       2.967  -1.868  14.215  1.00  0.00     0.023 A 
ATOM     67  C   UNL     1       2.279  -2.479  15.276  1.00  0.00     0.031 A 
ATOM     68  C   UNL     1       3.183  -2.625  13.050  1.00  0.00     0.131 A 
ATOM     69  C   UNL     1       1.880  -3.820  15.173  1.00  0.00     0.055 A 
ATOM     70  C   UNL     1       2.729  -3.940  12.928  1.00  0.00     0.041 A 
ATOM     71  F   UNL     1       3.831  -2.090  12.002  1.00  0.00    -0.206 F 
ATOM     72  C   UNL     1       2.087  -4.550  14.001  1.00  0.00     0.022 A 
BRANCH  69  73
ATOM     73  S   UNL     1       1.174  -4.632  16.634  1.00  0.00     0.124 S 
ATOM     74  O   UNL     1       2.240  -4.457  17.614  1.00  0.00    -0.237 OA
ATOM     75  O   UNL     1      -0.038  -3.851  16.857  1.00  0.00    -0.237 OA
ATOM     76  O   UNL     1       0.955  -6.006  16.187  1.00  0.00    -0.744 OA
ENDBRANCH  69  73
ENDBRANCH  42  66
BRANCH  54  77
ATOM     77  C   UNL     1       7.614   1.123  18.471  1.00  0.00     0.023 A 
ATOM     78  C   UNL     1       8.567   0.099  18.328  1.00  0.00     0.031 A 
ATOM     79  C   UNL     1       7.378   1.628  19.762  1.00  0.00     0.131 A 
ATOM     80  C   UNL     1       9.194  -0.436  19.462  1.00  0.00     0.055 A 
ATOM     81  C   UNL     1       8.061   1.144  20.878  1.00  0.00     0.041 A 
ATOM     82  F   UNL     1       6.477   2.603  19.961  1.00  0.00    -0.206 F 
ATOM     83  C   UNL     1       8.962   0.093  20.734  1.00  0.00     0.022 A 
BRANCH  80  84
ATOM     84  S   UNL     1      10.222  -1.918  19.268  1.00  0.00     0.124 S 
ATOM     85  O   UNL     1       9.286  -2.857  18.657  1.00  0.00    -0.237 OA
ATOM     86  O   UNL     1      11.299  -1.440  18.407  1.00  0.00    -0.237 OA
ATOM     87  O   UNL     1      10.619  -2.241  20.637  1.00  0.00    -0.744 OA
ENDBRANCH  80  84
ENDBRANCH  54  77
ENDBRANCH  28  29
ENDBRANCH  20  23
ENDBRANCH  18  19
ENDBRANCH   1  18
TORSDOF 18
