REMARK SMILES C[NH2+][C@@]1(C(=O)NCCCNC(=O)c2ccc(-c3c4nc(c(-c5cc(S(=O)(=O)[O-])ccc5F)c5ccc([nH]5)c(-c5cc(S(=O)(=O)[O-])ccc5F)c5nc(c(-c6cc(S(=O)(=O)[O-])ccc6F)c6ccc3[nH]6)C=C5)C=C4)cc2)CC[C@H]([NH+]2CC[NH+](C)CC2)C1
REMARK SMILES IDX 9 1 8 2 7 3 6 4 4 5 5 6 3 8 76 9 86 10 77 11 78 12 2 13 1 14
REMARK SMILES IDX 79 17 80 18 85 19 81 21 84 22 82 23 83 24 10 26 11 27 12 29
REMARK SMILES IDX 13 30 14 31 75 32 15 33 74 34 16 35 17 36 18 37 68 38 19 39
REMARK SMILES IDX 73 40 67 41 69 42 20 43 72 44 66 45 65 46 21 48 53 49 33 50
REMARK SMILES IDX 52 51 34 52 37 53 51 54 70 55 35 56 36 57 50 59 71 60 38 61
REMARK SMILES IDX 22 62 23 63 31 64 24 65 30 66 32 67 29 68 25 69 26 70 27 71
REMARK SMILES IDX 28 72 54 73 55 74 63 75 56 76 62 77 64 78 61 79 57 80 58 81
REMARK SMILES IDX 59 82 60 83 39 84 40 85 48 86 41 87 47 88 49 89 46 90 42 91
REMARK SMILES IDX 43 92 44 93 45 94
REMARK H PARENT 6 7 2 15 2 16 79 20 82 25 10 28 69 47 37 58
REMARK Flexibility Score: inf
ROOT
ATOM      1  C   UNL     1      -5.855   0.104   2.329  1.00  0.00     0.118 C 
ENDROOT
BRANCH   1   2
ATOM      2  C   UNL     1      -5.099   0.695   0.951  1.00  0.00     0.042 C 
BRANCH   2   3
ATOM      3  C   UNL     1      -3.608   2.106   0.424  1.00  0.00     0.118 C 
BRANCH   3   4
ATOM      4  N   UNL     1      -2.091   2.331   0.906  1.00  0.00    -0.351 N 
ATOM      5  C   UNL     1      -0.824   1.972   0.587  1.00  0.00     0.281 C 
ATOM      6  O   UNL     1       0.040   2.409   1.367  1.00  0.00    -0.268 OA
ATOM      7  H   UNL     1      -2.078   2.925   1.691  1.00  0.00     0.163 HD
BRANCH   5   8
ATOM      8  C   UNL     1      -0.393   1.162  -0.672  1.00  0.00     0.181 C 
ATOM      9  C   UNL     1      -0.877   1.953  -1.892  1.00  0.00     0.085 C 
ATOM     10  C   UNL     1      -1.002  -0.233  -0.847  1.00  0.00     0.144 C 
ATOM     11  C   UNL     1      -2.050   1.152  -2.452  1.00  0.00     0.072 C 
ATOM     12  C   UNL     1      -2.373   0.011  -1.448  1.00  0.00     0.191 C 
BRANCH   8  13
ATOM     13  N   UNL     1       1.108   1.157  -0.705  1.00  0.00    -0.336 N 
ATOM     14  C   UNL     1       1.716  -0.000  -0.056  1.00  0.00     0.331 C 
ATOM     15  H   UNL     1       1.406   1.170  -1.681  1.00  0.00     0.346 HD
ATOM     16  H   UNL     1       1.415   1.979  -0.187  1.00  0.00     0.346 HD
ENDBRANCH   8  13
BRANCH  12  17
ATOM     17  N   UNL     1      -3.453   0.190  -0.473  1.00  0.00    -0.323 N 
ATOM     18  C   UNL     1      -4.875   1.148  -1.141  1.00  0.00     0.324 C 
ATOM     19  C   UNL     1      -3.101   0.257   1.362  1.00  0.00     0.324 C 
ATOM     20  H   UNL     1      -3.788  -0.768  -0.370  1.00  0.00     0.348 HD
ATOM     21  C   UNL     1      -5.664   2.583  -0.077  1.00  0.00     0.324 C 
ATOM     22  C   UNL     1      -3.926   1.698   2.449  1.00  0.00     0.324 C 
ATOM     23  N   UNL     1      -5.316   2.688   1.727  1.00  0.00    -0.328 N 
ATOM     24  C   UNL     1      -5.391   4.064   2.205  1.00  0.00     0.333 C 
ATOM     25  H   UNL     1      -6.089   2.154   2.126  1.00  0.00     0.348 HD
ENDBRANCH  12  17
ENDBRANCH   5   8
ENDBRANCH   3   4
ENDBRANCH   2   3
ENDBRANCH   1   2
BRANCH   1  26
ATOM     26  N   UNL     1      -6.744   1.054   2.990  1.00  0.00    -0.352 N 
ATOM     27  C   UNL     1      -8.052   0.968   3.355  1.00  0.00     0.251 C 
ATOM     28  H   UNL     1      -6.320   1.914   3.212  1.00  0.00     0.163 HD
ATOM     29  O   UNL     1      -8.710   1.971   3.609  1.00  0.00    -0.269 OA
BRANCH  27  30
ATOM     30  C   UNL     1      -8.664  -0.362   3.383  1.00  0.00     0.039 A 
ATOM     31  C   UNL     1      -9.900  -0.546   2.762  1.00  0.00     0.014 A 
ATOM     32  C   UNL     1      -7.973  -1.425   3.969  1.00  0.00     0.014 A 
ATOM     33  C   UNL     1     -10.439  -1.823   2.705  1.00  0.00     0.010 A 
ATOM     34  C   UNL     1      -8.472  -2.707   3.838  1.00  0.00     0.010 A 
ATOM     35  C   UNL     1      -9.719  -2.909   3.229  1.00  0.00    -0.014 A 
BRANCH  35  36
ATOM     36  C   UNL     1     -10.294  -4.267   3.225  1.00  0.00     0.031 A 
ATOM     37  C   UNL     1     -10.631  -4.907   4.540  1.00  0.00     0.074 A 
ATOM     38  C   UNL     1     -10.452  -4.913   2.056  1.00  0.00     0.049 A 
ATOM     39  N   UNL     1     -11.063  -6.114   4.786  1.00  0.00    -0.248 NA
ATOM     40  C   UNL     1     -10.406  -4.091   5.745  1.00  0.00     0.031 C 
ATOM     41  C   UNL     1     -10.107  -4.372   0.738  1.00  0.00     0.029 A 
ATOM     42  N   UNL     1     -10.941  -6.161   1.786  1.00  0.00    -0.354 N 
ATOM     43  C   UNL     1     -11.137  -6.208   6.172  1.00  0.00     0.074 A 
ATOM     44  C   UNL     1     -10.632  -4.966   6.710  1.00  0.00     0.031 C 
ATOM     45  C   UNL     1     -10.427  -5.275  -0.203  1.00  0.00     0.029 A 
ATOM     46  C   UNL     1     -10.957  -6.468   0.446  1.00  0.00     0.049 A 
ATOM     47  H   UNL     1     -11.251  -6.782   2.485  1.00  0.00     0.167 HD
ATOM     48  C   UNL     1     -11.616  -7.231   6.919  1.00  0.00     0.034 A 
ATOM     49  C   UNL     1     -11.356  -7.594  -0.176  1.00  0.00     0.034 A 
ATOM     50  C   UNL     1     -12.137  -8.442   6.338  1.00  0.00     0.049 A 
ATOM     51  C   UNL     1     -11.892  -8.716   0.675  1.00  0.00     0.074 A 
ATOM     52  C   UNL     1     -12.700  -9.534   6.971  1.00  0.00     0.029 A 
ATOM     53  N   UNL     1     -12.158  -8.717   4.974  1.00  0.00    -0.354 N 
ATOM     54  N   UNL     1     -12.004  -8.780   1.984  1.00  0.00    -0.248 NA
ATOM     55  C   UNL     1     -12.368  -9.910  -0.030  1.00  0.00     0.031 C 
ATOM     56  C   UNL     1     -13.002 -10.493   5.998  1.00  0.00     0.029 A 
ATOM     57  C   UNL     1     -12.700  -9.971   4.748  1.00  0.00     0.049 A 
ATOM     58  H   UNL     1     -11.834  -8.109   4.271  1.00  0.00     0.167 HD
ATOM     59  C   UNL     1     -12.589 -10.012   2.256  1.00  0.00     0.074 A 
ATOM     60  C   UNL     1     -12.824 -10.646   0.973  1.00  0.00     0.031 C 
ATOM     61  C   UNL     1     -12.907 -10.574   3.451  1.00  0.00     0.034 A 
BRANCH  48  62
ATOM     62  C   UNL     1     -11.565  -7.077   8.421  1.00  0.00     0.023 A 
ATOM     63  C   UNL     1     -12.243  -6.035   9.082  1.00  0.00     0.031 A 
ATOM     64  C   UNL     1     -10.778  -7.942   9.200  1.00  0.00     0.131 A 
ATOM     65  C   UNL     1     -12.047  -5.830  10.457  1.00  0.00     0.055 A 
ATOM     66  C   UNL     1     -10.661  -7.787  10.584  1.00  0.00     0.041 A 
ATOM     67  F   UNL     1     -10.087  -8.940   8.627  1.00  0.00    -0.206 F 
ATOM     68  C   UNL     1     -11.282  -6.715  11.217  1.00  0.00     0.022 A 
BRANCH  65  69
ATOM     69  S   UNL     1     -12.672  -4.297  11.201  1.00  0.00     0.124 S 
ATOM     70  O   UNL     1     -11.959  -3.283  10.428  1.00  0.00    -0.237 OA
ATOM     71  O   UNL     1     -14.107  -4.391  10.961  1.00  0.00    -0.237 OA
ATOM     72  O   UNL     1     -12.264  -4.405  12.600  1.00  0.00    -0.744 OA
ENDBRANCH  65  69
ENDBRANCH  48  62
BRANCH  49  73
ATOM     73  C   UNL     1     -11.274  -7.710  -1.659  1.00  0.00     0.023 A 
ATOM     74  C   UNL     1     -12.434  -7.838  -2.439  1.00  0.00     0.031 A 
ATOM     75  C   UNL     1     -10.033  -7.712  -2.321  1.00  0.00     0.131 A 
ATOM     76  C   UNL     1     -12.329  -8.007  -3.829  1.00  0.00     0.055 A 
ATOM     77  C   UNL     1      -9.936  -7.829  -3.709  1.00  0.00     0.041 A 
ATOM     78  F   UNL     1      -8.892  -7.582  -1.625  1.00  0.00    -0.206 F 
ATOM     79  C   UNL     1     -11.089  -7.991  -4.471  1.00  0.00     0.022 A 
BRANCH  76  80
ATOM     80  S   UNL     1     -13.839  -8.327  -4.781  1.00  0.00     0.124 S 
ATOM     81  O   UNL     1     -14.360  -9.519  -4.122  1.00  0.00    -0.237 OA
ATOM     82  O   UNL     1     -14.594  -7.096  -4.574  1.00  0.00    -0.237 OA
ATOM     83  O   UNL     1     -13.347  -8.531  -6.142  1.00  0.00    -0.744 OA
ENDBRANCH  76  80
ENDBRANCH  49  73
BRANCH  61  84
ATOM     84  C   UNL     1     -13.572 -11.925   3.406  1.00  0.00     0.023 A 
ATOM     85  C   UNL     1     -12.888 -13.066   2.957  1.00  0.00     0.031 A 
ATOM     86  C   UNL     1     -14.911 -12.067   3.812  1.00  0.00     0.131 A 
ATOM     87  C   UNL     1     -13.563 -14.291   2.866  1.00  0.00     0.055 A 
ATOM     88  C   UNL     1     -15.557 -13.302   3.783  1.00  0.00     0.041 A 
ATOM     89  F   UNL     1     -15.609 -11.007   4.249  1.00  0.00    -0.206 F 
ATOM     90  C   UNL     1     -14.887 -14.421   3.295  1.00  0.00     0.022 A 
BRANCH  87  91
ATOM     91  S   UNL     1     -12.716 -15.692   2.088  1.00  0.00     0.124 S 
ATOM     92  O   UNL     1     -12.419 -15.166   0.760  1.00  0.00    -0.237 OA
ATOM     93  O   UNL     1     -11.568 -15.890   2.966  1.00  0.00    -0.237 OA
ATOM     94  O   UNL     1     -13.715 -16.759   2.124  1.00  0.00    -0.744 OA
ENDBRANCH  87  91
ENDBRANCH  61  84
ENDBRANCH  35  36
ENDBRANCH  27  30
ENDBRANCH   1  26
TORSDOF 15
