REMARK SMILES C[C@H](NC(=O)[C@@H]1CCCN(S(=O)(=O)c2ccc(Cl)cc2)C1)C(=O)NCCCNC(=O)c1ccc(-c2c3nc(c(-c4cc(S(=O)(=O)[O-])ccc4F)c4ccc([nH]4)c(-c4cc(S(=O)(=O)[O-])ccc4F)c4nc(c(-c5cc(S(=O)(=O)[O-])ccc5F)c5ccc2[nH]5)C=C4)C=C3)cc1
REMARK SMILES IDX 25 1 24 2 22 3 23 4 2 6 1 7 3 8 4 9 5 11 6 12 7 13 21 14
REMARK SMILES IDX 8 15 10 16 9 17 11 18 12 19 13 20 14 21 15 22 20 23 16 24
REMARK SMILES IDX 19 25 17 26 18 27 26 28 27 29 28 30 29 31 30 33 31 34 32 35
REMARK SMILES IDX 93 36 33 37 92 38 34 39 35 40 36 41 86 42 37 43 91 44 85 45
REMARK SMILES IDX 87 46 38 47 90 48 84 49 83 50 39 52 71 53 51 54 70 55 52 56
REMARK SMILES IDX 55 57 69 58 88 59 53 60 54 61 68 63 89 64 56 65 40 66 41 67
REMARK SMILES IDX 49 68 42 69 48 70 50 71 47 72 43 73 44 74 45 75 46 76 72 77
REMARK SMILES IDX 73 78 81 79 74 80 80 81 82 82 79 83 75 84 76 85 77 86 78 87
REMARK SMILES IDX 57 88 58 89 66 90 59 91 65 92 67 93 64 94 60 95 61 96 62 97
REMARK SMILES IDX 63 98
REMARK H PARENT 24 5 3 10 28 32 87 51 55 62
REMARK Flexibility Score: inf
ROOT
ATOM      1  C   UNL     1      -1.610   2.240  -0.522  1.00  0.00     0.117 C 
ENDROOT
BRANCH   1   2
ATOM      2  N   UNL     1      -2.120   1.214   0.354  1.00  0.00    -0.354 N 
ATOM      3  C   UNL     1      -1.435   0.358   1.158  1.00  0.00     0.242 C 
ATOM      4  O   UNL     1      -2.098  -0.400   1.873  1.00  0.00    -0.273 OA
ATOM      5  H   UNL     1      -3.100   1.121   0.372  1.00  0.00     0.163 HD
BRANCH   3   6
ATOM      6  C   UNL     1       0.100   0.435   1.310  1.00  0.00     0.168 C 
ATOM      7  C   UNL     1       0.470   1.524   2.288  1.00  0.00     0.041 C 
BRANCH   6   8
ATOM      8  N   UNL     1       0.889   0.287   0.075  1.00  0.00    -0.344 N 
ATOM      9  C   UNL     1       1.647   0.919  -0.833  1.00  0.00     0.225 C 
ATOM     10  H   UNL     1       0.840  -0.659  -0.192  1.00  0.00     0.164 HD
ATOM     11  O   UNL     1       2.003   0.148  -1.741  1.00  0.00    -0.275 OA
BRANCH   9  12
ATOM     12  C   UNL     1       2.007   2.410  -0.957  1.00  0.00     0.094 C 
ATOM     13  C   UNL     1       3.090   2.592  -2.048  1.00  0.00     0.016 C 
ATOM     14  C   UNL     1       2.491   3.190   0.255  1.00  0.00     0.116 C 
ATOM     15  C   UNL     1       4.440   2.076  -1.554  1.00  0.00     0.018 C 
ATOM     16  N   UNL     1       3.782   2.667   0.793  1.00  0.00    -0.197 NA
ATOM     17  C   UNL     1       4.862   2.732  -0.245  1.00  0.00     0.102 C 
BRANCH  16  18
ATOM     18  S   UNL     1       4.207   3.454   2.278  1.00  0.00     0.243 S 
ATOM     19  O   UNL     1       4.793   4.739   1.947  1.00  0.00    -0.207 OA
ATOM     20  O   UNL     1       3.079   3.375   3.176  1.00  0.00    -0.207 OA
BRANCH  18  21
ATOM     21  C   UNL     1       5.492   2.423   2.946  1.00  0.00     0.082 A 
ATOM     22  C   UNL     1       6.819   2.634   2.556  1.00  0.00     0.023 A 
ATOM     23  C   UNL     1       5.181   1.471   3.925  1.00  0.00     0.023 A 
ATOM     24  C   UNL     1       7.833   1.847   3.102  1.00  0.00     0.022 A 
ATOM     25  C   UNL     1       6.205   0.702   4.485  1.00  0.00     0.022 A 
ATOM     26  C   UNL     1       7.523   0.886   4.064  1.00  0.00     0.041 A 
ATOM     27  Cl  UNL     1       8.780  -0.068   4.749  1.00  0.00    -0.084 Cl
ENDBRANCH  18  21
ENDBRANCH  16  18
ENDBRANCH   9  12
ENDBRANCH   6   8
ENDBRANCH   3   6
ENDBRANCH   1   2
BRANCH   1  28
ATOM     28  C   UNL     1      -1.583   1.781  -1.974  1.00  0.00     0.042 C 
BRANCH  28  29
ATOM     29  C   UNL     1      -2.968   1.755  -2.606  1.00  0.00     0.118 C 
BRANCH  29  30
ATOM     30  N   UNL     1      -3.533   3.092  -2.747  1.00  0.00    -0.352 N 
ATOM     31  C   UNL     1      -4.131   3.666  -3.843  1.00  0.00     0.251 C 
ATOM     32  H   UNL     1      -3.478   3.663  -1.946  1.00  0.00     0.163 HD
ATOM     33  O   UNL     1      -4.383   4.866  -3.843  1.00  0.00    -0.269 OA
BRANCH  31  34
ATOM     34  C   UNL     1      -4.433   2.828  -5.020  1.00  0.00     0.039 A 
ATOM     35  C   UNL     1      -4.087   3.288  -6.292  1.00  0.00     0.014 A 
ATOM     36  C   UNL     1      -5.021   1.571  -4.856  1.00  0.00     0.014 A 
ATOM     37  C   UNL     1      -4.260   2.451  -7.396  1.00  0.00     0.010 A 
ATOM     38  C   UNL     1      -5.117   0.712  -5.942  1.00  0.00     0.010 A 
ATOM     39  C   UNL     1      -4.736   1.141  -7.223  1.00  0.00    -0.014 A 
BRANCH  39  40
ATOM     40  C   UNL     1      -4.858   0.192  -8.358  1.00  0.00     0.031 A 
ATOM     41  C   UNL     1      -6.211  -0.355  -8.720  1.00  0.00     0.074 A 
ATOM     42  C   UNL     1      -3.751  -0.251  -8.985  1.00  0.00     0.049 A 
ATOM     43  N   UNL     1      -6.522  -1.318  -9.547  1.00  0.00    -0.248 NA
ATOM     44  C   UNL     1      -7.364   0.236  -8.022  1.00  0.00     0.031 C 
ATOM     45  C   UNL     1      -2.383   0.186  -8.697  1.00  0.00     0.029 A 
ATOM     46  N   UNL     1      -3.597  -1.185  -9.979  1.00  0.00    -0.354 N 
ATOM     47  C   UNL     1      -7.902  -1.467  -9.451  1.00  0.00     0.074 A 
ATOM     48  C   UNL     1      -8.355  -0.535  -8.440  1.00  0.00     0.031 C 
ATOM     49  C   UNL     1      -1.533  -0.468  -9.505  1.00  0.00     0.029 A 
ATOM     50  C   UNL     1      -2.285  -1.411 -10.327  1.00  0.00     0.049 A 
ATOM     51  H   UNL     1      -4.354  -1.650 -10.402  1.00  0.00     0.167 HD
ATOM     52  C   UNL     1      -8.715  -2.291 -10.155  1.00  0.00     0.034 A 
ATOM     53  C   UNL     1      -1.748  -2.294 -11.192  1.00  0.00     0.034 A 
ATOM     54  C   UNL     1      -8.242  -3.198 -11.172  1.00  0.00     0.049 A 
ATOM     55  C   UNL     1      -2.669  -3.219 -11.949  1.00  0.00     0.074 A 
ATOM     56  C   UNL     1      -8.977  -4.042 -11.985  1.00  0.00     0.029 A 
ATOM     57  N   UNL     1      -6.907  -3.381 -11.514  1.00  0.00    -0.354 N 
ATOM     58  N   UNL     1      -3.976  -3.327 -11.871  1.00  0.00    -0.248 NA
ATOM     59  C   UNL     1      -2.046  -4.134 -12.915  1.00  0.00     0.031 C 
ATOM     60  C   UNL     1      -8.086  -4.781 -12.770  1.00  0.00     0.029 A 
ATOM     61  C   UNL     1      -6.798  -4.341 -12.507  1.00  0.00     0.049 A 
ATOM     62  H   UNL     1      -6.150  -2.899 -11.109  1.00  0.00     0.167 HD
ATOM     63  C   UNL     1      -4.333  -4.292 -12.809  1.00  0.00     0.074 A 
ATOM     64  C   UNL     1      -3.106  -4.734 -13.438  1.00  0.00     0.031 C 
ATOM     65  C   UNL     1      -5.565  -4.763 -13.128  1.00  0.00     0.034 A 
BRANCH  52  66
ATOM     66  C   UNL     1     -10.189  -2.263  -9.826  1.00  0.00     0.023 A 
ATOM     67  C   UNL     1     -10.961  -1.100  -9.993  1.00  0.00     0.031 A 
ATOM     68  C   UNL     1     -10.825  -3.403  -9.305  1.00  0.00     0.131 A 
ATOM     69  C   UNL     1     -12.297  -1.077  -9.566  1.00  0.00     0.055 A 
ATOM     70  C   UNL     1     -12.180  -3.401  -8.964  1.00  0.00     0.041 A 
ATOM     71  F   UNL     1     -10.137  -4.538  -9.101  1.00  0.00    -0.206 F 
ATOM     72  C   UNL     1     -12.920  -2.228  -9.078  1.00  0.00     0.022 A 
BRANCH  69  73
ATOM     73  S   UNL     1     -13.160   0.517  -9.515  1.00  0.00     0.124 S 
ATOM     74  O   UNL     1     -12.307   1.284  -8.609  1.00  0.00    -0.237 OA
ATOM     75  O   UNL     1     -13.142   0.931 -10.913  1.00  0.00    -0.237 OA
ATOM     76  O   UNL     1     -14.477   0.177  -8.981  1.00  0.00    -0.744 OA
ENDBRANCH  69  73
ENDBRANCH  52  66
BRANCH  53  77
ATOM     77  C   UNL     1      -0.271  -2.363 -11.384  1.00  0.00     0.023 A 
ATOM     78  C   UNL     1       0.312  -2.040 -12.619  1.00  0.00     0.031 A 
ATOM     79  C   UNL     1       0.578  -2.788 -10.347  1.00  0.00     0.131 A 
ATOM     80  C   UNL     1       1.695  -2.191 -12.802  1.00  0.00     0.055 A 
ATOM     81  C   UNL     1       1.961  -2.884 -10.517  1.00  0.00     0.041 A 
ATOM     82  F   UNL     1       0.075  -3.104  -9.143  1.00  0.00    -0.206 F 
ATOM     83  C   UNL     1       2.525  -2.597 -11.756  1.00  0.00     0.022 A 
BRANCH  80  84
ATOM     84  S   UNL     1       2.384  -1.929 -14.460  1.00  0.00     0.124 S 
ATOM     85  O   UNL     1       1.631  -2.896 -15.250  1.00  0.00    -0.237 OA
ATOM     86  O   UNL     1       2.074  -0.523 -14.698  1.00  0.00    -0.237 OA
ATOM     87  O   UNL     1       3.804  -2.232 -14.289  1.00  0.00    -0.744 OA
ENDBRANCH  80  84
ENDBRANCH  53  77
BRANCH  65  88
ATOM     88  C   UNL     1      -5.654  -5.757 -14.259  1.00  0.00     0.023 A 
ATOM     89  C   UNL     1      -5.157  -7.066 -14.144  1.00  0.00     0.031 A 
ATOM     90  C   UNL     1      -6.271  -5.384 -15.467  1.00  0.00     0.131 A 
ATOM     91  C   UNL     1      -5.253  -7.945 -15.233  1.00  0.00     0.055 A 
ATOM     92  C   UNL     1      -6.412  -6.279 -16.527  1.00  0.00     0.041 A 
ATOM     93  F   UNL     1      -6.761  -4.144 -15.629  1.00  0.00    -0.206 F 
ATOM     94  C   UNL     1      -5.893  -7.565 -16.417  1.00  0.00     0.022 A 
BRANCH  91  95
ATOM     95  S   UNL     1      -4.473  -9.578 -15.110  1.00  0.00     0.124 S 
ATOM     96  O   UNL     1      -3.071  -9.229 -14.900  1.00  0.00    -0.237 OA
ATOM     97  O   UNL     1      -5.161 -10.168 -13.966  1.00  0.00    -0.237 OA
ATOM     98  O   UNL     1      -4.772 -10.199 -16.399  1.00  0.00    -0.744 OA
ENDBRANCH  91  95
ENDBRANCH  65  88
ENDBRANCH  39  40
ENDBRANCH  31  34
ENDBRANCH  29  30
ENDBRANCH  28  29
ENDBRANCH   1  28
TORSDOF 17
