REMARK SMILES O=C(NCCCNC(=O)c1csc(S(=O)(=O)Nc2ccc(F)cc2)c1)c1ccc(-c2c3nc(c(-c4cc(S(=O)(=O)[O-])ccc4F)c4ccc([nH]4)c(-c4cc(S(=O)(=O)[O-])ccc4F)c4nc(c(-c5cc(S(=O)(=O)[O-])ccc5F)c5ccc2[nH]5)C=C4)C=C3)cc1
REMARK SMILES IDX 5 1 4 2 3 3 1 4 2 5 26 7 27 8 88 9 28 10 87 11 29 12 30 13
REMARK SMILES IDX 31 14 81 15 32 16 86 17 80 18 82 19 33 20 85 21 79 22 78 23
REMARK SMILES IDX 34 25 66 26 46 27 65 28 47 29 50 30 64 31 83 32 48 33 49 34
REMARK SMILES IDX 63 36 84 37 51 38 35 39 36 40 44 41 37 42 43 43 45 44 42 45
REMARK SMILES IDX 38 46 39 47 40 48 41 49 67 50 68 51 76 52 69 53 75 54 77 55
REMARK SMILES IDX 74 56 70 57 71 58 72 59 73 60 52 61 53 62 61 63 54 64 60 65
REMARK SMILES IDX 62 66 59 67 55 68 56 69 57 70 58 71 6 72 7 73 8 74 9 76
REMARK SMILES IDX 10 77 11 78 25 79 12 80 13 81 14 82 15 83 16 84 17 85 18 87
REMARK SMILES IDX 19 88 24 89 20 90 23 91 21 92 22 93
REMARK H PARENT 3 6 82 24 50 35 7 75 17 86
REMARK Flexibility Score: inf
ROOT
ATOM      1  C   UNL     1       4.729  -2.564   0.226  1.00  0.00     0.042 C 
ENDROOT
BRANCH   1   2
ATOM      2  C   UNL     1       4.453  -1.351  -0.659  1.00  0.00     0.118 C 
BRANCH   2   3
ATOM      3  N   UNL     1       3.049  -0.962  -0.675  1.00  0.00    -0.352 N 
ATOM      4  O   UNL     1       1.151   0.079  -0.103  1.00  0.00    -0.269 OA
ATOM      5  C   UNL     1       2.381   0.084  -0.084  1.00  0.00     0.251 C 
ATOM      6  H   UNL     1       2.473  -1.557  -1.207  1.00  0.00     0.163 HD
BRANCH   5   7
ATOM      7  C   UNL     1       3.098   1.194   0.585  1.00  0.00     0.039 A 
ATOM      8  C   UNL     1       4.265   1.740   0.051  1.00  0.00     0.014 A 
ATOM      9  C   UNL     1       2.548   1.752   1.746  1.00  0.00     0.014 A 
ATOM     10  C   UNL     1       4.963   2.721   0.754  1.00  0.00     0.010 A 
ATOM     11  C   UNL     1       3.205   2.797   2.407  1.00  0.00     0.010 A 
ATOM     12  C   UNL     1       4.441   3.264   1.940  1.00  0.00    -0.014 A 
BRANCH  12  13
ATOM     13  C   UNL     1       5.206   4.319   2.659  1.00  0.00     0.031 A 
ATOM     14  C   UNL     1       5.770   4.060   4.032  1.00  0.00     0.074 A 
ATOM     15  C   UNL     1       5.448   5.495   2.044  1.00  0.00     0.049 A 
ATOM     16  N   UNL     1       6.490   4.851   4.788  1.00  0.00    -0.248 NA
ATOM     17  C   UNL     1       5.487   2.750   4.638  1.00  0.00     0.031 C 
ATOM     18  C   UNL     1       4.957   5.867   0.715  1.00  0.00     0.029 A 
ATOM     19  N   UNL     1       6.189   6.581   2.437  1.00  0.00    -0.354 N 
ATOM     20  C   UNL     1       6.733   4.143   5.960  1.00  0.00     0.074 A 
ATOM     21  C   UNL     1       6.062   2.868   5.827  1.00  0.00     0.031 C 
ATOM     22  C   UNL     1       5.460   7.064   0.378  1.00  0.00     0.029 A 
ATOM     23  C   UNL     1       6.260   7.574   1.487  1.00  0.00     0.049 A 
ATOM     24  H   UNL     1       6.630   6.643   3.315  1.00  0.00     0.167 HD
ATOM     25  C   UNL     1       7.458   4.517   7.041  1.00  0.00     0.034 A 
ATOM     26  C   UNL     1       6.887   8.766   1.506  1.00  0.00     0.034 A 
ATOM     27  C   UNL     1       8.152   5.774   7.158  1.00  0.00     0.049 A 
ATOM     28  C   UNL     1       7.657   9.169   2.732  1.00  0.00     0.074 A 
ATOM     29  C   UNL     1       8.949   6.223   8.197  1.00  0.00     0.029 A 
ATOM     30  N   UNL     1       8.133   6.783   6.206  1.00  0.00    -0.354 N 
ATOM     31  N   UNL     1       7.859   8.489   3.836  1.00  0.00    -0.248 NA
ATOM     32  C   UNL     1       8.268  10.505   2.725  1.00  0.00     0.031 C 
ATOM     33  C   UNL     1       9.373   7.522   7.895  1.00  0.00     0.029 A 
ATOM     34  C   UNL     1       8.880   7.863   6.646  1.00  0.00     0.049 A 
ATOM     35  H   UNL     1       7.658   6.738   5.345  1.00  0.00     0.167 HD
ATOM     36  C   UNL     1       8.618   9.316   4.655  1.00  0.00     0.074 A 
ATOM     37  C   UNL     1       8.854  10.539   3.914  1.00  0.00     0.031 C 
ATOM     38  C   UNL     1       9.079   9.084   5.908  1.00  0.00     0.034 A 
BRANCH  25  39
ATOM     39  C   UNL     1       7.524   3.564   8.204  1.00  0.00     0.023 A 
ATOM     40  C   UNL     1       8.281   2.383   8.144  1.00  0.00     0.031 A 
ATOM     41  C   UNL     1       6.848   3.863   9.399  1.00  0.00     0.131 A 
ATOM     42  C   UNL     1       8.316   1.523   9.251  1.00  0.00     0.055 A 
ATOM     43  C   UNL     1       6.929   3.030  10.516  1.00  0.00     0.041 A 
ATOM     44  F   UNL     1       6.100   4.974   9.500  1.00  0.00    -0.206 F 
ATOM     45  C   UNL     1       7.664   1.850  10.444  1.00  0.00     0.022 A 
BRANCH  42  46
ATOM     46  S   UNL     1       9.185  -0.060   9.099  1.00  0.00     0.124 S 
ATOM     47  O   UNL     1       8.329  -0.775   8.155  1.00  0.00    -0.237 OA
ATOM     48  O   UNL     1      10.493   0.340   8.593  1.00  0.00    -0.237 OA
ATOM     49  O   UNL     1       9.179  -0.587  10.462  1.00  0.00    -0.744 OA
ENDBRANCH  42  46
ENDBRANCH  25  39
BRANCH  26  50
ATOM     50  C   UNL     1       6.777   9.683   0.339  1.00  0.00     0.023 A 
ATOM     51  C   UNL     1       7.884   9.949  -0.480  1.00  0.00     0.031 A 
ATOM     52  C   UNL     1       5.555  10.307   0.032  1.00  0.00     0.131 A 
ATOM     53  C   UNL     1       7.751  10.835  -1.562  1.00  0.00     0.055 A 
ATOM     54  C   UNL     1       5.419  11.158  -1.064  1.00  0.00     0.041 A 
ATOM     55  F   UNL     1       4.468  10.076   0.785  1.00  0.00    -0.206 F 
ATOM     56  C   UNL     1       6.524  11.431  -1.865  1.00  0.00     0.022 A 
BRANCH  53  57
ATOM     57  S   UNL     1       9.216  11.220  -2.558  1.00  0.00     0.124 S 
ATOM     58  O   UNL     1      10.069  11.892  -1.584  1.00  0.00    -0.237 OA
ATOM     59  O   UNL     1       9.651   9.895  -2.988  1.00  0.00    -0.237 OA
ATOM     60  O   UNL     1       8.689  12.074  -3.621  1.00  0.00    -0.744 OA
ENDBRANCH  53  57
ENDBRANCH  26  50
BRANCH  38  61
ATOM     61  C   UNL     1       9.882  10.175   6.557  1.00  0.00     0.023 A 
ATOM     62  C   UNL     1       9.260  11.323   7.073  1.00  0.00     0.031 A 
ATOM     63  C   UNL     1      11.275  10.048   6.690  1.00  0.00     0.131 A 
ATOM     64  C   UNL     1      10.037  12.319   7.682  1.00  0.00     0.055 A 
ATOM     65  C   UNL     1      12.039  11.025   7.329  1.00  0.00     0.041 A 
ATOM     66  F   UNL     1      11.910   8.966   6.213  1.00  0.00    -0.206 F 
ATOM     67  C   UNL     1      11.420  12.169   7.827  1.00  0.00     0.022 A 
BRANCH  64  68
ATOM     68  S   UNL     1       9.221  13.824   8.279  1.00  0.00     0.124 S 
ATOM     69  O   UNL     1       8.838  14.473   7.030  1.00  0.00    -0.237 OA
ATOM     70  O   UNL     1       8.125  13.295   9.085  1.00  0.00    -0.237 OA
ATOM     71  O   UNL     1      10.270  14.504   9.037  1.00  0.00    -0.744 OA
ENDBRANCH  64  68
ENDBRANCH  38  61
ENDBRANCH  12  13
ENDBRANCH   5   7
ENDBRANCH   2   3
ENDBRANCH   1   2
BRANCH   1  72
ATOM     72  C   UNL     1       3.959  -3.823  -0.158  1.00  0.00     0.118 C 
BRANCH  72  73
ATOM     73  N   UNL     1       4.288  -4.314  -1.487  1.00  0.00    -0.352 N 
ATOM     74  C   UNL     1       5.100  -5.338  -1.901  1.00  0.00     0.252 C 
ATOM     75  H   UNL     1       3.850  -3.823  -2.220  1.00  0.00     0.163 HD
ATOM     76  O   UNL     1       5.345  -5.433  -3.103  1.00  0.00    -0.269 OA
BRANCH  74  77
ATOM     77  C   UNL     1       5.708  -6.245  -0.935  1.00  0.00     0.051 A 
ATOM     78  C   UNL     1       5.092  -6.839   0.148  1.00  0.00     0.080 A 
ATOM     79  C   UNL     1       7.045  -6.745  -1.060  1.00  0.00     0.048 A 
ATOM     80  S   UNL     1       6.168  -7.775   1.097  1.00  0.00    -0.130 S 
ATOM     81  C   UNL     1       7.469  -7.482   0.030  1.00  0.00     0.141 A 
BRANCH  81  82
ATOM     82  S   UNL     1       9.053  -8.193   0.440  1.00  0.00     0.271 S 
ATOM     83  O   UNL     1       9.009  -8.606   1.823  1.00  0.00    -0.200 OA
ATOM     84  O   UNL     1       9.309  -9.158  -0.613  1.00  0.00    -0.200 OA
BRANCH  82  85
ATOM     85  N   UNL     1      10.255  -6.984   0.337  1.00  0.00    -0.279 N 
ATOM     86  H   UNL     1      10.887  -6.821   1.074  1.00  0.00     0.180 HD
BRANCH  85  87
ATOM     87  C   UNL     1      10.298  -6.221  -0.868  1.00  0.00     0.049 A 
ATOM     88  C   UNL     1       9.845  -4.899  -0.820  1.00  0.00     0.030 A 
ATOM     89  C   UNL     1      10.693  -6.790  -2.081  1.00  0.00     0.030 A 
ATOM     90  C   UNL     1       9.746  -4.155  -1.996  1.00  0.00     0.041 A 
ATOM     91  C   UNL     1      10.589  -6.044  -3.257  1.00  0.00     0.041 A 
ATOM     92  C   UNL     1      10.110  -4.738  -3.205  1.00  0.00     0.123 A 
ATOM     93  F   UNL     1       9.985  -4.038  -4.340  1.00  0.00    -0.207 F 
ENDBRANCH  85  87
ENDBRANCH  82  85
ENDBRANCH  81  82
ENDBRANCH  74  77
ENDBRANCH  72  73
ENDBRANCH   1  72
TORSDOF 16
