REMARK SMILES Cc1noc(C[N@H+]2CCC[C@@H](c3ccc(C(=O)NCCCNC(=O)c4ccc(-c5c6nc(c(-c7cc(S(=O)(=O)[O-])ccc7F)c7ccc([nH]7)c(-c7cc(S(=O)(=O)[O-])ccc7F)c7nc(c(-c8cc(S(=O)(=O)[O-])ccc8F)c8ccc5[nH]8)C=C7)C=C6)cc4)cc3)C2)n1
REMARK SMILES IDX 20 1 19 2 18 3 16 4 17 5 15 7 12 8 13 9 89 10 14 11 88 12
REMARK SMILES IDX 11 13 7 14 8 15 90 16 9 18 10 19 6 20 5 21 1 22 2 23 3 24
REMARK SMILES IDX 91 25 4 26 21 27 22 28 23 29 24 31 25 32 26 33 87 34 27 35
REMARK SMILES IDX 86 36 28 37 29 38 30 39 80 40 31 41 85 42 79 43 81 44 32 45
REMARK SMILES IDX 84 46 78 47 77 48 33 50 65 51 45 52 64 53 46 54 49 55 63 56
REMARK SMILES IDX 82 57 47 58 48 59 62 61 83 62 50 63 34 64 35 65 43 66 36 67
REMARK SMILES IDX 42 68 44 69 41 70 37 71 38 72 39 73 40 74 66 75 67 76 75 77
REMARK SMILES IDX 68 78 74 79 76 80 73 81 69 82 70 83 71 84 72 85 51 86 52 87
REMARK SMILES IDX 60 88 53 89 59 90 61 91 58 92 54 93 55 94 56 95 57 96
REMARK H PARENT 18 6 7 17 22 30 81 49 49 60
REMARK Flexibility Score: inf
ROOT
ATOM      1  C   UNL     1      -2.702  10.146  -3.157  1.00  0.00     0.042 C 
ENDROOT
BRANCH   1   2
ATOM      2  C   UNL     1      -3.064   9.195  -2.019  1.00  0.00     0.118 C 
BRANCH   2   3
ATOM      3  N   UNL     1      -4.049   8.219  -2.447  1.00  0.00    -0.352 N 
ATOM      4  C   UNL     1      -3.929   6.907  -2.823  1.00  0.00     0.251 C 
ATOM      5  O   UNL     1      -4.962   6.284  -3.072  1.00  0.00    -0.269 OA
ATOM      6  H   UNL     1      -4.971   8.562  -2.471  1.00  0.00     0.163 HD
BRANCH   4   7
ATOM      7  C   UNL     1      -2.624   6.195  -2.876  1.00  0.00     0.039 A 
ATOM      8  C   UNL     1      -0.230   4.691  -2.856  1.00  0.00    -0.039 A 
ATOM      9  C   UNL     1      -1.467   4.079  -2.602  1.00  0.00     0.005 A 
ATOM     10  C   UNL     1      -0.217   6.048  -3.189  1.00  0.00     0.005 A 
ATOM     11  C   UNL     1      -2.647   4.824  -2.599  1.00  0.00     0.014 A 
ATOM     12  C   UNL     1      -1.407   6.786  -3.221  1.00  0.00     0.014 A 
BRANCH   8  13
ATOM     13  C   UNL     1       1.077   3.912  -2.796  1.00  0.00     0.074 C 
ATOM     14  N   UNL     1       2.367   2.222  -1.410  1.00  0.00    -0.327 N 
ATOM     15  C   UNL     1       2.430   1.325  -2.573  1.00  0.00     0.262 C 
ATOM     16  C   UNL     1       1.194   3.115  -1.478  1.00  0.00     0.270 C 
ATOM     17  H   UNL     1       3.204   2.804  -1.434  1.00  0.00     0.348 HD
ATOM     18  C   UNL     1       2.451   2.112  -3.883  1.00  0.00     0.062 C 
ATOM     19  C   UNL     1       1.211   2.990  -4.014  1.00  0.00     0.020 C 
BRANCH  14  20
ATOM     20  C   UNL     1       2.379   1.458  -0.130  1.00  0.00     0.364 C 
BRANCH  20  21
ATOM     21  C   UNL     1       1.182   0.587   0.109  1.00  0.00     0.281 A 
ATOM     22  C   UNL     1      -2.203  -0.301   0.260  1.00  0.00     0.093 C 
ATOM     23  C   UNL     1      -0.730  -0.244   0.230  1.00  0.00     0.169 A 
ATOM     24  N   UNL     1       0.038  -1.300  -0.065  1.00  0.00    -0.063 NA
ATOM     25  N   UNL     1      -0.054   0.932   0.403  1.00  0.00    -0.191 NA
ATOM     26  O   UNL     1       1.322  -0.748  -0.147  1.00  0.00    -0.333 OA
ENDBRANCH  20  21
ENDBRANCH  14  20
ENDBRANCH   8  13
ENDBRANCH   4   7
ENDBRANCH   2   3
ENDBRANCH   1   2
BRANCH   1  27
ATOM     27  C   UNL     1      -3.808  11.144  -3.486  1.00  0.00     0.118 C 
BRANCH  27  28
ATOM     28  N   UNL     1      -3.983  12.124  -2.425  1.00  0.00    -0.352 N 
ATOM     29  C   UNL     1      -3.885  13.492  -2.470  1.00  0.00     0.251 C 
ATOM     30  H   UNL     1      -4.207  11.749  -1.543  1.00  0.00     0.163 HD
ATOM     31  O   UNL     1      -3.820  14.120  -1.417  1.00  0.00    -0.269 OA
BRANCH  29  32
ATOM     32  C   UNL     1      -3.842  14.204  -3.767  1.00  0.00     0.039 A 
ATOM     33  C   UNL     1      -2.990  15.303  -3.904  1.00  0.00     0.014 A 
ATOM     34  C   UNL     1      -4.667  13.824  -4.831  1.00  0.00     0.014 A 
ATOM     35  C   UNL     1      -2.928  15.989  -5.120  1.00  0.00     0.010 A 
ATOM     36  C   UNL     1      -4.553  14.464  -6.063  1.00  0.00     0.010 A 
ATOM     37  C   UNL     1      -3.689  15.558  -6.218  1.00  0.00    -0.014 A 
BRANCH  37  38
ATOM     38  C   UNL     1      -3.602  16.247  -7.532  1.00  0.00     0.031 A 
ATOM     39  C   UNL     1      -4.804  16.957  -8.093  1.00  0.00     0.074 A 
ATOM     40  C   UNL     1      -2.459  16.181  -8.243  1.00  0.00     0.049 A 
ATOM     41  N   UNL     1      -4.952  17.547  -9.252  1.00  0.00    -0.248 NA
ATOM     42  C   UNL     1      -6.008  16.980  -7.249  1.00  0.00     0.031 C 
ATOM     43  C   UNL     1      -1.239  15.490  -7.817  1.00  0.00     0.029 A 
ATOM     44  N   UNL     1      -2.136  16.690  -9.475  1.00  0.00    -0.354 N 
ATOM     45  C   UNL     1      -6.268  17.999  -9.283  1.00  0.00     0.074 A 
ATOM     46  C   UNL     1      -6.888  17.561  -8.050  1.00  0.00     0.031 C 
ATOM     47  C   UNL     1      -0.298  15.636  -8.762  1.00  0.00     0.029 A 
ATOM     48  C   UNL     1      -0.856  16.390  -9.880  1.00  0.00     0.049 A 
ATOM     49  H   UNL     1      -2.762  17.221 -10.019  1.00  0.00     0.167 HD
ATOM     50  C   UNL     1      -6.893  18.729 -10.241  1.00  0.00     0.034 A 
ATOM     51  C   UNL     1      -0.211  16.676 -11.028  1.00  0.00     0.034 A 
ATOM     52  C   UNL     1      -6.253  19.165 -11.459  1.00  0.00     0.049 A 
ATOM     53  C   UNL     1      -0.931  17.471 -12.088  1.00  0.00     0.074 A 
ATOM     54  C   UNL     1      -6.772  19.951 -12.473  1.00  0.00     0.029 A 
ATOM     55  N   UNL     1      -4.953  18.845 -11.833  1.00  0.00    -0.354 N 
ATOM     56  N   UNL     1      -2.161  17.931 -12.081  1.00  0.00    -0.248 NA
ATOM     57  C   UNL     1      -0.173  17.794 -13.302  1.00  0.00     0.031 C 
ATOM     58  C   UNL     1      -5.812  20.051 -13.487  1.00  0.00     0.029 A 
ATOM     59  C   UNL     1      -4.665  19.393 -13.074  1.00  0.00     0.049 A 
ATOM     60  H   UNL     1      -4.327  18.308 -11.295  1.00  0.00     0.167 HD
ATOM     61  C   UNL     1      -2.312  18.625 -13.278  1.00  0.00     0.074 A 
ATOM     62  C   UNL     1      -1.043  18.534 -13.973  1.00  0.00     0.031 C 
ATOM     63  C   UNL     1      -3.398  19.283 -13.759  1.00  0.00     0.034 A 
BRANCH  50  64
ATOM     64  C   UNL     1      -8.347  19.073 -10.015  1.00  0.00     0.023 A 
ATOM     65  C   UNL     1      -8.759  19.869  -8.932  1.00  0.00     0.031 A 
ATOM     66  C   UNL     1      -9.339  18.576 -10.879  1.00  0.00     0.131 A 
ATOM     67  C   UNL     1     -10.126  20.078  -8.694  1.00  0.00     0.055 A 
ATOM     68  C   UNL     1     -10.694  18.858 -10.685  1.00  0.00     0.041 A 
ATOM     69  F   UNL     1      -9.012  17.794 -11.919  1.00  0.00    -0.206 F 
ATOM     70  C   UNL     1     -11.095  19.600  -9.578  1.00  0.00     0.022 A 
BRANCH  67  71
ATOM     71  S   UNL     1     -10.624  20.859  -7.135  1.00  0.00     0.124 S 
ATOM     72  O   UNL     1     -10.055  19.941  -6.151  1.00  0.00    -0.237 OA
ATOM     73  O   UNL     1      -9.995  22.172  -7.223  1.00  0.00    -0.237 OA
ATOM     74  O   UNL     1     -12.084  20.860  -7.202  1.00  0.00    -0.744 OA
ENDBRANCH  67  71
ENDBRANCH  50  64
BRANCH  51  75
ATOM     75  C   UNL     1       1.187  16.205 -11.245  1.00  0.00     0.023 A 
ATOM     76  C   UNL     1       2.246  17.118 -11.372  1.00  0.00     0.031 A 
ATOM     77  C   UNL     1       1.480  14.835 -11.364  1.00  0.00     0.131 A 
ATOM     78  C   UNL     1       3.540  16.653 -11.655  1.00  0.00     0.055 A 
ATOM     79  C   UNL     1       2.777  14.375 -11.594  1.00  0.00     0.041 A 
ATOM     80  F   UNL     1       0.505  13.919 -11.244  1.00  0.00    -0.206 F 
ATOM     81  C   UNL     1       3.815  15.288 -11.755  1.00  0.00     0.022 A 
BRANCH  78  82
ATOM     82  S   UNL     1       4.848  17.869 -11.974  1.00  0.00     0.124 S 
ATOM     83  O   UNL     1       4.291  18.617 -13.096  1.00  0.00    -0.237 OA
ATOM     84  O   UNL     1       4.918  18.578 -10.701  1.00  0.00    -0.237 OA
ATOM     85  O   UNL     1       6.010  17.041 -12.290  1.00  0.00    -0.744 OA
ENDBRANCH  78  82
ENDBRANCH  51  75
BRANCH  63  86
ATOM     86  C   UNL     1      -3.237  19.993 -15.081  1.00  0.00     0.023 A 
ATOM     87  C   UNL     1      -3.041  19.289 -16.281  1.00  0.00     0.031 A 
ATOM     88  C   UNL     1      -3.268  21.398 -15.135  1.00  0.00     0.131 A 
ATOM     89  C   UNL     1      -2.827  19.992 -17.476  1.00  0.00     0.055 A 
ATOM     90  C   UNL     1      -3.115  22.091 -16.336  1.00  0.00     0.041 A 
ATOM     91  F   UNL     1      -3.450  22.121 -14.018  1.00  0.00    -0.206 F 
ATOM     92  C   UNL     1      -2.879  21.388 -17.514  1.00  0.00     0.022 A 
BRANCH  89  93
ATOM     93  S   UNL     1      -2.386  19.060 -18.969  1.00  0.00     0.124 S 
ATOM     94  O   UNL     1      -1.168  18.374 -18.550  1.00  0.00    -0.237 OA
ATOM     95  O   UNL     1      -3.559  18.214 -19.166  1.00  0.00    -0.237 OA
ATOM     96  O   UNL     1      -2.196  20.099 -19.979  1.00  0.00    -0.744 OA
ENDBRANCH  89  93
ENDBRANCH  63  86
ENDBRANCH  37  38
ENDBRANCH  29  32
ENDBRANCH  27  28
ENDBRANCH   1  27
TORSDOF 16
