REMARK SMILES COc1ccc([C@H]2CC(c3ccc(S(C)(=O)=O)cc3)=NN2c2ccc(C(=O)NCCCNC(=O)c3ccc(-c4c5nc(c(-c6cc(S(=O)(=O)[O-])ccc6F)c6ccc([nH]6)c(-c6cc(S(=O)(=O)[O-])ccc6F)c6nc(c(-c7cc(S(=O)(=O)[O-])ccc7F)c7ccc4[nH]7)C=C6)C=C5)cc3)cc2)cc1OC
REMARK SMILES IDX 30 1 29 2 28 3 26 4 27 5 25 7 22 8 23 9 99 10 24 11 98 12
REMARK SMILES IDX 21 13 7 14 8 15 9 16 20 17 6 18 3 19 4 20 101 21 5 22 100 23
REMARK SMILES IDX 2 24 1 25 102 26 103 27 10 28 11 29 19 30 12 31 18 32 13 33
REMARK SMILES IDX 14 34 15 35 16 36 17 37 31 38 32 39 33 40 34 42 35 43 36 44
REMARK SMILES IDX 97 45 37 46 96 47 38 48 39 49 40 50 90 51 41 52 95 53 89 54
REMARK SMILES IDX 91 55 42 56 94 57 88 58 87 59 43 61 75 62 55 63 74 64 56 65
REMARK SMILES IDX 59 66 73 67 92 68 57 69 58 70 72 72 93 73 60 74 44 75 45 76
REMARK SMILES IDX 53 77 46 78 52 79 54 80 51 81 47 82 48 83 49 84 50 85 76 86
REMARK SMILES IDX 77 87 85 88 78 89 84 90 86 91 83 92 79 93 80 94 81 95 82 96
REMARK SMILES IDX 61 97 62 98 70 99 63 100 69 101 71 102 68 103 64 104 65 105
REMARK SMILES IDX 66 106 67 107
REMARK H PARENT 28 6 32 41 91 60 59 71
REMARK Flexibility Score: inf
ROOT
ATOM      1  C   UNL     1       0.754   2.868  11.117  1.00  0.00     0.042 C 
ENDROOT
BRANCH   1   2
ATOM      2  C   UNL     1       0.870   3.296   9.654  1.00  0.00     0.118 C 
BRANCH   2   3
ATOM      3  N   UNL     1       2.207   3.773   9.356  1.00  0.00    -0.352 N 
ATOM      4  C   UNL     1       3.282   3.187   8.740  1.00  0.00     0.251 C 
ATOM      5  O   UNL     1       4.290   3.877   8.583  1.00  0.00    -0.269 OA
ATOM      6  H   UNL     1       2.375   4.696   9.655  1.00  0.00     0.163 HD
BRANCH   4   7
ATOM      7  C   UNL     1       3.264   1.796   8.207  1.00  0.00     0.039 A 
ATOM      8  C   UNL     1       3.321  -0.774   7.024  1.00  0.00     0.060 A 
ATOM      9  C   UNL     1       4.170   0.241   6.573  1.00  0.00     0.029 A 
ATOM     10  C   UNL     1       2.484  -0.504   8.107  1.00  0.00     0.029 A 
ATOM     11  C   UNL     1       4.129   1.516   7.141  1.00  0.00     0.016 A 
ATOM     12  C   UNL     1       2.485   0.755   8.719  1.00  0.00     0.016 A 
BRANCH   8  13
ATOM     13  N   UNL     1       3.345  -2.019   6.425  1.00  0.00    -0.257 N 
ATOM     14  C   UNL     1       2.206  -2.650   5.761  1.00  0.00     0.144 C 
ATOM     15  C   UNL     1       2.733  -4.064   5.474  1.00  0.00     0.091 C 
ATOM     16  C   UNL     1       4.120  -3.950   6.041  1.00  0.00     0.071 C 
ATOM     17  N   UNL     1       4.435  -2.810   6.567  1.00  0.00    -0.176 NA
BRANCH  14  18
ATOM     18  C   UNL     1       1.820  -1.893   4.497  1.00  0.00    -0.019 A 
ATOM     19  C   UNL     1       1.168  -0.365   2.215  1.00  0.00     0.160 A 
ATOM     20  C   UNL     1       0.197  -0.644   3.188  1.00  0.00     0.051 A 
ATOM     21  C   UNL     1       2.470  -0.850   2.370  1.00  0.00     0.161 A 
ATOM     22  C   UNL     1       0.518  -1.409   4.316  1.00  0.00     0.010 A 
ATOM     23  C   UNL     1       2.778  -1.606   3.508  1.00  0.00     0.056 A 
BRANCH  19  24
ATOM     24  O   UNL     1       0.852   0.499   1.201  1.00  0.00    -0.493 OA
ATOM     25  C   UNL     1      -0.065  -0.065   0.267  1.00  0.00     0.278 C 
ENDBRANCH  19  24
BRANCH  21  26
ATOM     26  O   UNL     1       3.552  -0.659   1.554  1.00  0.00    -0.493 OA
ATOM     27  C   UNL     1       3.317  -0.228   0.223  1.00  0.00     0.278 C 
ENDBRANCH  21  26
ENDBRANCH  14  18
BRANCH  16  28
ATOM     28  C   UNL     1       5.040  -5.089   6.042  1.00  0.00    -0.002 A 
ATOM     29  C   UNL     1       5.515  -5.564   7.269  1.00  0.00     0.011 A 
ATOM     30  C   UNL     1       5.464  -5.650   4.837  1.00  0.00     0.011 A 
ATOM     31  C   UNL     1       6.411  -6.632   7.295  1.00  0.00     0.021 A 
ATOM     32  C   UNL     1       6.381  -6.702   4.859  1.00  0.00     0.021 A 
ATOM     33  C   UNL     1       6.850  -7.185   6.088  1.00  0.00     0.067 A 
BRANCH  33  34
ATOM     34  S   UNL     1       8.010  -8.533   6.121  1.00  0.00     0.175 S 
ATOM     35  C   UNL     1       9.442  -7.861   6.925  1.00  0.00     0.163 C 
ATOM     36  O   UNL     1       7.436  -9.555   6.981  1.00  0.00    -0.224 OA
ATOM     37  O   UNL     1       8.376  -8.832   4.754  1.00  0.00    -0.224 OA
ENDBRANCH  33  34
ENDBRANCH  16  28
ENDBRANCH   8  13
ENDBRANCH   4   7
ENDBRANCH   2   3
ENDBRANCH   1   2
BRANCH   1  38
ATOM     38  C   UNL     1       0.689   4.047  12.085  1.00  0.00     0.118 C 
BRANCH  38  39
ATOM     39  N   UNL     1      -0.557   4.786  11.946  1.00  0.00    -0.352 N 
ATOM     40  C   UNL     1      -1.526   5.067  12.875  1.00  0.00     0.251 C 
ATOM     41  H   UNL     1      -0.732   5.139  11.044  1.00  0.00     0.163 HD
ATOM     42  O   UNL     1      -2.617   5.476  12.487  1.00  0.00    -0.269 OA
BRANCH  40  43
ATOM     43  C   UNL     1      -1.274   4.876  14.322  1.00  0.00     0.039 A 
ATOM     44  C   UNL     1      -2.318   4.410  15.126  1.00  0.00     0.014 A 
ATOM     45  C   UNL     1      -0.046   5.210  14.900  1.00  0.00     0.014 A 
ATOM     46  C   UNL     1      -2.118   4.240  16.498  1.00  0.00     0.010 A 
ATOM     47  C   UNL     1       0.174   4.975  16.257  1.00  0.00     0.010 A 
ATOM     48  C   UNL     1      -0.863   4.498  17.072  1.00  0.00    -0.014 A 
BRANCH  48  49
ATOM     49  C   UNL     1      -0.628   4.287  18.525  1.00  0.00     0.031 A 
ATOM     50  C   UNL     1      -0.310   5.455  19.419  1.00  0.00     0.074 A 
ATOM     51  C   UNL     1      -0.654   3.037  19.026  1.00  0.00     0.049 A 
ATOM     52  N   UNL     1      -0.016   5.468  20.694  1.00  0.00    -0.248 NA
ATOM     53  C   UNL     1      -0.292   6.782  18.786  1.00  0.00     0.031 C 
ATOM     54  C   UNL     1      -0.915   1.822  18.250  1.00  0.00     0.029 A 
ATOM     55  N   UNL     1      -0.453   2.576  20.303  1.00  0.00    -0.354 N 
ATOM     56  C   UNL     1       0.233   6.798  21.014  1.00  0.00     0.074 A 
ATOM     57  C   UNL     1       0.115   7.552  19.784  1.00  0.00     0.031 C 
ATOM     58  C   UNL     1      -0.880   0.760  19.070  1.00  0.00     0.029 A 
ATOM     59  C   UNL     1      -0.552   1.209  20.419  1.00  0.00     0.049 A 
ATOM     60  H   UNL     1      -0.257   3.169  21.064  1.00  0.00     0.167 HD
ATOM     61  C   UNL     1       0.513   7.343  22.226  1.00  0.00     0.034 A 
ATOM     62  C   UNL     1      -0.384   0.406  21.489  1.00  0.00     0.034 A 
ATOM     63  C   UNL     1       0.619   6.574  23.443  1.00  0.00     0.049 A 
ATOM     64  C   UNL     1      -0.056   1.031  22.821  1.00  0.00     0.074 A 
ATOM     65  C   UNL     1       0.849   7.026  24.732  1.00  0.00     0.029 A 
ATOM     66  N   UNL     1       0.509   5.191  23.524  1.00  0.00    -0.354 N 
ATOM     67  N   UNL     1       0.128   2.297  23.117  1.00  0.00    -0.248 NA
ATOM     68  C   UNL     1       0.071   0.120  23.965  1.00  0.00     0.031 C 
ATOM     69  C   UNL     1       0.944   5.914  25.577  1.00  0.00     0.029 A 
ATOM     70  C   UNL     1       0.696   4.772  24.833  1.00  0.00     0.049 A 
ATOM     71  H   UNL     1       0.325   4.595  22.762  1.00  0.00     0.167 HD
ATOM     72  C   UNL     1       0.364   2.335  24.489  1.00  0.00     0.074 A 
ATOM     73  C   UNL     1       0.279   0.968  24.961  1.00  0.00     0.031 C 
ATOM     74  C   UNL     1       0.622   3.402  25.287  1.00  0.00     0.034 A 
BRANCH  61  75
ATOM     75  C   UNL     1       0.752   8.834  22.279  1.00  0.00     0.023 A 
ATOM     76  C   UNL     1      -0.250   9.757  21.928  1.00  0.00     0.031 A 
ATOM     77  C   UNL     1       2.007   9.343  22.658  1.00  0.00     0.131 A 
ATOM     78  C   UNL     1       0.043  11.129  21.885  1.00  0.00     0.055 A 
ATOM     79  C   UNL     1       2.267  10.715  22.695  1.00  0.00     0.041 A 
ATOM     80  F   UNL     1       3.011   8.514  22.985  1.00  0.00    -0.206 F 
ATOM     81  C   UNL     1       1.286  11.617  22.291  1.00  0.00     0.022 A 
BRANCH  78  82
ATOM     82  S   UNL     1      -1.178  12.251  21.149  1.00  0.00     0.124 S 
ATOM     83  O   UNL     1      -1.314  11.698  19.804  1.00  0.00    -0.237 OA
ATOM     84  O   UNL     1      -2.329  12.086  22.028  1.00  0.00    -0.237 OA
ATOM     85  O   UNL     1      -0.525  13.558  21.214  1.00  0.00    -0.744 OA
ENDBRANCH  78  82
ENDBRANCH  61  75
BRANCH  62  86
ATOM     86  C   UNL     1      -0.515  -1.072  21.351  1.00  0.00     0.023 A 
ATOM     87  C   UNL     1      -1.539  -1.773  22.008  1.00  0.00     0.031 A 
ATOM     88  C   UNL     1       0.406  -1.812  20.587  1.00  0.00     0.131 A 
ATOM     89  C   UNL     1      -1.591  -3.173  21.928  1.00  0.00     0.055 A 
ATOM     90  C   UNL     1       0.318  -3.200  20.468  1.00  0.00     0.041 A 
ATOM     91  F   UNL     1       1.399  -1.191  19.933  1.00  0.00    -0.206 F 
ATOM     92  C   UNL     1      -0.677  -3.890  21.152  1.00  0.00     0.022 A 
BRANCH  89  93
ATOM     93  S   UNL     1      -2.825  -4.054  22.923  1.00  0.00     0.124 S 
ATOM     94  O   UNL     1      -2.494  -3.608  24.272  1.00  0.00    -0.237 OA
ATOM     95  O   UNL     1      -4.077  -3.549  22.369  1.00  0.00    -0.237 OA
ATOM     96  O   UNL     1      -2.546  -5.461  22.644  1.00  0.00    -0.744 OA
ENDBRANCH  89  93
ENDBRANCH  62  86
BRANCH  74  97
ATOM     97  C   UNL     1       0.787   3.127  26.763  1.00  0.00     0.023 A 
ATOM     98  C   UNL     1       1.867   2.377  27.261  1.00  0.00     0.031 A 
ATOM     99  C   UNL     1      -0.166   3.603  27.680  1.00  0.00     0.131 A 
ATOM    100  C   UNL     1       1.934   2.072  28.628  1.00  0.00     0.055 A 
ATOM    101  C   UNL     1      -0.060   3.351  29.049  1.00  0.00     0.041 A 
ATOM    102  F   UNL     1      -1.220   4.322  27.261  1.00  0.00    -0.206 F 
ATOM    103  C   UNL     1       0.987   2.568  29.528  1.00  0.00     0.022 A 
BRANCH 100 104
ATOM    104  S   UNL     1       3.220   0.929  29.203  1.00  0.00     0.124 S 
ATOM    105  O   UNL     1       2.949  -0.261  28.402  1.00  0.00    -0.237 OA
ATOM    106  O   UNL     1       4.446   1.650  28.879  1.00  0.00    -0.237 OA
ATOM    107  O   UNL     1       2.943   0.790  30.632  1.00  0.00    -0.744 OA
ENDBRANCH 100 104
ENDBRANCH  74  97
ENDBRANCH  48  49
ENDBRANCH  40  43
ENDBRANCH  38  39
ENDBRANCH   1  38
TORSDOF 19
