REMARK SMILES CCc1cccc(C)c1Nc1ccccc1CC(=O)NCCCNC(=O)c1ccc(-c2c3nc(c(-c4cc(S(=O)(=O)[O-])ccc4F)c4ccc([nH]4)c(-c4cc(S(=O)(=O)[O-])ccc4F)c4nc(c(-c5cc(S(=O)(=O)[O-])ccc5F)c5ccc2[nH]5)C=C4)C=C3)cc1
REMARK SMILES IDX 21 1 20 2 18 3 19 4 17 6 16 7 11 8 12 9 13 10 15 11 14 12
REMARK SMILES IDX 10 13 9 15 3 16 4 17 5 18 7 19 6 20 8 21 2 22 1 23 22 24
REMARK SMILES IDX 23 25 24 26 25 27 26 29 27 30 28 31 89 32 29 33 88 34 30 35
REMARK SMILES IDX 31 36 32 37 82 38 33 39 87 40 81 41 83 42 34 43 86 44 80 45
REMARK SMILES IDX 79 46 35 48 67 49 47 50 66 51 48 52 51 53 65 54 84 55 49 56
REMARK SMILES IDX 50 57 64 59 85 60 52 61 36 62 37 63 45 64 38 65 44 66 46 67
REMARK SMILES IDX 43 68 39 69 40 70 41 71 42 72 68 73 69 74 77 75 70 76 76 77
REMARK SMILES IDX 78 78 75 79 71 80 72 81 73 82 74 83 53 84 54 85 62 86 55 87
REMARK SMILES IDX 61 88 63 89 60 90 56 91 57 92 58 93 59 94
REMARK H PARENT 20 5 10 14 24 28 83 47 51 58
REMARK Flexibility Score: inf
ROOT
ATOM      1  C   UNL     1       0.985   6.867   2.753  1.00  0.00     0.117 C 
ENDROOT
BRANCH   1   2
ATOM      2  N   UNL     1       0.424   6.142   1.628  1.00  0.00    -0.356 N 
ATOM      3  C   UNL     1      -0.099   4.885   1.532  1.00  0.00     0.224 C 
ATOM      4  O   UNL     1      -0.807   4.616   0.556  1.00  0.00    -0.275 OA
ATOM      5  H   UNL     1       0.420   6.647   0.783  1.00  0.00     0.163 HD
BRANCH   3   6
ATOM      6  C   UNL     1       0.034   3.875   2.656  1.00  0.00     0.137 C 
BRANCH   6   7
ATOM      7  C   UNL     1       1.407   3.342   3.019  1.00  0.00    -0.015 A 
ATOM      8  C   UNL     1       2.084   2.335   2.298  1.00  0.00     0.042 A 
ATOM      9  C   UNL     1       3.312   1.849   2.798  1.00  0.00     0.026 A 
ATOM     10  C   UNL     1       3.871   2.338   3.977  1.00  0.00     0.002 A 
ATOM     11  C   UNL     1       1.975   3.794   4.232  1.00  0.00     0.006 A 
ATOM     12  C   UNL     1       3.198   3.312   4.697  1.00  0.00     0.000 A 
BRANCH   8  13
ATOM     13  N   UNL     1       1.642   1.783   1.077  1.00  0.00    -0.355 N 
ATOM     14  H   UNL     1       1.411   0.827   1.129  1.00  0.00     0.167 HD
BRANCH  13  15
ATOM     15  C   UNL     1       1.469   2.349  -0.209  1.00  0.00     0.045 A 
ATOM     16  C   UNL     1       0.591   1.744  -1.149  1.00  0.00    -0.024 A 
ATOM     17  C   UNL     1       0.246   2.467  -2.317  1.00  0.00     0.006 A 
ATOM     18  C   UNL     1       0.782   3.715  -2.595  1.00  0.00     0.001 A 
ATOM     19  C   UNL     1       2.124   3.551  -0.585  1.00  0.00    -0.027 A 
ATOM     20  C   UNL     1       1.739   4.240  -1.746  1.00  0.00     0.005 A 
ATOM     21  C   UNL     1       3.280   4.122   0.183  1.00  0.00     0.046 C 
BRANCH  16  22
ATOM     22  C   UNL     1      -0.091   0.389  -1.062  1.00  0.00     0.034 C 
ATOM     23  C   UNL     1       0.420  -0.698  -0.131  1.00  0.00     0.009 C 
ENDBRANCH  16  22
ENDBRANCH  13  15
ENDBRANCH   8  13
ENDBRANCH   6   7
ENDBRANCH   3   6
ENDBRANCH   1   2
BRANCH   1  24
ATOM     24  C   UNL     1       2.506   7.013   2.736  1.00  0.00     0.042 C 
BRANCH  24  25
ATOM     25  C   UNL     1       3.089   7.610   1.452  1.00  0.00     0.118 C 
BRANCH  25  26
ATOM     26  N   UNL     1       3.911   8.796   1.691  1.00  0.00    -0.352 N 
ATOM     27  C   UNL     1       4.795   9.441   0.842  1.00  0.00     0.251 C 
ATOM     28  H   UNL     1       3.823   9.193   2.587  1.00  0.00     0.163 HD
ATOM     29  O   UNL     1       5.366  10.461   1.174  1.00  0.00    -0.269 OA
BRANCH  27  30
ATOM     30  C   UNL     1       4.949   8.933  -0.544  1.00  0.00     0.039 A 
ATOM     31  C   UNL     1       4.652   9.816  -1.587  1.00  0.00     0.014 A 
ATOM     32  C   UNL     1       5.210   7.591  -0.808  1.00  0.00     0.014 A 
ATOM     33  C   UNL     1       4.385   9.310  -2.858  1.00  0.00     0.010 A 
ATOM     34  C   UNL     1       4.900   7.080  -2.060  1.00  0.00     0.010 A 
ATOM     35  C   UNL     1       4.410   7.927  -3.059  1.00  0.00    -0.014 A 
BRANCH  35  36
ATOM     36  C   UNL     1       3.738   7.304  -4.198  1.00  0.00     0.031 A 
ATOM     37  C   UNL     1       4.466   6.845  -5.394  1.00  0.00     0.074 A 
ATOM     38  C   UNL     1       2.390   7.201  -4.199  1.00  0.00     0.049 A 
ATOM     39  N   UNL     1       3.974   6.890  -6.588  1.00  0.00    -0.248 NA
ATOM     40  C   UNL     1       5.824   6.319  -5.341  1.00  0.00     0.031 C 
ATOM     41  C   UNL     1       1.554   6.495  -5.165  1.00  0.00     0.029 A 
ATOM     42  N   UNL     1       1.492   7.958  -3.449  1.00  0.00    -0.354 N 
ATOM     43  C   UNL     1       4.806   6.169  -7.405  1.00  0.00     0.074 A 
ATOM     44  C   UNL     1       5.981   5.897  -6.602  1.00  0.00     0.031 C 
ATOM     45  C   UNL     1       0.327   7.036  -5.147  1.00  0.00     0.029 A 
ATOM     46  C   UNL     1       0.366   8.185  -4.261  1.00  0.00     0.049 A 
ATOM     47  H   UNL     1       1.622   8.275  -2.526  1.00  0.00     0.167 HD
ATOM     48  C   UNL     1       4.380   5.750  -8.630  1.00  0.00     0.034 A 
ATOM     49  C   UNL     1      -0.035   9.452  -4.567  1.00  0.00     0.034 A 
ATOM     50  C   UNL     1       3.000   6.129  -8.918  1.00  0.00     0.049 A 
ATOM     51  C   UNL     1      -0.063   9.759  -6.052  1.00  0.00     0.074 A 
ATOM     52  C   UNL     1       1.794   5.447  -8.915  1.00  0.00     0.029 A 
ATOM     53  N   UNL     1       2.678   7.468  -9.055  1.00  0.00    -0.354 N 
ATOM     54  N   UNL     1       0.312   8.932  -6.989  1.00  0.00    -0.248 NA
ATOM     55  C   UNL     1      -0.420  11.073  -6.586  1.00  0.00     0.031 C 
ATOM     56  C   UNL     1       0.743   6.394  -9.073  1.00  0.00     0.029 A 
ATOM     57  C   UNL     1       1.312   7.648  -9.182  1.00  0.00     0.049 A 
ATOM     58  H   UNL     1       3.337   8.199  -9.062  1.00  0.00     0.167 HD
ATOM     59  C   UNL     1       0.336   9.588  -8.195  1.00  0.00     0.074 A 
ATOM     60  C   UNL     1      -0.135  10.926  -7.890  1.00  0.00     0.031 C 
ATOM     61  C   UNL     1       0.795   8.998  -9.340  1.00  0.00     0.034 A 
BRANCH  48  62
ATOM     62  C   UNL     1       5.157   4.763  -9.462  1.00  0.00     0.023 A 
ATOM     63  C   UNL     1       4.473   3.780 -10.204  1.00  0.00     0.031 A 
ATOM     64  C   UNL     1       6.561   4.737  -9.550  1.00  0.00     0.131 A 
ATOM     65  C   UNL     1       5.169   2.775 -10.897  1.00  0.00     0.055 A 
ATOM     66  C   UNL     1       7.256   3.704 -10.193  1.00  0.00     0.041 A 
ATOM     67  F   UNL     1       7.309   5.724  -9.034  1.00  0.00    -0.206 F 
ATOM     68  C   UNL     1       6.559   2.705 -10.858  1.00  0.00     0.022 A 
BRANCH  65  69
ATOM     69  S   UNL     1       4.225   1.553 -11.850  1.00  0.00     0.124 S 
ATOM     70  O   UNL     1       3.305   1.018 -10.851  1.00  0.00    -0.237 OA
ATOM     71  O   UNL     1       3.631   2.374 -12.899  1.00  0.00    -0.237 OA
ATOM     72  O   UNL     1       5.250   0.615 -12.306  1.00  0.00    -0.744 OA
ENDBRANCH  65  69
ENDBRANCH  48  62
BRANCH  49  73
ATOM     73  C   UNL     1       0.265  10.438  -3.486  1.00  0.00     0.023 A 
ATOM     74  C   UNL     1      -0.249  10.174  -2.198  1.00  0.00     0.031 A 
ATOM     75  C   UNL     1       1.290  11.386  -3.596  1.00  0.00     0.131 A 
ATOM     76  C   UNL     1       0.361  10.726  -1.063  1.00  0.00     0.055 A 
ATOM     77  C   UNL     1       1.844  11.996  -2.464  1.00  0.00     0.041 A 
ATOM     78  F   UNL     1       1.856  11.651  -4.783  1.00  0.00    -0.206 F 
ATOM     79  C   UNL     1       1.409  11.636  -1.188  1.00  0.00     0.022 A 
BRANCH  76  80
ATOM     80  S   UNL     1      -0.054  10.024   0.559  1.00  0.00     0.124 S 
ATOM     81  O   UNL     1      -1.291  10.716   0.893  1.00  0.00    -0.237 OA
ATOM     82  O   UNL     1      -0.177   8.596   0.264  1.00  0.00    -0.237 OA
ATOM     83  O   UNL     1       1.096  10.357   1.398  1.00  0.00    -0.744 OA
ENDBRANCH  76  80
ENDBRANCH  49  73
BRANCH  61  84
ATOM     84  C   UNL     1       0.835   9.665 -10.698  1.00  0.00     0.023 A 
ATOM     85  C   UNL     1      -0.092  10.643 -11.091  1.00  0.00     0.031 A 
ATOM     86  C   UNL     1       1.783   9.288 -11.680  1.00  0.00     0.131 A 
ATOM     87  C   UNL     1       0.004  11.272 -12.347  1.00  0.00     0.055 A 
ATOM     88  C   UNL     1       1.829   9.860 -12.955  1.00  0.00     0.041 A 
ATOM     89  F   UNL     1       2.724   8.365 -11.440  1.00  0.00    -0.206 F 
ATOM     90  C   UNL     1       0.949  10.875 -13.290  1.00  0.00     0.022 A 
BRANCH  87  91
ATOM     91  S   UNL     1      -1.093  12.670 -12.701  1.00  0.00     0.124 S 
ATOM     92  O   UNL     1      -2.417  12.100 -12.479  1.00  0.00    -0.237 OA
ATOM     93  O   UNL     1      -0.650  13.652 -11.714  1.00  0.00    -0.237 OA
ATOM     94  O   UNL     1      -0.786  13.008 -14.090  1.00  0.00    -0.744 OA
ENDBRANCH  87  91
ENDBRANCH  61  84
ENDBRANCH  35  36
ENDBRANCH  27  30
ENDBRANCH  25  26
ENDBRANCH  24  25
ENDBRANCH   1  24
TORSDOF 17
