REMARK SMILES O=C(CCCN1C(=O)c2ccc3c4c(ccc(c24)C1=O)C(=O)NC3=O)NCCCNC(=O)c1ccc(-c2c3nc(c(-c4cc(S(=O)(=O)[O-])ccc4F)c4ccc([nH]4)c(-c4cc(S(=O)(=O)[O-])ccc4F)c4nc(c(-c5cc(S(=O)(=O)[O-])ccc5F)c5ccc2[nH]5)C=C4)C=C3)cc1
REMARK SMILES IDX 28 1 27 2 26 3 1 4 2 5 3 7 4 8 5 9 6 10 19 11 7 12 20 13
REMARK SMILES IDX 17 14 9 15 8 16 16 17 18 18 10 19 15 20 13 21 11 22 14 23
REMARK SMILES IDX 12 24 21 25 24 26 23 27 22 28 25 29 29 31 30 32 31 33 32 35
REMARK SMILES IDX 33 36 34 37 95 38 35 39 94 40 36 41 37 42 38 43 88 44 39 45
REMARK SMILES IDX 93 46 87 47 89 48 40 49 92 50 86 51 85 52 41 54 73 55 53 56
REMARK SMILES IDX 72 57 54 58 57 59 71 60 90 61 55 62 56 63 70 65 91 66 58 67
REMARK SMILES IDX 42 68 43 69 51 70 44 71 50 72 52 73 49 74 45 75 46 76 47 77
REMARK SMILES IDX 48 78 74 79 75 80 83 81 76 82 82 83 84 84 81 85 77 86 78 87
REMARK SMILES IDX 79 88 80 89 59 90 60 91 68 92 61 93 67 94 69 95 66 96 62 97
REMARK SMILES IDX 63 98 64 99 65 100
REMARK H PARENT 26 6 23 30 30 34 89 53 57 64
REMARK Flexibility Score: inf
ROOT
ATOM      1  C   UNL     1       2.088   3.367  -1.262  1.00  0.00     0.042 C 
ENDROOT
BRANCH   1   2
ATOM      2  C   UNL     1       1.935   1.886  -1.607  1.00  0.00     0.117 C 
BRANCH   2   3
ATOM      3  N   UNL     1       2.671   1.006  -0.721  1.00  0.00    -0.356 N 
ATOM      4  O   UNL     1       0.911  -0.382  -0.229  1.00  0.00    -0.275 OA
ATOM      5  C   UNL     1       2.097  -0.084  -0.113  1.00  0.00     0.220 C 
ATOM      6  H   UNL     1       3.621   1.196  -0.548  1.00  0.00     0.163 HD
BRANCH   5   7
ATOM      7  C   UNL     1       3.031  -0.913   0.747  1.00  0.00     0.102 C 
BRANCH   7   8
ATOM      8  C   UNL     1       3.913  -1.879  -0.049  1.00  0.00     0.032 C 
BRANCH   8   9
ATOM      9  C   UNL     1       5.206  -1.285  -0.631  1.00  0.00     0.130 C 
BRANCH   9  10
ATOM     10  N   UNL     1       6.000  -0.558   0.362  1.00  0.00    -0.274 N 
ATOM     11  C   UNL     1       5.962   0.831   0.323  1.00  0.00     0.261 C 
ATOM     12  C   UNL     1       6.733  -1.294   1.291  1.00  0.00     0.261 C 
ATOM     13  O   UNL     1       5.363   1.459  -0.546  1.00  0.00    -0.269 OA
ATOM     14  C   UNL     1       6.609   1.568   1.425  1.00  0.00     0.049 A 
ATOM     15  C   UNL     1       7.428  -0.529   2.356  1.00  0.00     0.049 A 
ATOM     16  O   UNL     1       6.802  -2.520   1.286  1.00  0.00    -0.269 OA
ATOM     17  C   UNL     1       6.466   2.959   1.504  1.00  0.00     0.015 A 
ATOM     18  C   UNL     1       7.316   0.866   2.402  1.00  0.00     0.009 A 
ATOM     19  C   UNL     1       8.148  -1.214   3.341  1.00  0.00     0.015 A 
ATOM     20  C   UNL     1       7.035   3.669   2.555  1.00  0.00     0.015 A 
ATOM     21  C   UNL     1       7.913   1.586   3.467  1.00  0.00     0.009 A 
ATOM     22  C   UNL     1       8.754  -0.509   4.380  1.00  0.00     0.015 A 
ATOM     23  C   UNL     1       7.758   2.981   3.530  1.00  0.00     0.048 A 
ATOM     24  C   UNL     1       8.632   0.884   4.444  1.00  0.00     0.048 A 
ATOM     25  C   UNL     1       8.346   3.728   4.662  1.00  0.00     0.258 C 
ATOM     26  C   UNL     1       9.259   1.629   5.561  1.00  0.00     0.258 C 
ATOM     27  N   UNL     1       9.079   2.992   5.560  1.00  0.00    -0.288 N 
ATOM     28  O   UNL     1       8.160   4.930   4.801  1.00  0.00    -0.269 OA
ATOM     29  O   UNL     1       9.882   1.049   6.440  1.00  0.00    -0.269 OA
ATOM     30  H   UNL     1       9.523   3.494   6.281  1.00  0.00     0.173 HD
ENDBRANCH   9  10
ENDBRANCH   8   9
ENDBRANCH   7   8
ENDBRANCH   5   7
ENDBRANCH   2   3
ENDBRANCH   1   2
BRANCH   1  31
ATOM     31  C   UNL     1       3.495   3.948  -1.370  1.00  0.00     0.118 C 
BRANCH  31  32
ATOM     32  N   UNL     1       4.134   3.741  -2.659  1.00  0.00    -0.352 N 
ATOM     33  C   UNL     1       4.990   4.565  -3.350  1.00  0.00     0.251 C 
ATOM     34  H   UNL     1       3.922   2.888  -3.102  1.00  0.00     0.163 HD
ATOM     35  O   UNL     1       5.352   4.253  -4.481  1.00  0.00    -0.269 OA
BRANCH  33  36
ATOM     36  C   UNL     1       5.464   5.829  -2.743  1.00  0.00     0.039 A 
ATOM     37  C   UNL     1       5.448   6.997  -3.506  1.00  0.00     0.014 A 
ATOM     38  C   UNL     1       5.963   5.860  -1.438  1.00  0.00     0.014 A 
ATOM     39  C   UNL     1       5.886   8.200  -2.943  1.00  0.00     0.010 A 
ATOM     40  C   UNL     1       6.333   7.072  -0.853  1.00  0.00     0.010 A 
ATOM     41  C   UNL     1       6.308   8.257  -1.603  1.00  0.00    -0.014 A 
BRANCH  41  42
ATOM     42  C   UNL     1       6.741   9.547  -0.997  1.00  0.00     0.031 A 
ATOM     43  C   UNL     1       8.162   9.738  -0.534  1.00  0.00     0.074 A 
ATOM     44  C   UNL     1       5.849  10.548  -0.848  1.00  0.00     0.049 A 
ATOM     45  N   UNL     1       8.725  10.792   0.003  1.00  0.00    -0.248 NA
ATOM     46  C   UNL     1       9.063   8.584  -0.669  1.00  0.00     0.031 C 
ATOM     47  C   UNL     1       4.433  10.475  -1.217  1.00  0.00     0.029 A 
ATOM     48  N   UNL     1       5.997  11.822  -0.357  1.00  0.00    -0.354 N 
ATOM     49  C   UNL     1      10.041  10.428   0.271  1.00  0.00     0.074 A 
ATOM     50  C   UNL     1      10.169   9.034  -0.096  1.00  0.00     0.031 C 
ATOM     51  C   UNL     1       3.855  11.663  -0.977  1.00  0.00     0.029 A 
ATOM     52  C   UNL     1       4.841  12.569  -0.396  1.00  0.00     0.049 A 
ATOM     53  H   UNL     1       6.850  12.168  -0.008  1.00  0.00     0.167 HD
ATOM     54  C   UNL     1      11.056  11.192   0.749  1.00  0.00     0.034 A 
ATOM     55  C   UNL     1       4.601  13.838  -0.008  1.00  0.00     0.034 A 
ATOM     56  C   UNL     1      10.915  12.583   1.110  1.00  0.00     0.049 A 
ATOM     57  C   UNL     1       5.738  14.659   0.549  1.00  0.00     0.074 A 
ATOM     58  C   UNL     1      11.886  13.458   1.565  1.00  0.00     0.029 A 
ATOM     59  N   UNL     1       9.726  13.301   1.069  1.00  0.00    -0.354 N 
ATOM     60  N   UNL     1       6.991  14.315   0.742  1.00  0.00    -0.248 NA
ATOM     61  C   UNL     1       5.431  16.046   0.922  1.00  0.00     0.031 C 
ATOM     62  C   UNL     1      11.272  14.677   1.874  1.00  0.00     0.029 A 
ATOM     63  C   UNL     1       9.935  14.597   1.520  1.00  0.00     0.049 A 
ATOM     64  H   UNL     1       8.861  12.943   0.765  1.00  0.00     0.167 HD
ATOM     65  C   UNL     1       7.629  15.459   1.218  1.00  0.00     0.074 A 
ATOM     66  C   UNL     1       6.625  16.502   1.268  1.00  0.00     0.031 C 
ATOM     67  C   UNL     1       8.928  15.633   1.573  1.00  0.00     0.034 A 
BRANCH  54  68
ATOM     68  C   UNL     1      12.402  10.526   0.931  1.00  0.00     0.023 A 
ATOM     69  C   UNL     1      13.108   9.973  -0.153  1.00  0.00     0.031 A 
ATOM     70  C   UNL     1      12.981  10.421   2.209  1.00  0.00     0.131 A 
ATOM     71  C   UNL     1      14.302   9.271   0.070  1.00  0.00     0.055 A 
ATOM     72  C   UNL     1      14.216   9.801   2.412  1.00  0.00     0.041 A 
ATOM     73  F   UNL     1      12.349  10.908   3.288  1.00  0.00    -0.206 F 
ATOM     74  C   UNL     1      14.876   9.206   1.341  1.00  0.00     0.022 A 
BRANCH  71  75
ATOM     75  S   UNL     1      15.006   8.306  -1.295  1.00  0.00     0.124 S 
ATOM     76  O   UNL     1      13.901   7.405  -1.619  1.00  0.00    -0.237 OA
ATOM     77  O   UNL     1      15.306   9.332  -2.286  1.00  0.00    -0.237 OA
ATOM     78  O   UNL     1      16.169   7.658  -0.693  1.00  0.00    -0.744 OA
ENDBRANCH  71  75
ENDBRANCH  54  68
BRANCH  55  79
ATOM     79  C   UNL     1       3.231  14.421  -0.129  1.00  0.00     0.023 A 
ATOM     80  C   UNL     1       2.982  15.528  -0.956  1.00  0.00     0.031 A 
ATOM     81  C   UNL     1       2.160  13.912   0.628  1.00  0.00     0.131 A 
ATOM     82  C   UNL     1       1.711  16.125  -0.963  1.00  0.00     0.055 A 
ATOM     83  C   UNL     1       0.882  14.470   0.569  1.00  0.00     0.041 A 
ATOM     84  F   UNL     1       2.341  12.853   1.434  1.00  0.00    -0.206 F 
ATOM     85  C   UNL     1       0.656  15.594  -0.219  1.00  0.00     0.022 A 
BRANCH  82  86
ATOM     86  S   UNL     1       1.482  17.672  -1.883  1.00  0.00     0.124 S 
ATOM     87  O   UNL     1       2.479  18.536  -1.261  1.00  0.00    -0.237 OA
ATOM     88  O   UNL     1       1.760  17.254  -3.253  1.00  0.00    -0.237 OA
ATOM     89  O   UNL     1       0.091  18.027  -1.611  1.00  0.00    -0.744 OA
ENDBRANCH  82  86
ENDBRANCH  55  79
BRANCH  67  90
ATOM     90  C   UNL     1       9.352  17.025   1.984  1.00  0.00     0.023 A 
ATOM     91  C   UNL     1       8.831  17.660   3.126  1.00  0.00     0.031 A 
ATOM     92  C   UNL     1      10.279  17.738   1.201  1.00  0.00     0.131 A 
ATOM     93  C   UNL     1       9.184  18.988   3.410  1.00  0.00     0.055 A 
ATOM     94  C   UNL     1      10.683  19.032   1.532  1.00  0.00     0.041 A 
ATOM     95  F   UNL     1      10.809  17.187   0.097  1.00  0.00    -0.206 F 
ATOM     96  C   UNL     1      10.121  19.671   2.632  1.00  0.00     0.022 A 
BRANCH  93  97
ATOM     97  S   UNL     1       8.306  19.857   4.739  1.00  0.00     0.124 S 
ATOM     98  O   UNL     1       6.913  19.715   4.327  1.00  0.00    -0.237 OA
ATOM     99  O   UNL     1       8.701  19.098   5.922  1.00  0.00    -0.237 OA
ATOM    100  O   UNL     1       8.837  21.217   4.670  1.00  0.00    -0.744 OA
ENDBRANCH  93  97
ENDBRANCH  67  90
ENDBRANCH  41  42
ENDBRANCH  33  36
ENDBRANCH  31  32
ENDBRANCH   1  31
TORSDOF 16
