REMARK SMILES C[C@@H](C(=O)NCCCNC(=O)c1ccc(-c2c3nc(c(-c4cc(S(=O)(=O)[O-])ccc4F)c4ccc([nH]4)c(-c4cc(S(=O)(=O)[O-])ccc4F)c4nc(c(-c5cc(S(=O)(=O)[O-])ccc5F)c5ccc2[nH]5)C=C4)C=C3)cc1)c1cccn(C(F)F)c1=O
REMARK SMILES IDX 7 1 6 2 5 3 3 4 4 5 2 7 1 8 75 9 76 10 83 11 77 12 79 13
REMARK SMILES IDX 84 14 78 15 80 16 81 17 82 18 8 19 9 20 10 21 11 23 12 24
REMARK SMILES IDX 13 25 74 26 14 27 73 28 15 29 16 30 17 31 67 32 18 33 72 34
REMARK SMILES IDX 66 35 68 36 19 37 71 38 65 39 64 40 20 42 52 43 32 44 51 45
REMARK SMILES IDX 33 46 36 47 50 48 69 49 34 50 35 51 49 53 70 54 37 55 21 56
REMARK SMILES IDX 22 57 30 58 23 59 29 60 31 61 28 62 24 63 25 64 26 65 27 66
REMARK SMILES IDX 53 67 54 68 62 69 55 70 61 71 63 72 60 73 56 74 57 75 58 76
REMARK SMILES IDX 59 77 38 78 39 79 47 80 40 81 46 82 48 83 45 84 41 85 42 86
REMARK SMILES IDX 43 87 44 88
REMARK H PARENT 5 6 9 22 68 41 36 52
REMARK Flexibility Score: inf
ROOT
ATOM      1  C   UNL     1       4.355   1.273  -0.432  1.00  0.00     0.042 C 
ENDROOT
BRANCH   1   2
ATOM      2  C   UNL     1       3.402   1.990   0.527  1.00  0.00     0.117 C 
BRANCH   2   3
ATOM      3  N   UNL     1       2.278   2.579  -0.185  1.00  0.00    -0.356 N 
ATOM      4  C   UNL     1       0.988   2.139  -0.312  1.00  0.00     0.227 C 
ATOM      5  O   UNL     1       0.287   2.657  -1.184  1.00  0.00    -0.274 OA
ATOM      6  H   UNL     1       2.476   3.426  -0.647  1.00  0.00     0.163 HD
BRANCH   4   7
ATOM      7  C   UNL     1       0.480   1.007   0.605  1.00  0.00     0.111 C 
ATOM      8  C   UNL     1       0.988  -0.323   0.029  1.00  0.00     0.023 C 
BRANCH   7   9
ATOM      9  C   UNL     1      -1.035   1.043   0.776  1.00  0.00     0.030 A 
ATOM     10  C   UNL     1      -1.848  -0.031   0.711  1.00  0.00     0.012 A 
ATOM     11  C   UNL     1      -1.684   2.386   1.019  1.00  0.00     0.258 A 
ATOM     12  C   UNL     1      -3.280   0.084   0.787  1.00  0.00     0.019 A 
ATOM     13  N   UNL     1      -3.062   2.431   0.871  1.00  0.00    -0.258 N 
ATOM     14  O   UNL     1      -1.008   3.360   1.342  1.00  0.00    -0.269 OA
ATOM     15  C   UNL     1      -3.843   1.294   0.809  1.00  0.00     0.095 A 
BRANCH  13  16
ATOM     16  C   UNL     1      -3.692   3.724   0.859  1.00  0.00     0.451 C 
ATOM     17  F   UNL     1      -4.597   3.783  -0.158  1.00  0.00    -0.185 F 
ATOM     18  F   UNL     1      -4.410   3.893   2.003  1.00  0.00    -0.185 F 
ENDBRANCH  13  16
ENDBRANCH   7   9
ENDBRANCH   4   7
ENDBRANCH   2   3
ENDBRANCH   1   2
BRANCH   1  19
ATOM     19  C   UNL     1       5.117   2.206  -1.369  1.00  0.00     0.118 C 
BRANCH  19  20
ATOM     20  N   UNL     1       6.094   3.024  -0.666  1.00  0.00    -0.352 N 
ATOM     21  C   UNL     1       7.460   3.077  -0.799  1.00  0.00     0.251 C 
ATOM     22  H   UNL     1       5.718   3.634   0.010  1.00  0.00     0.163 HD
ATOM     23  O   UNL     1       8.121   3.693   0.036  1.00  0.00    -0.269 OA
BRANCH  21  24
ATOM     24  C   UNL     1       8.140   2.376  -1.912  1.00  0.00     0.039 A 
ATOM     25  C   UNL     1       9.300   1.646  -1.640  1.00  0.00     0.014 A 
ATOM     26  C   UNL     1       7.647   2.438  -3.219  1.00  0.00     0.014 A 
ATOM     27  C   UNL     1       9.911   0.904  -2.656  1.00  0.00     0.010 A 
ATOM     28  C   UNL     1       8.218   1.646  -4.215  1.00  0.00     0.010 A 
ATOM     29  C   UNL     1       9.344   0.854  -3.939  1.00  0.00    -0.014 A 
BRANCH  29  30
ATOM     30  C   UNL     1       9.868  -0.069  -4.983  1.00  0.00     0.031 A 
ATOM     31  C   UNL     1      10.441   0.472  -6.265  1.00  0.00     0.074 A 
ATOM     32  C   UNL     1       9.742  -1.401  -4.806  1.00  0.00     0.049 A 
ATOM     33  N   UNL     1      10.836  -0.177  -7.330  1.00  0.00    -0.248 NA
ATOM     34  C   UNL     1      10.570   1.934  -6.371  1.00  0.00     0.031 C 
ATOM     35  C   UNL     1       9.179  -2.044  -3.615  1.00  0.00     0.029 A 
ATOM     36  N   UNL     1      10.054  -2.457  -5.629  1.00  0.00    -0.354 N 
ATOM     37  C   UNL     1      11.239   0.793  -8.241  1.00  0.00     0.074 A 
ATOM     38  C   UNL     1      11.016   2.078  -7.613  1.00  0.00     0.031 C 
ATOM     39  C   UNL     1       9.193  -3.376  -3.783  1.00  0.00     0.029 A 
ATOM     40  C   UNL     1       9.703  -3.686  -5.114  1.00  0.00     0.049 A 
ATOM     41  H   UNL     1      10.488  -2.345  -6.506  1.00  0.00     0.167 HD
ATOM     42  C   UNL     1      11.753   0.622  -9.484  1.00  0.00     0.034 A 
ATOM     43  C   UNL     1       9.748  -4.918  -5.662  1.00  0.00     0.034 A 
ATOM     44  C   UNL     1      11.987  -0.668 -10.086  1.00  0.00     0.049 A 
ATOM     45  C   UNL     1      10.276  -5.068  -7.069  1.00  0.00     0.074 A 
ATOM     46  C   UNL     1      12.595  -0.950 -11.298  1.00  0.00     0.029 A 
ATOM     47  N   UNL     1      11.605  -1.886  -9.542  1.00  0.00    -0.354 N 
ATOM     48  N   UNL     1      10.736  -4.143  -7.880  1.00  0.00    -0.248 NA
ATOM     49  C   UNL     1      10.291  -6.423  -7.636  1.00  0.00     0.031 C 
ATOM     50  C   UNL     1      12.495  -2.324 -11.529  1.00  0.00     0.029 A 
ATOM     51  C   UNL     1      11.908  -2.914 -10.422  1.00  0.00     0.049 A 
ATOM     52  H   UNL     1      11.183  -2.003  -8.661  1.00  0.00     0.167 HD
ATOM     53  C   UNL     1      11.118  -4.813  -9.040  1.00  0.00     0.074 A 
ATOM     54  C   UNL     1      10.858  -6.218  -8.815  1.00  0.00     0.031 C 
ATOM     55  C   UNL     1      11.634  -4.311 -10.190  1.00  0.00     0.034 A 
BRANCH  42  56
ATOM     56  C   UNL     1      12.064   1.848 -10.305  1.00  0.00     0.023 A 
ATOM     57  C   UNL     1      13.084   2.746  -9.950  1.00  0.00     0.031 A 
ATOM     58  C   UNL     1      11.355   2.091 -11.496  1.00  0.00     0.131 A 
ATOM     59  C   UNL     1      13.343   3.864 -10.760  1.00  0.00     0.055 A 
ATOM     60  C   UNL     1      11.662   3.166 -12.331  1.00  0.00     0.041 A 
ATOM     61  F   UNL     1      10.355   1.277 -11.873  1.00  0.00    -0.206 F 
ATOM     62  C   UNL     1      12.658   4.064 -11.961  1.00  0.00     0.022 A 
BRANCH  59  63
ATOM     63  S   UNL     1      14.528   5.106 -10.176  1.00  0.00     0.124 S 
ATOM     64  O   UNL     1      13.920   5.525  -8.915  1.00  0.00    -0.237 OA
ATOM     65  O   UNL     1      15.762   4.337 -10.064  1.00  0.00    -0.237 OA
ATOM     66  O   UNL     1      14.516   6.116 -11.232  1.00  0.00    -0.744 OA
ENDBRANCH  59  63
ENDBRANCH  42  56
BRANCH  43  67
ATOM     67  C   UNL     1       9.231  -6.108  -4.921  1.00  0.00     0.023 A 
ATOM     68  C   UNL     1      10.064  -7.203  -4.640  1.00  0.00     0.031 A 
ATOM     69  C   UNL     1       7.874  -6.210  -4.564  1.00  0.00     0.131 A 
ATOM     70  C   UNL     1       9.520  -8.376  -4.094  1.00  0.00     0.055 A 
ATOM     71  C   UNL     1       7.353  -7.351  -3.952  1.00  0.00     0.041 A 
ATOM     72  F   UNL     1       7.027  -5.198  -4.811  1.00  0.00    -0.206 F 
ATOM     73  C   UNL     1       8.174  -8.452  -3.732  1.00  0.00     0.022 A 
BRANCH  70  74
ATOM     74  S   UNL     1      10.569  -9.853  -4.000  1.00  0.00     0.124 S 
ATOM     75  O   UNL     1      11.012  -9.988  -5.383  1.00  0.00    -0.237 OA
ATOM     76  O   UNL     1      11.584  -9.442  -3.037  1.00  0.00    -0.237 OA
ATOM     77  O   UNL     1       9.652 -10.891  -3.534  1.00  0.00    -0.744 OA
ENDBRANCH  70  74
ENDBRANCH  43  67
BRANCH  55  78
ATOM     78  C   UNL     1      11.981  -5.295 -11.279  1.00  0.00     0.023 A 
ATOM     79  C   UNL     1      10.988  -6.018 -11.962  1.00  0.00     0.031 A 
ATOM     80  C   UNL     1      13.322  -5.501 -11.649  1.00  0.00     0.131 A 
ATOM     81  C   UNL     1      11.353  -6.944 -12.951  1.00  0.00     0.055 A 
ATOM     82  C   UNL     1      13.675  -6.377 -12.675  1.00  0.00     0.041 A 
ATOM     83  F   UNL     1      14.312  -4.841 -11.026  1.00  0.00    -0.206 F 
ATOM     84  C   UNL     1      12.689  -7.112 -13.326  1.00  0.00     0.022 A 
BRANCH  81  85
ATOM     85  S   UNL     1      10.064  -7.980 -13.695  1.00  0.00     0.124 S 
ATOM     86  O   UNL     1       9.556  -8.709 -12.537  1.00  0.00    -0.237 OA
ATOM     87  O   UNL     1       9.159  -6.990 -14.271  1.00  0.00    -0.237 OA
ATOM     88  O   UNL     1      10.794  -8.790 -14.668  1.00  0.00    -0.744 OA
ENDBRANCH  81  85
ENDBRANCH  55  78
ENDBRANCH  29  30
ENDBRANCH  21  24
ENDBRANCH  19  20
ENDBRANCH   1  19
TORSDOF 15
