REMARK SMILES O=C(NCCCNC(=O)c1cccc2cccc(C(=O)NC3COC3)c12)c1ccc(-c2c3nc(c(-c4cc(S(=O)(=O)[O-])ccc4F)c4ccc([nH]4)c(-c4cc(S(=O)(=O)[O-])ccc4F)c4nc(c(-c5cc(S(=O)(=O)[O-])ccc5F)c5ccc2[nH]5)C=C4)C=C3)cc1
REMARK SMILES IDX 4 1 3 2 1 3 2 4 27 6 28 7 89 8 29 9 88 10 30 11 31 12 32 13
REMARK SMILES IDX 82 14 33 15 87 16 81 17 83 18 34 19 86 20 80 21 79 22 35 24
REMARK SMILES IDX 67 25 47 26 66 27 48 28 51 29 65 30 84 31 49 32 50 33 64 35
REMARK SMILES IDX 85 36 52 37 36 38 37 39 45 40 38 41 44 42 46 43 43 44 39 45
REMARK SMILES IDX 40 46 41 47 42 48 68 49 69 50 77 51 70 52 76 53 78 54 75 55
REMARK SMILES IDX 71 56 72 57 73 58 74 59 53 60 54 61 62 62 55 63 61 64 63 65
REMARK SMILES IDX 60 66 56 67 57 68 58 69 59 70 5 71 6 72 7 73 8 74 9 76 10 77
REMARK SMILES IDX 11 78 26 79 12 80 14 81 18 82 13 83 15 84 17 85 16 86 19 87
REMARK SMILES IDX 20 88 21 89 22 91 23 92 25 93 24 94
REMARK H PARENT 3 5 83 23 51 34 7 75 21 90
REMARK Flexibility Score: inf
ROOT
ATOM      1  C   UNL     1       4.398  -0.903  -0.124  1.00  0.00     0.118 C 
ENDROOT
BRANCH   1   2
ATOM      2  N   UNL     1       2.993  -0.737  -0.484  1.00  0.00    -0.352 N 
ATOM      3  O   UNL     1       0.992   0.314  -0.394  1.00  0.00    -0.269 OA
ATOM      4  C   UNL     1       2.202   0.380  -0.312  1.00  0.00     0.251 C 
ATOM      5  H   UNL     1       2.558  -1.516  -0.900  1.00  0.00     0.163 HD
BRANCH   4   6
ATOM      6  C   UNL     1       2.889   1.653  -0.016  1.00  0.00     0.039 A 
ATOM      7  C   UNL     1       4.002   2.003  -0.781  1.00  0.00     0.014 A 
ATOM      8  C   UNL     1       2.485   2.435   1.065  1.00  0.00     0.014 A 
ATOM      9  C   UNL     1       4.823   3.029  -0.351  1.00  0.00     0.010 A 
ATOM     10  C   UNL     1       3.238   3.561   1.406  1.00  0.00     0.010 A 
ATOM     11  C   UNL     1       4.425   3.852   0.714  1.00  0.00    -0.014 A 
BRANCH  11  12
ATOM     12  C   UNL     1       5.228   5.066   1.000  1.00  0.00     0.031 A 
ATOM     13  C   UNL     1       5.887   5.279   2.330  1.00  0.00     0.074 A 
ATOM     14  C   UNL     1       5.375   5.965   0.006  1.00  0.00     0.049 A 
ATOM     15  N   UNL     1       6.595   6.299   2.743  1.00  0.00    -0.248 NA
ATOM     16  C   UNL     1       5.718   4.219   3.334  1.00  0.00     0.031 C 
ATOM     17  C   UNL     1       4.778   5.842  -1.330  1.00  0.00     0.029 A 
ATOM     18  N   UNL     1       6.086   7.131  -0.060  1.00  0.00    -0.354 N 
ATOM     19  C   UNL     1       6.933   6.022   4.063  1.00  0.00     0.074 A 
ATOM     20  C   UNL     1       6.323   4.749   4.388  1.00  0.00     0.031 C 
ATOM     21  C   UNL     1       5.213   6.844  -2.102  1.00  0.00     0.029 A 
ATOM     22  C   UNL     1       6.018   7.743  -1.290  1.00  0.00     0.049 A 
ATOM     23  H   UNL     1       6.597   7.497   0.698  1.00  0.00     0.167 HD
ATOM     24  C   UNL     1       7.682   6.769   4.915  1.00  0.00     0.034 A 
ATOM     25  C   UNL     1       6.513   8.919  -1.712  1.00  0.00     0.034 A 
ATOM     26  C   UNL     1       8.274   8.038   4.551  1.00  0.00     0.049 A 
ATOM     27  C   UNL     1       7.286   9.752  -0.733  1.00  0.00     0.074 A 
ATOM     28  C   UNL     1       9.067   8.873   5.319  1.00  0.00     0.029 A 
ATOM     29  N   UNL     1       8.128   8.662   3.316  1.00  0.00    -0.354 N 
ATOM     30  N   UNL     1       7.587   9.486   0.517  1.00  0.00    -0.248 NA
ATOM     31  C   UNL     1       7.779  11.043  -1.218  1.00  0.00     0.031 C 
ATOM     32  C   UNL     1       9.331  10.033   4.580  1.00  0.00     0.029 A 
ATOM     33  C   UNL     1       8.782   9.887   3.315  1.00  0.00     0.049 A 
ATOM     34  H   UNL     1       7.632   8.289   2.551  1.00  0.00     0.167 HD
ATOM     35  C   UNL     1       8.325  10.574   0.966  1.00  0.00     0.074 A 
ATOM     36  C   UNL     1       8.438  11.486  -0.157  1.00  0.00     0.031 C 
ATOM     37  C   UNL     1       8.863  10.796   2.193  1.00  0.00     0.034 A 
BRANCH  24  38
ATOM     38  C   UNL     1       7.840   6.261   6.333  1.00  0.00     0.023 A 
ATOM     39  C   UNL     1       8.450   5.027   6.622  1.00  0.00     0.031 A 
ATOM     40  C   UNL     1       7.324   7.002   7.412  1.00  0.00     0.131 A 
ATOM     41  C   UNL     1       8.448   4.533   7.937  1.00  0.00     0.055 A 
ATOM     42  C   UNL     1       7.408   6.547   8.730  1.00  0.00     0.041 A 
ATOM     43  F   UNL     1       6.708   8.176   7.204  1.00  0.00    -0.206 F 
ATOM     44  C   UNL     1       7.955   5.296   8.997  1.00  0.00     0.022 A 
BRANCH  41  45
ATOM     45  S   UNL     1       8.933   2.806   8.214  1.00  0.00     0.124 S 
ATOM     46  O   UNL     1       8.020   2.095   7.322  1.00  0.00    -0.237 OA
ATOM     47  O   UNL     1      10.338   2.806   7.825  1.00  0.00    -0.237 OA
ATOM     48  O   UNL     1       8.680   2.602   9.639  1.00  0.00    -0.744 OA
ENDBRANCH  41  45
ENDBRANCH  24  38
BRANCH  25  49
ATOM     49  C   UNL     1       6.248   9.381  -3.103  1.00  0.00     0.023 A 
ATOM     50  C   UNL     1       7.295   9.552  -4.018  1.00  0.00     0.031 A 
ATOM     51  C   UNL     1       4.936   9.644  -3.541  1.00  0.00     0.131 A 
ATOM     52  C   UNL     1       7.017  10.000  -5.319  1.00  0.00     0.055 A 
ATOM     53  C   UNL     1       4.659  10.032  -4.851  1.00  0.00     0.041 A 
ATOM     54  F   UNL     1       3.896   9.489  -2.705  1.00  0.00    -0.206 F 
ATOM     55  C   UNL     1       5.705  10.222  -5.747  1.00  0.00     0.022 A 
BRANCH  52  56
ATOM     56  S   UNL     1       8.405  10.352  -6.429  1.00  0.00     0.124 S 
ATOM     57  O   UNL     1       9.138  11.364  -5.677  1.00  0.00    -0.237 OA
ATOM     58  O   UNL     1       9.045   9.045  -6.539  1.00  0.00    -0.237 OA
ATOM     59  O   UNL     1       7.753  10.829  -7.647  1.00  0.00    -0.744 OA
ENDBRANCH  52  56
ENDBRANCH  25  49
BRANCH  37  60
ATOM     60  C   UNL     1       9.658  12.069   2.356  1.00  0.00     0.023 A 
ATOM     61  C   UNL     1       9.053  13.335   2.275  1.00  0.00     0.031 A 
ATOM     62  C   UNL     1      11.047  12.010   2.560  1.00  0.00     0.131 A 
ATOM     63  C   UNL     1       9.845  14.491   2.332  1.00  0.00     0.055 A 
ATOM     64  C   UNL     1      11.820  13.165   2.685  1.00  0.00     0.041 A 
ATOM     65  F   UNL     1      11.678  10.827   2.637  1.00  0.00    -0.206 F 
ATOM     66  C   UNL     1      11.222  14.414   2.556  1.00  0.00     0.022 A 
BRANCH  63  67
ATOM     67  S   UNL     1       9.068  16.096   1.995  1.00  0.00     0.124 S 
ATOM     68  O   UNL     1       8.529  15.895   0.654  1.00  0.00    -0.237 OA
ATOM     69  O   UNL     1       8.085  16.198   3.069  1.00  0.00    -0.237 OA
ATOM     70  O   UNL     1      10.181  17.040   2.082  1.00  0.00    -0.744 OA
ENDBRANCH  63  67
ENDBRANCH  37  60
ENDBRANCH  11  12
ENDBRANCH   4   6
ENDBRANCH   1   2
BRANCH   1  71
ATOM     71  C   UNL     1       4.548  -1.790   1.103  1.00  0.00     0.042 C 
BRANCH  71  72
ATOM     72  C   UNL     1       4.359  -3.251   0.727  1.00  0.00     0.118 C 
BRANCH  72  73
ATOM     73  N   UNL     1       5.515  -3.705  -0.024  1.00  0.00    -0.352 N 
ATOM     74  C   UNL     1       6.739  -4.090   0.456  1.00  0.00     0.251 C 
ATOM     75  H   UNL     1       5.406  -3.740  -1.002  1.00  0.00     0.163 HD
ATOM     76  O   UNL     1       7.729  -3.542  -0.023  1.00  0.00    -0.269 OA
BRANCH  74  77
ATOM     77  C   UNL     1       6.913  -5.247   1.381  1.00  0.00     0.048 A 
ATOM     78  C   UNL     1       6.192  -5.337   2.578  1.00  0.00     0.014 A 
ATOM     79  C   UNL     1       8.001  -6.142   1.122  1.00  0.00     0.007 A 
ATOM     80  C   UNL     1       6.559  -6.251   3.558  1.00  0.00     0.001 A 
ATOM     81  C   UNL     1       8.494  -6.868   2.238  1.00  0.00    -0.017 A 
ATOM     82  C   UNL     1       8.684  -6.345  -0.116  1.00  0.00     0.048 A 
ATOM     83  C   UNL     1       7.742  -6.958   3.416  1.00  0.00     0.009 A 
ATOM     84  C   UNL     1       9.760  -7.469   2.196  1.00  0.00     0.009 A 
ATOM     85  C   UNL     1       9.968  -6.924  -0.124  1.00  0.00     0.014 A 
ATOM     86  C   UNL     1      10.526  -7.435   1.040  1.00  0.00     0.001 A 
BRANCH  82  87
ATOM     87  C   UNL     1       8.185  -5.927  -1.455  1.00  0.00     0.252 C 
ATOM     88  O   UNL     1       8.994  -5.484  -2.275  1.00  0.00    -0.269 OA
ATOM     89  N   UNL     1       6.879  -6.029  -1.886  1.00  0.00    -0.345 N 
ATOM     90  H   UNL     1       6.628  -5.286  -2.481  1.00  0.00     0.164 HD
BRANCH  89  91
ATOM     91  C   UNL     1       5.764  -6.971  -1.680  1.00  0.00     0.134 C 
ATOM     92  C   UNL     1       5.825  -8.206  -0.788  1.00  0.00     0.187 C 
ATOM     93  C   UNL     1       4.572  -6.593  -0.794  1.00  0.00     0.187 C 
ATOM     94  O   UNL     1       4.426  -7.993  -0.404  1.00  0.00    -0.377 OA
ENDBRANCH  89  91
ENDBRANCH  82  87
ENDBRANCH  74  77
ENDBRANCH  72  73
ENDBRANCH  71  72
ENDBRANCH   1  71
TORSDOF 15
