REMARK SMILES COc1ccc(C(=O)Nc2cccc(C(=O)NCCCNC(=O)c3ccc(-c4c5nc(c(-c6cc(S(=O)(=O)[O-])ccc6F)c6ccc([nH]6)c(-c6cc(S(=O)(=O)[O-])ccc6F)c6nc(c(-c7cc(S(=O)(=O)[O-])ccc7F)c7ccc4[nH]7)C=C6)C=C5)cc3)c2)cc1
REMARK SMILES IDX 19 1 18 2 17 3 15 4 16 5 14 7 10 8 11 9 87 10 12 11 13 12
REMARK SMILES IDX 9 13 7 14 8 15 6 17 3 18 4 19 89 20 5 21 88 22 2 23 1 24
REMARK SMILES IDX 20 25 21 26 22 27 23 29 24 30 25 31 86 32 26 33 85 34 27 35
REMARK SMILES IDX 28 36 29 37 79 38 30 39 84 40 78 41 80 42 31 43 83 44 77 45
REMARK SMILES IDX 76 46 32 48 64 49 44 50 63 51 45 52 48 53 62 54 81 55 46 56
REMARK SMILES IDX 47 57 61 59 82 60 49 61 33 62 34 63 42 64 35 65 41 66 43 67
REMARK SMILES IDX 40 68 36 69 37 70 38 71 39 72 65 73 66 74 74 75 67 76 73 77
REMARK SMILES IDX 75 78 72 79 68 80 69 81 70 82 71 83 50 84 51 85 59 86 52 87
REMARK SMILES IDX 58 88 60 89 57 90 53 91 54 92 55 93 56 94
REMARK H PARENT 17 6 9 16 21 28 80 47 48 58
REMARK Flexibility Score: inf
ROOT
ATOM      1  C   UNL     1       3.708   0.515   5.444  1.00  0.00     0.042 C 
ENDROOT
BRANCH   1   2
ATOM      2  C   UNL     1       3.702   0.272   3.937  1.00  0.00     0.118 C 
BRANCH   2   3
ATOM      3  N   UNL     1       5.044   0.295   3.385  1.00  0.00    -0.352 N 
ATOM      4  C   UNL     1       5.952  -0.689   3.090  1.00  0.00     0.251 C 
ATOM      5  O   UNL     1       7.003  -0.333   2.554  1.00  0.00    -0.269 OA
ATOM      6  H   UNL     1       5.368   1.202   3.180  1.00  0.00     0.163 HD
BRANCH   4   7
ATOM      7  C   UNL     1       5.726  -2.148   3.323  1.00  0.00     0.041 A 
ATOM      8  C   UNL     1       4.541  -4.068   4.224  1.00  0.00     0.042 A 
ATOM      9  C   UNL     1       5.409  -4.940   3.572  1.00  0.00     0.026 A 
ATOM     10  C   UNL     1       4.765  -2.688   4.178  1.00  0.00     0.040 A 
ATOM     11  C   UNL     1       6.407  -4.423   2.752  1.00  0.00     0.003 A 
ATOM     12  C   UNL     1       6.545  -3.039   2.608  1.00  0.00     0.014 A 
BRANCH   8  13
ATOM     13  N   UNL     1       3.411  -4.607   4.857  1.00  0.00    -0.322 N 
ATOM     14  C   UNL     1       2.115  -4.123   4.886  1.00  0.00     0.255 C 
ATOM     15  O   UNL     1       1.313  -4.598   5.689  1.00  0.00    -0.269 OA
ATOM     16  H   UNL     1       3.562  -5.447   5.348  1.00  0.00     0.170 HD
BRANCH  14  17
ATOM     17  C   UNL     1       1.622  -3.126   3.884  1.00  0.00     0.040 A 
ATOM     18  C   UNL     1       0.645  -1.207   2.059  1.00  0.00     0.118 A 
ATOM     19  C   UNL     1       0.094  -1.320   3.339  1.00  0.00     0.047 A 
ATOM     20  C   UNL     1       1.652  -2.090   1.675  1.00  0.00     0.047 A 
ATOM     21  C   UNL     1       0.578  -2.268   4.248  1.00  0.00     0.017 A 
ATOM     22  C   UNL     1       2.112  -3.064   2.571  1.00  0.00     0.017 A 
BRANCH  18  23
ATOM     23  O   UNL     1       0.113  -0.215   1.284  1.00  0.00    -0.497 OA
ATOM     24  C   UNL     1       0.748   0.042   0.037  1.00  0.00     0.278 C 
ENDBRANCH  18  23
ENDBRANCH  14  17
ENDBRANCH   8  13
ENDBRANCH   4   7
ENDBRANCH   2   3
ENDBRANCH   1   2
BRANCH   1  25
ATOM     25  C   UNL     1       3.794   1.996   5.797  1.00  0.00     0.118 C 
BRANCH  25  26
ATOM     26  N   UNL     1       2.563   2.696   5.462  1.00  0.00    -0.352 N 
ATOM     27  C   UNL     1       1.755   3.488   6.238  1.00  0.00     0.251 C 
ATOM     28  H   UNL     1       2.263   2.585   4.531  1.00  0.00     0.163 HD
ATOM     29  O   UNL     1       0.643   3.791   5.815  1.00  0.00    -0.269 OA
BRANCH  27  30
ATOM     30  C   UNL     1       2.200   3.961   7.569  1.00  0.00     0.039 A 
ATOM     31  C   UNL     1       1.249   4.072   8.589  1.00  0.00     0.014 A 
ATOM     32  C   UNL     1       3.521   4.351   7.807  1.00  0.00     0.014 A 
ATOM     33  C   UNL     1       1.628   4.544   9.848  1.00  0.00     0.010 A 
ATOM     34  C   UNL     1       3.914   4.746   9.084  1.00  0.00     0.010 A 
ATOM     35  C   UNL     1       2.968   4.867  10.112  1.00  0.00    -0.014 A 
BRANCH  35  36
ATOM     36  C   UNL     1       3.383   5.374  11.447  1.00  0.00     0.031 A 
ATOM     37  C   UNL     1       3.928   6.772  11.585  1.00  0.00     0.074 A 
ATOM     38  C   UNL     1       3.311   4.561  12.520  1.00  0.00     0.049 A 
ATOM     39  N   UNL     1       4.386   7.382  12.648  1.00  0.00    -0.248 NA
ATOM     40  C   UNL     1       3.999   7.580  10.356  1.00  0.00     0.031 C 
ATOM     41  C   UNL     1       2.849   3.171  12.498  1.00  0.00     0.029 A 
ATOM     42  N   UNL     1       3.631   4.780  13.836  1.00  0.00    -0.354 N 
ATOM     43  C   UNL     1       4.826   8.629  12.213  1.00  0.00     0.074 A 
ATOM     44  C   UNL     1       4.623   8.668  10.781  1.00  0.00     0.031 C 
ATOM     45  C   UNL     1       2.895   2.671  13.743  1.00  0.00     0.029 A 
ATOM     46  C   UNL     1       3.423   3.687  14.647  1.00  0.00     0.049 A 
ATOM     47  H   UNL     1       3.978   5.639  14.170  1.00  0.00     0.167 HD
ATOM     48  C   UNL     1       5.335   9.651  12.944  1.00  0.00     0.034 A 
ATOM     49  C   UNL     1       3.639   3.524  15.967  1.00  0.00     0.034 A 
ATOM     50  C   UNL     1       5.490   9.607  14.378  1.00  0.00     0.049 A 
ATOM     51  C   UNL     1       4.166   4.694  16.763  1.00  0.00     0.074 A 
ATOM     52  C   UNL     1       5.916  10.612  15.229  1.00  0.00     0.029 A 
ATOM     53  N   UNL     1       5.227   8.499  15.172  1.00  0.00    -0.354 N 
ATOM     54  N   UNL     1       4.504   5.893  16.346  1.00  0.00    -0.248 NA
ATOM     55  C   UNL     1       4.316   4.495  18.209  1.00  0.00     0.031 C 
ATOM     56  C   UNL     1       5.969  10.093  16.528  1.00  0.00     0.029 A 
ATOM     57  C   UNL     1       5.506   8.788  16.500  1.00  0.00     0.049 A 
ATOM     58  H   UNL     1       4.892   7.634  14.842  1.00  0.00     0.167 HD
ATOM     59  C   UNL     1       4.871   6.600  17.488  1.00  0.00     0.074 A 
ATOM     60  C   UNL     1       4.689   5.701  18.608  1.00  0.00     0.031 C 
ATOM     61  C   UNL     1       5.318   7.877  17.604  1.00  0.00     0.034 A 
BRANCH  48  62
ATOM     62  C   UNL     1       5.784  10.889  12.205  1.00  0.00     0.023 A 
ATOM     63  C   UNL     1       4.883  11.704  11.497  1.00  0.00     0.031 A 
ATOM     64  C   UNL     1       7.142  11.258  12.207  1.00  0.00     0.131 A 
ATOM     65  C   UNL     1       5.358  12.807  10.771  1.00  0.00     0.055 A 
ATOM     66  C   UNL     1       7.597  12.400  11.545  1.00  0.00     0.041 A 
ATOM     67  F   UNL     1       8.052  10.509  12.848  1.00  0.00    -0.206 F 
ATOM     68  C   UNL     1       6.705  13.176  10.811  1.00  0.00     0.022 A 
BRANCH  65  69
ATOM     69  S   UNL     1       4.210  13.687   9.676  1.00  0.00     0.124 S 
ATOM     70  O   UNL     1       3.828  12.631   8.742  1.00  0.00    -0.237 OA
ATOM     71  O   UNL     1       3.172  14.132  10.598  1.00  0.00    -0.237 OA
ATOM     72  O   UNL     1       5.032  14.751   9.101  1.00  0.00    -0.744 OA
ENDBRANCH  65  69
ENDBRANCH  48  62
BRANCH  49  73
ATOM     73  C   UNL     1       3.364   2.217  16.632  1.00  0.00     0.023 A 
ATOM     74  C   UNL     1       2.393   2.107  17.640  1.00  0.00     0.031 A 
ATOM     75  C   UNL     1       4.117   1.072  16.317  1.00  0.00     0.131 A 
ATOM     76  C   UNL     1       2.247   0.903  18.346  1.00  0.00     0.055 A 
ATOM     77  C   UNL     1       3.926  -0.142  16.980  1.00  0.00     0.041 A 
ATOM     78  F   UNL     1       5.053   1.117  15.356  1.00  0.00    -0.206 F 
ATOM     79  C   UNL     1       2.999  -0.226  18.015  1.00  0.00     0.022 A 
BRANCH  76  80
ATOM     80  S   UNL     1       1.141   0.869  19.784  1.00  0.00     0.124 S 
ATOM     81  O   UNL     1       1.659   1.973  20.584  1.00  0.00    -0.237 OA
ATOM     82  O   UNL     1      -0.163   1.081  19.166  1.00  0.00    -0.237 OA
ATOM     83  O   UNL     1       1.355  -0.463  20.345  1.00  0.00    -0.744 OA
ENDBRANCH  76  80
ENDBRANCH  49  73
BRANCH  61  84
ATOM     84  C   UNL     1       5.582   8.381  19.002  1.00  0.00     0.023 A 
ATOM     85  C   UNL     1       6.599   7.836  19.805  1.00  0.00     0.031 A 
ATOM     86  C   UNL     1       4.778   9.395  19.551  1.00  0.00     0.131 A 
ATOM     87  C   UNL     1       6.736   8.254  21.137  1.00  0.00     0.055 A 
ATOM     88  C   UNL     1       4.963   9.855  20.855  1.00  0.00     0.041 A 
ATOM     89  F   UNL     1       3.791   9.951  18.829  1.00  0.00    -0.206 F 
ATOM     90  C   UNL     1       5.935   9.270  21.662  1.00  0.00     0.022 A 
BRANCH  87  91
ATOM     91  S   UNL     1       7.895   7.363  22.211  1.00  0.00     0.124 S 
ATOM     92  O   UNL     1       7.431   5.985  22.083  1.00  0.00    -0.237 OA
ATOM     93  O   UNL     1       9.183   7.662  21.594  1.00  0.00    -0.237 OA
ATOM     94  O   UNL     1       7.681   7.970  23.524  1.00  0.00    -0.744 OA
ENDBRANCH  87  91
ENDBRANCH  61  84
ENDBRANCH  35  36
ENDBRANCH  27  30
ENDBRANCH  25  26
ENDBRANCH   1  25
TORSDOF 16
