REMARK SMILES Cc1ccccc1OCC(=O)N1C[C@@H](O)C[C@H]1C(=O)NCCCNC(=O)c1ccc(-c2c3nc(c(-c4cc(S(=O)(=O)[O-])ccc4F)c4ccc([nH]4)c(-c4cc(S(=O)(=O)[O-])ccc4F)c4nc(c(-c5cc(S(=O)(=O)[O-])ccc5F)c5ccc2[nH]5)C=C4)C=C3)cc1
REMARK SMILES IDX 21 1 20 2 18 3 19 4 17 6 12 7 13 8 14 9 16 10 10 11 11 12
REMARK SMILES IDX 9 13 8 14 7 15 1 16 2 17 3 18 4 19 6 20 5 21 15 22 22 24
REMARK SMILES IDX 23 25 24 26 25 27 26 29 27 30 28 31 89 32 29 33 88 34 30 35
REMARK SMILES IDX 31 36 32 37 82 38 33 39 87 40 81 41 83 42 34 43 86 44 80 45
REMARK SMILES IDX 79 46 35 48 67 49 47 50 66 51 48 52 51 53 65 54 84 55 49 56
REMARK SMILES IDX 50 57 64 59 85 60 52 61 36 62 37 63 45 64 38 65 44 66 46 67
REMARK SMILES IDX 43 68 39 69 40 70 41 71 42 72 68 73 69 74 77 75 70 76 76 77
REMARK SMILES IDX 78 78 75 79 71 80 72 81 73 82 74 83 53 84 54 85 62 86 55 87
REMARK SMILES IDX 61 88 63 89 60 90 56 91 57 92 58 93 59 94
REMARK H PARENT 20 5 15 23 24 28 83 47 51 58
REMARK Flexibility Score: inf
ROOT
ATOM      1  C   UNL     1       1.470   0.353   4.920  1.00  0.00     0.117 C 
ENDROOT
BRANCH   1   2
ATOM      2  N   UNL     1       2.898   0.182   4.713  1.00  0.00    -0.354 N 
ATOM      3  C   UNL     1       3.863   1.040   4.275  1.00  0.00     0.242 C 
ATOM      4  O   UNL     1       5.041   0.677   4.371  1.00  0.00    -0.273 OA
ATOM      5  H   UNL     1       3.230  -0.720   4.929  1.00  0.00     0.163 HD
BRANCH   3   6
ATOM      6  C   UNL     1       3.551   2.472   3.781  1.00  0.00     0.177 C 
ATOM      7  N   UNL     1       2.656   2.582   2.627  1.00  0.00    -0.325 N 
ATOM      8  C   UNL     1       1.452   3.320   2.947  1.00  0.00     0.152 C 
ATOM      9  C   UNL     1       1.792   4.105   4.211  1.00  0.00     0.136 C 
ATOM     10  C   UNL     1       2.946   3.355   4.877  1.00  0.00     0.069 C 
BRANCH   7  11
ATOM     11  C   UNL     1       3.115   2.263   1.363  1.00  0.00     0.261 C 
ATOM     12  O   UNL     1       4.249   1.817   1.178  1.00  0.00    -0.271 OA
BRANCH  11  13
ATOM     13  C   UNL     1       2.229   2.594   0.154  1.00  0.00     0.329 C 
BRANCH  13  14
ATOM     14  O   UNL     1       0.856   2.302   0.209  1.00  0.00    -0.484 OA
BRANCH  14  15
ATOM     15  C   UNL     1       0.342   1.054   0.034  1.00  0.00     0.122 A 
ATOM     16  C   UNL     1       2.442  -0.425  -0.339  1.00  0.00     0.048 C 
ATOM     17  C   UNL     1       0.965  -0.180  -0.208  1.00  0.00    -0.009 A 
ATOM     18  C   UNL     1       0.150  -1.335  -0.288  1.00  0.00     0.007 A 
ATOM     19  C   UNL     1      -1.236  -1.274  -0.153  1.00  0.00     0.001 A 
ATOM     20  C   UNL     1      -1.062   1.095   0.152  1.00  0.00     0.047 A 
ATOM     21  C   UNL     1      -1.847  -0.052   0.062  1.00  0.00     0.004 A 
ENDBRANCH  14  15
ENDBRANCH  13  14
ENDBRANCH  11  13
ENDBRANCH   7  11
BRANCH   9  22
ATOM     22  O   UNL     1       0.675   4.246   5.075  1.00  0.00    -0.391 OA
ATOM     23  H   UNL     1       0.357   3.368   5.339  1.00  0.00     0.211 HD
ENDBRANCH   9  22
ENDBRANCH   3   6
ENDBRANCH   1   2
BRANCH   1  24
ATOM     24  C   UNL     1       0.636  -0.105   3.737  1.00  0.00     0.042 C 
BRANCH  24  25
ATOM     25  C   UNL     1       0.250  -1.574   3.825  1.00  0.00     0.118 C 
BRANCH  25  26
ATOM     26  N   UNL     1      -1.105  -1.792   4.337  1.00  0.00    -0.352 N 
ATOM     27  C   UNL     1      -1.821  -2.977   4.383  1.00  0.00     0.251 C 
ATOM     28  H   UNL     1      -1.564  -0.998   4.695  1.00  0.00     0.163 HD
ATOM     29  O   UNL     1      -2.966  -3.035   4.805  1.00  0.00    -0.269 OA
BRANCH  27  30
ATOM     30  C   UNL     1      -1.104  -4.215   4.013  1.00  0.00     0.039 A 
ATOM     31  C   UNL     1      -0.861  -5.137   5.036  1.00  0.00     0.014 A 
ATOM     32  C   UNL     1      -0.428  -4.289   2.799  1.00  0.00     0.014 A 
ATOM     33  C   UNL     1       0.235  -5.986   4.930  1.00  0.00     0.010 A 
ATOM     34  C   UNL     1       0.717  -5.061   2.736  1.00  0.00     0.010 A 
ATOM     35  C   UNL     1       1.084  -5.857   3.829  1.00  0.00    -0.014 A 
BRANCH  35  36
ATOM     36  C   UNL     1       2.443  -6.391   3.829  1.00  0.00     0.031 A 
ATOM     37  C   UNL     1       2.802  -7.552   2.993  1.00  0.00     0.074 A 
ATOM     38  C   UNL     1       3.396  -5.819   4.598  1.00  0.00     0.049 A 
ATOM     39  N   UNL     1       3.750  -8.382   3.274  1.00  0.00    -0.248 NA
ATOM     40  C   UNL     1       2.075  -7.894   1.778  1.00  0.00     0.031 C 
ATOM     41  C   UNL     1       4.833  -6.076   4.568  1.00  0.00     0.029 A 
ATOM     42  N   UNL     1       3.198  -5.076   5.762  1.00  0.00    -0.354 N 
ATOM     43  C   UNL     1       3.951  -9.173   2.169  1.00  0.00     0.074 A 
ATOM     44  C   UNL     1       2.840  -8.875   1.292  1.00  0.00     0.031 C 
ATOM     45  C   UNL     1       5.351  -5.763   5.764  1.00  0.00     0.029 A 
ATOM     46  C   UNL     1       4.246  -5.414   6.638  1.00  0.00     0.049 A 
ATOM     47  H   UNL     1       2.467  -4.439   5.937  1.00  0.00     0.167 HD
ATOM     48  C   UNL     1       5.104  -9.890   2.047  1.00  0.00     0.034 A 
ATOM     49  C   UNL     1       3.999  -5.962   7.861  1.00  0.00     0.034 A 
ATOM     50  C   UNL     1       5.969  -9.748   3.219  1.00  0.00     0.049 A 
ATOM     51  C   UNL     1       4.644  -7.313   8.072  1.00  0.00     0.074 A 
ATOM     52  C   UNL     1       7.114  -9.011   3.471  1.00  0.00     0.029 A 
ATOM     53  N   UNL     1       5.542 -10.230   4.452  1.00  0.00    -0.354 N 
ATOM     54  N   UNL     1       5.162  -8.046   7.125  1.00  0.00    -0.248 NA
ATOM     55  C   UNL     1       4.719  -7.957   9.376  1.00  0.00     0.031 C 
ATOM     56  C   UNL     1       7.360  -9.033   4.870  1.00  0.00     0.029 A 
ATOM     57  C   UNL     1       6.377  -9.803   5.468  1.00  0.00     0.049 A 
ATOM     58  H   UNL     1       4.750 -10.800   4.584  1.00  0.00     0.167 HD
ATOM     59  C   UNL     1       5.603  -9.241   7.648  1.00  0.00     0.074 A 
ATOM     60  C   UNL     1       5.324  -9.117   9.069  1.00  0.00     0.031 C 
ATOM     61  C   UNL     1       6.137 -10.219   6.848  1.00  0.00     0.034 A 
BRANCH  48  62
ATOM     62  C   UNL     1       5.570 -10.462   0.726  1.00  0.00     0.023 A 
ATOM     63  C   UNL     1       6.947 -10.501   0.424  1.00  0.00     0.031 A 
ATOM     64  C   UNL     1       4.717 -10.929  -0.292  1.00  0.00     0.131 A 
ATOM     65  C   UNL     1       7.407 -10.857  -0.857  1.00  0.00     0.055 A 
ATOM     66  C   UNL     1       5.164 -11.211  -1.589  1.00  0.00     0.041 A 
ATOM     67  F   UNL     1       3.420 -11.179  -0.057  1.00  0.00    -0.206 F 
ATOM     68  C   UNL     1       6.518 -11.157  -1.884  1.00  0.00     0.022 A 
BRANCH  65  69
ATOM     69  S   UNL     1       9.194 -10.939  -1.165  1.00  0.00     0.124 S 
ATOM     70  O   UNL     1       9.635  -9.593  -0.816  1.00  0.00    -0.237 OA
ATOM     71  O   UNL     1       9.610 -12.010  -0.266  1.00  0.00    -0.237 OA
ATOM     72  O   UNL     1       9.278 -11.265  -2.589  1.00  0.00    -0.744 OA
ENDBRANCH  65  69
ENDBRANCH  48  62
BRANCH  49  73
ATOM     73  C   UNL     1       2.718  -5.502   8.470  1.00  0.00     0.023 A 
ATOM     74  C   UNL     1       2.550  -4.112   8.647  1.00  0.00     0.031 A 
ATOM     75  C   UNL     1       1.576  -6.311   8.514  1.00  0.00     0.131 A 
ATOM     76  C   UNL     1       1.266  -3.552   8.688  1.00  0.00     0.055 A 
ATOM     77  C   UNL     1       0.296  -5.753   8.630  1.00  0.00     0.041 A 
ATOM     78  F   UNL     1       1.667  -7.635   8.322  1.00  0.00    -0.206 F 
ATOM     79  C   UNL     1       0.134  -4.367   8.671  1.00  0.00     0.022 A 
BRANCH  76  80
ATOM     80  S   UNL     1       1.085  -1.756   8.480  1.00  0.00     0.124 S 
ATOM     81  O   UNL     1       0.960  -1.293   9.856  1.00  0.00    -0.237 OA
ATOM     82  O   UNL     1       2.316  -1.376   7.789  1.00  0.00    -0.237 OA
ATOM     83  O   UNL     1      -0.117  -1.625   7.658  1.00  0.00    -0.744 OA
ENDBRANCH  76  80
ENDBRANCH  49  73
BRANCH  61  84
ATOM     84  C   UNL     1       6.543 -11.634   7.255  1.00  0.00     0.023 A 
ATOM     85  C   UNL     1       6.355 -12.179   8.533  1.00  0.00     0.031 A 
ATOM     86  C   UNL     1       7.127 -12.524   6.313  1.00  0.00     0.131 A 
ATOM     87  C   UNL     1       6.758 -13.494   8.849  1.00  0.00     0.055 A 
ATOM     88  C   UNL     1       7.484 -13.845   6.612  1.00  0.00     0.041 A 
ATOM     89  F   UNL     1       7.371 -12.160   5.046  1.00  0.00    -0.206 F 
ATOM     90  C   UNL     1       7.308 -14.338   7.891  1.00  0.00     0.022 A 
BRANCH  87  91
ATOM     91  S   UNL     1       6.566 -14.064  10.560  1.00  0.00     0.124 S 
ATOM     92  O   UNL     1       7.452 -13.155  11.282  1.00  0.00    -0.237 OA
ATOM     93  O   UNL     1       5.138 -13.873  10.793  1.00  0.00    -0.237 OA
ATOM     94  O   UNL     1       7.008 -15.456  10.513  1.00  0.00    -0.744 OA
ENDBRANCH  87  91
ENDBRANCH  61  84
ENDBRANCH  35  36
ENDBRANCH  27  30
ENDBRANCH  25  26
ENDBRANCH  24  25
ENDBRANCH   1  24
TORSDOF 18
