REMARK SMILES CC(C)OCCS(=O)(=O)N1CCC[C@H](C(=O)NCCCNC(=O)c2ccc(-c3c4nc(c(-c5cc(S(=O)(=O)[O-])ccc5F)c5ccc([nH]5)c(-c5cc(S(=O)(=O)[O-])ccc5F)c5nc(c(-c6cc(S(=O)(=O)[O-])ccc6F)c6ccc3[nH]6)C=C5)C=C4)cc2)C1
REMARK SMILES IDX 18 1 17 2 15 3 16 4 14 6 10 7 11 8 87 9 12 10 13 11 7 12
REMARK SMILES IDX 8 13 9 14 6 15 5 16 4 17 2 18 1 19 3 20 19 21 20 22 21 23
REMARK SMILES IDX 22 24 23 26 24 27 25 28 86 29 26 30 85 31 27 32 28 33 29 34
REMARK SMILES IDX 79 35 30 36 84 37 78 38 80 39 31 40 83 41 77 42 76 43 32 45
REMARK SMILES IDX 64 46 44 47 63 48 45 49 48 50 62 51 81 52 46 53 47 54 61 56
REMARK SMILES IDX 82 57 49 58 33 59 34 60 42 61 35 62 41 63 43 64 40 65 36 66
REMARK SMILES IDX 37 67 38 68 39 69 65 70 66 71 74 72 67 73 73 74 75 75 72 76
REMARK SMILES IDX 68 77 69 78 70 79 71 80 50 81 51 82 59 83 52 84 58 85 60 86
REMARK SMILES IDX 57 87 53 88 54 89 55 90 56 91
REMARK H PARENT 17 5 21 25 80 44 48 55
REMARK Flexibility Score: inf
ROOT
ATOM      1  C   UNL     1       4.197  -2.661   2.393  1.00  0.00     0.117 C 
ENDROOT
BRANCH   1   2
ATOM      2  N   UNL     1       4.276  -3.158   1.034  1.00  0.00    -0.356 N 
ATOM      3  C   UNL     1       3.301  -3.364   0.115  1.00  0.00     0.224 C 
ATOM      4  O   UNL     1       3.641  -3.812  -0.985  1.00  0.00    -0.275 OA
ATOM      5  H   UNL     1       5.185  -3.381   0.728  1.00  0.00     0.163 HD
BRANCH   3   6
ATOM      6  C   UNL     1       1.828  -3.094   0.403  1.00  0.00     0.093 C 
ATOM      7  N   UNL     1       1.046  -1.639   2.350  1.00  0.00    -0.201 NA
ATOM      8  C   UNL     1       0.330  -2.784   2.937  1.00  0.00     0.102 C 
ATOM      9  C   UNL     1       1.558  -1.698   0.959  1.00  0.00     0.115 C 
ATOM     10  C   UNL     1       0.989  -4.106   2.589  1.00  0.00     0.018 C 
ATOM     11  C   UNL     1       1.138  -4.269   1.090  1.00  0.00     0.016 C 
BRANCH   7  12
ATOM     12  S   UNL     1       0.907  -0.127   3.096  1.00  0.00     0.216 S 
ATOM     13  O   UNL     1       1.653   0.827   2.303  1.00  0.00    -0.212 OA
ATOM     14  O   UNL     1       1.231  -0.328   4.492  1.00  0.00    -0.212 OA
BRANCH  12  15
ATOM     15  C   UNL     1      -0.850   0.245   3.011  1.00  0.00     0.182 C 
BRANCH  15  16
ATOM     16  C   UNL     1      -1.198   1.410   2.104  1.00  0.00     0.178 C 
BRANCH  16  17
ATOM     17  O   UNL     1      -2.187   1.089   1.119  1.00  0.00    -0.378 OA
BRANCH  17  18
ATOM     18  C   UNL     1      -1.767   0.554  -0.140  1.00  0.00     0.112 C 
ATOM     19  C   UNL     1      -0.503   1.184  -0.720  1.00  0.00     0.038 C 
ATOM     20  C   UNL     1      -1.731  -0.968  -0.094  1.00  0.00     0.038 C 
ENDBRANCH  17  18
ENDBRANCH  16  17
ENDBRANCH  15  16
ENDBRANCH  12  15
ENDBRANCH   7  12
ENDBRANCH   3   6
ENDBRANCH   1   2
BRANCH   1  21
ATOM     21  C   UNL     1       4.644  -3.706   3.391  1.00  0.00     0.042 C 
BRANCH  21  22
ATOM     22  C   UNL     1       6.149  -3.721   3.520  1.00  0.00     0.118 C 
BRANCH  22  23
ATOM     23  N   UNL     1       6.641  -2.533   4.213  1.00  0.00    -0.352 N 
ATOM     24  C   UNL     1       7.207  -2.419   5.461  1.00  0.00     0.251 C 
ATOM     25  H   UNL     1       6.555  -1.690   3.713  1.00  0.00     0.163 HD
ATOM     26  O   UNL     1       7.338  -1.314   5.977  1.00  0.00    -0.269 OA
BRANCH  24  27
ATOM     27  C   UNL     1       7.625  -3.642   6.175  1.00  0.00     0.039 A 
ATOM     28  C   UNL     1       7.402  -3.756   7.546  1.00  0.00     0.014 A 
ATOM     29  C   UNL     1       8.201  -4.696   5.465  1.00  0.00     0.014 A 
ATOM     30  C   UNL     1       7.702  -4.959   8.186  1.00  0.00     0.010 A 
ATOM     31  C   UNL     1       8.333  -5.935   6.065  1.00  0.00     0.010 A 
ATOM     32  C   UNL     1       8.132  -6.071   7.442  1.00  0.00    -0.014 A 
BRANCH  32  33
ATOM     33  C   UNL     1       8.448  -7.367   8.091  1.00  0.00     0.031 A 
ATOM     34  C   UNL     1       9.829  -7.957   7.936  1.00  0.00     0.074 A 
ATOM     35  C   UNL     1       7.486  -8.029   8.761  1.00  0.00     0.049 A 
ATOM     36  N   UNL     1      10.298  -9.097   8.374  1.00  0.00    -0.248 NA
ATOM     37  C   UNL     1      10.793  -7.193   7.126  1.00  0.00     0.031 C 
ATOM     38  C   UNL     1       6.091  -7.597   8.893  1.00  0.00     0.029 A 
ATOM     39  N   UNL     1       7.534  -9.202   9.468  1.00  0.00    -0.354 N 
ATOM     40  C   UNL     1      11.589  -9.194   7.863  1.00  0.00     0.074 A 
ATOM     41  C   UNL     1      11.789  -8.052   7.002  1.00  0.00     0.031 C 
ATOM     42  C   UNL     1       5.435  -8.458   9.687  1.00  0.00     0.029 A 
ATOM     43  C   UNL     1       6.349  -9.520  10.091  1.00  0.00     0.049 A 
ATOM     44  H   UNL     1       8.340  -9.764   9.525  1.00  0.00     0.167 HD
ATOM     45  C   UNL     1      12.540 -10.123   8.127  1.00  0.00     0.034 A 
ATOM     46  C   UNL     1       6.047 -10.545  10.910  1.00  0.00     0.034 A 
ATOM     47  C   UNL     1      12.332 -11.220   9.037  1.00  0.00     0.049 A 
ATOM     48  C   UNL     1       7.140 -11.524  11.253  1.00  0.00     0.074 A 
ATOM     49  C   UNL     1      13.228 -12.190   9.445  1.00  0.00     0.029 A 
ATOM     50  N   UNL     1      11.135 -11.480   9.694  1.00  0.00    -0.354 N 
ATOM     51  N   UNL     1       8.379 -11.569  10.815  1.00  0.00    -0.248 NA
ATOM     52  C   UNL     1       6.802 -12.573  12.220  1.00  0.00     0.031 C 
ATOM     53  C   UNL     1      12.559 -13.065  10.310  1.00  0.00     0.029 A 
ATOM     54  C   UNL     1      11.265 -12.603  10.495  1.00  0.00     0.049 A 
ATOM     55  H   UNL     1      10.314 -10.945   9.604  1.00  0.00     0.167 HD
ATOM     56  C   UNL     1       8.974 -12.640  11.472  1.00  0.00     0.074 A 
ATOM     57  C   UNL     1       7.966 -13.189  12.358  1.00  0.00     0.031 C 
ATOM     58  C   UNL     1      10.234 -13.136  11.354  1.00  0.00     0.034 A 
BRANCH  45  59
ATOM     59  C   UNL     1      13.869  -9.978   7.418  1.00  0.00     0.023 A 
ATOM     60  C   UNL     1      14.674  -8.834   7.581  1.00  0.00     0.031 A 
ATOM     61  C   UNL     1      14.309 -10.963   6.518  1.00  0.00     0.131 A 
ATOM     62  C   UNL     1      15.817  -8.659   6.787  1.00  0.00     0.055 A 
ATOM     63  C   UNL     1      15.500 -10.826   5.799  1.00  0.00     0.041 A 
ATOM     64  F   UNL     1      13.578 -12.068   6.301  1.00  0.00    -0.206 F 
ATOM     65  C   UNL     1      16.251  -9.660   5.916  1.00  0.00     0.022 A 
BRANCH  62  66
ATOM     66  S   UNL     1      16.633  -7.038   6.788  1.00  0.00     0.124 S 
ATOM     67  O   UNL     1      15.560  -6.170   6.308  1.00  0.00    -0.237 OA
ATOM     68  O   UNL     1      17.009  -6.874   8.187  1.00  0.00    -0.237 OA
ATOM     69  O   UNL     1      17.746  -7.213   5.858  1.00  0.00    -0.744 OA
ENDBRANCH  62  66
ENDBRANCH  45  59
BRANCH  46  70
ATOM     70  C   UNL     1       4.681 -10.678  11.490  1.00  0.00     0.023 A 
ATOM     71  C   UNL     1       4.466 -10.544  12.872  1.00  0.00     0.031 A 
ATOM     72  C   UNL     1       3.571 -10.964  10.677  1.00  0.00     0.131 A 
ATOM     73  C   UNL     1       3.184 -10.746  13.406  1.00  0.00     0.055 A 
ATOM     74  C   UNL     1       2.287 -11.116  11.207  1.00  0.00     0.041 A 
ATOM     75  F   UNL     1       3.716 -11.087   9.348  1.00  0.00    -0.206 F 
ATOM     76  C   UNL     1       2.091 -11.020  12.581  1.00  0.00     0.022 A 
BRANCH  73  77
ATOM     77  S   UNL     1       2.978 -10.722  15.208  1.00  0.00     0.124 S 
ATOM     78  O   UNL     1       3.916 -11.755  15.630  1.00  0.00    -0.237 OA
ATOM     79  O   UNL     1       3.347  -9.348  15.535  1.00  0.00    -0.237 OA
ATOM     80  O   UNL     1       1.565 -11.046  15.394  1.00  0.00    -0.744 OA
ENDBRANCH  73  77
ENDBRANCH  46  70
BRANCH  58  81
ATOM     81  C   UNL     1      10.577 -14.312  12.232  1.00  0.00     0.023 A 
ATOM     82  C   UNL     1       9.942 -15.555  12.070  1.00  0.00     0.031 A 
ATOM     83  C   UNL     1      11.515 -14.174  13.270  1.00  0.00     0.131 A 
ATOM     84  C   UNL     1      10.191 -16.588  12.983  1.00  0.00     0.055 A 
ATOM     85  C   UNL     1      11.812 -15.229  14.132  1.00  0.00     0.041 A 
ATOM     86  F   UNL     1      12.151 -13.008  13.467  1.00  0.00    -0.206 F 
ATOM     87  C   UNL     1      11.134 -16.439  14.004  1.00  0.00     0.022 A 
BRANCH  84  88
ATOM     88  S   UNL     1       9.168 -18.082  12.897  1.00  0.00     0.124 S 
ATOM     89  O   UNL     1       7.819 -17.532  12.992  1.00  0.00    -0.237 OA
ATOM     90  O   UNL     1       9.539 -18.639  11.601  1.00  0.00    -0.237 OA
ATOM     91  O   UNL     1       9.602 -18.862  14.055  1.00  0.00    -0.744 OA
ENDBRANCH  84  88
ENDBRANCH  58  81
ENDBRANCH  32  33
ENDBRANCH  24  27
ENDBRANCH  22  23
ENDBRANCH  21  22
ENDBRANCH   1  21
TORSDOF 18
