REMARK SMILES C[C@H]1[C@H](C(=O)NCCCNC(=O)c2ccc(-c3c4nc(c(-c5cc(S(=O)(=O)[O-])ccc5F)c5ccc([nH]5)c(-c5cc(S(=O)(=O)[O-])ccc5F)c5nc(c(-c6cc(S(=O)(=O)[O-])ccc6F)c6ccc3[nH]6)C=C5)C=C4)cc2)CCN1C(=O)[C@](C)([NH3+])C1CC1
REMARK SMILES IDX 8 1 7 2 6 3 4 4 5 5 3 7 1 8 2 9 78 10 76 11 77 12 79 13
REMARK SMILES IDX 80 14 81 15 82 16 83 17 84 21 85 22 86 23 9 24 10 25 11 26
REMARK SMILES IDX 12 28 13 29 14 30 75 31 15 32 74 33 16 34 17 35 18 36 68 37
REMARK SMILES IDX 19 38 73 39 67 40 69 41 20 42 72 43 66 44 65 45 21 47 53 48
REMARK SMILES IDX 33 49 52 50 34 51 37 52 51 53 70 54 35 55 36 56 50 58 71 59
REMARK SMILES IDX 38 60 22 61 23 62 31 63 24 64 30 65 32 66 29 67 25 68 26 69
REMARK SMILES IDX 27 70 28 71 54 72 55 73 63 74 56 75 62 76 64 77 61 78 57 79
REMARK SMILES IDX 58 80 59 81 60 82 39 83 40 84 48 85 41 86 47 87 49 88 46 89
REMARK SMILES IDX 42 90 43 91 44 92 45 93
REMARK H PARENT 6 6 83 18 83 19 83 20 10 27 69 46 37 57
REMARK Flexibility Score: inf
ROOT
ATOM      1  C   UNL     1       5.206  -4.102   3.219  1.00  0.00     0.042 C 
ENDROOT
BRANCH   1   2
ATOM      2  C   UNL     1       6.084  -4.162   1.979  1.00  0.00     0.117 C 
BRANCH   2   3
ATOM      3  N   UNL     1       6.240  -5.517   1.479  1.00  0.00    -0.356 N 
ATOM      4  C   UNL     1       5.885  -6.096   0.305  1.00  0.00     0.225 C 
ATOM      5  O   UNL     1       6.164  -7.290   0.161  1.00  0.00    -0.275 OA
ATOM      6  H   UNL     1       6.685  -6.128   2.109  1.00  0.00     0.163 HD
BRANCH   4   7
ATOM      7  C   UNL     1       5.155  -5.360  -0.808  1.00  0.00     0.102 C 
ATOM      8  C   UNL     1       2.753  -5.492  -1.512  1.00  0.00     0.032 C 
ATOM      9  C   UNL     1       3.711  -4.980  -0.432  1.00  0.00     0.094 C 
ATOM     10  N   UNL     1       3.703  -3.524  -0.398  1.00  0.00    -0.334 N 
ATOM     11  C   UNL     1       5.837  -4.084  -1.300  1.00  0.00     0.037 C 
ATOM     12  C   UNL     1       4.762  -3.010  -1.256  1.00  0.00     0.121 C 
BRANCH  10  13
ATOM     13  C   UNL     1       2.893  -2.638   0.274  1.00  0.00     0.284 C 
ATOM     14  O   UNL     1       3.155  -1.424   0.163  1.00  0.00    -0.268 OA
BRANCH  13  15
ATOM     15  C   UNL     1       1.617  -3.007   1.134  1.00  0.00     0.174 C 
ATOM     16  C   UNL     1       0.382  -2.660   0.290  1.00  0.00     0.090 C 
BRANCH  15  17
ATOM     17  N   UNL     1       1.612  -2.017   2.262  1.00  0.00    -0.345 N 
ATOM     18  H   UNL     1       0.810  -2.193   2.866  1.00  0.00     0.345 HD
ATOM     19  H   UNL     1       1.552  -1.071   1.885  1.00  0.00     0.345 HD
ATOM     20  H   UNL     1       2.472  -2.113   2.803  1.00  0.00     0.345 HD
ENDBRANCH  15  17
BRANCH  15  21
ATOM     21  C   UNL     1       1.513  -4.324   1.893  1.00  0.00     0.060 C 
ATOM     22  C   UNL     1       0.147  -4.921   2.223  1.00  0.00     0.011 C 
ATOM     23  C   UNL     1       1.099  -5.685   1.366  1.00  0.00     0.011 C 
ENDBRANCH  15  21
ENDBRANCH  13  15
ENDBRANCH  10  13
ENDBRANCH   4   7
ENDBRANCH   2   3
ENDBRANCH   1   2
BRANCH   1  24
ATOM     24  C   UNL     1       5.798  -4.769   4.453  1.00  0.00     0.118 C 
BRANCH  24  25
ATOM     25  N   UNL     1       7.059  -4.173   4.860  1.00  0.00    -0.352 N 
ATOM     26  C   UNL     1       7.411  -3.528   6.020  1.00  0.00     0.251 C 
ATOM     27  H   UNL     1       7.780  -4.244   4.194  1.00  0.00     0.163 HD
ATOM     28  O   UNL     1       8.478  -2.922   6.055  1.00  0.00    -0.269 OA
BRANCH  26  29
ATOM     29  C   UNL     1       6.521  -3.539   7.203  1.00  0.00     0.039 A 
ATOM     30  C   UNL     1       6.432  -2.382   7.984  1.00  0.00     0.014 A 
ATOM     31  C   UNL     1       5.811  -4.683   7.578  1.00  0.00     0.014 A 
ATOM     32  C   UNL     1       5.589  -2.355   9.098  1.00  0.00     0.010 A 
ATOM     33  C   UNL     1       4.908  -4.629   8.639  1.00  0.00     0.010 A 
ATOM     34  C   UNL     1       4.792  -3.467   9.415  1.00  0.00    -0.014 A 
BRANCH  34  35
ATOM     35  C   UNL     1       3.839  -3.426  10.556  1.00  0.00     0.031 A 
ATOM     36  C   UNL     1       4.015  -4.352  11.729  1.00  0.00     0.074 A 
ATOM     37  C   UNL     1       2.785  -2.587  10.509  1.00  0.00     0.049 A 
ATOM     38  N   UNL     1       3.260  -4.503  12.787  1.00  0.00    -0.248 NA
ATOM     39  C   UNL     1       5.179  -5.250  11.690  1.00  0.00     0.031 C 
ATOM     40  C   UNL     1       2.479  -1.678   9.402  1.00  0.00     0.029 A 
ATOM     41  N   UNL     1       1.771  -2.367  11.407  1.00  0.00    -0.354 N 
ATOM     42  C   UNL     1       3.851  -5.515  13.537  1.00  0.00     0.074 A 
ATOM     43  C   UNL     1       4.987  -5.987  12.774  1.00  0.00     0.031 C 
ATOM     44  C   UNL     1       1.370  -0.982   9.698  1.00  0.00     0.029 A 
ATOM     45  C   UNL     1       0.860  -1.424  10.992  1.00  0.00     0.049 A 
ATOM     46  H   UNL     1       1.702  -2.840  12.268  1.00  0.00     0.167 HD
ATOM     47  C   UNL     1       3.496  -5.988  14.758  1.00  0.00     0.034 A 
ATOM     48  C   UNL     1      -0.266  -0.973  11.580  1.00  0.00     0.034 A 
ATOM     49  C   UNL     1       2.361  -5.502  15.507  1.00  0.00     0.049 A 
ATOM     50  C   UNL     1      -0.649  -1.521  12.930  1.00  0.00     0.074 A 
ATOM     51  C   UNL     1       1.934  -5.877  16.769  1.00  0.00     0.029 A 
ATOM     52  N   UNL     1       1.464  -4.538  15.059  1.00  0.00    -0.354 N 
ATOM     53  N   UNL     1      -0.050  -2.443  13.649  1.00  0.00    -0.248 NA
ATOM     54  C   UNL     1      -1.851  -0.955  13.555  1.00  0.00     0.031 C 
ATOM     55  C   UNL     1       0.748  -5.191  17.056  1.00  0.00     0.029 A 
ATOM     56  C   UNL     1       0.474  -4.328  16.007  1.00  0.00     0.049 A 
ATOM     57  H   UNL     1       1.524  -4.072  14.193  1.00  0.00     0.167 HD
ATOM     58  C   UNL     1      -0.792  -2.550  14.822  1.00  0.00     0.074 A 
ATOM     59  C   UNL     1      -1.865  -1.581  14.722  1.00  0.00     0.031 C 
ATOM     60  C   UNL     1      -0.605  -3.373  15.886  1.00  0.00     0.034 A 
BRANCH  47  61
ATOM     61  C   UNL     1       4.336  -7.101  15.341  1.00  0.00     0.023 A 
ATOM     62  C   UNL     1       5.702  -6.922  15.626  1.00  0.00     0.031 A 
ATOM     63  C   UNL     1       3.778  -8.369  15.583  1.00  0.00     0.131 A 
ATOM     64  C   UNL     1       6.479  -8.009  16.054  1.00  0.00     0.055 A 
ATOM     65  C   UNL     1       4.539  -9.424  16.092  1.00  0.00     0.041 A 
ATOM     66  F   UNL     1       2.486  -8.610  15.312  1.00  0.00    -0.206 F 
ATOM     67  C   UNL     1       5.902  -9.253  16.314  1.00  0.00     0.022 A 
BRANCH  64  68
ATOM     68  S   UNL     1       8.282  -7.813  16.115  1.00  0.00     0.124 S 
ATOM     69  O   UNL     1       8.586  -7.454  14.732  1.00  0.00    -0.237 OA
ATOM     70  O   UNL     1       8.451  -6.753  17.102  1.00  0.00    -0.237 OA
ATOM     71  O   UNL     1       8.757  -9.132  16.527  1.00  0.00    -0.744 OA
ENDBRANCH  64  68
ENDBRANCH  47  61
BRANCH  48  72
ATOM     72  C   UNL     1      -1.117   0.042  10.896  1.00  0.00     0.023 A 
ATOM     73  C   UNL     1      -1.287   1.328  11.432  1.00  0.00     0.031 A 
ATOM     74  C   UNL     1      -1.801  -0.274   9.708  1.00  0.00     0.131 A 
ATOM     75  C   UNL     1      -2.154   2.237  10.807  1.00  0.00     0.055 A 
ATOM     76  C   UNL     1      -2.620   0.652   9.061  1.00  0.00     0.041 A 
ATOM     77  F   UNL     1      -1.669  -1.488   9.151  1.00  0.00    -0.206 F 
ATOM     78  C   UNL     1      -2.811   1.913   9.618  1.00  0.00     0.022 A 
BRANCH  75  79
ATOM     79  S   UNL     1      -2.474   3.829  11.616  1.00  0.00     0.124 S 
ATOM     80  O   UNL     1      -2.997   3.405  12.910  1.00  0.00    -0.237 OA
ATOM     81  O   UNL     1      -1.147   4.435  11.628  1.00  0.00    -0.237 OA
ATOM     82  O   UNL     1      -3.442   4.472  10.730  1.00  0.00    -0.744 OA
ENDBRANCH  75  79
ENDBRANCH  48  72
BRANCH  60  83
ATOM     83  C   UNL     1      -1.570  -3.228  17.038  1.00  0.00     0.023 A 
ATOM     84  C   UNL     1      -2.935  -3.540  16.902  1.00  0.00     0.031 A 
ATOM     85  C   UNL     1      -1.125  -2.740  18.279  1.00  0.00     0.131 A 
ATOM     86  C   UNL     1      -3.817  -3.296  17.965  1.00  0.00     0.055 A 
ATOM     87  C   UNL     1      -1.996  -2.562  19.355  1.00  0.00     0.041 A 
ATOM     88  F   UNL     1       0.167  -2.423  18.465  1.00  0.00    -0.206 F 
ATOM     89  C   UNL     1      -3.353  -2.825  19.196  1.00  0.00     0.022 A 
BRANCH  86  90
ATOM     90  S   UNL     1      -5.598  -3.498  17.683  1.00  0.00     0.124 S 
ATOM     91  O   UNL     1      -5.832  -2.593  16.562  1.00  0.00    -0.237 OA
ATOM     92  O   UNL     1      -5.706  -4.923  17.386  1.00  0.00    -0.237 OA
ATOM     93  O   UNL     1      -6.195  -3.083  18.951  1.00  0.00    -0.744 OA
ENDBRANCH  86  90
ENDBRANCH  60  83
ENDBRANCH  34  35
ENDBRANCH  26  29
ENDBRANCH  24  25
ENDBRANCH   1  24
TORSDOF 17
