REMARK SMILES C[C@@H](C(=O)NCCCNC(=O)c1ccc(-c2c3nc(c(-c4cc(S(=O)(=O)[O-])ccc4F)c4ccc([nH]4)c(-c4cc(S(=O)(=O)[O-])ccc4F)c4nc(c(-c5cc(S(=O)(=O)[O-])ccc5F)c5ccc2[nH]5)C=C4)C=C3)cc1)c1ccc(C[C@@H]2CCC[C@@H]2O)cc1F
REMARK SMILES IDX 6 1 5 2 3 3 4 4 2 6 1 7 75 8 76 9 87 10 77 11 86 12 88 13
REMARK SMILES IDX 78 14 79 15 80 16 81 17 84 18 82 19 83 20 85 21 7 23 8 24
REMARK SMILES IDX 9 25 10 26 11 28 12 29 13 30 74 31 14 32 73 33 15 34 16 35
REMARK SMILES IDX 17 36 67 37 18 38 72 39 66 40 68 41 19 42 71 43 65 44 64 45
REMARK SMILES IDX 20 47 52 48 32 49 51 50 33 51 36 52 50 53 69 54 34 55 35 56
REMARK SMILES IDX 49 58 70 59 37 60 21 61 22 62 30 63 23 64 29 65 31 66 28 67
REMARK SMILES IDX 24 68 25 69 26 70 27 71 53 72 54 73 62 74 55 75 61 76 63 77
REMARK SMILES IDX 60 78 56 79 57 80 58 81 59 82 38 83 39 84 47 85 40 86 46 87
REMARK SMILES IDX 48 88 45 89 41 90 42 91 43 92 44 93
REMARK H PARENT 5 5 85 22 9 27 68 46 36 57
REMARK Flexibility Score: inf
ROOT
ATOM      1  C   UNL     1     -10.329   3.816   9.775  1.00  0.00     0.117 C 
ENDROOT
BRANCH   1   2
ATOM      2  N   UNL     1      -9.032   3.420   9.264  1.00  0.00    -0.356 N 
ATOM      3  C   UNL     1      -8.706   2.548   8.268  1.00  0.00     0.227 C 
ATOM      4  O   UNL     1      -7.504   2.321   8.109  1.00  0.00    -0.274 OA
ATOM      5  H   UNL     1      -8.265   3.849   9.706  1.00  0.00     0.163 HD
BRANCH   3   6
ATOM      6  C   UNL     1      -9.806   1.923   7.391  1.00  0.00     0.108 C 
ATOM      7  C   UNL     1     -10.649   0.895   8.150  1.00  0.00     0.023 C 
BRANCH   6   8
ATOM      8  C   UNL     1      -9.213   1.293   6.138  1.00  0.00    -0.000 A 
ATOM      9  C   UNL     1      -8.501   0.087   6.196  1.00  0.00     0.008 A 
ATOM     10  C   UNL     1      -9.315   1.939   4.905  1.00  0.00     0.127 A 
ATOM     11  C   UNL     1      -7.904  -0.446   5.054  1.00  0.00     0.004 A 
ATOM     12  C   UNL     1      -8.704   1.422   3.764  1.00  0.00     0.043 A 
ATOM     13  F   UNL     1      -9.999   3.088   4.803  1.00  0.00    -0.207 F 
ATOM     14  C   UNL     1      -7.965   0.234   3.833  1.00  0.00    -0.045 A 
BRANCH  14  15
ATOM     15  C   UNL     1      -7.220  -0.279   2.627  1.00  0.00     0.041 C 
BRANCH  15  16
ATOM     16  C   UNL     1      -5.694  -0.035   2.558  1.00  0.00     0.022 C 
ATOM     17  C   UNL     1      -4.872  -0.712   3.662  1.00  0.00     0.007 C 
ATOM     18  C   UNL     1      -5.210   1.417   2.631  1.00  0.00     0.117 C 
ATOM     19  C   UNL     1      -4.569   0.365   4.709  1.00  0.00     0.003 C 
ATOM     20  C   UNL     1      -5.027   1.694   4.116  1.00  0.00     0.032 C 
BRANCH  18  21
ATOM     21  O   UNL     1      -6.079   2.343   2.014  1.00  0.00    -0.393 OA
ATOM     22  H   UNL     1      -6.946   2.311   2.447  1.00  0.00     0.210 HD
ENDBRANCH  18  21
ENDBRANCH  15  16
ENDBRANCH  14  15
ENDBRANCH   6   8
ENDBRANCH   3   6
ENDBRANCH   1   2
BRANCH   1  23
ATOM     23  C   UNL     1     -10.662   3.085  11.073  1.00  0.00     0.042 C 
BRANCH  23  24
ATOM     24  C   UNL     1      -9.736   3.436  12.233  1.00  0.00     0.118 C 
BRANCH  24  25
ATOM     25  N   UNL     1      -9.885   4.818  12.665  1.00  0.00    -0.352 N 
ATOM     26  C   UNL     1     -10.251   5.313  13.894  1.00  0.00     0.251 C 
ATOM     27  H   UNL     1      -9.696   5.497  11.978  1.00  0.00     0.163 HD
ATOM     28  O   UNL     1     -10.525   6.504  14.011  1.00  0.00    -0.269 OA
BRANCH  26  29
ATOM     29  C   UNL     1     -10.335   4.407  15.060  1.00  0.00     0.039 A 
ATOM     30  C   UNL     1     -11.430   4.504  15.923  1.00  0.00     0.014 A 
ATOM     31  C   UNL     1      -9.332   3.466  15.303  1.00  0.00     0.014 A 
ATOM     32  C   UNL     1     -11.553   3.611  16.992  1.00  0.00     0.010 A 
ATOM     33  C   UNL     1      -9.495   2.529  16.318  1.00  0.00     0.010 A 
ATOM     34  C   UNL     1     -10.604   2.594  17.177  1.00  0.00    -0.014 A 
BRANCH  34  35
ATOM     35  C   UNL     1     -10.713   1.600  18.276  1.00  0.00     0.031 A 
ATOM     36  C   UNL     1      -9.636   1.536  19.324  1.00  0.00     0.074 A 
ATOM     37  C   UNL     1     -11.711   0.695  18.276  1.00  0.00     0.049 A 
ATOM     38  N   UNL     1      -9.427   0.636  20.249  1.00  0.00    -0.248 NA
ATOM     39  C   UNL     1      -8.636   2.613  19.291  1.00  0.00     0.031 C 
ATOM     40  C   UNL     1     -12.803   0.641  17.303  1.00  0.00     0.029 A 
ATOM     41  N   UNL     1     -11.953  -0.371  19.107  1.00  0.00    -0.354 N 
ATOM     42  C   UNL     1      -8.255   1.022  20.892  1.00  0.00     0.074 A 
ATOM     43  C   UNL     1      -7.771   2.200  20.203  1.00  0.00     0.031 C 
ATOM     44  C   UNL     1     -13.598  -0.401  17.594  1.00  0.00     0.029 A 
ATOM     45  C   UNL     1     -13.044  -1.123  18.736  1.00  0.00     0.049 A 
ATOM     46  H   UNL     1     -11.398  -0.578  19.893  1.00  0.00     0.167 HD
ATOM     47  C   UNL     1      -7.650   0.457  21.967  1.00  0.00     0.034 A 
ATOM     48  C   UNL     1     -13.524  -2.279  19.237  1.00  0.00     0.034 A 
ATOM     49  C   UNL     1      -8.157  -0.714  22.642  1.00  0.00     0.049 A 
ATOM     50  C   UNL     1     -12.823  -2.915  20.410  1.00  0.00     0.074 A 
ATOM     51  C   UNL     1      -7.655  -1.347  23.765  1.00  0.00     0.029 A 
ATOM     52  N   UNL     1      -9.278  -1.435  22.249  1.00  0.00    -0.354 N 
ATOM     53  N   UNL     1     -11.730  -2.528  21.026  1.00  0.00    -0.248 NA
ATOM     54  C   UNL     1     -13.423  -4.137  20.961  1.00  0.00     0.031 C 
ATOM     55  C   UNL     1      -8.428  -2.489  24.007  1.00  0.00     0.029 A 
ATOM     56  C   UNL     1      -9.466  -2.521  23.090  1.00  0.00     0.049 A 
ATOM     57  H   UNL     1      -9.855  -1.208  21.484  1.00  0.00     0.167 HD
ATOM     58  C   UNL     1     -11.534  -3.438  22.062  1.00  0.00     0.074 A 
ATOM     59  C   UNL     1     -12.620  -4.394  21.984  1.00  0.00     0.031 C 
ATOM     60  C   UNL     1     -10.554  -3.469  23.001  1.00  0.00     0.034 A 
BRANCH  47  61
ATOM     61  C   UNL     1      -6.358   1.084  22.441  1.00  0.00     0.023 A 
ATOM     62  C   UNL     1      -6.298   2.425  22.862  1.00  0.00     0.031 A 
ATOM     63  C   UNL     1      -5.156   0.355  22.409  1.00  0.00     0.131 A 
ATOM     64  C   UNL     1      -5.057   3.023  23.124  1.00  0.00     0.055 A 
ATOM     65  C   UNL     1      -3.935   0.929  22.771  1.00  0.00     0.041 A 
ATOM     66  F   UNL     1      -5.140  -0.923  21.999  1.00  0.00    -0.206 F 
ATOM     67  C   UNL     1      -3.877   2.278  23.109  1.00  0.00     0.022 A 
BRANCH  64  68
ATOM     68  S   UNL     1      -4.990   4.829  23.288  1.00  0.00     0.124 S 
ATOM     69  O   UNL     1      -5.582   5.261  22.024  1.00  0.00    -0.237 OA
ATOM     70  O   UNL     1      -5.791   5.066  24.483  1.00  0.00    -0.237 OA
ATOM     71  O   UNL     1      -3.562   5.108  23.426  1.00  0.00    -0.744 OA
ENDBRANCH  64  68
ENDBRANCH  47  61
BRANCH  48  72
ATOM     72  C   UNL     1     -14.720  -2.918  18.617  1.00  0.00     0.023 A 
ATOM     73  C   UNL     1     -15.935  -3.012  19.312  1.00  0.00     0.031 A 
ATOM     74  C   UNL     1     -14.660  -3.450  17.316  1.00  0.00     0.131 A 
ATOM     75  C   UNL     1     -17.034  -3.651  18.716  1.00  0.00     0.055 A 
ATOM     76  C   UNL     1     -15.770  -4.041  16.709  1.00  0.00     0.041 A 
ATOM     77  F   UNL     1     -13.524  -3.378  16.604  1.00  0.00    -0.206 F 
ATOM     78  C   UNL     1     -16.964  -4.152  17.414  1.00  0.00     0.022 A 
BRANCH  75  79
ATOM     79  S   UNL     1     -18.547  -3.870  19.691  1.00  0.00     0.124 S 
ATOM     80  O   UNL     1     -18.067  -4.677  20.807  1.00  0.00    -0.237 OA
ATOM     81  O   UNL     1     -18.909  -2.491  20.003  1.00  0.00    -0.237 OA
ATOM     82  O   UNL     1     -19.450  -4.554  18.768  1.00  0.00    -0.744 OA
ENDBRANCH  75  79
ENDBRANCH  48  72
BRANCH  60  83
ATOM     83  C   UNL     1     -10.648  -4.531  24.070  1.00  0.00     0.023 A 
ATOM     84  C   UNL     1     -10.461  -5.895  23.792  1.00  0.00     0.031 A 
ATOM     85  C   UNL     1     -10.904  -4.155  25.402  1.00  0.00     0.131 A 
ATOM     86  C   UNL     1     -10.567  -6.839  24.827  1.00  0.00     0.055 A 
ATOM     87  C   UNL     1     -10.952  -5.091  26.435  1.00  0.00     0.041 A 
ATOM     88  F   UNL     1     -11.094  -2.865  25.723  1.00  0.00    -0.206 F 
ATOM     89  C   UNL     1     -10.791  -6.443  26.149  1.00  0.00     0.022 A 
BRANCH  86  90
ATOM     90  S   UNL     1     -10.471  -8.603  24.417  1.00  0.00     0.124 S 
ATOM     91  O   UNL     1     -11.590  -8.761  23.494  1.00  0.00    -0.237 OA
ATOM     92  O   UNL     1      -9.140  -8.717  23.831  1.00  0.00    -0.237 OA
ATOM     93  O   UNL     1     -10.636  -9.266  25.710  1.00  0.00    -0.744 OA
ENDBRANCH  86  90
ENDBRANCH  60  83
ENDBRANCH  34  35
ENDBRANCH  26  29
ENDBRANCH  24  25
ENDBRANCH  23  24
ENDBRANCH   1  23
TORSDOF 17
