REMARK SMILES CC(=O)Nc1ccc(/C(=C\c2ccc(S(C)(=O)=O)cc2)C(=O)NCCCNC(=O)c2ccc(-c3c4nc(c(-c5cc(S(=O)(=O)[O-])ccc5F)c5ccc([nH]5)c(-c5cc(S(=O)(=O)[O-])ccc5F)c5nc(c(-c6cc(S(=O)(=O)[O-])ccc6F)c6ccc3[nH]6)C=C5)C=C4)cc2)cc1
REMARK SMILES IDX 25 1 24 2 23 3 21 4 22 5 9 7 10 8 8 9 5 10 6 11 94 12 7 13
REMARK SMILES IDX 93 14 4 15 1 16 2 17 3 18 11 20 12 21 20 22 13 23 19 24
REMARK SMILES IDX 14 25 15 26 16 27 17 28 18 29 26 30 27 31 28 32 29 34 30 35
REMARK SMILES IDX 31 36 92 37 32 38 91 39 33 40 34 41 35 42 85 43 36 44 90 45
REMARK SMILES IDX 84 46 86 47 37 48 89 49 83 50 82 51 38 53 70 54 50 55 69 56
REMARK SMILES IDX 51 57 54 58 68 59 87 60 52 61 53 62 67 64 88 65 55 66 39 67
REMARK SMILES IDX 40 68 48 69 41 70 47 71 49 72 46 73 42 74 43 75 44 76 45 77
REMARK SMILES IDX 71 78 72 79 80 80 73 81 79 82 81 83 78 84 74 85 75 86 76 87
REMARK SMILES IDX 77 88 56 89 57 90 65 91 58 92 64 93 66 94 63 95 59 96 60 97
REMARK SMILES IDX 61 98 62 99
REMARK H PARENT 23 6 4 19 27 33 86 52 54 63
REMARK Flexibility Score: inf
ROOT
ATOM      1  C   UNL     1       5.498  -7.665  -4.287  1.00  0.00     0.042 C 
ENDROOT
BRANCH   1   2
ATOM      2  C   UNL     1       5.975  -7.322  -2.873  1.00  0.00     0.118 C 
BRANCH   2   3
ATOM      3  N   UNL     1       5.988  -5.887  -2.663  1.00  0.00    -0.352 N 
ATOM      4  C   UNL     1       5.185  -4.982  -2.047  1.00  0.00     0.251 C 
ATOM      5  O   UNL     1       5.616  -3.828  -2.110  1.00  0.00    -0.269 OA
ATOM      6  H   UNL     1       6.778  -5.462  -3.068  1.00  0.00     0.163 HD
BRANCH   4   7
ATOM      7  C   UNL     1       3.909  -5.322  -1.277  1.00  0.00     0.047 C 
ATOM      8  C   UNL     1       3.217  -6.426  -1.650  1.00  0.00     0.022 C 
BRANCH   7   9
ATOM      9  C   UNL     1       3.347  -4.329  -0.281  1.00  0.00    -0.013 A 
ATOM     10  C   UNL     1       1.870  -2.381   1.205  1.00  0.00     0.041 A 
ATOM     11  C   UNL     1       1.833  -3.730   1.558  1.00  0.00     0.027 A 
ATOM     12  C   UNL     1       2.780  -1.994   0.238  1.00  0.00     0.027 A 
ATOM     13  C   UNL     1       2.589  -4.682   0.846  1.00  0.00     0.011 A 
ATOM     14  C   UNL     1       3.472  -2.951  -0.513  1.00  0.00     0.011 A 
BRANCH  10  15
ATOM     15  N   UNL     1       0.986  -1.500   1.849  1.00  0.00    -0.326 N 
ATOM     16  C   UNL     1       0.869   0.367   0.179  1.00  0.00     0.114 C 
ATOM     17  C   UNL     1       0.540  -0.251   1.513  1.00  0.00     0.221 C 
ATOM     18  O   UNL     1      -0.181   0.352   2.313  1.00  0.00    -0.275 OA
ATOM     19  H   UNL     1       0.620  -1.844   2.696  1.00  0.00     0.169 HD
ENDBRANCH  10  15
ENDBRANCH   7   9
BRANCH   8  20
ATOM     20  C   UNL     1       2.080  -7.080  -0.986  1.00  0.00    -0.025 A 
ATOM     21  C   UNL     1       2.358  -8.195  -0.177  1.00  0.00     0.009 A 
ATOM     22  C   UNL     1       0.773  -6.590  -1.064  1.00  0.00     0.009 A 
ATOM     23  C   UNL     1       1.359  -8.770   0.607  1.00  0.00     0.021 A 
ATOM     24  C   UNL     1      -0.234  -7.162  -0.279  1.00  0.00     0.021 A 
ATOM     25  C   UNL     1       0.069  -8.238   0.563  1.00  0.00     0.067 A 
BRANCH  25  26
ATOM     26  S   UNL     1      -1.150  -8.859   1.699  1.00  0.00     0.175 S 
ATOM     27  C   UNL     1      -1.654 -10.402   0.992  1.00  0.00     0.163 C 
ATOM     28  O   UNL     1      -0.464  -9.133   2.947  1.00  0.00    -0.224 OA
ATOM     29  O   UNL     1      -2.286  -7.955   1.666  1.00  0.00    -0.224 OA
ENDBRANCH  25  26
ENDBRANCH   8  20
ENDBRANCH   4   7
ENDBRANCH   2   3
ENDBRANCH   1   2
BRANCH   1  30
ATOM     30  C   UNL     1       6.480  -7.251  -5.385  1.00  0.00     0.118 C 
BRANCH  30  31
ATOM     31  N   UNL     1       7.723  -8.002  -5.312  1.00  0.00    -0.352 N 
ATOM     32  C   UNL     1       8.270  -8.897  -6.198  1.00  0.00     0.251 C 
ATOM     33  H   UNL     1       8.257  -7.845  -4.499  1.00  0.00     0.163 HD
ATOM     34  O   UNL     1       9.181  -9.628  -5.816  1.00  0.00    -0.269 OA
BRANCH  32  35
ATOM     35  C   UNL     1       7.771  -8.992  -7.588  1.00  0.00     0.039 A 
ATOM     36  C   UNL     1       7.678 -10.253  -8.186  1.00  0.00     0.014 A 
ATOM     37  C   UNL     1       7.455  -7.848  -8.327  1.00  0.00     0.014 A 
ATOM     38  C   UNL     1       7.220 -10.369  -9.501  1.00  0.00     0.010 A 
ATOM     39  C   UNL     1       6.934  -7.971  -9.614  1.00  0.00     0.010 A 
ATOM     40  C   UNL     1       6.815  -9.232 -10.218  1.00  0.00    -0.014 A 
BRANCH  40  41
ATOM     41  C   UNL     1       6.269  -9.344 -11.597  1.00  0.00     0.031 A 
ATOM     42  C   UNL     1       6.998  -8.715 -12.754  1.00  0.00     0.074 A 
ATOM     43  C   UNL     1       5.084  -9.956 -11.795  1.00  0.00     0.049 A 
ATOM     44  N   UNL     1       6.642  -8.630 -14.010  1.00  0.00    -0.248 NA
ATOM     45  C   UNL     1       8.287  -8.074 -12.452  1.00  0.00     0.031 C 
ATOM     46  C   UNL     1       4.267 -10.570 -10.746  1.00  0.00     0.029 A 
ATOM     47  N   UNL     1       4.353 -10.153 -12.940  1.00  0.00    -0.354 N 
ATOM     48  C   UNL     1       7.650  -7.911 -14.645  1.00  0.00     0.074 A 
ATOM     49  C   UNL     1       8.605  -7.540 -13.622  1.00  0.00     0.031 C 
ATOM     50  C   UNL     1       3.159 -11.089 -11.298  1.00  0.00     0.029 A 
ATOM     51  C   UNL     1       3.159 -10.804 -12.729  1.00  0.00     0.049 A 
ATOM     52  H   UNL     1       4.655  -9.856 -13.829  1.00  0.00     0.167 HD
ATOM     53  C   UNL     1       7.776  -7.606 -15.961  1.00  0.00     0.034 A 
ATOM     54  C   UNL     1       2.167 -11.118 -13.586  1.00  0.00     0.034 A 
ATOM     55  C   UNL     1       6.820  -7.999 -16.970  1.00  0.00     0.049 A 
ATOM     56  C   UNL     1       2.322 -10.754 -15.042  1.00  0.00     0.074 A 
ATOM     57  C   UNL     1       6.880  -7.798 -18.338  1.00  0.00     0.029 A 
ATOM     58  N   UNL     1       5.626  -8.665 -16.720  1.00  0.00    -0.354 N 
ATOM     59  N   UNL     1       3.309 -10.121 -15.634  1.00  0.00    -0.248 NA
ATOM     60  C   UNL     1       1.236 -11.156 -15.945  1.00  0.00     0.031 C 
ATOM     61  C   UNL     1       5.693  -8.276 -18.904  1.00  0.00     0.029 A 
ATOM     62  C   UNL     1       4.927  -8.851 -17.903  1.00  0.00     0.049 A 
ATOM     63  H   UNL     1       5.321  -8.961 -15.832  1.00  0.00     0.167 HD
ATOM     64  C   UNL     1       2.974 -10.079 -16.985  1.00  0.00     0.074 A 
ATOM     65  C   UNL     1       1.705 -10.763 -17.120  1.00  0.00     0.031 C 
ATOM     66  C   UNL     1       3.656  -9.527 -18.021  1.00  0.00     0.034 A 
BRANCH  53  67
ATOM     67  C   UNL     1       8.974  -6.785 -16.378  1.00  0.00     0.023 A 
ATOM     68  C   UNL     1      10.289  -7.260 -16.221  1.00  0.00     0.031 A 
ATOM     69  C   UNL     1       8.802  -5.502 -16.927  1.00  0.00     0.131 A 
ATOM     70  C   UNL     1      11.376  -6.431 -16.539  1.00  0.00     0.055 A 
ATOM     71  C   UNL     1       9.886  -4.715 -17.319  1.00  0.00     0.041 A 
ATOM     72  F   UNL     1       7.572  -4.985 -17.084  1.00  0.00    -0.206 F 
ATOM     73  C   UNL     1      11.184  -5.172 -17.112  1.00  0.00     0.022 A 
BRANCH  70  74
ATOM     74  S   UNL     1      13.042  -6.968 -16.062  1.00  0.00     0.124 S 
ATOM     75  O   UNL     1      12.900  -7.115 -14.615  1.00  0.00    -0.237 OA
ATOM     76  O   UNL     1      13.204  -8.204 -16.817  1.00  0.00    -0.237 OA
ATOM     77  O   UNL     1      13.894  -5.859 -16.487  1.00  0.00    -0.744 OA
ENDBRANCH  70  74
ENDBRANCH  53  67
BRANCH  54  78
ATOM     78  C   UNL     1       0.933 -11.798 -13.098  1.00  0.00     0.023 A 
ATOM     79  C   UNL     1       0.594 -13.088 -13.536  1.00  0.00     0.031 A 
ATOM     80  C   UNL     1       0.049 -11.149 -12.216  1.00  0.00     0.131 A 
ATOM     81  C   UNL     1      -0.620 -13.668 -13.133  1.00  0.00     0.055 A 
ATOM     82  C   UNL     1      -1.129 -11.752 -11.774  1.00  0.00     0.041 A 
ATOM     83  F   UNL     1       0.328  -9.917 -11.761  1.00  0.00    -0.206 F 
ATOM     84  C   UNL     1      -1.477 -13.014 -12.245  1.00  0.00     0.022 A 
BRANCH  81  85
ATOM     85  S   UNL     1      -1.107 -15.256 -13.861  1.00  0.00     0.124 S 
ATOM     86  O   UNL     1      -1.099 -14.944 -15.286  1.00  0.00    -0.237 OA
ATOM     87  O   UNL     1      -0.048 -16.141 -13.391  1.00  0.00    -0.237 OA
ATOM     88  O   UNL     1      -2.426 -15.504 -13.283  1.00  0.00    -0.744 OA
ENDBRANCH  81  85
ENDBRANCH  54  78
BRANCH  66  89
ATOM     89  C   UNL     1       3.059  -9.688 -19.399  1.00  0.00     0.023 A 
ATOM     90  C   UNL     1       1.849  -9.071 -19.759  1.00  0.00     0.031 A 
ATOM     91  C   UNL     1       3.709 -10.482 -20.361  1.00  0.00     0.131 A 
ATOM     92  C   UNL     1       1.297  -9.303 -21.028  1.00  0.00     0.055 A 
ATOM     93  C   UNL     1       3.187 -10.657 -21.643  1.00  0.00     0.041 A 
ATOM     94  F   UNL     1       4.866 -11.098 -20.071  1.00  0.00    -0.206 F 
ATOM     95  C   UNL     1       1.967 -10.077 -21.978  1.00  0.00     0.022 A 
BRANCH  92  96
ATOM     96  S   UNL     1      -0.359  -8.657 -21.389  1.00  0.00     0.124 S 
ATOM     97  O   UNL     1      -1.164  -9.288 -20.348  1.00  0.00    -0.237 OA
ATOM     98  O   UNL     1      -0.167  -7.216 -21.260  1.00  0.00    -0.237 OA
ATOM     99  O   UNL     1      -0.623  -9.127 -22.747  1.00  0.00    -0.744 OA
ENDBRANCH  92  96
ENDBRANCH  66  89
ENDBRANCH  40  41
ENDBRANCH  32  35
ENDBRANCH  30  31
ENDBRANCH   1  30
TORSDOF 17
