REMARK SMILES CCCCCCNC(=O)Nc1cccc(-c2ccc([C@@H](C)C(=O)NCCCNC(=O)c3ccc(-c4c5nc(c(-c6cc(S(=O)(=O)[O-])ccc6F)c6ccc([nH]6)c(-c6cc(S(=O)(=O)[O-])ccc6F)c6nc(c(-c7cc(S(=O)(=O)[O-])ccc7F)c7ccc4[nH]7)C=C6)C=C5)cc3)cc2F)c1
REMARK SMILES IDX 20 1 21 2 19 3 16 4 17 5 95 6 18 7 94 8 96 9 15 10 11 11
REMARK SMILES IDX 12 12 97 13 13 14 14 15 10 16 7 17 8 18 9 20 6 22 5 23 4 24
REMARK SMILES IDX 3 25 2 26 1 27 22 28 23 29 24 30 25 32 26 33 27 34 28 35
REMARK SMILES IDX 29 36 30 38 31 39 32 40 93 41 33 42 92 43 34 44 35 45 36 46
REMARK SMILES IDX 86 47 37 48 91 49 85 50 87 51 38 52 90 53 84 54 83 55 39 57
REMARK SMILES IDX 71 58 51 59 70 60 52 61 55 62 69 63 88 64 53 65 54 66 68 68
REMARK SMILES IDX 89 69 56 70 40 71 41 72 49 73 42 74 48 75 50 76 47 77 43 78
REMARK SMILES IDX 44 79 45 80 46 81 72 82 73 83 81 84 74 85 80 86 82 87 79 88
REMARK SMILES IDX 75 89 76 90 77 91 78 92 57 93 58 94 66 95 59 96 65 97 67 98
REMARK SMILES IDX 64 99 60 100 61 101 62 102 63 103
REMARK H PARENT 7 19 10 21 24 31 28 37 87 56 55 67
REMARK Flexibility Score: inf
ROOT
ATOM      1  C   UNL     1      -1.572  -5.478   3.072  1.00  0.00     0.105 C 
ATOM      2  C   UNL     1      -2.276  -6.504   2.185  1.00  0.00     0.023 C 
ENDROOT
BRANCH   1   3
ATOM      3  C   UNL     1      -2.287  -4.141   3.186  1.00  0.00    -0.033 A 
ATOM      4  C   UNL     1      -3.624  -1.624   3.481  1.00  0.00     0.018 A 
ATOM      5  C   UNL     1      -3.275  -2.132   2.219  1.00  0.00     0.012 A 
ATOM      6  C   UNL     1      -3.295  -2.417   4.588  1.00  0.00     0.131 A 
ATOM      7  C   UNL     1      -2.637  -3.372   2.073  1.00  0.00     0.005 A 
ATOM      8  C   UNL     1      -2.631  -3.641   4.452  1.00  0.00     0.044 A 
ATOM      9  F   UNL     1      -3.619  -2.019   5.829  1.00  0.00    -0.206 F 
BRANCH   4  10
ATOM     10  C   UNL     1      -4.257  -0.294   3.609  1.00  0.00    -0.013 A 
ATOM     11  C   UNL     1      -4.256   1.960   4.562  1.00  0.00     0.043 A 
ATOM     12  C   UNL     1      -5.306   2.334   3.727  1.00  0.00     0.026 A 
ATOM     13  C   UNL     1      -3.788   0.639   4.548  1.00  0.00     0.035 A 
ATOM     14  C   UNL     1      -5.801   1.422   2.798  1.00  0.00     0.003 A 
ATOM     15  C   UNL     1      -5.273   0.127   2.732  1.00  0.00     0.009 A 
BRANCH  11  16
ATOM     16  N   UNL     1      -3.630   2.958   5.327  1.00  0.00    -0.308 N 
ATOM     17  N   UNL     1      -1.340   2.660   4.824  1.00  0.00    -0.338 N 
ATOM     18  C   UNL     1      -2.318   3.099   5.657  1.00  0.00     0.319 C 
ATOM     19  H   UNL     1      -0.431   2.658   5.203  1.00  0.00     0.165 HD
ATOM     20  O   UNL     1      -2.003   3.725   6.669  1.00  0.00    -0.249 OA
ATOM     21  H   UNL     1      -4.229   3.658   5.675  1.00  0.00     0.171 HD
BRANCH  17  22
ATOM     22  C   UNL     1      -1.445   2.193   3.455  1.00  0.00     0.117 C 
BRANCH  22  23
ATOM     23  C   UNL     1      -0.458   2.827   2.490  1.00  0.00     0.021 C 
BRANCH  23  24
ATOM     24  C   UNL     1       0.996   2.386   2.629  1.00  0.00     0.002 C 
BRANCH  24  25
ATOM     25  C   UNL     1       1.259   0.884   2.773  1.00  0.00    -0.000 C 
BRANCH  25  26
ATOM     26  C   UNL     1       0.537  -0.051   1.800  1.00  0.00    -0.003 C 
ATOM     27  C   UNL     1       0.672   0.359   0.351  1.00  0.00     0.004 C 
ENDBRANCH  25  26
ENDBRANCH  24  25
ENDBRANCH  23  24
ENDBRANCH  22  23
ENDBRANCH  17  22
ENDBRANCH  11  16
ENDBRANCH   4  10
ENDBRANCH   1   3
BRANCH   1  28
ATOM     28  C   UNL     1      -0.053  -5.380   2.878  1.00  0.00     0.227 C 
ATOM     29  O   UNL     1       0.694  -5.501   3.859  1.00  0.00    -0.274 OA
ATOM     30  N   UNL     1       0.568  -5.184   1.685  1.00  0.00    -0.356 N 
ATOM     31  H   UNL     1       1.548  -5.250   1.738  1.00  0.00     0.163 HD
BRANCH  30  32
ATOM     32  C   UNL     1       0.081  -4.898   0.345  1.00  0.00     0.117 C 
BRANCH  32  33
ATOM     33  C   UNL     1       0.287  -3.430  -0.034  1.00  0.00     0.042 C 
BRANCH  33  34
ATOM     34  C   UNL     1       1.723  -3.100  -0.455  1.00  0.00     0.118 C 
BRANCH  34  35
ATOM     35  N   UNL     1       1.983  -3.465  -1.840  1.00  0.00    -0.352 N 
ATOM     36  C   UNL     1       2.074  -2.699  -2.981  1.00  0.00     0.251 C 
ATOM     37  H   UNL     1       2.116  -4.429  -1.987  1.00  0.00     0.163 HD
ATOM     38  O   UNL     1       2.046  -3.275  -4.067  1.00  0.00    -0.269 OA
BRANCH  36  39
ATOM     39  C   UNL     1       2.183  -1.217  -2.944  1.00  0.00     0.039 A 
ATOM     40  C   UNL     1       1.499  -0.465  -3.906  1.00  0.00     0.014 A 
ATOM     41  C   UNL     1       3.009  -0.552  -2.040  1.00  0.00     0.014 A 
ATOM     42  C   UNL     1       1.576   0.938  -3.908  1.00  0.00     0.010 A 
ATOM     43  C   UNL     1       3.029   0.852  -2.002  1.00  0.00     0.010 A 
ATOM     44  C   UNL     1       2.300   1.626  -2.921  1.00  0.00    -0.014 A 
BRANCH  44  45
ATOM     45  C   UNL     1       2.300   3.127  -2.845  1.00  0.00     0.031 A 
ATOM     46  C   UNL     1       3.600   3.904  -2.843  1.00  0.00     0.074 A 
ATOM     47  C   UNL     1       1.142   3.815  -2.720  1.00  0.00     0.049 A 
ATOM     48  N   UNL     1       3.799   5.193  -2.711  1.00  0.00    -0.248 NA
ATOM     49  C   UNL     1       4.838   3.123  -2.966  1.00  0.00     0.031 C 
ATOM     50  C   UNL     1      -0.195   3.221  -2.643  1.00  0.00     0.029 A 
ATOM     51  N   UNL     1       0.898   5.169  -2.637  1.00  0.00    -0.354 N 
ATOM     52  C   UNL     1       5.180   5.370  -2.702  1.00  0.00     0.074 A 
ATOM     53  C   UNL     1       5.764   4.048  -2.767  1.00  0.00     0.031 C 
ATOM     54  C   UNL     1      -1.113   4.199  -2.574  1.00  0.00     0.029 A 
ATOM     55  C   UNL     1      -0.439   5.494  -2.546  1.00  0.00     0.049 A 
ATOM     56  H   UNL     1       1.614   5.844  -2.642  1.00  0.00     0.167 HD
ATOM     57  C   UNL     1       5.903   6.520  -2.679  1.00  0.00     0.034 A 
ATOM     58  C   UNL     1      -1.061   6.689  -2.445  1.00  0.00     0.034 A 
ATOM     59  C   UNL     1       5.327   7.843  -2.666  1.00  0.00     0.049 A 
ATOM     60  C   UNL     1      -0.240   7.957  -2.418  1.00  0.00     0.074 A 
ATOM     61  C   UNL     1       5.977   9.064  -2.733  1.00  0.00     0.029 A 
ATOM     62  N   UNL     1       3.971   8.122  -2.577  1.00  0.00    -0.354 N 
ATOM     63  N   UNL     1       1.063   8.098  -2.478  1.00  0.00    -0.248 NA
ATOM     64  C   UNL     1      -0.976   9.226  -2.315  1.00  0.00     0.031 C 
ATOM     65  C   UNL     1       5.022  10.080  -2.618  1.00  0.00     0.029 A 
ATOM     66  C   UNL     1       3.769   9.495  -2.554  1.00  0.00     0.049 A 
ATOM     67  H   UNL     1       3.257   7.446  -2.537  1.00  0.00     0.167 HD
ATOM     68  C   UNL     1       1.297   9.472  -2.449  1.00  0.00     0.074 A 
ATOM     69  C   UNL     1       0.004  10.116  -2.380  1.00  0.00     0.031 C 
ATOM     70  C   UNL     1       2.479  10.138  -2.481  1.00  0.00     0.034 A 
BRANCH  57  71
ATOM     71  C   UNL     1       7.410   6.394  -2.662  1.00  0.00     0.023 A 
ATOM     72  C   UNL     1       8.110   5.788  -3.720  1.00  0.00     0.031 A 
ATOM     73  C   UNL     1       8.155   6.862  -1.565  1.00  0.00     0.131 A 
ATOM     74  C   UNL     1       9.493   5.579  -3.617  1.00  0.00     0.055 A 
ATOM     75  C   UNL     1       9.545   6.735  -1.511  1.00  0.00     0.041 A 
ATOM     76  F   UNL     1       7.543   7.439  -0.519  1.00  0.00    -0.206 F 
ATOM     77  C   UNL     1      10.220   6.073  -2.533  1.00  0.00     0.022 A 
BRANCH  74  78
ATOM     78  S   UNL     1      10.294   4.511  -4.844  1.00  0.00     0.124 S 
ATOM     79  O   UNL     1       9.552   3.263  -4.675  1.00  0.00    -0.237 OA
ATOM     80  O   UNL     1      10.060   5.230  -6.090  1.00  0.00    -0.237 OA
ATOM     81  O   UNL     1      11.686   4.464  -4.400  1.00  0.00    -0.744 OA
ENDBRANCH  74  78
ENDBRANCH  57  71
BRANCH  58  82
ATOM     82  C   UNL     1      -2.550   6.766  -2.346  1.00  0.00     0.023 A 
ATOM     83  C   UNL     1      -3.311   7.389  -3.349  1.00  0.00     0.031 A 
ATOM     84  C   UNL     1      -3.228   6.273  -1.216  1.00  0.00     0.131 A 
ATOM     85  C   UNL     1      -4.696   7.548  -3.181  1.00  0.00     0.055 A 
ATOM     86  C   UNL     1      -4.613   6.386  -1.079  1.00  0.00     0.041 A 
ATOM     87  F   UNL     1      -2.551   5.665  -0.229  1.00  0.00    -0.206 F 
ATOM     88  C   UNL     1      -5.354   7.040  -2.059  1.00  0.00     0.022 A 
BRANCH  85  89
ATOM     89  S   UNL     1      -5.618   8.511  -4.412  1.00  0.00     0.124 S 
ATOM     90  O   UNL     1      -4.939   9.800  -4.350  1.00  0.00    -0.237 OA
ATOM     91  O   UNL     1      -5.407   7.731  -5.627  1.00  0.00    -0.237 OA
ATOM     92  O   UNL     1      -6.986   8.500  -3.897  1.00  0.00    -0.744 OA
ENDBRANCH  85  89
ENDBRANCH  58  82
BRANCH  70  93
ATOM     93  C   UNL     1       2.431  11.647  -2.490  1.00  0.00     0.023 A 
ATOM     94  C   UNL     1       2.000  12.384  -1.373  1.00  0.00     0.031 A 
ATOM     95  C   UNL     1       2.839  12.358  -3.633  1.00  0.00     0.131 A 
ATOM     96  C   UNL     1       1.952  13.786  -1.435  1.00  0.00     0.055 A 
ATOM     97  C   UNL     1       2.840  13.754  -3.671  1.00  0.00     0.041 A 
ATOM     98  F   UNL     1       3.258  11.706  -4.730  1.00  0.00    -0.206 F 
ATOM     99  C   UNL     1       2.386  14.475  -2.571  1.00  0.00     0.022 A 
BRANCH  96 100
ATOM    100  S   UNL     1       1.255  14.701  -0.033  1.00  0.00     0.124 S 
ATOM    101  O   UNL     1      -0.108  14.184   0.020  1.00  0.00    -0.237 OA
ATOM    102  O   UNL     1       2.130  14.305   1.066  1.00  0.00    -0.237 OA
ATOM    103  O   UNL     1       1.372  16.099  -0.443  1.00  0.00    -0.744 OA
ENDBRANCH  96 100
ENDBRANCH  70  93
ENDBRANCH  44  45
ENDBRANCH  36  39
ENDBRANCH  34  35
ENDBRANCH  33  34
ENDBRANCH  32  33
ENDBRANCH  30  32
ENDBRANCH   1  28
TORSDOF 21
