REMARK SMILES CC1=C([C@H](NC(=O)[C@@H]2[C@H](C)c3cc(F)ccc3N2C)C(=O)NCCCNC(=O)c2ccc(-c3c4nc(c(-c5cc(S(=O)(=O)[O-])ccc5F)c5ccc([nH]5)c(-c5cc(S(=O)(=O)[O-])ccc5F)c5nc(c(-c6cc(S(=O)(=O)[O-])ccc6F)c6ccc3[nH]6)C=C5)C=C4)cc2)[C@@H](C)N=N1
REMARK SMILES IDX 24 1 23 2 22 3 20 4 21 5 4 7 3 8 1 9 2 10 95 11 92 12 94 13
REMARK SMILES IDX 93 14 5 15 6 16 7 18 8 19 9 20 18 21 11 22 10 23 17 24 19 25
REMARK SMILES IDX 12 26 16 27 13 28 15 29 14 30 25 31 26 32 27 33 28 35 29 36
REMARK SMILES IDX 30 37 91 38 31 39 90 40 32 41 33 42 34 43 84 44 35 45 89 46
REMARK SMILES IDX 83 47 85 48 36 49 88 50 82 51 81 52 37 54 69 55 49 56 68 57
REMARK SMILES IDX 50 58 53 59 67 60 86 61 51 62 52 63 66 65 87 66 54 67 38 68
REMARK SMILES IDX 39 69 47 70 40 71 46 72 48 73 45 74 41 75 42 76 43 77 44 78
REMARK SMILES IDX 70 79 71 80 79 81 72 82 78 83 80 84 77 85 73 86 74 87 75 88
REMARK SMILES IDX 76 89 55 90 56 91 64 92 57 93 63 94 65 95 62 96 58 97 59 98
REMARK SMILES IDX 60 99 61 100
REMARK H PARENT 22 6 5 17 26 34 85 53 53 64
REMARK Flexibility Score: inf
ROOT
ATOM      1  C   UNL     1      -2.983   1.439  -4.888  1.00  0.00     0.042 C 
ENDROOT
BRANCH   1   2
ATOM      2  C   UNL     1      -1.980   2.423  -4.317  1.00  0.00     0.117 C 
BRANCH   2   3
ATOM      3  N   UNL     1      -2.242   2.864  -2.970  1.00  0.00    -0.354 N 
ATOM      4  C   UNL     1      -1.304   3.361  -2.104  1.00  0.00     0.247 C 
ATOM      5  O   UNL     1      -1.678   4.178  -1.257  1.00  0.00    -0.272 OA
ATOM      6  H   UNL     1      -3.170   2.804  -2.646  1.00  0.00     0.163 HD
BRANCH   4   7
ATOM      7  C   UNL     1       0.202   2.954  -2.222  1.00  0.00     0.202 C 
BRANCH   7   8
ATOM      8  C   UNL     1       1.026   3.835  -3.096  1.00  0.00     0.011 C 
ATOM      9  C   UNL     1       1.655   5.666  -1.409  1.00  0.00     0.069 C 
ATOM     10  C   UNL     1       1.691   4.936  -2.710  1.00  0.00     0.064 C 
ATOM     11  N   UNL     1       2.610   5.346  -3.639  1.00  0.00    -0.160 NA
ATOM     12  C   UNL     1       1.482   3.597  -4.507  1.00  0.00     0.156 C 
ATOM     13  N   UNL     1       2.621   4.554  -4.616  1.00  0.00    -0.181 NA
ATOM     14  C   UNL     1       0.527   3.986  -5.632  1.00  0.00     0.040 C 
ENDBRANCH   7   8
BRANCH   7  15
ATOM     15  N   UNL     1       0.361   1.523  -2.462  1.00  0.00    -0.339 N 
ATOM     16  C   UNL     1       1.384   0.627  -2.353  1.00  0.00     0.244 C 
ATOM     17  H   UNL     1      -0.470   1.103  -2.780  1.00  0.00     0.164 HD
ATOM     18  O   UNL     1       0.994  -0.546  -2.350  1.00  0.00    -0.273 OA
BRANCH  16  19
ATOM     19  C   UNL     1       2.882   1.017  -2.341  1.00  0.00     0.178 C 
ATOM     20  C   UNL     1       3.883  -0.146  -2.749  1.00  0.00     0.050 C 
ATOM     21  N   UNL     1       3.431   1.532  -1.062  1.00  0.00    -0.362 N 
ATOM     22  C   UNL     1       5.139   0.338  -2.061  1.00  0.00    -0.016 A 
ATOM     23  C   UNL     1       3.560  -1.564  -2.282  1.00  0.00     0.015 C 
ATOM     24  C   UNL     1       4.811   1.355  -1.162  1.00  0.00     0.041 A 
ATOM     25  C   UNL     1       2.901   2.555  -0.218  1.00  0.00     0.144 C 
ATOM     26  C   UNL     1       6.442  -0.121  -2.183  1.00  0.00     0.045 A 
ATOM     27  C   UNL     1       5.810   2.030  -0.474  1.00  0.00     0.029 A 
ATOM     28  C   UNL     1       7.429   0.517  -1.435  1.00  0.00     0.123 A 
ATOM     29  C   UNL     1       7.132   1.608  -0.617  1.00  0.00     0.041 A 
ATOM     30  F   UNL     1       8.693   0.078  -1.494  1.00  0.00    -0.207 F 
ENDBRANCH  16  19
ENDBRANCH   7  15
ENDBRANCH   4   7
ENDBRANCH   2   3
ENDBRANCH   1   2
BRANCH   1  31
ATOM     31  C   UNL     1      -4.301   2.074  -5.329  1.00  0.00     0.118 C 
BRANCH  31  32
ATOM     32  N   UNL     1      -4.137   3.277  -6.123  1.00  0.00    -0.352 N 
ATOM     33  C   UNL     1      -4.022   3.559  -7.454  1.00  0.00     0.251 C 
ATOM     34  H   UNL     1      -4.100   4.088  -5.566  1.00  0.00     0.163 HD
ATOM     35  O   UNL     1      -3.994   4.761  -7.736  1.00  0.00    -0.269 OA
BRANCH  33  36
ATOM     36  C   UNL     1      -3.875   2.564  -8.549  1.00  0.00     0.039 A 
ATOM     37  C   UNL     1      -3.606   1.209  -8.378  1.00  0.00     0.014 A 
ATOM     38  C   UNL     1      -3.909   3.082  -9.859  1.00  0.00     0.014 A 
ATOM     39  C   UNL     1      -3.259   0.421  -9.474  1.00  0.00     0.010 A 
ATOM     40  C   UNL     1      -3.593   2.293 -10.960  1.00  0.00     0.010 A 
ATOM     41  C   UNL     1      -3.209   0.974 -10.760  1.00  0.00    -0.014 A 
BRANCH  41  42
ATOM     42  C   UNL     1      -2.837   0.095 -11.868  1.00  0.00     0.031 A 
ATOM     43  C   UNL     1      -3.723  -1.093 -12.035  1.00  0.00     0.074 A 
ATOM     44  C   UNL     1      -1.835   0.336 -12.738  1.00  0.00     0.049 A 
ATOM     45  N   UNL     1      -3.431  -2.338 -11.842  1.00  0.00    -0.248 NA
ATOM     46  C   UNL     1      -5.146  -0.846 -12.307  1.00  0.00     0.031 C 
ATOM     47  C   UNL     1      -1.057   1.562 -12.929  1.00  0.00     0.029 A 
ATOM     48  N   UNL     1      -1.351  -0.482 -13.714  1.00  0.00    -0.354 N 
ATOM     49  C   UNL     1      -4.589  -3.058 -12.134  1.00  0.00     0.074 A 
ATOM     50  C   UNL     1      -5.642  -2.083 -12.271  1.00  0.00     0.031 C 
ATOM     51  C   UNL     1      -0.373   1.482 -14.095  1.00  0.00     0.029 A 
ATOM     52  C   UNL     1      -0.534   0.146 -14.644  1.00  0.00     0.049 A 
ATOM     53  H   UNL     1      -1.563  -1.442 -13.755  1.00  0.00     0.167 HD
ATOM     54  C   UNL     1      -4.569  -4.396 -12.402  1.00  0.00     0.034 A 
ATOM     55  C   UNL     1      -0.076  -0.381 -15.809  1.00  0.00     0.034 A 
ATOM     56  C   UNL     1      -3.325  -4.993 -12.003  1.00  0.00     0.049 A 
ATOM     57  C   UNL     1      -0.179  -1.857 -15.716  1.00  0.00     0.074 A 
ATOM     58  C   UNL     1      -2.691  -5.188 -10.792  1.00  0.00     0.029 A 
ATOM     59  N   UNL     1      -2.360  -5.173 -12.964  1.00  0.00    -0.354 N 
ATOM     60  N   UNL     1       0.562  -2.593 -14.938  1.00  0.00    -0.248 NA
ATOM     61  C   UNL     1      -1.421  -2.468 -16.167  1.00  0.00     0.031 C 
ATOM     62  C   UNL     1      -1.310  -4.980 -11.065  1.00  0.00     0.029 A 
ATOM     63  C   UNL     1      -1.172  -4.739 -12.433  1.00  0.00     0.049 A 
ATOM     64  H   UNL     1      -2.497  -5.544 -13.866  1.00  0.00     0.167 HD
ATOM     65  C   UNL     1      -0.311  -3.542 -14.432  1.00  0.00     0.074 A 
ATOM     66  C   UNL     1      -1.492  -3.473 -15.291  1.00  0.00     0.031 C 
ATOM     67  C   UNL     1      -0.123  -4.098 -13.200  1.00  0.00     0.034 A 
BRANCH  54  68
ATOM     68  C   UNL     1      -5.568  -5.104 -13.282  1.00  0.00     0.023 A 
ATOM     69  C   UNL     1      -6.447  -4.413 -14.135  1.00  0.00     0.031 A 
ATOM     70  C   UNL     1      -5.522  -6.503 -13.451  1.00  0.00     0.131 A 
ATOM     71  C   UNL     1      -7.248  -5.083 -15.069  1.00  0.00     0.055 A 
ATOM     72  C   UNL     1      -6.269  -7.168 -14.433  1.00  0.00     0.041 A 
ATOM     73  F   UNL     1      -4.709  -7.264 -12.701  1.00  0.00    -0.206 F 
ATOM     74  C   UNL     1      -7.140  -6.457 -15.248  1.00  0.00     0.022 A 
BRANCH  71  75
ATOM     75  S   UNL     1      -8.442  -4.159 -16.073  1.00  0.00     0.124 S 
ATOM     76  O   UNL     1      -7.989  -4.461 -17.432  1.00  0.00    -0.237 OA
ATOM     77  O   UNL     1      -9.704  -4.785 -15.678  1.00  0.00    -0.237 OA
ATOM     78  O   UNL     1      -8.269  -2.785 -15.634  1.00  0.00    -0.744 OA
ENDBRANCH  71  75
ENDBRANCH  54  68
BRANCH  55  79
ATOM     79  C   UNL     1      -0.071   0.289 -17.134  1.00  0.00     0.023 A 
ATOM     80  C   UNL     1      -1.018   1.293 -17.403  1.00  0.00     0.031 A 
ATOM     81  C   UNL     1       0.594  -0.284 -18.234  1.00  0.00     0.131 A 
ATOM     82  C   UNL     1      -1.331   1.639 -18.724  1.00  0.00     0.055 A 
ATOM     83  C   UNL     1       0.297   0.081 -19.553  1.00  0.00     0.041 A 
ATOM     84  F   UNL     1       1.483  -1.273 -18.051  1.00  0.00    -0.206 F 
ATOM     85  C   UNL     1      -0.684   1.035 -19.803  1.00  0.00     0.022 A 
BRANCH  82  86
ATOM     86  S   UNL     1      -2.675   2.809 -19.063  1.00  0.00     0.124 S 
ATOM     87  O   UNL     1      -2.082   3.676 -20.078  1.00  0.00    -0.237 OA
ATOM     88  O   UNL     1      -3.729   1.917 -19.534  1.00  0.00    -0.237 OA
ATOM     89  O   UNL     1      -2.908   3.443 -17.769  1.00  0.00    -0.744 OA
ENDBRANCH  82  86
ENDBRANCH  55  79
BRANCH  67  90
ATOM     90  C   UNL     1       1.172  -3.829 -12.463  1.00  0.00     0.023 A 
ATOM     91  C   UNL     1       1.819  -4.937 -11.888  1.00  0.00     0.031 A 
ATOM     92  C   UNL     1       1.646  -2.549 -12.112  1.00  0.00     0.131 A 
ATOM     93  C   UNL     1       2.852  -4.754 -10.963  1.00  0.00     0.055 A 
ATOM     94  C   UNL     1       2.731  -2.373 -11.246  1.00  0.00     0.041 A 
ATOM     95  F   UNL     1       1.026  -1.435 -12.520  1.00  0.00    -0.206 F 
ATOM     96  C   UNL     1       3.327  -3.478 -10.650  1.00  0.00     0.022 A 
BRANCH  93  97
ATOM     97  S   UNL     1       3.482  -6.162 -10.015  1.00  0.00     0.124 S 
ATOM     98  O   UNL     1       4.872  -6.233 -10.455  1.00  0.00    -0.237 OA
ATOM     99  O   UNL     1       3.282  -5.720  -8.636  1.00  0.00    -0.237 OA
ATOM    100  O   UNL     1       2.636  -7.277 -10.433  1.00  0.00    -0.744 OA
ENDBRANCH  93  97
ENDBRANCH  67  90
ENDBRANCH  41  42
ENDBRANCH  33  36
ENDBRANCH  31  32
ENDBRANCH   1  31
TORSDOF 16
