REMARK SMILES Cc1ccc(S(=O)(=O)Nc2ccccn2)cc1C(=O)NCCCNC(=O)c1ccc(-c2c3nc(c(-c4cc(S(=O)(=O)[O-])ccc4F)c4ccc([nH]4)c(-c4cc(S(=O)(=O)[O-])ccc4F)c4nc(c(-c5cc(S(=O)(=O)[O-])ccc5F)c5ccc2[nH]5)C=C4)C=C3)cc1
REMARK SMILES IDX 22 1 21 2 20 3 18 4 19 5 17 7 1 8 2 9 3 10 4 11 16 12 5 13
REMARK SMILES IDX 6 14 7 15 8 16 9 17 10 19 11 20 15 21 12 22 14 23 13 24
REMARK SMILES IDX 23 25 24 26 25 27 26 29 27 30 28 31 89 32 29 33 88 34 30 35
REMARK SMILES IDX 31 36 32 37 82 38 33 39 87 40 81 41 83 42 34 43 86 44 80 45
REMARK SMILES IDX 79 46 35 48 67 49 47 50 66 51 48 52 51 53 65 54 84 55 49 56
REMARK SMILES IDX 50 57 64 59 85 60 52 61 36 62 37 63 45 64 38 65 44 66 46 67
REMARK SMILES IDX 43 68 39 69 40 70 41 71 42 72 68 73 69 74 77 75 70 76 76 77
REMARK SMILES IDX 78 78 75 79 71 80 72 81 73 82 74 83 53 84 54 85 62 86 55 87
REMARK SMILES IDX 61 88 63 89 60 90 56 91 57 92 58 93 59 94
REMARK H PARENT 20 6 9 18 24 28 83 47 51 58
REMARK Flexibility Score: inf
ROOT
ATOM      1  C   UNL     1       4.151   0.701  -1.135  1.00  0.00     0.042 C 
ENDROOT
BRANCH   1   2
ATOM      2  C   UNL     1       3.495   1.347   0.084  1.00  0.00     0.118 C 
BRANCH   2   3
ATOM      3  N   UNL     1       2.258   2.027  -0.272  1.00  0.00    -0.352 N 
ATOM      4  C   UNL     1       0.973   1.864   0.168  1.00  0.00     0.251 C 
ATOM      5  O   UNL     1       0.379   2.933   0.359  1.00  0.00    -0.269 OA
ATOM      6  H   UNL     1       2.365   2.731  -0.952  1.00  0.00     0.163 HD
BRANCH   4   7
ATOM      7  C   UNL     1       0.163   0.582   0.251  1.00  0.00     0.044 A 
ATOM      8  C   UNL     1       1.848  -1.239  -0.480  1.00  0.00     0.045 C 
ATOM      9  C   UNL     1       0.504  -0.751  -0.059  1.00  0.00    -0.038 A 
ATOM     10  C   UNL     1      -0.497  -1.751  -0.070  1.00  0.00     0.005 A 
ATOM     11  C   UNL     1      -1.840  -1.436   0.061  1.00  0.00     0.022 A 
ATOM     12  C   UNL     1      -1.213   0.842   0.501  1.00  0.00     0.036 A 
ATOM     13  C   UNL     1      -2.204  -0.116   0.284  1.00  0.00     0.088 A 
BRANCH  13  14
ATOM     14  S   UNL     1      -3.922   0.269   0.012  1.00  0.00     0.263 S 
ATOM     15  O   UNL     1      -4.143   0.064  -1.420  1.00  0.00    -0.201 OA
ATOM     16  O   UNL     1      -4.667  -0.497   0.971  1.00  0.00    -0.201 OA
BRANCH  14  17
ATOM     17  N   UNL     1      -4.233   1.855   0.350  1.00  0.00    -0.263 N 
ATOM     18  H   UNL     1      -4.996   2.050   0.942  1.00  0.00     0.182 HD
BRANCH  17  19
ATOM     19  C   UNL     1      -3.503   2.945  -0.136  1.00  0.00     0.139 A 
ATOM     20  C   UNL     1      -2.837   3.020  -1.348  1.00  0.00     0.048 A 
ATOM     21  N   UNL     1      -3.494   3.915   0.798  1.00  0.00    -0.239 NA
ATOM     22  C   UNL     1      -2.008   4.121  -1.557  1.00  0.00     0.005 A 
ATOM     23  C   UNL     1      -2.684   4.969   0.564  1.00  0.00     0.113 A 
ATOM     24  C   UNL     1      -1.917   5.107  -0.579  1.00  0.00     0.020 A 
ENDBRANCH  17  19
ENDBRANCH  14  17
ENDBRANCH  13  14
ENDBRANCH   4   7
ENDBRANCH   2   3
ENDBRANCH   1   2
BRANCH   1  25
ATOM     25  C   UNL     1       5.493   1.292  -1.524  1.00  0.00     0.118 C 
BRANCH  25  26
ATOM     26  N   UNL     1       6.641   0.442  -1.204  1.00  0.00    -0.352 N 
ATOM     27  C   UNL     1       7.964   0.625  -1.578  1.00  0.00     0.251 C 
ATOM     28  H   UNL     1       6.451  -0.356  -0.659  1.00  0.00     0.163 HD
ATOM     29  O   UNL     1       8.853  -0.155  -1.258  1.00  0.00    -0.269 OA
BRANCH  27  30
ATOM     30  C   UNL     1       8.302   1.898  -2.255  1.00  0.00     0.039 A 
ATOM     31  C   UNL     1       9.012   2.819  -1.481  1.00  0.00     0.014 A 
ATOM     32  C   UNL     1       7.540   2.305  -3.345  1.00  0.00     0.014 A 
ATOM     33  C   UNL     1       8.696   4.166  -1.593  1.00  0.00     0.010 A 
ATOM     34  C   UNL     1       7.148   3.630  -3.386  1.00  0.00     0.010 A 
ATOM     35  C   UNL     1       7.662   4.538  -2.451  1.00  0.00    -0.014 A 
BRANCH  35  36
ATOM     36  C   UNL     1       7.019   5.843  -2.370  1.00  0.00     0.031 A 
ATOM     37  C   UNL     1       7.372   6.869  -3.363  1.00  0.00     0.074 A 
ATOM     38  C   UNL     1       6.158   6.153  -1.375  1.00  0.00     0.049 A 
ATOM     39  N   UNL     1       7.389   8.135  -3.125  1.00  0.00    -0.248 NA
ATOM     40  C   UNL     1       7.804   6.523  -4.710  1.00  0.00     0.031 C 
ATOM     41  C   UNL     1       5.352   7.366  -1.250  1.00  0.00     0.029 A 
ATOM     42  N   UNL     1       6.026   5.526  -0.141  1.00  0.00    -0.354 N 
ATOM     43  C   UNL     1       7.561   8.779  -4.325  1.00  0.00     0.074 A 
ATOM     44  C   UNL     1       7.886   7.732  -5.267  1.00  0.00     0.031 C 
ATOM     45  C   UNL     1       5.017   7.534   0.039  1.00  0.00     0.029 A 
ATOM     46  C   UNL     1       5.688   6.505   0.811  1.00  0.00     0.049 A 
ATOM     47  H   UNL     1       6.147   4.565   0.035  1.00  0.00     0.167 HD
ATOM     48  C   UNL     1       7.281  10.109  -4.420  1.00  0.00     0.034 A 
ATOM     49  C   UNL     1       6.498   6.725   1.887  1.00  0.00     0.034 A 
ATOM     50  C   UNL     1       6.880  10.675  -3.129  1.00  0.00     0.049 A 
ATOM     51  C   UNL     1       7.183   8.084   1.874  1.00  0.00     0.074 A 
ATOM     52  C   UNL     1       5.665  11.022  -2.560  1.00  0.00     0.029 A 
ATOM     53  N   UNL     1       7.798  10.693  -2.089  1.00  0.00    -0.354 N 
ATOM     54  N   UNL     1       6.994   9.019   0.981  1.00  0.00    -0.248 NA
ATOM     55  C   UNL     1       8.228   8.440   2.833  1.00  0.00     0.031 C 
ATOM     56  C   UNL     1       5.866  11.230  -1.163  1.00  0.00     0.029 A 
ATOM     57  C   UNL     1       7.208  11.040  -0.886  1.00  0.00     0.049 A 
ATOM     58  H   UNL     1       8.754  10.483  -2.194  1.00  0.00     0.167 HD
ATOM     59  C   UNL     1       7.915  10.025   1.165  1.00  0.00     0.074 A 
ATOM     60  C   UNL     1       8.662   9.611   2.341  1.00  0.00     0.031 C 
ATOM     61  C   UNL     1       8.039  11.091   0.311  1.00  0.00     0.034 A 
BRANCH  48  62
ATOM     62  C   UNL     1       7.090  10.810  -5.747  1.00  0.00     0.023 A 
ATOM     63  C   UNL     1       6.193  11.891  -5.833  1.00  0.00     0.031 A 
ATOM     64  C   UNL     1       7.705  10.440  -6.960  1.00  0.00     0.131 A 
ATOM     65  C   UNL     1       5.843  12.454  -7.075  1.00  0.00     0.055 A 
ATOM     66  C   UNL     1       7.301  10.942  -8.204  1.00  0.00     0.041 A 
ATOM     67  F   UNL     1       8.765   9.620  -6.990  1.00  0.00    -0.206 F 
ATOM     68  C   UNL     1       6.349  11.946  -8.268  1.00  0.00     0.022 A 
BRANCH  65  69
ATOM     69  S   UNL     1       4.725  13.880  -7.108  1.00  0.00     0.124 S 
ATOM     70  O   UNL     1       3.533  13.354  -6.453  1.00  0.00    -0.237 OA
ATOM     71  O   UNL     1       5.484  14.880  -6.366  1.00  0.00    -0.237 OA
ATOM     72  O   UNL     1       4.573  14.157  -8.536  1.00  0.00    -0.744 OA
ENDBRANCH  65  69
ENDBRANCH  48  62
BRANCH  49  73
ATOM     73  C   UNL     1       7.102   5.457   2.398  1.00  0.00     0.023 A 
ATOM     74  C   UNL     1       6.230   4.476   2.924  1.00  0.00     0.031 A 
ATOM     75  C   UNL     1       8.380   5.051   1.991  1.00  0.00     0.131 A 
ATOM     76  C   UNL     1       6.591   3.120   2.881  1.00  0.00     0.055 A 
ATOM     77  C   UNL     1       8.746   3.701   1.986  1.00  0.00     0.041 A 
ATOM     78  F   UNL     1       9.242   5.931   1.460  1.00  0.00    -0.206 F 
ATOM     79  C   UNL     1       7.833   2.726   2.380  1.00  0.00     0.022 A 
BRANCH  76  80
ATOM     80  S   UNL     1       5.358   1.837   3.251  1.00  0.00     0.124 S 
ATOM     81  O   UNL     1       5.689   1.475   4.623  1.00  0.00    -0.237 OA
ATOM     82  O   UNL     1       4.089   2.533   3.063  1.00  0.00    -0.237 OA
ATOM     83  O   UNL     1       5.637   0.818   2.239  1.00  0.00    -0.744 OA
ENDBRANCH  76  80
ENDBRANCH  49  73
BRANCH  61  84
ATOM     84  C   UNL     1       9.008  12.248   0.505  1.00  0.00     0.023 A 
ATOM     85  C   UNL     1       9.502  12.624   1.765  1.00  0.00     0.031 A 
ATOM     86  C   UNL     1       9.430  13.067  -0.572  1.00  0.00     0.131 A 
ATOM     87  C   UNL     1      10.458  13.648   1.904  1.00  0.00     0.055 A 
ATOM     88  C   UNL     1      10.322  14.134  -0.424  1.00  0.00     0.041 A 
ATOM     89  F   UNL     1       9.008  12.868  -1.828  1.00  0.00    -0.206 F 
ATOM     90  C   UNL     1      10.865  14.415   0.817  1.00  0.00     0.022 A 
BRANCH  87  91
ATOM     91  S   UNL     1      11.204  13.918   3.532  1.00  0.00     0.124 S 
ATOM     92  O   UNL     1      10.038  14.102   4.389  1.00  0.00    -0.237 OA
ATOM     93  O   UNL     1      11.944  12.674   3.728  1.00  0.00    -0.237 OA
ATOM     94  O   UNL     1      12.031  15.107   3.341  1.00  0.00    -0.744 OA
ENDBRANCH  87  91
ENDBRANCH  61  84
ENDBRANCH  35  36
ENDBRANCH  27  30
ENDBRANCH  25  26
ENDBRANCH   1  25
TORSDOF 16
