REMARK SMILES O=C(NCCCNC(=O)[C@@H]1[C@@H](C(=O)Nc2nc(-c3ccc(F)cc3)cs2)[C@H]2C=C[C@@H]1O2)c1ccc(-c2c3nc(c(-c4cc(S(=O)(=O)[O-])ccc4F)c4ccc([nH]4)c(-c4cc(S(=O)(=O)[O-])ccc4F)c4nc(c(-c5cc(S(=O)(=O)[O-])ccc5F)c5ccc2[nH]5)C=C4)C=C3)cc1
REMARK SMILES IDX 5 1 4 2 3 3 1 4 2 5 32 7 33 8 94 9 34 10 93 11 35 12 36 13
REMARK SMILES IDX 37 14 87 15 38 16 92 17 86 18 88 19 39 20 91 21 85 22 84 23
REMARK SMILES IDX 40 25 72 26 52 27 71 28 53 29 56 30 70 31 89 32 54 33 55 34
REMARK SMILES IDX 69 36 90 37 57 38 41 39 42 40 50 41 43 42 49 43 51 44 48 45
REMARK SMILES IDX 44 46 45 47 46 48 47 49 73 50 74 51 82 52 75 53 81 54 83 55
REMARK SMILES IDX 80 56 76 57 77 58 78 59 79 60 58 61 59 62 67 63 60 64 66 65
REMARK SMILES IDX 68 66 65 67 61 68 62 69 63 70 64 71 6 72 7 73 8 74 9 76
REMARK SMILES IDX 10 77 11 78 30 79 27 80 29 81 31 82 28 83 12 84 13 85 14 86
REMARK SMILES IDX 15 88 16 89 26 90 17 91 25 92 18 93 19 94 24 95 20 96 23 97
REMARK SMILES IDX 21 98 22 99
REMARK H PARENT 3 6 88 24 56 35 7 75 14 87
REMARK Flexibility Score: inf
ROOT
ATOM      1  C   UNL     1       4.803  -2.468   0.574  1.00  0.00     0.042 C 
ENDROOT
BRANCH   1   2
ATOM      2  C   UNL     1       4.372  -1.290  -0.288  1.00  0.00     0.118 C 
BRANCH   2   3
ATOM      3  N   UNL     1       2.946  -1.003  -0.237  1.00  0.00    -0.352 N 
ATOM      4  O   UNL     1       1.042   0.112   0.188  1.00  0.00    -0.269 OA
ATOM      5  C   UNL     1       2.272   0.124   0.171  1.00  0.00     0.251 C 
ATOM      6  H   UNL     1       2.369  -1.738  -0.545  1.00  0.00     0.163 HD
BRANCH   5   7
ATOM      7  C   UNL     1       3.002   1.327   0.634  1.00  0.00     0.039 A 
ATOM      8  C   UNL     1       4.125   1.810  -0.038  1.00  0.00     0.014 A 
ATOM      9  C   UNL     1       2.542   1.992   1.776  1.00  0.00     0.014 A 
ATOM     10  C   UNL     1       4.889   2.828   0.528  1.00  0.00     0.010 A 
ATOM     11  C   UNL     1       3.258   3.078   2.292  1.00  0.00     0.010 A 
ATOM     12  C   UNL     1       4.468   3.474   1.702  1.00  0.00    -0.014 A 
BRANCH  12  13
ATOM     13  C   UNL     1       5.297   4.559   2.294  1.00  0.00     0.031 A 
ATOM     14  C   UNL     1       5.897   4.406   3.670  1.00  0.00     0.074 A 
ATOM     15  C   UNL     1       5.543   5.675   1.577  1.00  0.00     0.049 A 
ATOM     16  N   UNL     1       6.608   5.263   4.358  1.00  0.00    -0.248 NA
ATOM     17  C   UNL     1       5.666   3.130   4.365  1.00  0.00     0.031 C 
ATOM     18  C   UNL     1       5.032   5.941   0.230  1.00  0.00     0.029 A 
ATOM     19  N   UNL     1       6.297   6.784   1.868  1.00  0.00    -0.354 N 
ATOM     20  C   UNL     1       6.887   4.644   5.572  1.00  0.00     0.074 A 
ATOM     21  C   UNL     1       6.253   3.344   5.535  1.00  0.00     0.031 C 
ATOM     22  C   UNL     1       5.527   7.109  -0.206  1.00  0.00     0.029 A 
ATOM     23  C   UNL     1       6.330   7.711   0.852  1.00  0.00     0.049 A 
ATOM     24  H   UNL     1       6.770   6.905   2.723  1.00  0.00     0.167 HD
ATOM     25  C   UNL     1       7.612   5.114   6.617  1.00  0.00     0.034 A 
ATOM     26  C   UNL     1       6.915   8.922   0.784  1.00  0.00     0.034 A 
ATOM     27  C   UNL     1       8.271   6.394   6.636  1.00  0.00     0.049 A 
ATOM     28  C   UNL     1       7.676   9.437   1.975  1.00  0.00     0.074 A 
ATOM     29  C   UNL     1       9.063   6.938   7.633  1.00  0.00     0.029 A 
ATOM     30  N   UNL     1       8.220   7.330   5.614  1.00  0.00    -0.354 N 
ATOM     31  N   UNL     1       7.900   8.845   3.124  1.00  0.00    -0.248 NA
ATOM     32  C   UNL     1       8.244  10.787   1.868  1.00  0.00     0.031 C 
ATOM     33  C   UNL     1       9.450   8.222   7.235  1.00  0.00     0.029 A 
ATOM     34  C   UNL     1       8.944   8.457   5.968  1.00  0.00     0.049 A 
ATOM     35  H   UNL     1       7.741   7.210   4.762  1.00  0.00     0.167 HD
ATOM     36  C   UNL     1       8.636   9.752   3.877  1.00  0.00     0.074 A 
ATOM     37  C   UNL     1       8.833  10.924   3.048  1.00  0.00     0.031 C 
ATOM     38  C   UNL     1       9.107   9.626   5.142  1.00  0.00     0.034 A 
BRANCH  25  39
ATOM     39  C   UNL     1       7.714   4.253   7.847  1.00  0.00     0.023 A 
ATOM     40  C   UNL     1       8.506   3.094   7.872  1.00  0.00     0.031 A 
ATOM     41  C   UNL     1       7.048   4.630   9.027  1.00  0.00     0.131 A 
ATOM     42  C   UNL     1       8.589   2.333   9.048  1.00  0.00     0.055 A 
ATOM     43  C   UNL     1       7.177   3.898  10.209  1.00  0.00     0.041 A 
ATOM     44  F   UNL     1       6.269   5.723   9.050  1.00  0.00    -0.206 F 
ATOM     45  C   UNL     1       7.949   2.740  10.222  1.00  0.00     0.022 A 
BRANCH  42  46
ATOM     46  S   UNL     1       9.512   0.773   9.015  1.00  0.00     0.124 S 
ATOM     47  O   UNL     1       8.669  -0.049   8.151  1.00  0.00    -0.237 OA
ATOM     48  O   UNL     1      10.798   1.173   8.454  1.00  0.00    -0.237 OA
ATOM     49  O   UNL     1       9.546   0.364  10.418  1.00  0.00    -0.744 OA
ENDBRANCH  42  46
ENDBRANCH  25  39
BRANCH  26  50
ATOM     50  C   UNL     1       6.759   9.756  -0.438  1.00  0.00     0.023 A 
ATOM     51  C   UNL     1       7.850  10.020  -1.278  1.00  0.00     0.031 A 
ATOM     52  C   UNL     1       5.509  10.303  -0.779  1.00  0.00     0.131 A 
ATOM     53  C   UNL     1       7.675  10.829  -2.412  1.00  0.00     0.055 A 
ATOM     54  C   UNL     1       5.332  11.074  -1.927  1.00  0.00     0.041 A 
ATOM     55  F   UNL     1       4.435  10.072  -0.007  1.00  0.00    -0.206 F 
ATOM     56  C   UNL     1       6.421  11.347  -2.748  1.00  0.00     0.022 A 
BRANCH  53  57
ATOM     57  S   UNL     1       9.123  11.227  -3.429  1.00  0.00     0.124 S 
ATOM     58  O   UNL     1       9.945  11.984  -2.492  1.00  0.00    -0.237 OA
ATOM     59  O   UNL     1       9.616   9.902  -3.790  1.00  0.00    -0.237 OA
ATOM     60  O   UNL     1       8.560  12.000  -4.534  1.00  0.00    -0.744 OA
ENDBRANCH  53  57
ENDBRANCH  26  50
BRANCH  38  61
ATOM     61  C   UNL     1       9.887  10.781   5.703  1.00  0.00     0.023 A 
ATOM     62  C   UNL     1       9.243  11.955   6.124  1.00  0.00     0.031 A 
ATOM     63  C   UNL     1      11.281  10.691   5.850  1.00  0.00     0.131 A 
ATOM     64  C   UNL     1      10.000  13.010   6.653  1.00  0.00     0.055 A 
ATOM     65  C   UNL     1      12.025  11.728   6.413  1.00  0.00     0.041 A 
ATOM     66  F   UNL     1      11.938   9.585   5.464  1.00  0.00    -0.206 F 
ATOM     67  C   UNL     1      11.384  12.898   6.815  1.00  0.00     0.022 A 
BRANCH  64  68
ATOM     68  S   UNL     1       9.155  14.546   7.119  1.00  0.00     0.124 S 
ATOM     69  O   UNL     1       8.748  15.071   5.820  1.00  0.00    -0.237 OA
ATOM     70  O   UNL     1       8.077  14.068   7.979  1.00  0.00    -0.237 OA
ATOM     71  O   UNL     1      10.194  15.314   7.802  1.00  0.00    -0.744 OA
ENDBRANCH  64  68
ENDBRANCH  38  61
ENDBRANCH  12  13
ENDBRANCH   5   7
ENDBRANCH   2   3
ENDBRANCH   1   2
BRANCH   1  72
ATOM     72  C   UNL     1       4.255  -3.812   0.125  1.00  0.00     0.117 C 
BRANCH  72  73
ATOM     73  N   UNL     1       4.655  -4.180  -1.224  1.00  0.00    -0.356 N 
ATOM     74  C   UNL     1       5.335  -5.284  -1.667  1.00  0.00     0.227 C 
ATOM     75  H   UNL     1       4.399  -3.538  -1.925  1.00  0.00     0.163 HD
ATOM     76  O   UNL     1       5.397  -5.469  -2.883  1.00  0.00    -0.275 OA
BRANCH  74  77
ATOM     77  C   UNL     1       5.933  -6.232  -0.639  1.00  0.00     0.127 C 
ATOM     78  C   UNL     1       6.816  -7.364  -1.247  1.00  0.00     0.127 C 
ATOM     79  C   UNL     1       4.745  -7.035  -0.066  1.00  0.00     0.155 C 
ATOM     80  C   UNL     1       6.025  -8.617  -0.796  1.00  0.00     0.155 C 
ATOM     81  C   UNL     1       5.184  -7.782   1.153  1.00  0.00     0.004 C 
ATOM     82  O   UNL     1       4.672  -8.141  -1.008  1.00  0.00    -0.365 OA
ATOM     83  C   UNL     1       5.963  -8.771   0.702  1.00  0.00     0.004 C 
BRANCH  78  84
ATOM     84  C   UNL     1       8.272  -7.491  -0.809  1.00  0.00     0.233 C 
ATOM     85  O   UNL     1       8.657  -8.432  -0.102  1.00  0.00    -0.274 OA
ATOM     86  N   UNL     1       9.259  -6.703  -1.301  1.00  0.00    -0.302 N 
ATOM     87  H   UNL     1      10.177  -7.009  -1.119  1.00  0.00     0.172 HD
BRANCH  86  88
ATOM     88  C   UNL     1       9.156  -5.553  -2.011  1.00  0.00     0.189 A 
ATOM     89  N   UNL     1       8.143  -4.743  -2.136  1.00  0.00    -0.220 NA
ATOM     90  S   UNL     1      10.609  -5.102  -2.788  1.00  0.00    -0.105 S 
ATOM     91  C   UNL     1       8.529  -3.668  -2.917  1.00  0.00     0.084 A 
ATOM     92  C   UNL     1       9.818  -3.716  -3.411  1.00  0.00     0.097 A 
BRANCH  91  93
ATOM     93  C   UNL     1       7.662  -2.534  -3.151  1.00  0.00     0.001 A 
ATOM     94  C   UNL     1       7.731  -1.428  -2.291  1.00  0.00     0.013 A 
ATOM     95  C   UNL     1       6.788  -2.518  -4.244  1.00  0.00     0.013 A 
ATOM     96  C   UNL     1       6.944  -0.303  -2.538  1.00  0.00     0.040 A 
ATOM     97  C   UNL     1       5.996  -1.393  -4.483  1.00  0.00     0.040 A 
ATOM     98  C   UNL     1       6.083  -0.297  -3.630  1.00  0.00     0.123 A 
ATOM     99  F   UNL     1       5.307   0.772  -3.848  1.00  0.00    -0.207 F 
ENDBRANCH  91  93
ENDBRANCH  86  88
ENDBRANCH  78  84
ENDBRANCH  74  77
ENDBRANCH  72  73
ENDBRANCH   1  72
TORSDOF 16
