REMARK SMILES O=C(NCCCNC(=O)[C@H]1CC[C@@H]2CCCC[C@@H]2N1C(=O)Cc1ccn[nH]1)c1ccc(-c2c3nc(c(-c4cc(S(=O)(=O)[O-])ccc4F)c4ccc([nH]4)c(-c4cc(S(=O)(=O)[O-])ccc4F)c4nc(c(-c5cc(S(=O)(=O)[O-])ccc5F)c5ccc2[nH]5)C=C4)C=C3)cc1
REMARK SMILES IDX 5 1 4 2 3 3 1 4 2 5 28 7 29 8 90 9 30 10 89 11 31 12 32 13
REMARK SMILES IDX 33 14 83 15 34 16 88 17 82 18 84 19 35 20 87 21 81 22 80 23
REMARK SMILES IDX 36 25 68 26 48 27 67 28 49 29 52 30 66 31 85 32 50 33 51 34
REMARK SMILES IDX 65 36 86 37 53 38 37 39 38 40 46 41 39 42 45 43 47 44 44 45
REMARK SMILES IDX 40 46 41 47 42 48 43 49 69 50 70 51 78 52 71 53 77 54 79 55
REMARK SMILES IDX 76 56 72 57 73 58 74 59 75 60 54 61 55 62 63 63 56 64 62 65
REMARK SMILES IDX 64 66 61 67 57 68 58 69 59 70 60 71 6 72 7 73 8 74 9 76
REMARK SMILES IDX 10 77 11 78 19 79 12 80 18 81 13 82 17 83 14 84 16 85 15 86
REMARK SMILES IDX 20 87 21 88 22 89 23 90 24 91 27 92 25 93 26 94
REMARK H PARENT 3 6 84 24 52 35 7 75 27 95
REMARK Flexibility Score: inf
ROOT
ATOM      1  C   UNL     1       2.704  -5.031  -3.535  1.00  0.00     0.042 C 
ENDROOT
BRANCH   1   2
ATOM      2  C   UNL     1       2.095  -6.276  -4.158  1.00  0.00     0.118 C 
BRANCH   2   3
ATOM      3  N   UNL     1       2.516  -7.510  -3.507  1.00  0.00    -0.352 N 
ATOM      4  O   UNL     1       2.461  -9.223  -2.046  1.00  0.00    -0.269 OA
ATOM      5  C   UNL     1       1.859  -8.313  -2.598  1.00  0.00     0.251 C 
ATOM      6  H   UNL     1       3.416  -7.821  -3.756  1.00  0.00     0.163 HD
BRANCH   5   7
ATOM      7  C   UNL     1       0.439  -8.050  -2.270  1.00  0.00     0.039 A 
ATOM      8  C   UNL     1      -0.464  -7.698  -3.270  1.00  0.00     0.014 A 
ATOM      9  C   UNL     1       0.003  -8.149  -0.946  1.00  0.00     0.014 A 
ATOM     10  C   UNL     1      -1.719  -7.220  -2.927  1.00  0.00     0.010 A 
ATOM     11  C   UNL     1      -1.317  -7.811  -0.621  1.00  0.00     0.010 A 
ATOM     12  C   UNL     1      -2.177  -7.298  -1.603  1.00  0.00    -0.014 A 
BRANCH  12  13
ATOM     13  C   UNL     1      -3.576  -6.883  -1.309  1.00  0.00     0.031 A 
ATOM     14  C   UNL     1      -3.877  -5.769  -0.343  1.00  0.00     0.074 A 
ATOM     15  C   UNL     1      -4.578  -7.487  -1.981  1.00  0.00     0.049 A 
ATOM     16  N   UNL     1      -5.037  -5.272   0.006  1.00  0.00    -0.248 NA
ATOM     17  C   UNL     1      -2.732  -5.139   0.329  1.00  0.00     0.031 C 
ATOM     18  C   UNL     1      -4.404  -8.583  -2.941  1.00  0.00     0.029 A 
ATOM     19  N   UNL     1      -5.927  -7.249  -2.000  1.00  0.00    -0.354 N 
ATOM     20  C   UNL     1      -4.767  -4.295   0.959  1.00  0.00     0.074 A 
ATOM     21  C   UNL     1      -3.332  -4.290   1.152  1.00  0.00     0.031 C 
ATOM     22  C   UNL     1      -5.582  -8.861  -3.514  1.00  0.00     0.029 A 
ATOM     23  C   UNL     1      -6.612  -8.039  -2.895  1.00  0.00     0.049 A 
ATOM     24  H   UNL     1      -6.364  -6.578  -1.428  1.00  0.00     0.167 HD
ATOM     25  C   UNL     1      -5.637  -3.478   1.605  1.00  0.00     0.034 A 
ATOM     26  C   UNL     1      -7.927  -8.117  -3.172  1.00  0.00     0.034 A 
ATOM     27  C   UNL     1      -7.065  -3.491   1.385  1.00  0.00     0.049 A 
ATOM     28  C   UNL     1      -8.869  -7.218  -2.424  1.00  0.00     0.074 A 
ATOM     29  C   UNL     1      -8.037  -2.695   1.968  1.00  0.00     0.029 A 
ATOM     30  N   UNL     1      -7.730  -4.345   0.512  1.00  0.00    -0.354 N 
ATOM     31  N   UNL     1      -8.595  -6.309  -1.518  1.00  0.00    -0.248 NA
ATOM     32  C   UNL     1     -10.296  -7.362  -2.729  1.00  0.00     0.031 C 
ATOM     33  C   UNL     1      -9.289  -3.109   1.497  1.00  0.00     0.029 A 
ATOM     34  C   UNL     1      -9.098  -4.115   0.564  1.00  0.00     0.049 A 
ATOM     35  H   UNL     1      -7.293  -5.017  -0.060  1.00  0.00     0.167 HD
ATOM     36  C   UNL     1      -9.820  -5.763  -1.150  1.00  0.00     0.074 A 
ATOM     37  C   UNL     1     -10.827  -6.427  -1.956  1.00  0.00     0.031 C 
ATOM     38  C   UNL     1     -10.089  -4.804  -0.229  1.00  0.00     0.034 A 
BRANCH  25  39
ATOM     39  C   UNL     1      -5.070  -2.542   2.649  1.00  0.00     0.023 A 
ATOM     40  C   UNL     1      -4.174  -1.511   2.319  1.00  0.00     0.031 A 
ATOM     41  C   UNL     1      -5.412  -2.704   4.005  1.00  0.00     0.131 A 
ATOM     42  C   UNL     1      -3.596  -0.730   3.333  1.00  0.00     0.055 A 
ATOM     43  C   UNL     1      -4.895  -1.873   5.001  1.00  0.00     0.041 A 
ATOM     44  F   UNL     1      -6.246  -3.684   4.386  1.00  0.00    -0.206 F 
ATOM     45  C   UNL     1      -3.969  -0.889   4.670  1.00  0.00     0.022 A 
BRANCH  42  46
ATOM     46  S   UNL     1      -2.243   0.398   2.898  1.00  0.00     0.124 S 
ATOM     47  O   UNL     1      -1.279  -0.516   2.289  1.00  0.00    -0.237 OA
ATOM     48  O   UNL     1      -2.893   1.335   1.990  1.00  0.00    -0.237 OA
ATOM     49  O   UNL     1      -1.833   0.956   4.185  1.00  0.00    -0.744 OA
ENDBRANCH  42  46
ENDBRANCH  25  39
BRANCH  26  50
ATOM     50  C   UNL     1      -8.425  -9.106  -4.169  1.00  0.00     0.023 A 
ATOM     51  C   UNL     1      -9.053  -8.692  -5.352  1.00  0.00     0.031 A 
ATOM     52  C   UNL     1      -8.288 -10.489  -3.943  1.00  0.00     0.131 A 
ATOM     53  C   UNL     1      -9.550  -9.649  -6.250  1.00  0.00     0.055 A 
ATOM     54  C   UNL     1      -8.732 -11.436  -4.865  1.00  0.00     0.041 A 
ATOM     55  F   UNL     1      -7.690 -10.939  -2.828  1.00  0.00    -0.206 F 
ATOM     56  C   UNL     1      -9.379 -11.017  -6.023  1.00  0.00     0.022 A 
BRANCH  53  57
ATOM     57  S   UNL     1     -10.490  -9.081  -7.693  1.00  0.00     0.124 S 
ATOM     58  O   UNL     1     -11.565  -8.319  -7.067  1.00  0.00    -0.237 OA
ATOM     59  O   UNL     1      -9.490  -8.304  -8.418  1.00  0.00    -0.237 OA
ATOM     60  O   UNL     1     -10.901 -10.324  -8.342  1.00  0.00    -0.744 OA
ENDBRANCH  53  57
ENDBRANCH  26  50
BRANCH  38  61
ATOM     61  C   UNL     1     -11.536  -4.407  -0.079  1.00  0.00     0.023 A 
ATOM     62  C   UNL     1     -12.492  -5.297   0.443  1.00  0.00     0.031 A 
ATOM     63  C   UNL     1     -11.971  -3.141  -0.504  1.00  0.00     0.131 A 
ATOM     64  C   UNL     1     -13.845  -4.932   0.465  1.00  0.00     0.055 A 
ATOM     65  C   UNL     1     -13.310  -2.760  -0.423  1.00  0.00     0.041 A 
ATOM     66  F   UNL     1     -11.100  -2.255  -1.014  1.00  0.00    -0.206 F 
ATOM     67  C   UNL     1     -14.259  -3.664   0.049  1.00  0.00     0.022 A 
BRANCH  64  68
ATOM     68  S   UNL     1     -15.074  -6.176   0.948  1.00  0.00     0.124 S 
ATOM     69  O   UNL     1     -14.833  -7.234  -0.028  1.00  0.00    -0.237 OA
ATOM     70  O   UNL     1     -14.690  -6.477   2.323  1.00  0.00    -0.237 OA
ATOM     71  O   UNL     1     -16.348  -5.475   0.800  1.00  0.00    -0.744 OA
ENDBRANCH  64  68
ENDBRANCH  38  61
ENDBRANCH  12  13
ENDBRANCH   5   7
ENDBRANCH   2   3
ENDBRANCH   1   2
BRANCH   1  72
ATOM     72  C   UNL     1       4.196  -4.901  -3.779  1.00  0.00     0.117 C 
BRANCH  72  73
ATOM     73  N   UNL     1       4.525  -4.819  -5.193  1.00  0.00    -0.354 N 
ATOM     74  C   UNL     1       5.420  -4.023  -5.843  1.00  0.00     0.242 C 
ATOM     75  H   UNL     1       4.022  -5.435  -5.772  1.00  0.00     0.163 HD
ATOM     76  O   UNL     1       5.311  -3.978  -7.071  1.00  0.00    -0.273 OA
BRANCH  74  77
ATOM     77  C   UNL     1       6.389  -3.126  -5.040  1.00  0.00     0.174 C 
ATOM     78  C   UNL     1       7.126  -3.729  -3.834  1.00  0.00     0.036 C 
ATOM     79  N   UNL     1       7.369  -2.225  -5.707  1.00  0.00    -0.327 N 
ATOM     80  C   UNL     1       7.381  -2.591  -2.839  1.00  0.00     0.008 C 
ATOM     81  C   UNL     1       7.691  -1.025  -4.887  1.00  0.00     0.089 C 
ATOM     82  C   UNL     1       8.215  -1.464  -3.491  1.00  0.00     0.012 C 
ATOM     83  C   UNL     1       6.528  -0.011  -4.872  1.00  0.00     0.025 C 
ATOM     84  C   UNL     1       8.365  -0.262  -2.557  1.00  0.00     0.006 C 
ATOM     85  C   UNL     1       6.534   1.013  -3.739  1.00  0.00     0.002 C 
ATOM     86  C   UNL     1       7.065   0.512  -2.403  1.00  0.00     0.000 C 
BRANCH  79  87
ATOM     87  C   UNL     1       8.394  -2.696  -6.544  1.00  0.00     0.229 C 
ATOM     88  O   UNL     1       9.523  -2.188  -6.521  1.00  0.00    -0.274 OA
BRANCH  87  89
ATOM     89  C   UNL     1       8.115  -3.765  -7.595  1.00  0.00     0.155 C 
BRANCH  89  90
ATOM     90  C   UNL     1       8.092  -5.164  -7.079  1.00  0.00     0.044 A 
ATOM     91  C   UNL     1       8.789  -5.833  -6.097  1.00  0.00     0.045 A 
ATOM     92  N   UNL     1       7.258  -6.103  -7.635  1.00  0.00    -0.282 N 
ATOM     93  C   UNL     1       8.259  -7.136  -6.098  1.00  0.00     0.135 A 
ATOM     94  N   UNL     1       7.329  -7.305  -7.039  1.00  0.00    -0.184 NA
ATOM     95  H   UNL     1       6.665  -5.913  -8.397  1.00  0.00     0.190 HD
ENDBRANCH  89  90
ENDBRANCH  87  89
ENDBRANCH  79  87
ENDBRANCH  74  77
ENDBRANCH  72  73
ENDBRANCH   1  72
TORSDOF 16
