REMARK SMILES [NH3+]CCn1cc(C(=O)N[C@@H]2CCCCC[C@H]2C(=O)NCCCNC(=O)c2ccc(-c3c4nc(c(-c5cc(S(=O)(=O)[O-])ccc5F)c5ccc([nH]5)c(-c5cc(S(=O)(=O)[O-])ccc5F)c5nc(c(-c6cc(S(=O)(=O)[O-])ccc6F)c6ccc3[nH]6)C=C5)C=C4)cc2)nn1
REMARK SMILES IDX 17 1 18 2 19 3 16 5 10 6 9 7 7 8 8 9 6 11 4 12 5 13 90 14
REMARK SMILES IDX 89 15 3 16 2 17 1 18 11 22 15 24 14 25 13 26 12 27 20 29
REMARK SMILES IDX 21 30 22 31 23 32 24 33 25 35 26 36 27 37 88 38 28 39 87 40
REMARK SMILES IDX 29 41 30 42 31 43 81 44 32 45 86 46 80 47 82 48 33 49 85 50
REMARK SMILES IDX 79 51 78 52 34 54 66 55 46 56 65 57 47 58 50 59 64 60 83 61
REMARK SMILES IDX 48 62 49 63 63 65 84 66 51 67 35 68 36 69 44 70 37 71 43 72
REMARK SMILES IDX 45 73 42 74 38 75 39 76 40 77 41 78 67 79 68 80 76 81 69 82
REMARK SMILES IDX 75 83 77 84 74 85 70 86 71 87 72 88 73 89 52 90 53 91 61 92
REMARK SMILES IDX 54 93 60 94 62 95 59 96 55 97 56 98 57 99 58 100
REMARK H PARENT 19 4 9 10 1 19 1 20 1 21 23 34 82 53 50 64
REMARK Flexibility Score: 90.00
ROOT
ATOM      1  C   UNL     1       1.844  -5.698   1.021  1.00  0.00     0.225 C 
ATOM      2  O   UNL     1       2.236  -4.681   0.437  1.00  0.00    -0.275 OA
ATOM      3  N   UNL     1       1.344  -6.680   0.221  1.00  0.00    -0.356 N 
ATOM      4  H   UNL     1       0.714  -6.380  -0.474  1.00  0.00     0.163 HD
ENDROOT
BRANCH   1   5
ATOM      5  C   UNL     1       1.873  -5.745   2.563  1.00  0.00     0.101 C 
BRANCH   5   6
ATOM      6  C   UNL     1       0.622  -6.356   3.234  1.00  0.00     0.094 C 
BRANCH   6   7
ATOM      7  N   UNL     1      -0.161  -5.412   4.096  1.00  0.00    -0.347 N 
ATOM      8  C   UNL     1      -0.617  -4.119   4.055  1.00  0.00     0.273 C 
ATOM      9  O   UNL     1      -1.255  -3.741   5.041  1.00  0.00    -0.267 OA
ATOM     10  H   UNL     1      -0.426  -5.848   4.939  1.00  0.00     0.164 HD
BRANCH   8  11
ATOM     11  C   UNL     1      -0.303  -3.225   2.963  1.00  0.00     0.170 A 
ATOM     12  N   UNL     1       0.209  -2.297   1.077  1.00  0.00    -0.246 N 
ATOM     13  C   UNL     1      -0.367  -3.422   1.600  1.00  0.00     0.145 A 
ATOM     14  N   UNL     1       0.475  -1.396   2.041  1.00  0.00    -0.066 NA
ATOM     15  N   UNL     1       0.141  -1.944   3.200  1.00  0.00    -0.125 NA
BRANCH  12  16
ATOM     16  C   UNL     1       0.718  -2.105  -0.264  1.00  0.00     0.207 C 
BRANCH  16  17
ATOM     17  C   UNL     1       0.340  -0.771  -0.918  1.00  0.00     0.282 C 
BRANCH  17  18
ATOM     18  N   UNL     1       0.982   0.406  -0.316  1.00  0.00    -0.356 N 
ATOM     19  H   UNL     1       0.678   1.247  -0.807  1.00  0.00     0.344 HD
ATOM     20  H   UNL     1       1.995   0.316  -0.390  1.00  0.00     0.344 HD
ATOM     21  H   UNL     1       0.717   0.472   0.666  1.00  0.00     0.344 HD
ENDBRANCH  17  18
ENDBRANCH  16  17
ENDBRANCH  12  16
ENDBRANCH   8  11
ENDBRANCH   6   7
BRANCH   6  22
ATOM     22  C   UNL     1       0.929  -7.536   4.191  1.00  0.00     0.026 CG0
ATOM     23  G   UNL     1       1.680  -8.735   3.654  1.00  0.00     0.000 G0
ENDBRANCH   6  22
ENDBRANCH   5   6
BRANCH   5  24
ATOM     24  C   UNL     1       3.246  -6.075   3.157  1.00  0.00     0.015 C 
BRANCH  24  25
ATOM     25  C   UNL     1       3.841  -7.436   2.859  1.00  0.00     0.001 C 
BRANCH  25  26
ATOM     26  C   UNL     1       3.197  -8.636   3.546  1.00  0.00     0.000 C 
BRANCH  26  27
ATOM     27  C   UNL     1       1.680  -8.735   3.654  1.00  0.00     0.002 CG0
ATOM     28  G   UNL     1       0.929  -7.536   4.191  1.00  0.00     0.000 G0
ENDBRANCH  26  27
ENDBRANCH  25  26
ENDBRANCH  24  25
ENDBRANCH   5  24
ENDBRANCH   1   5
BRANCH   3  29
ATOM     29  C   UNL     1       1.611  -8.107   0.249  1.00  0.00     0.117 C 
BRANCH  29  30
ATOM     30  C   UNL     1       0.365  -8.994   0.268  1.00  0.00     0.042 C 
BRANCH  30  31
ATOM     31  C   UNL     1       0.309  -9.909  -0.940  1.00  0.00     0.118 C 
BRANCH  31  32
ATOM     32  N   UNL     1       1.392 -10.905  -0.975  1.00  0.00    -0.352 N 
ATOM     33  C   UNL     1       1.690 -11.782  -2.015  1.00  0.00     0.251 C 
ATOM     34  H   UNL     1       1.967 -10.957  -0.177  1.00  0.00     0.163 HD
ATOM     35  O   UNL     1       2.398 -12.756  -1.847  1.00  0.00    -0.269 OA
BRANCH  33  36
ATOM     36  C   UNL     1       1.081 -11.474  -3.324  1.00  0.00     0.039 A 
ATOM     37  C   UNL     1       0.170 -12.350  -3.914  1.00  0.00     0.014 A 
ATOM     38  C   UNL     1       1.199 -10.159  -3.745  1.00  0.00     0.014 A 
ATOM     39  C   UNL     1      -0.756 -11.829  -4.818  1.00  0.00     0.010 A 
ATOM     40  C   UNL     1       0.158  -9.624  -4.465  1.00  0.00     0.010 A 
ATOM     41  C   UNL     1      -0.820 -10.440  -5.032  1.00  0.00    -0.014 A 
BRANCH  41  42
ATOM     42  C   UNL     1      -1.967  -9.830  -5.720  1.00  0.00     0.031 A 
ATOM     43  C   UNL     1      -3.304 -10.437  -5.452  1.00  0.00     0.074 A 
ATOM     44  C   UNL     1      -1.928  -8.683  -6.435  1.00  0.00     0.049 A 
ATOM     45  N   UNL     1      -3.957 -11.250  -6.214  1.00  0.00    -0.248 NA
ATOM     46  C   UNL     1      -3.939 -10.225  -4.144  1.00  0.00     0.031 C 
ATOM     47  C   UNL     1      -0.812  -7.749  -6.631  1.00  0.00     0.029 A 
ATOM     48  N   UNL     1      -2.948  -8.065  -7.097  1.00  0.00    -0.354 N 
ATOM     49  C   UNL     1      -5.195 -11.453  -5.609  1.00  0.00     0.074 A 
ATOM     50  C   UNL     1      -5.041 -10.973  -4.261  1.00  0.00     0.031 C 
ATOM     51  C   UNL     1      -1.264  -6.588  -7.149  1.00  0.00     0.029 A 
ATOM     52  C   UNL     1      -2.643  -6.787  -7.543  1.00  0.00     0.049 A 
ATOM     53  H   UNL     1      -3.824  -8.489  -7.245  1.00  0.00     0.167 HD
ATOM     54  C   UNL     1      -6.294 -11.787  -6.348  1.00  0.00     0.034 A 
ATOM     55  C   UNL     1      -3.410  -5.949  -8.277  1.00  0.00     0.034 A 
ATOM     56  C   UNL     1      -5.907 -12.185  -7.687  1.00  0.00     0.049 A 
ATOM     57  C   UNL     1      -4.364  -6.795  -9.026  1.00  0.00     0.074 A 
ATOM     58  C   UNL     1      -5.081 -13.160  -8.216  1.00  0.00     0.029 A 
ATOM     59  N   UNL     1      -6.088 -11.273  -8.704  1.00  0.00    -0.354 N 
ATOM     60  N   UNL     1      -3.989  -7.659  -9.931  1.00  0.00    -0.248 NA
ATOM     61  C   UNL     1      -5.686  -7.022  -8.469  1.00  0.00     0.031 C 
ATOM     62  C   UNL     1      -4.412 -12.520  -9.304  1.00  0.00     0.029 A 
ATOM     63  C   UNL     1      -4.925 -11.226  -9.431  1.00  0.00     0.049 A 
ATOM     64  H   UNL     1      -6.904 -10.751  -8.878  1.00  0.00     0.167 HD
ATOM     65  C   UNL     1      -4.812  -8.757  -9.744  1.00  0.00     0.074 A 
ATOM     66  C   UNL     1      -5.913  -8.258  -8.923  1.00  0.00     0.031 C 
ATOM     67  C   UNL     1      -4.389 -10.022 -10.044  1.00  0.00     0.034 A 
BRANCH  54  68
ATOM     68  C   UNL     1      -7.734 -11.422  -6.024  1.00  0.00     0.023 A 
ATOM     69  C   UNL     1      -8.721 -11.809  -6.957  1.00  0.00     0.031 A 
ATOM     70  C   UNL     1      -8.162 -10.505  -5.041  1.00  0.00     0.131 A 
ATOM     71  C   UNL     1      -9.992 -11.208  -6.969  1.00  0.00     0.055 A 
ATOM     72  C   UNL     1      -9.453  -9.962  -5.013  1.00  0.00     0.041 A 
ATOM     73  F   UNL     1      -7.347 -10.012  -4.103  1.00  0.00    -0.206 F 
ATOM     74  C   UNL     1     -10.365 -10.282  -6.003  1.00  0.00     0.022 A 
BRANCH  71  75
ATOM     75  S   UNL     1     -11.074 -11.513  -8.391  1.00  0.00     0.124 S 
ATOM     76  O   UNL     1     -10.193 -11.176  -9.504  1.00  0.00    -0.237 OA
ATOM     77  O   UNL     1     -11.395 -12.926  -8.226  1.00  0.00    -0.237 OA
ATOM     78  O   UNL     1     -12.186 -10.590  -8.174  1.00  0.00    -0.744 OA
ENDBRANCH  71  75
ENDBRANCH  54  68
BRANCH  55  79
ATOM     79  C   UNL     1      -3.500  -4.481  -8.116  1.00  0.00     0.023 A 
ATOM     80  C   UNL     1      -3.928  -3.624  -9.144  1.00  0.00     0.031 A 
ATOM     81  C   UNL     1      -3.365  -3.921  -6.824  1.00  0.00     0.131 A 
ATOM     82  C   UNL     1      -4.214  -2.271  -8.859  1.00  0.00     0.055 A 
ATOM     83  C   UNL     1      -3.646  -2.582  -6.549  1.00  0.00     0.041 A 
ATOM     84  F   UNL     1      -3.028  -4.682  -5.769  1.00  0.00    -0.206 F 
ATOM     85  C   UNL     1      -4.083  -1.752  -7.567  1.00  0.00     0.022 A 
BRANCH  82  86
ATOM     86  S   UNL     1      -4.853  -1.183 -10.170  1.00  0.00     0.124 S 
ATOM     87  O   UNL     1      -3.721  -1.102 -11.085  1.00  0.00    -0.237 OA
ATOM     88  O   UNL     1      -6.019  -1.921 -10.642  1.00  0.00    -0.237 OA
ATOM     89  O   UNL     1      -5.162   0.060  -9.461  1.00  0.00    -0.744 OA
ENDBRANCH  82  86
ENDBRANCH  55  79
BRANCH  67  90
ATOM     90  C   UNL     1      -3.150 -10.185 -10.905  1.00  0.00     0.023 A 
ATOM     91  C   UNL     1      -1.864  -9.694 -10.580  1.00  0.00     0.031 A 
ATOM     92  C   UNL     1      -3.269 -10.983 -12.057  1.00  0.00     0.131 A 
ATOM     93  C   UNL     1      -0.762 -10.004 -11.403  1.00  0.00     0.055 A 
ATOM     94  C   UNL     1      -2.173 -11.302 -12.858  1.00  0.00     0.041 A 
ATOM     95  F   UNL     1      -4.458 -11.502 -12.405  1.00  0.00    -0.206 F 
ATOM     96  C   UNL     1      -0.915 -10.809 -12.537  1.00  0.00     0.022 A 
BRANCH  93  97
ATOM     97  S   UNL     1       0.898  -9.355 -11.018  1.00  0.00     0.124 S 
ATOM     98  O   UNL     1       0.667  -7.934 -10.788  1.00  0.00    -0.237 OA
ATOM     99  O   UNL     1       1.279 -10.136  -9.843  1.00  0.00    -0.237 OA
ATOM    100  O   UNL     1       1.671  -9.659 -12.223  1.00  0.00    -0.744 OA
ENDBRANCH  93  97
ENDBRANCH  67  90
ENDBRANCH  41  42
ENDBRANCH  33  36
ENDBRANCH  31  32
ENDBRANCH  30  31
ENDBRANCH  29  30
ENDBRANCH   3  29
TORSDOF 18
