REMARK SMILES C[C@@H](C(=O)NCCCNC(=O)c1ccc(-c2c3nc(c(-c4cc(S(=O)(=O)[O-])ccc4F)c4ccc([nH]4)c(-c4cc(S(=O)(=O)[O-])ccc4F)c4nc(c(-c5cc(S(=O)(=O)[O-])ccc5F)c5ccc2[nH]5)C=C4)C=C3)cc1)c1ccc(C[C@H]2CCCC2=O)c(Br)c1
REMARK SMILES IDX 7 1 6 2 5 3 3 4 4 5 2 7 1 8 75 9 76 10 88 11 77 12 86 13
REMARK SMILES IDX 78 14 87 15 79 16 80 17 81 18 84 19 82 20 83 21 85 22 8 23
REMARK SMILES IDX 9 24 10 25 11 27 12 28 13 29 74 30 14 31 73 32 15 33 16 34
REMARK SMILES IDX 17 35 67 36 18 37 72 38 66 39 68 40 19 41 71 42 65 43 64 44
REMARK SMILES IDX 20 46 52 47 32 48 51 49 33 50 36 51 50 52 69 53 34 54 35 55
REMARK SMILES IDX 49 57 70 58 37 59 21 60 22 61 30 62 23 63 29 64 31 65 28 66
REMARK SMILES IDX 24 67 25 68 26 69 27 70 53 71 54 72 62 73 55 74 61 75 63 76
REMARK SMILES IDX 60 77 56 78 57 79 58 80 59 81 38 82 39 83 47 84 40 85 46 86
REMARK SMILES IDX 48 87 45 88 41 89 42 90 43 91 44 92
REMARK H PARENT 5 6 9 26 68 45 36 56
REMARK Flexibility Score: inf
ROOT
ATOM      1  C   UNL     1       4.267   0.563  -1.143  1.00  0.00     0.042 C 
ENDROOT
BRANCH   1   2
ATOM      2  C   UNL     1       3.374   1.791  -0.974  1.00  0.00     0.117 C 
BRANCH   2   3
ATOM      3  N   UNL     1       2.284   1.790  -1.931  1.00  0.00    -0.356 N 
ATOM      4  C   UNL     1       0.979   1.420  -1.788  1.00  0.00     0.227 C 
ATOM      5  O   UNL     1       0.292   1.407  -2.812  1.00  0.00    -0.274 OA
ATOM      6  H   UNL     1       2.526   2.108  -2.831  1.00  0.00     0.163 HD
BRANCH   4   7
ATOM      7  C   UNL     1       0.412   1.097  -0.395  1.00  0.00     0.105 C 
ATOM      8  C   UNL     1       0.969  -0.223   0.150  1.00  0.00     0.023 C 
BRANCH   7   9
ATOM      9  C   UNL     1      -1.117   1.146  -0.389  1.00  0.00    -0.035 A 
ATOM     10  C   UNL     1      -1.761   2.387  -0.477  1.00  0.00     0.005 A 
ATOM     11  C   UNL     1      -1.916  -0.006  -0.333  1.00  0.00     0.020 A 
ATOM     12  C   UNL     1      -3.155   2.471  -0.471  1.00  0.00     0.005 A 
ATOM     13  C   UNL     1      -3.314   0.078  -0.294  1.00  0.00     0.021 A 
ATOM     14  C   UNL     1      -3.957   1.324  -0.336  1.00  0.00    -0.033 A 
ATOM     15  Br  UNL     1      -4.256  -1.571  -0.178  1.00  0.00    -0.051 Br
BRANCH  14  16
ATOM     16  C   UNL     1      -5.456   1.501  -0.235  1.00  0.00     0.048 C 
BRANCH  16  17
ATOM     17  C   UNL     1      -5.991   2.019   1.108  1.00  0.00     0.060 C 
ATOM     18  C   UNL     1      -5.512   1.309   2.378  1.00  0.00     0.012 C 
ATOM     19  C   UNL     1      -5.580   3.449   1.377  1.00  0.00     0.136 C 
ATOM     20  C   UNL     1      -4.361   2.142   2.929  1.00  0.00     0.009 C 
ATOM     21  C   UNL     1      -4.703   3.586   2.592  1.00  0.00     0.076 C 
ATOM     22  O   UNL     1      -5.935   4.400   0.690  1.00  0.00    -0.299 OA
ENDBRANCH  16  17
ENDBRANCH  14  16
ENDBRANCH   7   9
ENDBRANCH   4   7
ENDBRANCH   2   3
ENDBRANCH   1   2
BRANCH   1  23
ATOM     23  C   UNL     1       5.010   0.511  -2.476  1.00  0.00     0.118 C 
BRANCH  23  24
ATOM     24  N   UNL     1       5.970   1.595  -2.619  1.00  0.00    -0.352 N 
ATOM     25  C   UNL     1       7.328   1.552  -2.799  1.00  0.00     0.251 C 
ATOM     26  H   UNL     1       5.583   2.500  -2.580  1.00  0.00     0.163 HD
ATOM     27  O   UNL     1       7.977   2.594  -2.677  1.00  0.00    -0.269 OA
BRANCH  25  28
ATOM     28  C   UNL     1       8.017   0.280  -3.111  1.00  0.00     0.039 A 
ATOM     29  C   UNL     1       9.244   0.013  -2.498  1.00  0.00     0.014 A 
ATOM     30  C   UNL     1       7.482  -0.635  -4.022  1.00  0.00     0.014 A 
ATOM     31  C   UNL     1       9.898  -1.197  -2.745  1.00  0.00     0.010 A 
ATOM     32  C   UNL     1       8.099  -1.872  -4.212  1.00  0.00     0.010 A 
ATOM     33  C   UNL     1       9.312  -2.168  -3.573  1.00  0.00    -0.014 A 
BRANCH  33  34
ATOM     34  C   UNL     1       9.946  -3.501  -3.762  1.00  0.00     0.031 A 
ATOM     35  C   UNL     1      10.428  -3.932  -5.122  1.00  0.00     0.074 A 
ATOM     36  C   UNL     1      10.035  -4.346  -2.714  1.00  0.00     0.049 A 
ATOM     37  N   UNL     1      10.940  -5.077  -5.492  1.00  0.00    -0.248 NA
ATOM     38  C   UNL     1      10.294  -2.954  -6.212  1.00  0.00     0.031 C 
ATOM     39  C   UNL     1       9.574  -4.055  -1.354  1.00  0.00     0.029 A 
ATOM     40  N   UNL     1      10.535  -5.622  -2.625  1.00  0.00    -0.354 N 
ATOM     41  C   UNL     1      11.181  -4.964  -6.858  1.00  0.00     0.074 A 
ATOM     42  C   UNL     1      10.709  -3.655  -7.257  1.00  0.00     0.031 C 
ATOM     43  C   UNL     1       9.833  -5.110  -0.565  1.00  0.00     0.029 A 
ATOM     44  C   UNL     1      10.429  -6.173  -1.367  1.00  0.00     0.049 A 
ATOM     45  H   UNL     1      10.933  -6.098  -3.389  1.00  0.00     0.167 HD
ATOM     46  C   UNL     1      11.758  -5.862  -7.695  1.00  0.00     0.034 A 
ATOM     47  C   UNL     1      10.756  -7.400  -0.915  1.00  0.00     0.034 A 
ATOM     48  C   UNL     1      12.234  -7.159  -7.278  1.00  0.00     0.049 A 
ATOM     49  C   UNL     1      11.364  -8.391  -1.876  1.00  0.00     0.074 A 
ATOM     50  C   UNL     1      12.886  -8.119  -8.033  1.00  0.00     0.029 A 
ATOM     51  N   UNL     1      12.102  -7.685  -6.000  1.00  0.00    -0.354 N 
ATOM     52  N   UNL     1      11.634  -8.245  -3.153  1.00  0.00    -0.248 NA
ATOM     53  C   UNL     1      11.721  -9.708  -1.333  1.00  0.00     0.031 C 
ATOM     54  C   UNL     1      13.079  -9.251  -7.234  1.00  0.00     0.029 A 
ATOM     55  C   UNL     1      12.627  -8.968  -5.956  1.00  0.00     0.049 A 
ATOM     56  H   UNL     1      11.696  -7.215  -5.236  1.00  0.00     0.167 HD
ATOM     57  C   UNL     1      12.225  -9.441  -3.554  1.00  0.00     0.074 A 
ATOM     58  C   UNL     1      12.288 -10.287  -2.381  1.00  0.00     0.031 C 
ATOM     59  C   UNL     1      12.677  -9.806  -4.781  1.00  0.00     0.034 A 
BRANCH  46  60
ATOM     60  C   UNL     1      11.884  -5.483  -9.152  1.00  0.00     0.023 A 
ATOM     61  C   UNL     1      12.685  -4.408  -9.572  1.00  0.00     0.031 A 
ATOM     62  C   UNL     1      11.197  -6.216 -10.137  1.00  0.00     0.131 A 
ATOM     63  C   UNL     1      12.735  -4.059 -10.931  1.00  0.00     0.055 A 
ATOM     64  C   UNL     1      11.312  -5.912 -11.495  1.00  0.00     0.041 A 
ATOM     65  F   UNL     1      10.401  -7.241  -9.796  1.00  0.00    -0.206 F 
ATOM     66  C   UNL     1      12.075  -4.821 -11.898  1.00  0.00     0.022 A 
BRANCH  63  67
ATOM     67  S   UNL     1      13.578  -2.525 -11.403  1.00  0.00     0.124 S 
ATOM     68  O   UNL     1      12.819  -1.528 -10.650  1.00  0.00    -0.237 OA
ATOM     69  O   UNL     1      14.944  -2.762 -10.951  1.00  0.00    -0.237 OA
ATOM     70  O   UNL     1      13.400  -2.467 -12.852  1.00  0.00    -0.744 OA
ENDBRANCH  63  67
ENDBRANCH  46  60
BRANCH  47  71
ATOM     71  C   UNL     1      10.502  -7.781   0.506  1.00  0.00     0.023 A 
ATOM     72  C   UNL     1      11.558  -8.132   1.361  1.00  0.00     0.031 A 
ATOM     73  C   UNL     1       9.191  -7.866   1.011  1.00  0.00     0.131 A 
ATOM     74  C   UNL     1      11.286  -8.609   2.652  1.00  0.00     0.055 A 
ATOM     75  C   UNL     1       8.929  -8.280   2.318  1.00  0.00     0.041 A 
ATOM     76  F   UNL     1       8.142  -7.540   0.239  1.00  0.00    -0.206 F 
ATOM     77  C   UNL     1       9.979  -8.672   3.142  1.00  0.00     0.022 A 
BRANCH  74  78
ATOM     78  S   UNL     1      12.659  -9.257   3.645  1.00  0.00     0.124 S 
ATOM     79  O   UNL     1      13.202 -10.284   2.764  1.00  0.00    -0.237 OA
ATOM     80  O   UNL     1      13.484  -8.068   3.831  1.00  0.00    -0.237 OA
ATOM     81  O   UNL     1      12.001  -9.753   4.852  1.00  0.00    -0.744 OA
ENDBRANCH  74  78
ENDBRANCH  47  71
BRANCH  59  82
ATOM     82  C   UNL     1      13.325 -11.165  -4.897  1.00  0.00     0.023 A 
ATOM     83  C   UNL     1      12.597 -12.353  -4.710  1.00  0.00     0.031 A 
ATOM     84  C   UNL     1      14.698 -11.270  -5.185  1.00  0.00     0.131 A 
ATOM     85  C   UNL     1      13.256 -13.591  -4.752  1.00  0.00     0.055 A 
ATOM     86  C   UNL     1      15.335 -12.507  -5.292  1.00  0.00     0.041 A 
ATOM     87  F   UNL     1      15.444 -10.169  -5.370  1.00  0.00    -0.206 F 
ATOM     88  C   UNL     1      14.616 -13.676  -5.061  1.00  0.00     0.022 A 
BRANCH  85  89
ATOM     89  S   UNL     1      12.332 -15.085  -4.301  1.00  0.00     0.124 S 
ATOM     90  O   UNL     1      11.895 -14.773  -2.944  1.00  0.00    -0.237 OA
ATOM     91  O   UNL     1      11.284 -15.123  -5.315  1.00  0.00    -0.237 OA
ATOM     92  O   UNL     1      13.330 -16.149  -4.401  1.00  0.00    -0.744 OA
ENDBRANCH  85  89
ENDBRANCH  59  82
ENDBRANCH  33  34
ENDBRANCH  25  28
ENDBRANCH  23  24
ENDBRANCH   1  23
TORSDOF 16
