REMARK SMILES O=C(NCCCNC(=O)c1ccc2c(=O)[nH]c(N3CC[NH2+]CC3)nc2c1)c1ccc(-c2c3nc(c(-c4cc(S(=O)(=O)[O-])ccc4F)c4ccc([nH]4)c(-c4cc(S(=O)(=O)[O-])ccc4F)c4nc(c(-c5cc(S(=O)(=O)[O-])ccc5F)c5ccc2[nH]5)C=C4)C=C3)cc1
REMARK SMILES IDX 4 1 3 2 1 3 2 4 27 6 28 7 89 8 29 9 88 10 30 11 31 12 32 13
REMARK SMILES IDX 82 14 33 15 87 16 81 17 83 18 34 19 86 20 80 21 79 22 35 24
REMARK SMILES IDX 67 25 47 26 66 27 48 28 51 29 65 30 84 31 49 32 50 33 64 35
REMARK SMILES IDX 85 36 52 37 36 38 37 39 45 40 38 41 44 42 46 43 43 44 39 45
REMARK SMILES IDX 40 46 41 47 42 48 68 49 69 50 77 51 70 52 76 53 78 54 75 55
REMARK SMILES IDX 71 56 72 57 73 58 74 59 53 60 54 61 62 62 55 63 61 64 63 65
REMARK SMILES IDX 60 66 56 67 57 68 58 69 59 70 5 71 6 72 7 73 8 74 9 76 10 77
REMARK SMILES IDX 11 78 26 79 12 80 25 81 13 82 24 83 14 84 17 85 15 86 16 87
REMARK SMILES IDX 18 89 19 90 23 91 20 92 22 93 21 94
REMARK H PARENT 3 5 83 23 51 34 7 75 16 88 21 95 21 96
REMARK Flexibility Score: inf
ROOT
ATOM      1  C   UNL     1       4.683  -1.033   0.850  1.00  0.00     0.118 C 
ENDROOT
BRANCH   1   2
ATOM      2  N   UNL     1       3.246  -1.012   0.611  1.00  0.00    -0.352 N 
ATOM      3  O   UNL     1       1.250  -0.184   0.009  1.00  0.00    -0.269 OA
ATOM      4  C   UNL     1       2.473  -0.129  -0.100  1.00  0.00     0.251 C 
ATOM      5  H   UNL     1       2.749  -1.752   1.027  1.00  0.00     0.163 HD
BRANCH   4   6
ATOM      6  C   UNL     1       3.092   0.887  -0.980  1.00  0.00     0.039 A 
ATOM      7  C   UNL     1       4.171   0.568  -1.808  1.00  0.00     0.014 A 
ATOM      8  C   UNL     1       2.540   2.171  -1.019  1.00  0.00     0.014 A 
ATOM      9  C   UNL     1       4.782   1.560  -2.571  1.00  0.00     0.010 A 
ATOM     10  C   UNL     1       3.104   3.145  -1.847  1.00  0.00     0.010 A 
ATOM     11  C   UNL     1       4.247   2.855  -2.610  1.00  0.00    -0.014 A 
BRANCH  11  12
ATOM     12  C   UNL     1       4.857   3.894  -3.478  1.00  0.00     0.031 A 
ATOM     13  C   UNL     1       5.466   5.128  -2.875  1.00  0.00     0.074 A 
ATOM     14  C   UNL     1       4.829   3.737  -4.815  1.00  0.00     0.049 A 
ATOM     15  N   UNL     1       5.943   6.192  -3.468  1.00  0.00    -0.248 NA
ATOM     16  C   UNL     1       5.532   5.175  -1.408  1.00  0.00     0.031 C 
ATOM     17  C   UNL     1       4.270   2.578  -5.513  1.00  0.00     0.029 A 
ATOM     18  N   UNL     1       5.264   4.557  -5.824  1.00  0.00    -0.354 N 
ATOM     19  C   UNL     1       6.347   7.048  -2.449  1.00  0.00     0.074 A 
ATOM     20  C   UNL     1       6.020   6.388  -1.200  1.00  0.00     0.031 C 
ATOM     21  C   UNL     1       4.397   2.760  -6.835  1.00  0.00     0.029 A 
ATOM     22  C   UNL     1       4.980   4.075  -7.080  1.00  0.00     0.049 A 
ATOM     23  H   UNL     1       5.734   5.408  -5.666  1.00  0.00     0.167 HD
ATOM     24  C   UNL     1       6.939   8.265  -2.550  1.00  0.00     0.034 A 
ATOM     25  C   UNL     1       5.126   4.642  -8.293  1.00  0.00     0.034 A 
ATOM     26  C   UNL     1       7.245   8.904  -3.809  1.00  0.00     0.049 A 
ATOM     27  C   UNL     1       5.722   6.019  -8.387  1.00  0.00     0.074 A 
ATOM     28  C   UNL     1       7.873  10.117  -4.032  1.00  0.00     0.029 A 
ATOM     29  N   UNL     1       6.927   8.390  -5.061  1.00  0.00    -0.354 N 
ATOM     30  N   UNL     1       6.114   6.814  -7.417  1.00  0.00    -0.248 NA
ATOM     31  C   UNL     1       5.901   6.576  -9.733  1.00  0.00     0.031 C 
ATOM     32  C   UNL     1       7.865  10.372  -5.408  1.00  0.00     0.029 A 
ATOM     33  C   UNL     1       7.312   9.278  -6.055  1.00  0.00     0.049 A 
ATOM     34  H   UNL     1       6.491   7.522  -5.220  1.00  0.00     0.167 HD
ATOM     35  C   UNL     1       6.614   7.953  -8.039  1.00  0.00     0.074 A 
ATOM     36  C   UNL     1       6.471   7.744  -9.466  1.00  0.00     0.031 C 
ATOM     37  C   UNL     1       7.156   9.063  -7.477  1.00  0.00     0.034 A 
BRANCH  24  38
ATOM     38  C   UNL     1       7.233   9.000  -1.261  1.00  0.00     0.023 A 
ATOM     39  C   UNL     1       8.097   8.471  -0.286  1.00  0.00     0.031 A 
ATOM     40  C   UNL     1       6.595  10.221  -0.976  1.00  0.00     0.131 A 
ATOM     41  C   UNL     1       8.220   9.104   0.961  1.00  0.00     0.055 A 
ATOM     42  C   UNL     1       6.795  10.895   0.231  1.00  0.00     0.041 A 
ATOM     43  F   UNL     1       5.743  10.770  -1.857  1.00  0.00    -0.206 F 
ATOM     44  C   UNL     1       7.595  10.326   1.217  1.00  0.00     0.022 A 
BRANCH  41  45
ATOM     45  S   UNL     1       9.053   8.211   2.304  1.00  0.00     0.124 S 
ATOM     46  O   UNL     1       8.309   6.953   2.331  1.00  0.00    -0.237 OA
ATOM     47  O   UNL     1      10.427   8.130   1.824  1.00  0.00    -0.237 OA
ATOM     48  O   UNL     1       8.846   9.071   3.467  1.00  0.00    -0.744 OA
ENDBRANCH  41  45
ENDBRANCH  24  38
BRANCH  25  49
ATOM     49  C   UNL     1       4.648   3.916  -9.502  1.00  0.00     0.023 A 
ATOM     50  C   UNL     1       5.545   3.425 -10.461  1.00  0.00     0.031 A 
ATOM     51  C   UNL     1       3.274   3.680  -9.696  1.00  0.00     0.131 A 
ATOM     52  C   UNL     1       5.056   2.736 -11.582  1.00  0.00     0.055 A 
ATOM     53  C   UNL     1       2.796   2.955 -10.787  1.00  0.00     0.041 A 
ATOM     54  F   UNL     1       2.377   4.121  -8.799  1.00  0.00    -0.206 F 
ATOM     55  C   UNL     1       3.690   2.484 -11.743  1.00  0.00     0.022 A 
BRANCH  52  56
ATOM     56  S   UNL     1       6.231   2.203 -12.855  1.00  0.00     0.124 S 
ATOM     57  O   UNL     1       6.790   3.476 -13.296  1.00  0.00    -0.237 OA
ATOM     58  O   UNL     1       7.128   1.336 -12.098  1.00  0.00    -0.237 OA
ATOM     59  O   UNL     1       5.387   1.519 -13.833  1.00  0.00    -0.744 OA
ENDBRANCH  52  56
ENDBRANCH  25  49
BRANCH  37  60
ATOM     60  C   UNL     1       7.697  10.117  -8.411  1.00  0.00     0.023 A 
ATOM     61  C   UNL     1       6.857  10.919  -9.202  1.00  0.00     0.031 A 
ATOM     62  C   UNL     1       9.085  10.335  -8.485  1.00  0.00     0.131 A 
ATOM     63  C   UNL     1       7.417  11.883 -10.056  1.00  0.00     0.055 A 
ATOM     64  C   UNL     1       9.632  11.328  -9.297  1.00  0.00     0.041 A 
ATOM     65  F   UNL     1       9.932   9.593  -7.753  1.00  0.00    -0.206 F 
ATOM     66  C   UNL     1       8.796  12.105 -10.094  1.00  0.00     0.022 A 
BRANCH  63  67
ATOM     67  S   UNL     1       6.322  12.816 -11.163  1.00  0.00     0.124 S 
ATOM     68  O   UNL     1       5.752  11.756 -11.987  1.00  0.00    -0.237 OA
ATOM     69  O   UNL     1       5.406  13.461 -10.228  1.00  0.00    -0.237 OA
ATOM     70  O   UNL     1       7.232  13.722 -11.861  1.00  0.00    -0.744 OA
ENDBRANCH  63  67
ENDBRANCH  37  60
ENDBRANCH  11  12
ENDBRANCH   4   6
ENDBRANCH   1   2
BRANCH   1  71
ATOM     71  C   UNL     1       5.040  -0.697   2.292  1.00  0.00     0.042 C 
BRANCH  71  72
ATOM     72  C   UNL     1       4.457  -1.659   3.317  1.00  0.00     0.118 C 
BRANCH  72  73
ATOM     73  N   UNL     1       4.957  -3.018   3.157  1.00  0.00    -0.352 N 
ATOM     74  C   UNL     1       5.837  -3.723   3.939  1.00  0.00     0.251 C 
ATOM     75  H   UNL     1       4.613  -3.502   2.371  1.00  0.00     0.163 HD
ATOM     76  O   UNL     1       6.276  -4.806   3.566  1.00  0.00    -0.269 OA
BRANCH  74  77
ATOM     77  C   UNL     1       6.252  -3.176   5.244  1.00  0.00     0.041 A 
ATOM     78  C   UNL     1       5.286  -2.803   6.187  1.00  0.00     0.015 A 
ATOM     79  C   UNL     1       7.618  -3.067   5.532  1.00  0.00     0.043 A 
ATOM     80  C   UNL     1       5.686  -2.240   7.393  1.00  0.00     0.017 A 
ATOM     81  C   UNL     1       8.030  -2.521   6.749  1.00  0.00     0.081 A 
ATOM     82  C   UNL     1       7.051  -2.103   7.657  1.00  0.00     0.066 A 
ATOM     83  N   UNL     1       9.405  -2.422   7.027  1.00  0.00    -0.214 NA
ATOM     84  C   UNL     1       7.509  -1.523   8.924  1.00  0.00     0.260 A 
ATOM     85  C   UNL     1       9.774  -1.960   8.181  1.00  0.00     0.206 A 
ATOM     86  O   UNL     1       6.733  -1.083   9.762  1.00  0.00    -0.269 OA
ATOM     87  N   UNL     1       8.864  -1.517   9.102  1.00  0.00    -0.292 N 
ATOM     88  H   UNL     1       9.211  -1.170   9.956  1.00  0.00     0.173 HD
BRANCH  85  89
ATOM     89  N   UNL     1      11.083  -1.852   8.559  1.00  0.00    -0.331 N 
ATOM     90  C   UNL     1      12.121  -1.417   7.622  1.00  0.00     0.181 C 
ATOM     91  C   UNL     1      11.594  -2.408   9.812  1.00  0.00     0.181 C 
ATOM     92  C   UNL     1      13.065  -0.423   8.342  1.00  0.00     0.282 C 
ATOM     93  C   UNL     1      12.544  -1.401  10.485  1.00  0.00     0.282 C 
ATOM     94  N   UNL     1      13.641  -0.952   9.603  1.00  0.00    -0.343 N 
ATOM     95  H   UNL     1      14.175  -0.218  10.069  1.00  0.00     0.346 HD
ATOM     96  H   UNL     1      14.258  -1.738   9.396  1.00  0.00     0.346 HD
ENDBRANCH  85  89
ENDBRANCH  74  77
ENDBRANCH  72  73
ENDBRANCH  71  72
ENDBRANCH   1  71
TORSDOF 14
