REMARK SMILES O=C(NCCCNC(=O)c1ccc(-c2c3nc(c(-c4cc(S(=O)(=O)[O-])ccc4F)c4ccc([nH]4)c(-c4cc(S(=O)(=O)[O-])ccc4F)c4nc(c(-c5cc(S(=O)(=O)[O-])ccc5F)c5ccc2[nH]5)C=C4)C=C3)cc1)C1=NN(c2ccc([N+](=O)[O-])cc2)[C@H](c2ccccc2)C1
REMARK SMILES IDX 5 1 4 2 3 3 1 4 2 5 73 7 74 8 92 9 75 10 85 11 76 12 77 13
REMARK SMILES IDX 84 14 78 15 83 16 79 17 80 18 81 19 82 20 86 21 87 22 91 23
REMARK SMILES IDX 88 24 90 25 89 26 6 27 7 28 8 29 9 31 10 32 11 33 72 34
REMARK SMILES IDX 12 35 71 36 13 37 14 38 15 39 65 40 16 41 70 42 64 43 66 44
REMARK SMILES IDX 17 45 69 46 63 47 62 48 18 50 50 51 30 52 49 53 31 54 34 55
REMARK SMILES IDX 48 56 67 57 32 58 33 59 47 61 68 62 35 63 19 64 20 65 28 66
REMARK SMILES IDX 21 67 27 68 29 69 26 70 22 71 23 72 24 73 25 74 51 75 52 76
REMARK SMILES IDX 60 77 53 78 59 79 61 80 58 81 54 82 55 83 56 84 57 85 36 86
REMARK SMILES IDX 37 87 45 88 38 89 44 90 46 91 43 92 39 93 40 94 41 95 42 96
REMARK H PARENT 3 6 7 30 66 49 34 60
REMARK Flexibility Score: inf
ROOT
ATOM      1  C   UNL     1       4.966   1.682   1.472  1.00  0.00     0.042 C 
ENDROOT
BRANCH   1   2
ATOM      2  C   UNL     1       4.471   0.254   1.292  1.00  0.00     0.118 C 
BRANCH   2   3
ATOM      3  N   UNL     1       3.030   0.176   1.073  1.00  0.00    -0.351 N 
ATOM      4  O   UNL     1       1.127  -0.266  -0.104  1.00  0.00    -0.268 OA
ATOM      5  C   UNL     1       2.355  -0.244  -0.046  1.00  0.00     0.267 C 
ATOM      6  H   UNL     1       2.467   0.463   1.828  1.00  0.00     0.163 HD
BRANCH   5   7
ATOM      7  C   UNL     1       3.132  -0.646  -1.266  1.00  0.00     0.128 C 
ATOM      8  N   UNL     1       4.189  -1.391  -1.211  1.00  0.00    -0.171 NA
ATOM      9  C   UNL     1       2.674  -0.238  -2.625  1.00  0.00     0.096 C 
ATOM     10  N   UNL     1       4.732  -1.364  -2.451  1.00  0.00    -0.257 N 
ATOM     11  C   UNL     1       3.894  -0.680  -3.454  1.00  0.00     0.144 C 
BRANCH  10  12
ATOM     12  C   UNL     1       5.820  -2.183  -2.696  1.00  0.00     0.061 A 
ATOM     13  C   UNL     1       5.744  -3.564  -2.459  1.00  0.00     0.035 A 
ATOM     14  C   UNL     1       7.053  -1.649  -3.096  1.00  0.00     0.035 A 
ATOM     15  C   UNL     1       6.845  -4.399  -2.671  1.00  0.00     0.088 A 
ATOM     16  C   UNL     1       8.164  -2.467  -3.319  1.00  0.00     0.088 A 
ATOM     17  C   UNL     1       8.051  -3.845  -3.114  1.00  0.00     0.269 A 
BRANCH  17  18
ATOM     18  N   UNL     1       9.204  -4.715  -3.366  1.00  0.00     0.062 N 
ATOM     19  O   UNL     1       9.108  -5.909  -3.046  1.00  0.00    -0.258 OA
ATOM     20  O   UNL     1      10.201  -4.211  -3.904  1.00  0.00    -0.258 OA
ENDBRANCH  17  18
ENDBRANCH  10  12
BRANCH  11  21
ATOM     21  C   UNL     1       4.627   0.413  -4.219  1.00  0.00    -0.023 A 
ATOM     22  C   UNL     1       4.552   1.779  -3.903  1.00  0.00     0.006 A 
ATOM     23  C   UNL     1       5.441   0.041  -5.307  1.00  0.00     0.006 A 
ATOM     24  C   UNL     1       5.259   2.730  -4.647  1.00  0.00     0.000 A 
ATOM     25  C   UNL     1       6.182   0.985  -6.021  1.00  0.00     0.000 A 
ATOM     26  C   UNL     1       6.084   2.332  -5.695  1.00  0.00     0.000 A 
ENDBRANCH  11  21
ENDBRANCH   5   7
ENDBRANCH   2   3
ENDBRANCH   1   2
BRANCH   1  27
ATOM     27  C   UNL     1       4.474   2.359   2.744  1.00  0.00     0.118 C 
BRANCH  27  28
ATOM     28  N   UNL     1       4.928   1.687   3.953  1.00  0.00    -0.352 N 
ATOM     29  C   UNL     1       5.709   2.140   4.989  1.00  0.00     0.251 C 
ATOM     30  H   UNL     1       4.625   0.755   4.044  1.00  0.00     0.163 HD
ATOM     31  O   UNL     1       6.112   1.334   5.824  1.00  0.00    -0.269 OA
BRANCH  29  32
ATOM     32  C   UNL     1       6.090   3.567   5.090  1.00  0.00     0.039 A 
ATOM     33  C   UNL     1       7.386   3.889   5.501  1.00  0.00     0.014 A 
ATOM     34  C   UNL     1       5.178   4.588   4.809  1.00  0.00     0.014 A 
ATOM     35  C   UNL     1       7.788   5.227   5.556  1.00  0.00     0.010 A 
ATOM     36  C   UNL     1       5.604   5.914   4.782  1.00  0.00     0.010 A 
ATOM     37  C   UNL     1       6.914   6.250   5.155  1.00  0.00    -0.014 A 
BRANCH  37  38
ATOM     38  C   UNL     1       7.352   7.671   5.117  1.00  0.00     0.031 A 
ATOM     39  C   UNL     1       6.682   8.695   5.992  1.00  0.00     0.074 A 
ATOM     40  C   UNL     1       8.309   8.050   4.246  1.00  0.00     0.049 A 
ATOM     41  N   UNL     1       6.864   9.990   6.041  1.00  0.00    -0.248 NA
ATOM     42  C   UNL     1       5.649   8.199   6.913  1.00  0.00     0.031 C 
ATOM     43  C   UNL     1       9.009   7.158   3.319  1.00  0.00     0.029 A 
ATOM     44  N   UNL     1       8.854   9.284   3.991  1.00  0.00    -0.354 N 
ATOM     45  C   UNL     1       5.962  10.466   6.987  1.00  0.00     0.074 A 
ATOM     46  C   UNL     1       5.190   9.326   7.436  1.00  0.00     0.031 C 
ATOM     47  C   UNL     1       9.906   7.869   2.618  1.00  0.00     0.029 A 
ATOM     48  C   UNL     1       9.813   9.273   3.005  1.00  0.00     0.049 A 
ATOM     49  H   UNL     1       8.584  10.101   4.470  1.00  0.00     0.167 HD
ATOM     50  C   UNL     1       5.808  11.730   7.455  1.00  0.00     0.034 A 
ATOM     51  C   UNL     1      10.527  10.279   2.461  1.00  0.00     0.034 A 
ATOM     52  C   UNL     1       6.592  12.854   7.003  1.00  0.00     0.049 A 
ATOM     53  C   UNL     1      10.312  11.682   2.970  1.00  0.00     0.074 A 
ATOM     54  C   UNL     1       6.558  14.165   7.449  1.00  0.00     0.029 A 
ATOM     55  N   UNL     1       7.547  12.806   5.994  1.00  0.00    -0.354 N 
ATOM     56  N   UNL     1       9.488  12.107   3.900  1.00  0.00    -0.248 NA
ATOM     57  C   UNL     1      11.130  12.738   2.360  1.00  0.00     0.031 C 
ATOM     58  C   UNL     1       7.434  14.921   6.662  1.00  0.00     0.029 A 
ATOM     59  C   UNL     1       8.079  14.070   5.779  1.00  0.00     0.049 A 
ATOM     60  H   UNL     1       7.808  11.994   5.504  1.00  0.00     0.167 HD
ATOM     61  C   UNL     1       9.711  13.478   4.005  1.00  0.00     0.074 A 
ATOM     62  C   UNL     1      10.757  13.802   3.057  1.00  0.00     0.031 C 
ATOM     63  C   UNL     1       9.109  14.385   4.817  1.00  0.00     0.034 A 
BRANCH  50  64
ATOM     64  C   UNL     1       4.730  11.961   8.490  1.00  0.00     0.023 A 
ATOM     65  C   UNL     1       4.764  11.329   9.746  1.00  0.00     0.031 A 
ATOM     66  C   UNL     1       3.636  12.798   8.208  1.00  0.00     0.131 A 
ATOM     67  C   UNL     1       3.688  11.474  10.634  1.00  0.00     0.055 A 
ATOM     68  C   UNL     1       2.611  13.009   9.133  1.00  0.00     0.041 A 
ATOM     69  F   UNL     1       3.535  13.414   7.019  1.00  0.00    -0.206 F 
ATOM     70  C   UNL     1       2.624  12.331  10.348  1.00  0.00     0.022 A 
BRANCH  67  71
ATOM     71  S   UNL     1       3.625  10.403  12.097  1.00  0.00     0.124 S 
ATOM     72  O   UNL     1       3.654   9.074  11.491  1.00  0.00    -0.237 OA
ATOM     73  O   UNL     1       4.822  10.799  12.830  1.00  0.00    -0.237 OA
ATOM     74  O   UNL     1       2.357  10.762  12.730  1.00  0.00    -0.744 OA
ENDBRANCH  67  71
ENDBRANCH  50  64
BRANCH  51  75
ATOM     75  C   UNL     1      11.501  10.007   1.366  1.00  0.00     0.023 A 
ATOM     76  C   UNL     1      12.875  10.226   1.550  1.00  0.00     0.031 A 
ATOM     77  C   UNL     1      11.068   9.560   0.104  1.00  0.00     0.131 A 
ATOM     78  C   UNL     1      13.763  10.043   0.479  1.00  0.00     0.055 A 
ATOM     79  C   UNL     1      11.962   9.326  -0.942  1.00  0.00     0.041 A 
ATOM     80  F   UNL     1       9.765   9.331  -0.125  1.00  0.00    -0.206 F 
ATOM     81  C   UNL     1      13.318   9.581  -0.761  1.00  0.00     0.022 A 
BRANCH  78  82
ATOM     82  S   UNL     1      15.504  10.497   0.707  1.00  0.00     0.124 S 
ATOM     83  O   UNL     1      15.398  11.909   1.058  1.00  0.00    -0.237 OA
ATOM     84  O   UNL     1      15.914   9.597   1.780  1.00  0.00    -0.237 OA
ATOM     85  O   UNL     1      16.101  10.221  -0.598  1.00  0.00    -0.744 OA
ENDBRANCH  78  82
ENDBRANCH  51  75
BRANCH  63  86
ATOM     86  C   UNL     1       9.601  15.810   4.734  1.00  0.00     0.023 A 
ATOM     87  C   UNL     1       9.417  16.592   3.580  1.00  0.00     0.031 A 
ATOM     88  C   UNL     1      10.277  16.390   5.823  1.00  0.00     0.131 A 
ATOM     89  C   UNL     1       9.953  17.888   3.520  1.00  0.00     0.055 A 
ATOM     90  C   UNL     1      10.751  17.701   5.781  1.00  0.00     0.041 A 
ATOM     91  F   UNL     1      10.484  15.689   6.950  1.00  0.00    -0.206 F 
ATOM     92  C   UNL     1      10.602  18.454   4.620  1.00  0.00     0.022 A 
BRANCH  89  93
ATOM     93  S   UNL     1       9.871  18.793   1.950  1.00  0.00     0.124 S 
ATOM     94  O   UNL     1      10.585  17.897   1.046  1.00  0.00    -0.237 OA
ATOM     95  O   UNL     1       8.433  18.906   1.729  1.00  0.00    -0.237 OA
ATOM     96  O   UNL     1      10.554  20.051   2.243  1.00  0.00    -0.744 OA
ENDBRANCH  89  93
ENDBRANCH  63  86
ENDBRANCH  37  38
ENDBRANCH  29  32
ENDBRANCH  27  28
ENDBRANCH   1  27
TORSDOF 16
