REMARK SMILES O=C(NCCCNC(=O)c1ccc([C@H]2Nc3ccc(Cl)cc3[C@@H]3C=CC[C@@H]23)cc1)c1ccc(-c2c3nc(c(-c4cc(S(=O)(=O)[O-])ccc4F)c4ccc([nH]4)c(-c4cc(S(=O)(=O)[O-])ccc4F)c4nc(c(-c5cc(S(=O)(=O)[O-])ccc5F)c5ccc2[nH]5)C=C4)C=C3)cc1
REMARK SMILES IDX 4 1 3 2 1 3 2 4 30 6 31 7 92 8 32 9 91 10 33 11 34 12 35 13
REMARK SMILES IDX 85 14 36 15 90 16 84 17 86 18 37 19 89 20 83 21 82 22 38 24
REMARK SMILES IDX 70 25 50 26 69 27 51 28 54 29 68 30 87 31 52 32 53 33 67 35
REMARK SMILES IDX 88 36 55 37 39 38 40 39 48 40 41 41 47 42 49 43 46 44 42 45
REMARK SMILES IDX 43 46 44 47 45 48 71 49 72 50 80 51 73 52 79 53 81 54 78 55
REMARK SMILES IDX 74 56 75 57 76 58 77 59 56 60 57 61 65 62 58 63 64 64 66 65
REMARK SMILES IDX 63 66 59 67 60 68 61 69 62 70 5 71 6 72 7 73 8 74 9 76 10 77
REMARK SMILES IDX 11 78 29 79 12 80 28 81 13 82 14 83 15 84 27 85 16 86 23 88
REMARK SMILES IDX 26 89 17 90 22 91 24 92 25 93 18 94 21 95 19 96 20 97
REMARK H PARENT 3 5 86 23 54 34 7 75 15 87
REMARK Flexibility Score: inf
ROOT
ATOM      1  C   UNL     1       4.614  -1.163   0.591  1.00  0.00     0.118 C 
ENDROOT
BRANCH   1   2
ATOM      2  N   UNL     1       3.176  -1.044   0.398  1.00  0.00    -0.352 N 
ATOM      3  O   UNL     1       1.193  -0.089  -0.056  1.00  0.00    -0.269 OA
ATOM      4  C   UNL     1       2.422  -0.018  -0.121  1.00  0.00     0.251 C 
ATOM      5  H   UNL     1       2.656  -1.829   0.686  1.00  0.00     0.163 HD
BRANCH   4   6
ATOM      6  C   UNL     1       3.055   1.175  -0.730  1.00  0.00     0.039 A 
ATOM      7  C   UNL     1       4.145   1.064  -1.596  1.00  0.00     0.014 A 
ATOM      8  C   UNL     1       2.513   2.436  -0.462  1.00  0.00     0.014 A 
ATOM      9  C   UNL     1       4.782   2.211  -2.070  1.00  0.00     0.010 A 
ATOM     10  C   UNL     1       3.102   3.583  -1.005  1.00  0.00     0.010 A 
ATOM     11  C   UNL     1       4.265   3.483  -1.787  1.00  0.00    -0.014 A 
BRANCH  11  12
ATOM     12  C   UNL     1       4.924   4.702  -2.330  1.00  0.00     0.031 A 
ATOM     13  C   UNL     1       5.520   5.728  -1.405  1.00  0.00     0.074 A 
ATOM     14  C   UNL     1       4.973   4.892  -3.663  1.00  0.00     0.049 A 
ATOM     15  N   UNL     1       6.061   6.886  -1.688  1.00  0.00    -0.248 NA
ATOM     16  C   UNL     1       5.493   5.412   0.029  1.00  0.00     0.031 C 
ATOM     17  C   UNL     1       4.442   3.965  -4.664  1.00  0.00     0.029 A 
ATOM     18  N   UNL     1       5.487   5.925  -4.407  1.00  0.00    -0.354 N 
ATOM     19  C   UNL     1       6.421   7.449  -0.468  1.00  0.00     0.074 A 
ATOM     20  C   UNL     1       5.997   6.517   0.558  1.00  0.00     0.031 C 
ATOM     21  C   UNL     1       4.672   4.462  -5.888  1.00  0.00     0.029 A 
ATOM     22  C   UNL     1       5.298   5.773  -5.761  1.00  0.00     0.049 A 
ATOM     23  H   UNL     1       5.948   6.699  -4.010  1.00  0.00     0.167 HD
ATOM     24  C   UNL     1       7.052   8.628  -0.228  1.00  0.00     0.034 A 
ATOM     25  C   UNL     1       5.559   6.609  -6.785  1.00  0.00     0.034 A 
ATOM     26  C   UNL     1       7.456   9.547  -1.268  1.00  0.00     0.049 A 
ATOM     27  C   UNL     1       6.190   7.944  -6.496  1.00  0.00     0.074 A 
ATOM     28  C   UNL     1       8.123  10.754  -1.140  1.00  0.00     0.029 A 
ATOM     29  N   UNL     1       7.216   9.373  -2.626  1.00  0.00    -0.354 N 
ATOM     30  N   UNL     1       6.533   8.461  -5.338  1.00  0.00    -0.248 NA
ATOM     31  C   UNL     1       6.475   8.807  -7.649  1.00  0.00     0.031 C 
ATOM     32  C   UNL     1       8.209  11.346  -2.405  1.00  0.00     0.029 A 
ATOM     33  C   UNL     1       7.686  10.467  -3.340  1.00  0.00     0.049 A 
ATOM     34  H   UNL     1       6.775   8.588  -3.024  1.00  0.00     0.167 HD
ATOM     35  C   UNL     1       7.106   9.696  -5.628  1.00  0.00     0.074 A 
ATOM     36  C   UNL     1       7.063   9.844  -7.069  1.00  0.00     0.031 C 
ATOM     37  C   UNL     1       7.633  10.614  -4.778  1.00  0.00     0.034 A 
BRANCH  24  38
ATOM     38  C   UNL     1       7.287   9.009   1.218  1.00  0.00     0.023 A 
ATOM     39  C   UNL     1       8.071   8.218   2.077  1.00  0.00     0.031 A 
ATOM     40  C   UNL     1       6.678  10.155   1.760  1.00  0.00     0.131 A 
ATOM     41  C   UNL     1       8.145   8.527   3.444  1.00  0.00     0.055 A 
ATOM     42  C   UNL     1       6.835  10.511   3.102  1.00  0.00     0.041 A 
ATOM     43  F   UNL     1       5.900  10.941   1.000  1.00  0.00    -0.206 F 
ATOM     44  C   UNL     1       7.555   9.684   3.958  1.00  0.00     0.022 A 
BRANCH  41  45
ATOM     45  S   UNL     1       8.862   7.297   4.570  1.00  0.00     0.124 S 
ATOM     46  O   UNL     1       8.054   6.116   4.272  1.00  0.00    -0.237 OA
ATOM     47  O   UNL     1      10.252   7.245   4.136  1.00  0.00    -0.237 OA
ATOM     48  O   UNL     1       8.639   7.873   5.894  1.00  0.00    -0.744 OA
ENDBRANCH  41  45
ENDBRANCH  24  38
BRANCH  25  49
ATOM     49  C   UNL     1       5.181   6.217  -8.173  1.00  0.00     0.023 A 
ATOM     50  C   UNL     1       6.155   5.997  -9.159  1.00  0.00     0.031 A 
ATOM     51  C   UNL     1       3.829   6.057  -8.531  1.00  0.00     0.131 A 
ATOM     52  C   UNL     1       5.762   5.656 -10.462  1.00  0.00     0.055 A 
ATOM     53  C   UNL     1       3.447   5.665  -9.814  1.00  0.00     0.041 A 
ATOM     54  F   UNL     1       2.859   6.253  -7.624  1.00  0.00    -0.206 F 
ATOM     55  C   UNL     1       4.417   5.471 -10.792  1.00  0.00     0.022 A 
BRANCH  52  56
ATOM     56  S   UNL     1       7.036   5.517 -11.745  1.00  0.00     0.124 S 
ATOM     57  O   UNL     1       7.614   6.856 -11.735  1.00  0.00    -0.237 OA
ATOM     58  O   UNL     1       7.880   4.449 -11.220  1.00  0.00    -0.237 OA
ATOM     59  O   UNL     1       6.275   5.174 -12.945  1.00  0.00    -0.744 OA
ENDBRANCH  52  56
ENDBRANCH  25  49
BRANCH  37  60
ATOM     60  C   UNL     1       8.271  11.838  -5.389  1.00  0.00     0.023 A 
ATOM     61  C   UNL     1       7.523  12.816  -6.068  1.00  0.00     0.031 A 
ATOM     62  C   UNL     1       9.661  12.031  -5.276  1.00  0.00     0.131 A 
ATOM     63  C   UNL     1       8.175  13.919  -6.643  1.00  0.00     0.055 A 
ATOM     64  C   UNL     1      10.294  13.159  -5.796  1.00  0.00     0.041 A 
ATOM     65  F   UNL     1      10.426  11.126  -4.645  1.00  0.00    -0.206 F 
ATOM     66  C   UNL     1       9.552  14.107  -6.494  1.00  0.00     0.022 A 
BRANCH  63  67
ATOM     67  S   UNL     1       7.213  15.072  -7.661  1.00  0.00     0.124 S 
ATOM     68  O   UNL     1       6.692  14.194  -8.704  1.00  0.00    -0.237 OA
ATOM     69  O   UNL     1       6.232  15.586  -6.711  1.00  0.00    -0.237 OA
ATOM     70  O   UNL     1       8.207  16.046  -8.111  1.00  0.00    -0.744 OA
ENDBRANCH  63  67
ENDBRANCH  37  60
ENDBRANCH  11  12
ENDBRANCH   4   6
ENDBRANCH   1   2
BRANCH   1  71
ATOM     71  C   UNL     1       5.032  -1.195   2.057  1.00  0.00     0.042 C 
BRANCH  71  72
ATOM     72  C   UNL     1       4.514  -2.374   2.876  1.00  0.00     0.118 C 
BRANCH  72  73
ATOM     73  N   UNL     1       4.886  -3.677   2.342  1.00  0.00    -0.352 N 
ATOM     74  C   UNL     1       5.492  -4.776   2.901  1.00  0.00     0.251 C 
ATOM     75  H   UNL     1       4.658  -3.793   1.391  1.00  0.00     0.163 HD
ATOM     76  O   UNL     1       5.738  -5.735   2.169  1.00  0.00    -0.269 OA
BRANCH  74  77
ATOM     77  C   UNL     1       5.913  -4.835   4.325  1.00  0.00     0.039 A 
ATOM     78  C   UNL     1       7.092  -5.529   4.619  1.00  0.00     0.014 A 
ATOM     79  C   UNL     1       5.200  -4.253   5.373  1.00  0.00     0.014 A 
ATOM     80  C   UNL     1       7.639  -5.487   5.905  1.00  0.00     0.006 A 
ATOM     81  C   UNL     1       5.770  -4.173   6.651  1.00  0.00     0.006 A 
ATOM     82  C   UNL     1       7.048  -4.698   6.904  1.00  0.00    -0.025 A 
BRANCH  82  83
ATOM     83  C   UNL     1       7.841  -4.202   8.120  1.00  0.00     0.114 C 
ATOM     84  N   UNL     1       8.926  -5.128   8.499  1.00  0.00    -0.378 N 
ATOM     85  C   UNL     1       8.487  -2.825   7.884  1.00  0.00     0.031 C 
ATOM     86  C   UNL     1      10.264  -4.875   8.185  1.00  0.00     0.038 A 
ATOM     87  H   UNL     1       8.700  -5.950   8.990  1.00  0.00     0.161 HD
ATOM     88  C   UNL     1       9.517  -2.977   6.753  1.00  0.00     0.049 C 
ATOM     89  C   UNL     1       7.675  -1.576   7.556  1.00  0.00     0.034 C 
ATOM     90  C   UNL     1      11.273  -5.662   8.747  1.00  0.00     0.027 A 
ATOM     91  C   UNL     1      10.636  -3.798   7.333  1.00  0.00    -0.016 A 
ATOM     92  C   UNL     1       9.673  -1.571   6.288  1.00  0.00    -0.023 C 
ATOM     93  C   UNL     1       8.624  -0.826   6.668  1.00  0.00    -0.030 C 
ATOM     94  C   UNL     1      12.618  -5.411   8.454  1.00  0.00     0.022 A 
ATOM     95  C   UNL     1      11.980  -3.573   7.015  1.00  0.00     0.027 A 
ATOM     96  C   UNL     1      12.963  -4.378   7.584  1.00  0.00     0.041 A 
ATOM     97  Cl  UNL     1      14.619  -4.097   7.211  1.00  0.00    -0.084 Cl
ENDBRANCH  82  83
ENDBRANCH  74  77
ENDBRANCH  72  73
ENDBRANCH  71  72
ENDBRANCH   1  71
TORSDOF 14
