REMARK SMILES O=C(/C=C/c1ccc(S(=O)(=O)Nc2ccc3c(c2)OCCO3)cc1)NCCCNC(=O)c1ccc(-c2c3nc(c(-c4cc(S(=O)(=O)[O-])ccc4F)c4ccc([nH]4)c(-c4cc(S(=O)(=O)[O-])ccc4F)c4nc(c(-c5cc(S(=O)(=O)[O-])ccc5F)c5ccc2[nH]5)C=C4)C=C3)cc1
REMARK SMILES IDX 26 1 25 2 1 3 2 4 3 6 4 7 5 8 6 9 24 10 7 11 23 12 8 13 9 14
REMARK SMILES IDX 10 15 11 16 12 17 13 19 14 20 18 21 15 22 17 23 16 24 19 25
REMARK SMILES IDX 22 26 20 27 21 28 27 29 28 30 29 31 30 32 31 34 32 35 33 36
REMARK SMILES IDX 94 37 34 38 93 39 35 40 36 41 37 42 87 43 38 44 92 45 86 46
REMARK SMILES IDX 88 47 39 48 91 49 85 50 84 51 40 53 72 54 52 55 71 56 53 57
REMARK SMILES IDX 56 58 70 59 89 60 54 61 55 62 69 64 90 65 57 66 41 67 42 68
REMARK SMILES IDX 50 69 43 70 49 71 51 72 48 73 44 74 45 75 46 76 47 77 73 78
REMARK SMILES IDX 74 79 82 80 75 81 81 82 83 83 80 84 76 85 77 86 78 87 79 88
REMARK SMILES IDX 58 89 59 90 67 91 60 92 66 93 68 94 65 95 61 96 62 97 63 98
REMARK SMILES IDX 64 99
REMARK H PARENT 25 5 12 18 29 33 88 52 56 63
REMARK Flexibility Score: inf
ROOT
ATOM      1  C   UNL     1       2.249   2.265  -0.920  1.00  0.00     0.118 C 
ENDROOT
BRANCH   1   2
ATOM      2  N   UNL     1       2.930   1.081  -0.424  1.00  0.00    -0.352 N 
ATOM      3  O   UNL     1       1.045   0.086   0.424  1.00  0.00    -0.270 OA
ATOM      4  C   UNL     1       2.255   0.079   0.221  1.00  0.00     0.244 C 
ATOM      5  H   UNL     1       3.902   0.996  -0.555  1.00  0.00     0.163 HD
BRANCH   4   6
ATOM      6  C   UNL     1       3.041  -1.121   0.619  1.00  0.00     0.072 C 
ATOM      7  C   UNL     1       4.369  -1.205   0.806  1.00  0.00     0.014 C 
BRANCH   7   8
ATOM      8  C   UNL     1       5.103  -2.430   1.206  1.00  0.00    -0.025 A 
ATOM      9  C   UNL     1       6.498  -2.367   1.343  1.00  0.00     0.009 A 
ATOM     10  C   UNL     1       4.483  -3.665   1.449  1.00  0.00     0.009 A 
ATOM     11  C   UNL     1       7.252  -3.513   1.641  1.00  0.00     0.023 A 
ATOM     12  C   UNL     1       5.228  -4.803   1.800  1.00  0.00     0.023 A 
ATOM     13  C   UNL     1       6.617  -4.744   1.845  1.00  0.00     0.087 A 
BRANCH  13  14
ATOM     14  S   UNL     1       7.631  -6.185   2.139  1.00  0.00     0.261 S 
ATOM     15  O   UNL     1       8.819  -6.037   1.309  1.00  0.00    -0.201 OA
ATOM     16  O   UNL     1       7.754  -6.351   3.564  1.00  0.00    -0.201 OA
BRANCH  14  17
ATOM     17  N   UNL     1       6.856  -7.605   1.530  1.00  0.00    -0.279 N 
ATOM     18  H   UNL     1       6.933  -8.471   1.993  1.00  0.00     0.180 HD
BRANCH  17  19
ATOM     19  C   UNL     1       6.096  -7.466   0.323  1.00  0.00     0.053 A 
ATOM     20  C   UNL     1       4.737  -7.794   0.387  1.00  0.00     0.031 A 
ATOM     21  C   UNL     1       6.640  -6.891  -0.820  1.00  0.00     0.077 A 
ATOM     22  C   UNL     1       3.872  -7.331  -0.601  1.00  0.00     0.052 A 
ATOM     23  C   UNL     1       5.771  -6.366  -1.765  1.00  0.00     0.163 A 
ATOM     24  C   UNL     1       4.389  -6.533  -1.615  1.00  0.00     0.161 A 
ATOM     25  O   UNL     1       6.337  -5.574  -2.728  1.00  0.00    -0.486 OA
ATOM     26  O   UNL     1       3.495  -5.814  -2.369  1.00  0.00    -0.486 OA
ATOM     27  C   UNL     1       5.387  -4.761  -3.429  1.00  0.00     0.271 C 
ATOM     28  C   UNL     1       4.102  -4.541  -2.643  1.00  0.00     0.271 C 
ENDBRANCH  17  19
ENDBRANCH  14  17
ENDBRANCH  13  14
ENDBRANCH   7   8
ENDBRANCH   4   6
ENDBRANCH   1   2
BRANCH   1  29
ATOM     29  C   UNL     1       2.449   3.485  -0.025  1.00  0.00     0.042 C 
BRANCH  29  30
ATOM     30  C   UNL     1       3.896   3.957   0.093  1.00  0.00     0.118 C 
BRANCH  30  31
ATOM     31  N   UNL     1       4.466   4.366  -1.180  1.00  0.00    -0.352 N 
ATOM     32  C   UNL     1       5.156   5.500  -1.530  1.00  0.00     0.251 C 
ATOM     33  H   UNL     1       4.336   3.722  -1.914  1.00  0.00     0.163 HD
ATOM     34  O   UNL     1       5.409   5.683  -2.720  1.00  0.00    -0.269 OA
BRANCH  32  35
ATOM     35  C   UNL     1       5.577   6.502  -0.521  1.00  0.00     0.039 A 
ATOM     36  C   UNL     1       5.559   7.854  -0.884  1.00  0.00     0.014 A 
ATOM     37  C   UNL     1       6.044   6.137   0.745  1.00  0.00     0.014 A 
ATOM     38  C   UNL     1       5.973   8.831   0.026  1.00  0.00     0.010 A 
ATOM     39  C   UNL     1       6.385   7.119   1.678  1.00  0.00     0.010 A 
ATOM     40  C   UNL     1       6.371   8.476   1.324  1.00  0.00    -0.014 A 
BRANCH  40  41
ATOM     41  C   UNL     1       6.809   9.516   2.296  1.00  0.00     0.031 A 
ATOM     42  C   UNL     1       8.231   9.540   2.794  1.00  0.00     0.074 A 
ATOM     43  C   UNL     1       5.924  10.427   2.746  1.00  0.00     0.049 A 
ATOM     44  N   UNL     1       8.800  10.361   3.641  1.00  0.00    -0.248 NA
ATOM     45  C   UNL     1       9.123   8.484   2.295  1.00  0.00     0.031 C 
ATOM     46  C   UNL     1       4.508  10.483   2.375  1.00  0.00     0.029 A 
ATOM     47  N   UNL     1       6.081  11.483   3.610  1.00  0.00    -0.354 N 
ATOM     48  C   UNL     1      10.111   9.916   3.784  1.00  0.00     0.074 A 
ATOM     49  C   UNL     1      10.228   8.712   2.988  1.00  0.00     0.031 C 
ATOM     50  C   UNL     1       3.936  11.536   2.981  1.00  0.00     0.029 A 
ATOM     51  C   UNL     1       4.931  12.210   3.810  1.00  0.00     0.049 A 
ATOM     52  H   UNL     1       6.937  11.699   4.045  1.00  0.00     0.167 HD
ATOM     53  C   UNL     1      11.129  10.472   4.488  1.00  0.00     0.034 A 
ATOM     54  C   UNL     1       4.702  13.298   4.573  1.00  0.00     0.034 A 
ATOM     55  C   UNL     1      11.000  11.679   5.269  1.00  0.00     0.049 A 
ATOM     56  C   UNL     1       5.850  13.902   5.343  1.00  0.00     0.074 A 
ATOM     57  C   UNL     1      11.973  12.350   5.992  1.00  0.00     0.029 A 
ATOM     58  N   UNL     1       9.823  12.399   5.434  1.00  0.00    -0.354 N 
ATOM     59  N   UNL     1       7.096  13.498   5.426  1.00  0.00    -0.248 NA
ATOM     60  C   UNL     1       5.562  15.126   6.102  1.00  0.00     0.031 C 
ATOM     61  C   UNL     1      11.373  13.435   6.641  1.00  0.00     0.029 A 
ATOM     62  C   UNL     1      10.041  13.492   6.261  1.00  0.00     0.049 A 
ATOM     63  H   UNL     1       8.958  12.167   5.024  1.00  0.00     0.167 HD
ATOM     64  C   UNL     1       7.749  14.442   6.215  1.00  0.00     0.074 A 
ATOM     65  C   UNL     1       6.761  15.441   6.566  1.00  0.00     0.031 C 
ATOM     66  C   UNL     1       9.048  14.482   6.610  1.00  0.00     0.034 A 
BRANCH  53  67
ATOM     67  C   UNL     1      12.462   9.758   4.460  1.00  0.00     0.023 A 
ATOM     68  C   UNL     1      13.177   9.575   3.262  1.00  0.00     0.031 A 
ATOM     69  C   UNL     1      13.012   9.222   5.638  1.00  0.00     0.131 A 
ATOM     70  C   UNL     1      14.350   8.805   3.254  1.00  0.00     0.055 A 
ATOM     71  C   UNL     1      14.227   8.532   5.637  1.00  0.00     0.041 A 
ATOM     72  F   UNL     1      12.369   9.344   6.810  1.00  0.00    -0.206 F 
ATOM     73  C   UNL     1      14.894   8.304   4.438  1.00  0.00     0.022 A 
BRANCH  70  74
ATOM     74  S   UNL     1      15.065   8.333   1.654  1.00  0.00     0.124 S 
ATOM     75  O   UNL     1      13.955   7.609   1.038  1.00  0.00    -0.237 OA
ATOM     76  O   UNL     1      15.393   9.624   1.062  1.00  0.00    -0.237 OA
ATOM     77  O   UNL     1      16.211   7.505   2.022  1.00  0.00    -0.744 OA
ENDBRANCH  70  74
ENDBRANCH  53  67
BRANCH  54  78
ATOM     78  C   UNL     1       3.340  13.900   4.643  1.00  0.00     0.023 A 
ATOM     79  C   UNL     1       3.093  15.194   4.157  1.00  0.00     0.031 A 
ATOM     80  C   UNL     1       2.273  13.206   5.241  1.00  0.00     0.131 A 
ATOM     81  C   UNL     1       1.827  15.776   4.325  1.00  0.00     0.055 A 
ATOM     82  C   UNL     1       1.000  13.768   5.357  1.00  0.00     0.041 A 
ATOM     83  F   UNL     1       2.453  11.963   5.715  1.00  0.00    -0.206 F 
ATOM     84  C   UNL     1       0.776  15.067   4.911  1.00  0.00     0.022 A 
BRANCH  81  85
ATOM     85  S   UNL     1       1.597  17.510   3.846  1.00  0.00     0.124 S 
ATOM     86  O   UNL     1       2.603  18.180   4.662  1.00  0.00    -0.237 OA
ATOM     87  O   UNL     1       1.860  17.465   2.412  1.00  0.00    -0.237 OA
ATOM     88  O   UNL     1       0.210  17.784   4.215  1.00  0.00    -0.744 OA
ENDBRANCH  81  85
ENDBRANCH  54  78
BRANCH  66  89
ATOM     89  C   UNL     1       9.481  15.683   7.417  1.00  0.00     0.023 A 
ATOM     90  C   UNL     1       8.962  15.948   8.697  1.00  0.00     0.031 A 
ATOM     91  C   UNL     1      10.401  16.601   6.877  1.00  0.00     0.131 A 
ATOM     92  C   UNL     1       9.304  17.137   9.359  1.00  0.00     0.055 A 
ATOM     93  C   UNL     1      10.791  17.747   7.570  1.00  0.00     0.041 A 
ATOM     94  F   UNL     1      10.930  16.402   5.659  1.00  0.00    -0.206 F 
ATOM     95  C   UNL     1      10.227  18.031   8.811  1.00  0.00     0.022 A 
BRANCH  92  96
ATOM     96  S   UNL     1       8.427  17.564  10.889  1.00  0.00     0.124 S 
ATOM     97  O   UNL     1       7.031  17.502  10.467  1.00  0.00    -0.237 OA
ATOM     98  O   UNL     1       8.865  16.514  11.802  1.00  0.00    -0.237 OA
ATOM     99  O   UNL     1       8.919  18.904  11.204  1.00  0.00    -0.744 OA
ENDBRANCH  92  96
ENDBRANCH  66  89
ENDBRANCH  40  41
ENDBRANCH  32  35
ENDBRANCH  30  31
ENDBRANCH  29  30
ENDBRANCH   1  29
TORSDOF 17
