REMARK SMILES CN(C(=O)N[C@@](C)(C(=O)NCCCNC(=O)c1ccc(-c2c3nc(c(-c4cc(S(=O)(=O)[O-])ccc4F)c4ccc([nH]4)c(-c4cc(S(=O)(=O)[O-])ccc4F)c4nc(c(-c5cc(S(=O)(=O)[O-])ccc5F)c5ccc2[nH]5)C=C4)C=C3)cc1)C(F)(F)F)c1ccc(F)cc1
REMARK SMILES IDX 12 1 11 2 10 3 8 4 9 5 6 7 7 8 5 9 3 10 4 11 2 13 1 14 84 15
REMARK SMILES IDX 85 16 90 17 86 18 89 19 87 20 88 21 80 22 81 23 82 24 83 25
REMARK SMILES IDX 13 26 14 27 15 28 16 30 17 31 18 32 79 33 19 34 78 35 20 36
REMARK SMILES IDX 21 37 22 38 72 39 23 40 77 41 71 42 73 43 24 44 76 45 70 46
REMARK SMILES IDX 69 47 25 49 57 50 37 51 56 52 38 53 41 54 55 55 74 56 39 57
REMARK SMILES IDX 40 58 54 60 75 61 42 62 26 63 27 64 35 65 28 66 34 67 36 68
REMARK SMILES IDX 33 69 29 70 30 71 31 72 32 73 58 74 59 75 67 76 60 77 66 78
REMARK SMILES IDX 68 79 65 80 61 81 62 82 63 83 64 84 43 85 44 86 52 87 45 88
REMARK SMILES IDX 51 89 53 90 50 91 46 92 47 93 48 94 49 95
REMARK H PARENT 10 6 5 12 14 29 73 48 41 59
REMARK Flexibility Score: inf
ROOT
ATOM      1  C   UNL     1      -1.666   0.505   5.872  1.00  0.00     0.042 C 
ENDROOT
BRANCH   1   2
ATOM      2  C   UNL     1      -1.655   1.467   4.693  1.00  0.00     0.117 C 
BRANCH   2   3
ATOM      3  N   UNL     1      -0.305   1.861   4.334  1.00  0.00    -0.354 N 
ATOM      4  C   UNL     1       0.407   1.891   3.180  1.00  0.00     0.255 C 
ATOM      5  O   UNL     1       1.608   2.136   3.346  1.00  0.00    -0.272 OA
ATOM      6  H   UNL     1       0.213   2.182   5.107  1.00  0.00     0.163 HD
BRANCH   4   7
ATOM      7  C   UNL     1      -0.177   1.554   1.785  1.00  0.00     0.213 C 
ATOM      8  C   UNL     1      -1.525   2.250   1.510  1.00  0.00     0.056 C 
BRANCH   7   9
ATOM      9  N   UNL     1      -0.415   0.059   1.823  1.00  0.00    -0.316 N 
ATOM     10  C   UNL     1      -0.153  -1.146   1.296  1.00  0.00     0.322 C 
ATOM     11  O   UNL     1      -0.635  -2.059   1.980  1.00  0.00    -0.248 OA
ATOM     12  H   UNL     1      -1.043  -0.099   2.565  1.00  0.00     0.166 HD
BRANCH  10  13
ATOM     13  N   UNL     1       0.566  -1.383   0.162  1.00  0.00    -0.298 N 
ATOM     14  C   UNL     1       0.997  -0.390  -0.797  1.00  0.00     0.155 C 
BRANCH  13  15
ATOM     15  C   UNL     1       0.803  -2.725  -0.295  1.00  0.00     0.045 A 
ATOM     16  C   UNL     1      -0.250  -3.639  -0.432  1.00  0.00     0.029 A 
ATOM     17  C   UNL     1       2.073  -3.068  -0.793  1.00  0.00     0.029 A 
ATOM     18  C   UNL     1      -0.053  -4.839  -1.124  1.00  0.00     0.041 A 
ATOM     19  C   UNL     1       2.273  -4.276  -1.463  1.00  0.00     0.041 A 
ATOM     20  C   UNL     1       1.201  -5.139  -1.643  1.00  0.00     0.123 A 
ATOM     21  F   UNL     1       1.375  -6.264  -2.349  1.00  0.00    -0.207 F 
ENDBRANCH  13  15
ENDBRANCH  10  13
ENDBRANCH   7   9
BRANCH   7  22
ATOM     22  C   UNL     1       0.840   2.244   0.842  1.00  0.00     0.420 C 
ATOM     23  F   UNL     1       2.054   1.664   0.809  1.00  0.00    -0.168 F 
ATOM     24  F   UNL     1       0.380   2.298  -0.436  1.00  0.00    -0.168 F 
ATOM     25  F   UNL     1       1.021   3.550   1.179  1.00  0.00    -0.168 F 
ENDBRANCH   7  22
ENDBRANCH   4   7
ENDBRANCH   2   3
ENDBRANCH   1   2
BRANCH   1  26
ATOM     26  C   UNL     1      -0.990   1.026   7.134  1.00  0.00     0.118 C 
BRANCH  26  27
ATOM     27  N   UNL     1      -1.609   2.235   7.658  1.00  0.00    -0.352 N 
ATOM     28  C   UNL     1      -2.190   2.456   8.885  1.00  0.00     0.251 C 
ATOM     29  H   UNL     1      -1.611   3.006   7.046  1.00  0.00     0.163 HD
ATOM     30  O   UNL     1      -2.817   3.496   9.076  1.00  0.00    -0.269 OA
BRANCH  28  31
ATOM     31  C   UNL     1      -2.089   1.432   9.947  1.00  0.00     0.039 A 
ATOM     32  C   UNL     1      -3.222   1.123  10.702  1.00  0.00     0.014 A 
ATOM     33  C   UNL     1      -0.887   0.761  10.184  1.00  0.00     0.014 A 
ATOM     34  C   UNL     1      -3.166   0.090  11.639  1.00  0.00     0.010 A 
ATOM     35  C   UNL     1      -0.863  -0.337  11.038  1.00  0.00     0.010 A 
ATOM     36  C   UNL     1      -1.999  -0.680  11.785  1.00  0.00    -0.014 A 
BRANCH  36  37
ATOM     37  C   UNL     1      -1.952  -1.836  12.720  1.00  0.00     0.031 A 
ATOM     38  C   UNL     1      -0.971  -1.846  13.862  1.00  0.00     0.074 A 
ATOM     39  C   UNL     1      -2.754  -2.899  12.509  1.00  0.00     0.049 A 
ATOM     40  N   UNL     1      -0.757  -2.772  14.762  1.00  0.00    -0.248 NA
ATOM     41  C   UNL     1      -0.089  -0.676  13.988  1.00  0.00     0.031 C 
ATOM     42  C   UNL     1      -3.702  -3.035  11.399  1.00  0.00     0.029 A 
ATOM     43  N   UNL     1      -2.904  -4.068  13.213  1.00  0.00    -0.354 N 
ATOM     44  C   UNL     1       0.292  -2.303  15.547  1.00  0.00     0.074 A 
ATOM     45  C   UNL     1       0.718  -1.047  14.969  1.00  0.00     0.031 C 
ATOM     46  C   UNL     1      -4.358  -4.199  11.520  1.00  0.00     0.029 A 
ATOM     47  C   UNL     1      -3.848  -4.917  12.683  1.00  0.00     0.049 A 
ATOM     48  H   UNL     1      -2.383  -4.279  14.021  1.00  0.00     0.167 HD
ATOM     49  C   UNL     1       0.830  -2.854  16.664  1.00  0.00     0.034 A 
ATOM     50  C   UNL     1      -4.254  -6.139  13.083  1.00  0.00     0.034 A 
ATOM     51  C   UNL     1       0.381  -4.102  17.232  1.00  0.00     0.049 A 
ATOM     52  C   UNL     1      -3.638  -6.739  14.322  1.00  0.00     0.074 A 
ATOM     53  C   UNL     1       0.804  -4.719  18.396  1.00  0.00     0.029 A 
ATOM     54  N   UNL     1      -0.582  -4.932  16.671  1.00  0.00    -0.354 N 
ATOM     55  N   UNL     1      -2.698  -6.247  15.098  1.00  0.00    -0.248 NA
ATOM     56  C   UNL     1      -4.146  -8.048  14.748  1.00  0.00     0.031 C 
ATOM     57  C   UNL     1       0.160  -5.957  18.495  1.00  0.00     0.029 A 
ATOM     58  C   UNL     1      -0.737  -6.073  17.445  1.00  0.00     0.049 A 
ATOM     59  H   UNL     1      -1.081  -4.739  15.845  1.00  0.00     0.167 HD
ATOM     60  C   UNL     1      -2.527  -7.175  16.122  1.00  0.00     0.074 A 
ATOM     61  C   UNL     1      -3.471  -8.245  15.870  1.00  0.00     0.031 C 
ATOM     62  C   UNL     1      -1.674  -7.141  17.177  1.00  0.00     0.034 A 
BRANCH  49  63
ATOM     63  C   UNL     1       1.978  -2.120  17.319  1.00  0.00     0.023 A 
ATOM     64  C   UNL     1       1.835  -0.812  17.819  1.00  0.00     0.031 A 
ATOM     65  C   UNL     1       3.246  -2.721  17.415  1.00  0.00     0.131 A 
ATOM     66  C   UNL     1       2.955  -0.119  18.304  1.00  0.00     0.055 A 
ATOM     67  C   UNL     1       4.335  -2.059  17.986  1.00  0.00     0.041 A 
ATOM     68  F   UNL     1       3.455  -3.958  16.938  1.00  0.00    -0.206 F 
ATOM     69  C   UNL     1       4.198  -0.743  18.418  1.00  0.00     0.022 A 
BRANCH  66  70
ATOM     70  S   UNL     1       2.798   1.660  18.625  1.00  0.00     0.124 S 
ATOM     71  O   UNL     1       2.358   2.156  17.323  1.00  0.00    -0.237 OA
ATOM     72  O   UNL     1       1.806   1.702  19.693  1.00  0.00    -0.237 OA
ATOM     73  O   UNL     1       4.150   2.059  19.011  1.00  0.00    -0.744 OA
ENDBRANCH  66  70
ENDBRANCH  49  63
BRANCH  50  74
ATOM     74  C   UNL     1      -5.290  -6.880  12.306  1.00  0.00     0.023 A 
ATOM     75  C   UNL     1      -6.543  -7.182  12.863  1.00  0.00     0.031 A 
ATOM     76  C   UNL     1      -5.030  -7.320  10.995  1.00  0.00     0.131 A 
ATOM     77  C   UNL     1      -7.472  -7.937  12.130  1.00  0.00     0.055 A 
ATOM     78  C   UNL     1      -5.978  -8.023  10.250  1.00  0.00     0.041 A 
ATOM     79  F   UNL     1      -3.851  -7.055  10.411  1.00  0.00    -0.206 F 
ATOM     80  C   UNL     1      -7.204  -8.346  10.822  1.00  0.00     0.022 A 
BRANCH  77  81
ATOM     81  S   UNL     1      -9.013  -8.448  12.941  1.00  0.00     0.124 S 
ATOM     82  O   UNL     1      -8.510  -9.205  14.082  1.00  0.00    -0.237 OA
ATOM     83  O   UNL     1      -9.635  -7.164  13.246  1.00  0.00    -0.237 OA
ATOM     84  O   UNL     1      -9.690  -9.239  11.916  1.00  0.00    -0.744 OA
ENDBRANCH  77  81
ENDBRANCH  50  74
BRANCH  62  85
ATOM     85  C   UNL     1      -1.758  -8.277  18.170  1.00  0.00     0.023 A 
ATOM     86  C   UNL     1      -1.425  -9.597  17.822  1.00  0.00     0.031 A 
ATOM     87  C   UNL     1      -2.185  -8.029  19.487  1.00  0.00     0.131 A 
ATOM     88  C   UNL     1      -1.579 -10.628  18.762  1.00  0.00     0.055 A 
ATOM     89  C   UNL     1      -2.270  -9.047  20.438  1.00  0.00     0.041 A 
ATOM     90  F   UNL     1      -2.522  -6.788  19.875  1.00  0.00    -0.206 F 
ATOM     91  C   UNL     1      -1.980 -10.358  20.073  1.00  0.00     0.022 A 
BRANCH  88  92
ATOM     92  S   UNL     1      -1.349 -12.344  18.220  1.00  0.00     0.124 S 
ATOM     93  O   UNL     1      -2.325 -12.454  17.141  1.00  0.00    -0.237 OA
ATOM     94  O   UNL     1       0.053 -12.358  17.816  1.00  0.00    -0.237 OA
ATOM     95  O   UNL     1      -1.656 -13.125  19.416  1.00  0.00    -0.744 OA
ENDBRANCH  88  92
ENDBRANCH  62  85
ENDBRANCH  36  37
ENDBRANCH  28  31
ENDBRANCH  26  27
ENDBRANCH   1  26
TORSDOF 17
