REMARK SMILES CC1=C(C)C(=O)N(C[C@H](CC(C)C)C(=O)NCCCNC(=O)c2ccc(-c3c4nc(c(-c5cc(S(=O)(=O)[O-])ccc5F)c5ccc([nH]5)c(-c5cc(S(=O)(=O)[O-])ccc5F)c5nc(c(-c6cc(S(=O)(=O)[O-])ccc6F)c6ccc3[nH]6)C=C5)C=C4)cc2)C1=O
REMARK SMILES IDX 18 1 17 2 16 3 14 4 15 5 9 7 8 8 7 9 1 10 2 11 3 12 86 13
REMARK SMILES IDX 4 14 5 15 87 16 6 17 10 18 11 19 12 20 13 21 19 22 20 23
REMARK SMILES IDX 21 24 22 26 23 27 24 28 85 29 25 30 84 31 26 32 27 33 28 34
REMARK SMILES IDX 78 35 29 36 83 37 77 38 79 39 30 40 82 41 76 42 75 43 31 45
REMARK SMILES IDX 63 46 43 47 62 48 44 49 47 50 61 51 80 52 45 53 46 54 60 56
REMARK SMILES IDX 81 57 48 58 32 59 33 60 41 61 34 62 40 63 42 64 39 65 35 66
REMARK SMILES IDX 36 67 37 68 38 69 64 70 65 71 73 72 66 73 72 74 74 75 71 76
REMARK SMILES IDX 67 77 68 78 69 79 70 80 49 81 50 82 58 83 51 84 57 85 59 86
REMARK SMILES IDX 56 87 52 88 53 89 54 90 55 91
REMARK H PARENT 16 6 20 25 79 44 47 55
REMARK Flexibility Score: inf
ROOT
ATOM      1  C   UNL     1      -4.001   1.576   6.793  1.00  0.00     0.042 C 
ENDROOT
BRANCH   1   2
ATOM      2  C   UNL     1      -4.567   1.114   5.458  1.00  0.00     0.117 C 
BRANCH   2   3
ATOM      3  N   UNL     1      -4.872   2.206   4.557  1.00  0.00    -0.356 N 
ATOM      4  C   UNL     1      -4.271   2.646   3.425  1.00  0.00     0.224 C 
ATOM      5  O   UNL     1      -4.817   3.607   2.867  1.00  0.00    -0.275 OA
ATOM      6  H   UNL     1      -5.666   2.728   4.816  1.00  0.00     0.163 HD
BRANCH   4   7
ATOM      7  C   UNL     1      -2.968   2.084   2.832  1.00  0.00     0.099 C 
BRANCH   7   8
ATOM      8  C   UNL     1      -2.900   0.559   2.542  1.00  0.00     0.142 C 
BRANCH   8   9
ATOM      9  N   UNL     1      -1.910  -0.215   3.271  1.00  0.00    -0.274 N 
ATOM     10  C   UNL     1       1.515  -0.953   4.352  1.00  0.00     0.051 C 
ATOM     11  C   UNL     1       0.062  -1.011   4.080  1.00  0.00     0.023 C 
ATOM     12  C   UNL     1      -0.917  -1.555   4.812  1.00  0.00     0.023 C 
ATOM     13  C   UNL     1      -0.581  -0.243   2.998  1.00  0.00     0.256 C 
ATOM     14  C   UNL     1      -0.851  -2.255   6.115  1.00  0.00     0.051 C 
ATOM     15  C   UNL     1      -2.189  -1.190   4.174  1.00  0.00     0.256 C 
ATOM     16  O   UNL     1       0.012   0.260   2.060  1.00  0.00    -0.269 OA
ATOM     17  O   UNL     1      -3.266  -1.690   4.446  1.00  0.00    -0.269 OA
ENDBRANCH   8   9
ENDBRANCH   7   8
BRANCH   7  18
ATOM     18  C   UNL     1      -1.706   2.883   3.249  1.00  0.00     0.018 C 
BRANCH  18  19
ATOM     19  C   UNL     1      -1.431   3.187   4.734  1.00  0.00    -0.017 C 
ATOM     20  C   UNL     1      -0.949   1.987   5.537  1.00  0.00     0.007 C 
ATOM     21  C   UNL     1      -0.358   4.278   4.861  1.00  0.00     0.007 C 
ENDBRANCH  18  19
ENDBRANCH   7  18
ENDBRANCH   4   7
ENDBRANCH   2   3
ENDBRANCH   1   2
BRANCH   1  22
ATOM     22  C   UNL     1      -5.051   1.997   7.803  1.00  0.00     0.118 C 
BRANCH  22  23
ATOM     23  N   UNL     1      -5.564   0.858   8.544  1.00  0.00    -0.352 N 
ATOM     24  C   UNL     1      -5.245   0.357   9.784  1.00  0.00     0.251 C 
ATOM     25  H   UNL     1      -6.267   0.354   8.074  1.00  0.00     0.163 HD
ATOM     26  O   UNL     1      -5.617  -0.786  10.047  1.00  0.00    -0.269 OA
BRANCH  24  27
ATOM     27  C   UNL     1      -4.474   1.127  10.799  1.00  0.00     0.039 A 
ATOM     28  C   UNL     1      -3.766   0.411  11.775  1.00  0.00     0.014 A 
ATOM     29  C   UNL     1      -4.521   2.519  10.899  1.00  0.00     0.014 A 
ATOM     30  C   UNL     1      -3.127   1.079  12.828  1.00  0.00     0.010 A 
ATOM     31  C   UNL     1      -3.786   3.191  11.878  1.00  0.00     0.010 A 
ATOM     32  C   UNL     1      -3.129   2.480  12.890  1.00  0.00    -0.014 A 
BRANCH  32  33
ATOM     33  C   UNL     1      -2.564   3.207  14.063  1.00  0.00     0.031 A 
ATOM     34  C   UNL     1      -3.471   4.061  14.921  1.00  0.00     0.074 A 
ATOM     35  C   UNL     1      -1.250   3.127  14.350  1.00  0.00     0.049 A 
ATOM     36  N   UNL     1      -3.176   4.825  15.943  1.00  0.00    -0.248 NA
ATOM     37  C   UNL     1      -4.894   4.091  14.550  1.00  0.00     0.031 C 
ATOM     38  C   UNL     1      -0.260   2.372  13.580  1.00  0.00     0.029 A 
ATOM     39  N   UNL     1      -0.520   3.685  15.370  1.00  0.00    -0.354 N 
ATOM     40  C   UNL     1      -4.367   5.448  16.310  1.00  0.00     0.074 A 
ATOM     41  C   UNL     1      -5.368   5.029  15.354  1.00  0.00     0.031 C 
ATOM     42  C   UNL     1       0.939   2.486  14.174  1.00  0.00     0.029 A 
ATOM     43  C   UNL     1       0.814   3.349  15.345  1.00  0.00     0.049 A 
ATOM     44  H   UNL     1      -0.914   4.272  16.055  1.00  0.00     0.167 HD
ATOM     45  C   UNL     1      -4.617   6.267  17.364  1.00  0.00     0.034 A 
ATOM     46  C   UNL     1       1.820   3.695  16.173  1.00  0.00     0.034 A 
ATOM     47  C   UNL     1      -3.619   6.641  18.337  1.00  0.00     0.049 A 
ATOM     48  C   UNL     1       1.515   4.572  17.361  1.00  0.00     0.074 A 
ATOM     49  C   UNL     1      -3.763   7.426  19.468  1.00  0.00     0.029 A 
ATOM     50  N   UNL     1      -2.287   6.245  18.298  1.00  0.00    -0.354 N 
ATOM     51  N   UNL     1       0.376   5.125  17.712  1.00  0.00    -0.248 NA
ATOM     52  C   UNL     1       2.627   4.851  18.277  1.00  0.00     0.031 C 
ATOM     53  C   UNL     1      -2.511   7.545  20.084  1.00  0.00     0.029 A 
ATOM     54  C   UNL     1      -1.599   6.777  19.378  1.00  0.00     0.049 A 
ATOM     55  H   UNL     1      -1.890   5.670  17.605  1.00  0.00     0.167 HD
ATOM     56  C   UNL     1       0.631   5.790  18.909  1.00  0.00     0.074 A 
ATOM     57  C   UNL     1       2.024   5.550  19.227  1.00  0.00     0.031 C 
ATOM     58  C   UNL     1      -0.208   6.531  19.677  1.00  0.00     0.034 A 
BRANCH  45  59
ATOM     59  C   UNL     1      -6.019   6.821  17.497  1.00  0.00     0.023 A 
ATOM     60  C   UNL     1      -7.134   5.980  17.670  1.00  0.00     0.031 A 
ATOM     61  C   UNL     1      -6.253   8.204  17.399  1.00  0.00     0.131 A 
ATOM     62  C   UNL     1      -8.430   6.516  17.640  1.00  0.00     0.055 A 
ATOM     63  C   UNL     1      -7.542   8.741  17.465  1.00  0.00     0.041 A 
ATOM     64  F   UNL     1      -5.235   9.059  17.216  1.00  0.00    -0.206 F 
ATOM     65  C   UNL     1      -8.642   7.894  17.567  1.00  0.00     0.022 A 
BRANCH  62  66
ATOM     66  S   UNL     1      -9.836   5.374  17.531  1.00  0.00     0.124 S 
ATOM     67  O   UNL     1      -9.544   4.670  16.284  1.00  0.00    -0.237 OA
ATOM     68  O   UNL     1      -9.703   4.591  18.753  1.00  0.00    -0.237 OA
ATOM     69  O   UNL     1     -10.996   6.261  17.480  1.00  0.00    -0.744 OA
ENDBRANCH  62  66
ENDBRANCH  45  59
BRANCH  46  70
ATOM     70  C   UNL     1       3.205   3.200  15.928  1.00  0.00     0.023 A 
ATOM     71  C   UNL     1       3.827   2.317  16.825  1.00  0.00     0.031 A 
ATOM     72  C   UNL     1       3.941   3.633  14.811  1.00  0.00     0.131 A 
ATOM     73  C   UNL     1       5.161   1.933  16.618  1.00  0.00     0.055 A 
ATOM     74  C   UNL     1       5.252   3.209  14.583  1.00  0.00     0.041 A 
ATOM     75  F   UNL     1       3.390   4.469  13.917  1.00  0.00    -0.206 F 
ATOM     76  C   UNL     1       5.874   2.364  15.497  1.00  0.00     0.022 A 
BRANCH  73  77
ATOM     77  S   UNL     1       5.979   0.919  17.881  1.00  0.00     0.124 S 
ATOM     78  O   UNL     1       5.844   1.755  19.068  1.00  0.00    -0.237 OA
ATOM     79  O   UNL     1       5.176  -0.298  17.857  1.00  0.00    -0.237 OA
ATOM     80  O   UNL     1       7.341   0.774  17.370  1.00  0.00    -0.744 OA
ENDBRANCH  73  77
ENDBRANCH  46  70
BRANCH  58  81
ATOM     81  C   UNL     1       0.357   7.086  20.962  1.00  0.00     0.023 A 
ATOM     82  C   UNL     1       1.376   8.054  20.965  1.00  0.00     0.031 A 
ATOM     83  C   UNL     1      -0.108   6.610  22.201  1.00  0.00     0.131 A 
ATOM     84  C   UNL     1       1.949   8.460  22.179  1.00  0.00     0.055 A 
ATOM     85  C   UNL     1       0.422   7.067  23.409  1.00  0.00     0.041 A 
ATOM     86  F   UNL     1      -1.080   5.686  22.258  1.00  0.00    -0.206 F 
ATOM     87  C   UNL     1       1.469   7.984  23.402  1.00  0.00     0.022 A 
BRANCH  84  88
ATOM     88  S   UNL     1       3.414   9.530  22.133  1.00  0.00     0.124 S 
ATOM     89  O   UNL     1       4.323   8.764  21.286  1.00  0.00    -0.237 OA
ATOM     90  O   UNL     1       2.884  10.758  21.551  1.00  0.00    -0.237 OA
ATOM     91  O   UNL     1       3.810   9.629  23.537  1.00  0.00    -0.744 OA
ENDBRANCH  84  88
ENDBRANCH  58  81
ENDBRANCH  32  33
ENDBRANCH  24  27
ENDBRANCH  22  23
ENDBRANCH   1  22
TORSDOF 17
