REMARK SMILES CN(C)S(=O)(=O)c1ccc(N(CC(=O)NCCCNC(=O)c2ccc(-c3c4nc(c(-c5cc(S(=O)(=O)[O-])ccc5F)c5ccc([nH]5)c(-c5cc(S(=O)(=O)[O-])ccc5F)c5nc(c(-c6cc(S(=O)(=O)[O-])ccc6F)c6ccc3[nH]6)C=C5)C=C4)cc2)C(C)(C)C)cc1
REMARK SMILES IDX 16 1 15 2 13 3 14 4 12 6 11 7 10 8 7 9 8 10 90 11 9 12 89 13
REMARK SMILES IDX 4 14 5 15 6 16 2 17 1 18 3 19 85 20 86 21 87 22 88 23 17 24
REMARK SMILES IDX 18 25 19 26 20 27 21 29 22 30 23 31 84 32 24 33 83 34 25 35
REMARK SMILES IDX 26 36 27 37 77 38 28 39 82 40 76 41 78 42 29 43 81 44 75 45
REMARK SMILES IDX 74 46 30 48 62 49 42 50 61 51 43 52 46 53 60 54 79 55 44 56
REMARK SMILES IDX 45 57 59 59 80 60 47 61 31 62 32 63 40 64 33 65 39 66 41 67
REMARK SMILES IDX 38 68 34 69 35 70 36 71 37 72 63 73 64 74 72 75 65 76 71 77
REMARK SMILES IDX 73 78 70 79 66 80 67 81 68 82 69 83 48 84 49 85 57 86 50 87
REMARK SMILES IDX 56 88 58 89 55 90 51 91 52 92 53 93 54 94
REMARK H PARENT 15 5 19 28 78 47 46 58
REMARK Flexibility Score: inf
ROOT
ATOM      1  C   UNL     1      -3.055  -3.508   5.947  1.00  0.00     0.117 C 
ENDROOT
BRANCH   1   2
ATOM      2  N   UNL     1      -3.026  -4.261   7.183  1.00  0.00    -0.354 N 
ATOM      3  C   UNL     1      -1.947  -4.712   7.887  1.00  0.00     0.239 C 
ATOM      4  O   UNL     1      -2.160  -5.201   9.001  1.00  0.00    -0.273 OA
ATOM      5  H   UNL     1      -3.906  -4.479   7.569  1.00  0.00     0.163 HD
BRANCH   3   6
ATOM      6  C   UNL     1      -0.520  -4.508   7.359  1.00  0.00     0.217 C 
BRANCH   6   7
ATOM      7  N   UNL     1      -0.172  -5.284   6.130  1.00  0.00    -0.357 N 
BRANCH   7   8
ATOM      8  C   UNL     1       0.217  -4.580   4.969  1.00  0.00     0.038 A 
ATOM      9  C   UNL     1       0.895  -3.123   2.579  1.00  0.00     0.082 A 
ATOM     10  C   UNL     1       0.850  -2.474   3.803  1.00  0.00     0.024 A 
ATOM     11  C   UNL     1       0.633  -4.482   2.523  1.00  0.00     0.024 A 
ATOM     12  C   UNL     1       0.529  -3.200   4.967  1.00  0.00     0.027 A 
ATOM     13  C   UNL     1       0.309  -5.181   3.699  1.00  0.00     0.027 A 
BRANCH   9  14
ATOM     14  S   UNL     1       1.327  -2.252   1.099  1.00  0.00     0.242 S 
ATOM     15  O   UNL     1       0.772  -2.967  -0.027  1.00  0.00    -0.207 OA
ATOM     16  O   UNL     1       2.746  -1.964   1.188  1.00  0.00    -0.207 OA
BRANCH  14  17
ATOM     17  N   UNL     1       0.482  -0.758   1.204  1.00  0.00    -0.204 NA
ATOM     18  C   UNL     1       0.946   0.206   0.172  1.00  0.00     0.124 C 
ATOM     19  C   UNL     1      -0.996  -0.876   1.180  1.00  0.00     0.124 C 
ENDBRANCH  14  17
ENDBRANCH   9  14
ENDBRANCH   7   8
BRANCH   7  20
ATOM     20  C   UNL     1      -0.063  -6.800   6.253  1.00  0.00     0.032 C 
ATOM     21  C   UNL     1      -1.175  -7.518   5.457  1.00  0.00     0.034 C 
ATOM     22  C   UNL     1       1.356  -7.279   5.867  1.00  0.00     0.034 C 
ATOM     23  C   UNL     1      -0.245  -7.329   7.705  1.00  0.00     0.034 C 
ENDBRANCH   7  20
ENDBRANCH   6   7
ENDBRANCH   3   6
ENDBRANCH   1   2
BRANCH   1  24
ATOM     24  C   UNL     1      -3.391  -4.367   4.737  1.00  0.00     0.042 C 
BRANCH  24  25
ATOM     25  C   UNL     1      -4.794  -4.963   4.776  1.00  0.00     0.118 C 
BRANCH  25  26
ATOM     26  N   UNL     1      -5.830  -3.947   4.644  1.00  0.00    -0.352 N 
ATOM     27  C   UNL     1      -6.842  -3.850   3.719  1.00  0.00     0.251 C 
ATOM     28  H   UNL     1      -5.802  -3.227   5.315  1.00  0.00     0.163 HD
ATOM     29  O   UNL     1      -7.490  -2.811   3.639  1.00  0.00    -0.269 OA
BRANCH  27  30
ATOM     30  C   UNL     1      -7.127  -4.984   2.812  1.00  0.00     0.039 A 
ATOM     31  C   UNL     1      -7.334  -4.733   1.453  1.00  0.00     0.014 A 
ATOM     32  C   UNL     1      -7.198  -6.290   3.304  1.00  0.00     0.014 A 
ATOM     33  C   UNL     1      -7.541  -5.800   0.574  1.00  0.00     0.010 A 
ATOM     34  C   UNL     1      -7.343  -7.355   2.419  1.00  0.00     0.010 A 
ATOM     35  C   UNL     1      -7.511  -7.122   1.045  1.00  0.00    -0.014 A 
BRANCH  35  36
ATOM     36  C   UNL     1      -7.656  -8.285   0.131  1.00  0.00     0.031 A 
ATOM     37  C   UNL     1      -8.839  -9.203   0.273  1.00  0.00     0.074 A 
ATOM     38  C   UNL     1      -6.679  -8.569  -0.753  1.00  0.00     0.049 A 
ATOM     39  N   UNL     1      -9.066 -10.358  -0.296  1.00  0.00    -0.248 NA
ATOM     40  C   UNL     1      -9.888  -8.774   1.209  1.00  0.00     0.031 C 
ATOM     41  C   UNL     1      -5.472  -7.768  -0.966  1.00  0.00     0.029 A 
ATOM     42  N   UNL     1      -6.534  -9.624  -1.619  1.00  0.00    -0.354 N 
ATOM     43  C   UNL     1     -10.271 -10.810   0.232  1.00  0.00     0.074 A 
ATOM     44  C   UNL     1     -10.699  -9.821   1.200  1.00  0.00     0.031 C 
ATOM     45  C   UNL     1      -4.713  -8.358  -1.904  1.00  0.00     0.029 A 
ATOM     46  C   UNL     1      -5.352  -9.603  -2.321  1.00  0.00     0.049 A 
ATOM     47  H   UNL     1      -7.213 -10.329  -1.727  1.00  0.00     0.167 HD
ATOM     48  C   UNL     1     -10.961 -11.938  -0.072  1.00  0.00     0.034 A 
ATOM     49  C   UNL     1      -4.828 -10.496  -3.184  1.00  0.00     0.034 A 
ATOM     50  C   UNL     1     -10.527 -12.902  -1.054  1.00  0.00     0.049 A 
ATOM     51  C   UNL     1      -5.604 -11.750  -3.498  1.00  0.00     0.074 A 
ATOM     52  C   UNL     1     -11.170 -14.054  -1.475  1.00  0.00     0.029 A 
ATOM     53  N   UNL     1      -9.337 -12.831  -1.767  1.00  0.00    -0.354 N 
ATOM     54  N   UNL     1      -6.754 -12.153  -3.008  1.00  0.00    -0.248 NA
ATOM     55  C   UNL     1      -5.017 -12.664  -4.487  1.00  0.00     0.031 C 
ATOM     56  C   UNL     1     -10.345 -14.706  -2.399  1.00  0.00     0.029 A 
ATOM     57  C   UNL     1      -9.218 -13.926  -2.607  1.00  0.00     0.049 A 
ATOM     58  H   UNL     1      -8.675 -12.107  -1.686  1.00  0.00     0.167 HD
ATOM     59  C   UNL     1      -7.043 -13.350  -3.657  1.00  0.00     0.074 A 
ATOM     60  C   UNL     1      -5.950 -13.601  -4.573  1.00  0.00     0.031 C 
ATOM     61  C   UNL     1      -8.121 -14.162  -3.516  1.00  0.00     0.034 A 
BRANCH  48  62
ATOM     62  C   UNL     1     -12.237 -12.196   0.693  1.00  0.00     0.023 A 
ATOM     63  C   UNL     1     -13.341 -11.330   0.603  1.00  0.00     0.031 A 
ATOM     64  C   UNL     1     -12.339 -13.304   1.553  1.00  0.00     0.131 A 
ATOM     65  C   UNL     1     -14.462 -11.537   1.420  1.00  0.00     0.055 A 
ATOM     66  C   UNL     1     -13.493 -13.552   2.300  1.00  0.00     0.041 A 
ATOM     67  F   UNL     1     -11.312 -14.156   1.696  1.00  0.00    -0.206 F 
ATOM     68  C   UNL     1     -14.557 -12.656   2.250  1.00  0.00     0.022 A 
BRANCH  65  69
ATOM     69  S   UNL     1     -15.729 -10.241   1.493  1.00  0.00     0.124 S 
ATOM     70  O   UNL     1     -14.951  -9.095   1.955  1.00  0.00    -0.237 OA
ATOM     71  O   UNL     1     -16.199 -10.181   0.114  1.00  0.00    -0.237 OA
ATOM     72  O   UNL     1     -16.695 -10.760   2.460  1.00  0.00    -0.744 OA
ENDBRANCH  65  69
ENDBRANCH  48  62
BRANCH  49  73
ATOM     73  C   UNL     1      -3.494 -10.254  -3.800  1.00  0.00     0.023 A 
ATOM     74  C   UNL     1      -3.368 -10.026  -5.179  1.00  0.00     0.031 A 
ATOM     75  C   UNL     1      -2.322 -10.276  -3.024  1.00  0.00     0.131 A 
ATOM     76  C   UNL     1      -2.094  -9.871  -5.748  1.00  0.00     0.055 A 
ATOM     77  C   UNL     1      -1.061 -10.073  -3.587  1.00  0.00     0.041 A 
ATOM     78  F   UNL     1      -2.389 -10.482  -1.698  1.00  0.00    -0.206 F 
ATOM     79  C   UNL     1      -0.941  -9.881  -4.960  1.00  0.00     0.022 A 
BRANCH  76  80
ATOM     80  S   UNL     1      -1.963  -9.729  -7.552  1.00  0.00     0.124 S 
ATOM     81  O   UNL     1      -2.584 -10.973  -7.994  1.00  0.00    -0.237 OA
ATOM     82  O   UNL     1      -2.715  -8.507  -7.815  1.00  0.00    -0.237 OA
ATOM     83  O   UNL     1      -0.523  -9.634  -7.781  1.00  0.00    -0.744 OA
ENDBRANCH  76  80
ENDBRANCH  49  73
BRANCH  61  84
ATOM     84  C   UNL     1      -8.197 -15.365  -4.422  1.00  0.00     0.023 A 
ATOM     85  C   UNL     1      -7.331 -16.462  -4.277  1.00  0.00     0.031 A 
ATOM     86  C   UNL     1      -9.160 -15.408  -5.446  1.00  0.00     0.131 A 
ATOM     87  C   UNL     1      -7.418 -17.540  -5.170  1.00  0.00     0.055 A 
ATOM     88  C   UNL     1      -9.274 -16.505  -6.300  1.00  0.00     0.041 A 
ATOM     89  F   UNL     1     -10.011 -14.386  -5.627  1.00  0.00    -0.206 F 
ATOM     90  C   UNL     1      -8.393 -17.575  -6.171  1.00  0.00     0.022 A 
BRANCH  87  91
ATOM     91  S   UNL     1      -6.195 -18.875  -5.050  1.00  0.00     0.124 S 
ATOM     92  O   UNL     1      -4.944 -18.162  -5.282  1.00  0.00    -0.237 OA
ATOM     93  O   UNL     1      -6.405 -19.370  -3.694  1.00  0.00    -0.237 OA
ATOM     94  O   UNL     1      -6.589 -19.798  -6.113  1.00  0.00    -0.744 OA
ENDBRANCH  87  91
ENDBRANCH  61  84
ENDBRANCH  35  36
ENDBRANCH  27  30
ENDBRANCH  25  26
ENDBRANCH  24  25
ENDBRANCH   1  24
TORSDOF 18
