REMARK SMILES CC(C)C[C@@H]([NH2+][C@H]1CCOC2(CCOCC2)C1)C(=O)NCCCNC(=O)c1ccc(-c2c3nc(c(-c4cc(S(=O)(=O)[O-])ccc4F)c4ccc([nH]4)c(-c4cc(S(=O)(=O)[O-])ccc4F)c4nc(c(-c5cc(S(=O)(=O)[O-])ccc5F)c5ccc2[nH]5)C=C4)C=C3)cc1
REMARK SMILES IDX 22 1 21 2 20 3 18 4 19 5 5 7 4 8 2 9 1 10 3 11 6 12 7 15
REMARK SMILES IDX 8 16 17 17 9 18 11 19 10 20 12 21 16 22 13 23 15 24 14 25
REMARK SMILES IDX 23 26 24 27 25 28 26 30 27 31 28 32 89 33 29 34 88 35 30 36
REMARK SMILES IDX 31 37 32 38 82 39 33 40 87 41 81 42 83 43 34 44 86 45 80 46
REMARK SMILES IDX 79 47 35 49 67 50 47 51 66 52 48 53 51 54 65 55 84 56 49 57
REMARK SMILES IDX 50 58 64 60 85 61 52 62 36 63 37 64 45 65 38 66 44 67 46 68
REMARK SMILES IDX 43 69 39 70 40 71 41 72 42 73 68 74 69 75 77 76 70 77 76 78
REMARK SMILES IDX 78 79 75 80 71 81 72 82 73 83 74 84 53 85 54 86 62 87 55 88
REMARK SMILES IDX 61 89 63 90 60 91 56 92 57 93 58 94 59 95
REMARK H PARENT 20 6 6 13 6 14 24 29 83 48 51 59
REMARK Flexibility Score: inf
ROOT
ATOM      1  C   UNL     1       3.263   4.284  -2.989  1.00  0.00     0.042 C 
ENDROOT
BRANCH   1   2
ATOM      2  C   UNL     1       1.947   3.516  -3.034  1.00  0.00     0.118 C 
BRANCH   2   3
ATOM      3  N   UNL     1       1.725   2.782  -1.800  1.00  0.00    -0.351 N 
ATOM      4  C   UNL     1       0.801   2.985  -0.818  1.00  0.00     0.278 C 
ATOM      5  O   UNL     1       0.802   2.210   0.143  1.00  0.00    -0.268 OA
ATOM      6  H   UNL     1       2.334   2.022  -1.650  1.00  0.00     0.163 HD
BRANCH   4   7
ATOM      7  C   UNL     1      -0.262   4.105  -0.924  1.00  0.00     0.273 C 
BRANCH   7   8
ATOM      8  C   UNL     1       0.406   5.487  -0.789  1.00  0.00     0.078 C 
BRANCH   8   9
ATOM      9  C   UNL     1      -0.530   6.706  -0.876  1.00  0.00    -0.011 C 
ATOM     10  C   UNL     1      -1.616   6.686   0.197  1.00  0.00     0.007 C 
ATOM     11  C   UNL     1       0.296   7.991  -0.762  1.00  0.00     0.007 C 
ENDBRANCH   8   9
ENDBRANCH   7   8
BRANCH   7  12
ATOM     12  N   UNL     1      -1.089   3.959  -2.153  1.00  0.00    -0.333 N 
ATOM     13  H   UNL     1      -0.507   4.175  -2.962  1.00  0.00     0.347 HD
ATOM     14  H   UNL     1      -1.877   4.600  -2.064  1.00  0.00     0.347 HD
BRANCH  12  15
ATOM     15  C   UNL     1      -1.646   2.606  -2.325  1.00  0.00     0.188 C 
ATOM     16  C   UNL     1      -2.688   2.233  -1.269  1.00  0.00     0.093 C 
ATOM     17  C   UNL     1      -2.277   2.468  -3.719  1.00  0.00     0.100 C 
ATOM     18  C   UNL     1      -3.224   0.837  -1.545  1.00  0.00     0.167 C 
ATOM     19  C   UNL     1      -2.825   1.038  -3.929  1.00  0.00     0.078 C 
ATOM     20  O   UNL     1      -3.745   0.723  -2.865  1.00  0.00    -0.374 OA
ATOM     21  C   UNL     1      -1.691  -0.006  -4.036  1.00  0.00     0.064 C 
ATOM     22  C   UNL     1      -3.647   0.978  -5.230  1.00  0.00     0.064 C 
ATOM     23  C   UNL     1      -2.243  -1.380  -4.389  1.00  0.00     0.163 C 
ATOM     24  C   UNL     1      -4.097  -0.452  -5.518  1.00  0.00     0.163 C 
ATOM     25  O   UNL     1      -2.974  -1.326  -5.613  1.00  0.00    -0.381 OA
ENDBRANCH  12  15
ENDBRANCH   7  12
ENDBRANCH   4   7
ENDBRANCH   2   3
ENDBRANCH   1   2
BRANCH   1  26
ATOM     26  C   UNL     1       4.489   3.382  -2.937  1.00  0.00     0.118 C 
BRANCH  26  27
ATOM     27  N   UNL     1       4.650   2.600  -4.154  1.00  0.00    -0.352 N 
ATOM     28  C   UNL     1       5.694   2.572  -5.043  1.00  0.00     0.251 C 
ATOM     29  H   UNL     1       3.898   2.002  -4.371  1.00  0.00     0.163 HD
ATOM     30  O   UNL     1       5.543   2.011  -6.129  1.00  0.00    -0.269 OA
BRANCH  28  31
ATOM     31  C   UNL     1       6.977   3.226  -4.711  1.00  0.00     0.039 A 
ATOM     32  C   UNL     1       7.651   3.938  -5.706  1.00  0.00     0.014 A 
ATOM     33  C   UNL     1       7.526   3.127  -3.429  1.00  0.00     0.014 A 
ATOM     34  C   UNL     1       8.846   4.593  -5.400  1.00  0.00     0.010 A 
ATOM     35  C   UNL     1       8.668   3.853  -3.104  1.00  0.00     0.010 A 
ATOM     36  C   UNL     1       9.348   4.584  -4.089  1.00  0.00    -0.014 A 
BRANCH  36  37
ATOM     37  C   UNL     1      10.599   5.308  -3.737  1.00  0.00     0.031 A 
ATOM     38  C   UNL     1      11.795   4.542  -3.236  1.00  0.00     0.074 A 
ATOM     39  C   UNL     1      10.641   6.652  -3.822  1.00  0.00     0.049 A 
ATOM     40  N   UNL     1      12.949   4.991  -2.816  1.00  0.00    -0.248 NA
ATOM     41  C   UNL     1      11.661   3.079  -3.171  1.00  0.00     0.031 C 
ATOM     42  C   UNL     1       9.535   7.506  -4.260  1.00  0.00     0.029 A 
ATOM     43  N   UNL     1      11.650   7.539  -3.540  1.00  0.00    -0.354 N 
ATOM     44  C   UNL     1      13.674   3.869  -2.426  1.00  0.00     0.074 A 
ATOM     45  C   UNL     1      12.800   2.728  -2.595  1.00  0.00     0.031 C 
ATOM     46  C   UNL     1       9.936   8.787  -4.247  1.00  0.00     0.029 A 
ATOM     47  C   UNL     1      11.307   8.854  -3.751  1.00  0.00     0.049 A 
ATOM     48  H   UNL     1      12.537   7.259  -3.217  1.00  0.00     0.167 HD
ATOM     49  C   UNL     1      14.957   3.795  -1.993  1.00  0.00     0.034 A 
ATOM     50  C   UNL     1      12.011   9.987  -3.554  1.00  0.00     0.034 A 
ATOM     51  C   UNL     1      15.817   4.943  -1.841  1.00  0.00     0.049 A 
ATOM     52  C   UNL     1      13.425   9.883  -3.036  1.00  0.00     0.074 A 
ATOM     53  C   UNL     1      17.146   4.979  -1.458  1.00  0.00     0.029 A 
ATOM     54  N   UNL     1      15.431   6.261  -2.055  1.00  0.00    -0.354 N 
ATOM     55  N   UNL     1      14.112   8.809  -2.719  1.00  0.00    -0.248 NA
ATOM     56  C   UNL     1      14.160  11.141  -2.861  1.00  0.00     0.031 C 
ATOM     57  C   UNL     1      17.540   6.318  -1.366  1.00  0.00     0.029 A 
ATOM     58  C   UNL     1      16.486   7.117  -1.778  1.00  0.00     0.049 A 
ATOM     59  H   UNL     1      14.539   6.545  -2.359  1.00  0.00     0.167 HD
ATOM     60  C   UNL     1      15.373   9.264  -2.340  1.00  0.00     0.074 A 
ATOM     61  C   UNL     1      15.353  10.705  -2.484  1.00  0.00     0.031 C 
ATOM     62  C   UNL     1      16.451   8.555  -1.917  1.00  0.00     0.034 A 
BRANCH  49  63
ATOM     63  C   UNL     1      15.492   2.429  -1.631  1.00  0.00     0.023 A 
ATOM     64  C   UNL     1      15.583   1.394  -2.579  1.00  0.00     0.031 A 
ATOM     65  C   UNL     1      15.891   2.146  -0.312  1.00  0.00     0.131 A 
ATOM     66  C   UNL     1      15.983   0.110  -2.180  1.00  0.00     0.055 A 
ATOM     67  C   UNL     1      16.373   0.889   0.059  1.00  0.00     0.041 A 
ATOM     68  F   UNL     1      15.806   3.084   0.644  1.00  0.00    -0.206 F 
ATOM     69  C   UNL     1      16.405  -0.144  -0.874  1.00  0.00     0.022 A 
BRANCH  66  70
ATOM     70  S   UNL     1      15.792  -1.259  -3.355  1.00  0.00     0.124 S 
ATOM     71  O   UNL     1      14.359  -1.207  -3.638  1.00  0.00    -0.237 OA
ATOM     72  O   UNL     1      16.674  -0.864  -4.447  1.00  0.00    -0.237 OA
ATOM     73  O   UNL     1      16.226  -2.428  -2.593  1.00  0.00    -0.744 OA
ENDBRANCH  66  70
ENDBRANCH  49  63
BRANCH  50  74
ATOM     74  C   UNL     1      11.398  11.319  -3.832  1.00  0.00     0.023 A 
ATOM     75  C   UNL     1      11.925  12.166  -4.820  1.00  0.00     0.031 A 
ATOM     76  C   UNL     1      10.306  11.786  -3.080  1.00  0.00     0.131 A 
ATOM     77  C   UNL     1      11.394  13.454  -4.994  1.00  0.00     0.055 A 
ATOM     78  C   UNL     1       9.742  13.044  -3.298  1.00  0.00     0.041 A 
ATOM     79  F   UNL     1       9.761  11.017  -2.124  1.00  0.00    -0.206 F 
ATOM     80  C   UNL     1      10.297  13.893  -4.250  1.00  0.00     0.022 A 
BRANCH  77  81
ATOM     81  S   UNL     1      12.224  14.587  -6.142  1.00  0.00     0.124 S 
ATOM     82  O   UNL     1      13.573  14.632  -5.590  1.00  0.00    -0.237 OA
ATOM     83  O   UNL     1      12.072  13.892  -7.416  1.00  0.00    -0.237 OA
ATOM     84  O   UNL     1      11.455  15.824  -6.013  1.00  0.00    -0.744 OA
ENDBRANCH  77  81
ENDBRANCH  50  74
BRANCH  62  85
ATOM     85  C   UNL     1      17.715   9.330  -1.630  1.00  0.00     0.023 A 
ATOM     86  C   UNL     1      17.796  10.259  -0.579  1.00  0.00     0.031 A 
ATOM     87  C   UNL     1      18.857   9.138  -2.430  1.00  0.00     0.131 A 
ATOM     88  C   UNL     1      18.970  11.004  -0.392  1.00  0.00     0.055 A 
ATOM     89  C   UNL     1      20.044   9.831  -2.196  1.00  0.00     0.041 A 
ATOM     90  F   UNL     1      18.837   8.266  -3.451  1.00  0.00    -0.206 F 
ATOM     91  C   UNL     1      20.102  10.781  -1.181  1.00  0.00     0.022 A 
BRANCH  88  92
ATOM     92  S   UNL     1      18.968  12.341   0.834  1.00  0.00     0.124 S 
ATOM     93  O   UNL     1      17.877  13.185   0.359  1.00  0.00    -0.237 OA
ATOM     94  O   UNL     1      18.723  11.623   2.080  1.00  0.00    -0.237 OA
ATOM     95  O   UNL     1      20.303  12.924   0.707  1.00  0.00    -0.744 OA
ENDBRANCH  88  92
ENDBRANCH  62  85
ENDBRANCH  36  37
ENDBRANCH  28  31
ENDBRANCH  26  27
ENDBRANCH   1  26
TORSDOF 17
