REMARK SMILES COc1cc([C@@H]2[NH2+][C@H](C(=O)NCCCNC(=O)c3ccc(-c4c5nc(c(-c6cc(S(=O)(=O)[O-])ccc6F)c6ccc([nH]6)c(-c6cc(S(=O)(=O)[O-])ccc6F)c6nc(c(-c7cc(S(=O)(=O)[O-])ccc7F)c7ccc4[nH]7)C=C6)C=C5)cc3)CS2)ccc1OCc1ccc(Cl)cc1
REMARK SMILES IDX 12 1 11 2 9 3 10 4 8 6 6 7 7 8 82 9 81 12 5 13 3 14 4 15
REMARK SMILES IDX 85 16 84 17 83 18 2 19 1 20 86 21 87 22 88 23 89 24 94 25
REMARK SMILES IDX 90 26 93 27 91 28 92 29 13 30 14 31 15 32 16 33 17 35 18 36
REMARK SMILES IDX 19 37 80 38 20 39 79 40 21 41 22 42 23 43 73 44 24 45 78 46
REMARK SMILES IDX 72 47 74 48 25 49 77 50 71 51 70 52 26 54 58 55 38 56 57 57
REMARK SMILES IDX 39 58 42 59 56 60 75 61 40 62 41 63 55 65 76 66 43 67 27 68
REMARK SMILES IDX 28 69 36 70 29 71 35 72 37 73 34 74 30 75 31 76 32 77 33 78
REMARK SMILES IDX 59 79 60 80 68 81 61 82 67 83 69 84 66 85 62 86 63 87 64 88
REMARK SMILES IDX 65 89 44 90 45 91 53 92 46 93 52 94 54 95 51 96 47 97 48 98
REMARK SMILES IDX 49 99 50 100
REMARK H PARENT 11 5 7 10 7 11 15 34 74 53 42 64
REMARK Flexibility Score: inf
ROOT
ATOM      1  C   UNL     1       0.803   2.403   2.174  1.00  0.00     0.118 C 
ENDROOT
BRANCH   1   2
ATOM      2  N   UNL     1       2.329   3.793   1.963  1.00  0.00    -0.351 N 
ATOM      3  C   UNL     1       2.861   5.112   2.111  1.00  0.00     0.279 C 
ATOM      4  O   UNL     1       4.070   5.193   1.819  1.00  0.00    -0.268 OA
ATOM      5  H   UNL     1       3.063   3.283   1.549  1.00  0.00     0.163 HD
BRANCH   3   6
ATOM      6  C   UNL     1       2.159   6.449   2.596  1.00  0.00     0.283 C 
ATOM      7  C   UNL     1      -0.056   5.819   2.675  1.00  0.00     0.274 C 
ATOM      8  N   UNL     1       0.845   6.688   1.927  1.00  0.00    -0.321 N 
ATOM      9  S   UNL     1       0.165   6.405   4.373  1.00  0.00    -0.088 SA
ATOM     10  H   UNL     1       0.564   7.666   2.006  1.00  0.00     0.348 HD
ATOM     11  H   UNL     1       0.858   6.494   0.926  1.00  0.00     0.348 HD
ATOM     12  C   UNL     1       1.965   6.623   4.113  1.00  0.00     0.151 C 
BRANCH   7  13
ATOM     13  C   UNL     1       0.491   4.433   2.463  1.00  0.00     0.024 A 
ATOM     14  C   UNL     1       1.927   2.577   0.342  1.00  0.00     0.161 A 
ATOM     15  C   UNL     1       0.781   3.932   0.714  1.00  0.00     0.061 A 
ATOM     16  C   UNL     1       2.834   1.748   1.679  1.00  0.00     0.161 A 
ATOM     17  C   UNL     1       2.626   2.318   3.372  1.00  0.00     0.051 A 
ATOM     18  C   UNL     1       1.450   3.623   3.790  1.00  0.00     0.015 A 
BRANCH  14  19
ATOM     19  O   UNL     1       2.107   2.404  -1.003  1.00  0.00    -0.493 OA
ATOM     20  C   UNL     1       2.242   1.063  -1.423  1.00  0.00     0.278 C 
ENDBRANCH  14  19
BRANCH  16  21
ATOM     21  O   UNL     1       3.744   0.736   1.566  1.00  0.00    -0.485 OA
BRANCH  21  22
ATOM     22  C   UNL     1       3.247  -0.594   1.329  1.00  0.00     0.265 C 
BRANCH  22  23
ATOM     23  C   UNL     1       2.496  -1.435   2.368  1.00  0.00    -0.011 A 
ATOM     24  C   UNL     1       1.745  -0.924   3.430  1.00  0.00     0.009 A 
ATOM     25  C   UNL     1       2.356  -2.814   2.094  1.00  0.00     0.009 A 
ATOM     26  C   UNL     1       0.786  -1.702   4.095  1.00  0.00     0.021 A 
ATOM     27  C   UNL     1       1.424  -3.611   2.779  1.00  0.00     0.021 A 
ATOM     28  C   UNL     1       0.605  -3.035   3.743  1.00  0.00     0.041 A 
ATOM     29  Cl  UNL     1      -0.712  -3.922   4.410  1.00  0.00    -0.084 Cl
ENDBRANCH  22  23
ENDBRANCH  21  22
ENDBRANCH  16  21
ENDBRANCH   7  13
ENDBRANCH   3   6
ENDBRANCH   1   2
BRANCH   1  30
ATOM     30  C   UNL     1      -0.869   2.404   1.732  1.00  0.00     0.042 C 
BRANCH  30  31
ATOM     31  C   UNL     1      -1.184   1.282   0.732  1.00  0.00     0.118 C 
BRANCH  31  32
ATOM     32  N   UNL     1      -0.752  -0.016   1.228  1.00  0.00    -0.352 N 
ATOM     33  C   UNL     1      -0.869  -1.239   0.652  1.00  0.00     0.251 C 
ATOM     34  H   UNL     1      -0.311  -0.005   2.108  1.00  0.00     0.163 HD
ATOM     35  O   UNL     1      -0.396  -2.252   1.140  1.00  0.00    -0.269 OA
BRANCH  33  36
ATOM     36  C   UNL     1      -1.648  -1.406  -0.544  1.00  0.00     0.039 A 
ATOM     37  C   UNL     1      -2.716  -2.303  -0.443  1.00  0.00     0.014 A 
ATOM     38  C   UNL     1      -1.283  -0.766  -1.723  1.00  0.00     0.014 A 
ATOM     39  C   UNL     1      -3.468  -2.550  -1.562  1.00  0.00     0.010 A 
ATOM     40  C   UNL     1      -2.065  -0.971  -2.828  1.00  0.00     0.010 A 
ATOM     41  C   UNL     1      -3.148  -1.856  -2.733  1.00  0.00    -0.014 A 
BRANCH  41  42
ATOM     42  C   UNL     1      -4.008  -1.969  -3.897  1.00  0.00     0.031 A 
ATOM     43  C   UNL     1      -3.496  -2.708  -5.079  1.00  0.00     0.074 A 
ATOM     44  C   UNL     1      -5.145  -1.261  -3.841  1.00  0.00     0.049 A 
ATOM     45  N   UNL     1      -4.037  -2.832  -6.253  1.00  0.00    -0.248 NA
ATOM     46  C   UNL     1      -2.175  -3.347  -4.940  1.00  0.00     0.031 C 
ATOM     47  C   UNL     1      -5.587  -0.467  -2.683  1.00  0.00     0.029 A 
ATOM     48  N   UNL     1      -6.117  -1.066  -4.767  1.00  0.00    -0.354 N 
ATOM     49  C   UNL     1      -3.129  -3.571  -6.997  1.00  0.00     0.074 A 
ATOM     50  C   UNL     1      -1.966  -3.792  -6.169  1.00  0.00     0.031 C 
ATOM     51  C   UNL     1      -6.758   0.116  -2.972  1.00  0.00     0.029 A 
ATOM     52  C   UNL     1      -7.120  -0.235  -4.335  1.00  0.00     0.049 A 
ATOM     53  H   UNL     1      -6.104  -1.480  -5.661  1.00  0.00     0.167 HD
ATOM     54  C   UNL     1      -3.299  -4.035  -8.255  1.00  0.00     0.034 A 
ATOM     55  C   UNL     1      -8.209   0.180  -4.998  1.00  0.00     0.034 A 
ATOM     56  C   UNL     1      -4.488  -3.733  -9.011  1.00  0.00     0.049 A 
ATOM     57  C   UNL     1      -8.374  -0.358  -6.393  1.00  0.00     0.074 A 
ATOM     58  C   UNL     1      -4.839  -4.135 -10.283  1.00  0.00     0.029 A 
ATOM     59  N   UNL     1      -5.530  -2.932  -8.540  1.00  0.00    -0.354 N 
ATOM     60  N   UNL     1      -7.551  -1.125  -7.079  1.00  0.00    -0.248 NA
ATOM     61  C   UNL     1      -9.610  -0.011  -7.089  1.00  0.00     0.031 C 
ATOM     62  C   UNL     1      -6.060  -3.529 -10.602  1.00  0.00     0.029 A 
ATOM     63  C   UNL     1      -6.515  -2.813  -9.501  1.00  0.00     0.049 A 
ATOM     64  H   UNL     1      -5.559  -2.511  -7.650  1.00  0.00     0.167 HD
ATOM     65  C   UNL     1      -8.189  -1.384  -8.282  1.00  0.00     0.074 A 
ATOM     66  C   UNL     1      -9.475  -0.707  -8.208  1.00  0.00     0.031 C 
ATOM     67  C   UNL     1      -7.769  -2.106  -9.355  1.00  0.00     0.034 A 
BRANCH  54  68
ATOM     68  C   UNL     1      -2.189  -4.869  -8.845  1.00  0.00     0.023 A 
ATOM     69  C   UNL     1      -1.770  -6.066  -8.235  1.00  0.00     0.031 A 
ATOM     70  C   UNL     1      -1.501  -4.448  -9.995  1.00  0.00     0.131 A 
ATOM     71  C   UNL     1      -0.653  -6.757  -8.727  1.00  0.00     0.055 A 
ATOM     72  C   UNL     1      -0.442  -5.186 -10.531  1.00  0.00     0.041 A 
ATOM     73  F   UNL     1      -1.827  -3.298 -10.605  1.00  0.00    -0.206 F 
ATOM     74  C   UNL     1      -0.002  -6.340  -9.889  1.00  0.00     0.022 A 
BRANCH  71  75
ATOM     75  S   UNL     1       0.023  -8.125  -7.744  1.00  0.00     0.124 S 
ATOM     76  O   UNL     1       0.398  -7.441  -6.508  1.00  0.00    -0.237 OA
ATOM     77  O   UNL     1      -1.110  -9.038  -7.650  1.00  0.00    -0.237 OA
ATOM     78  O   UNL     1       1.145  -8.603  -8.549  1.00  0.00    -0.744 OA
ENDBRANCH  71  75
ENDBRANCH  54  68
BRANCH  55  79
ATOM     79  C   UNL     1      -9.209   1.059  -4.339  1.00  0.00     0.023 A 
ATOM     80  C   UNL     1     -10.514   0.600  -4.119  1.00  0.00     0.031 A 
ATOM     81  C   UNL     1      -8.887   2.358  -3.908  1.00  0.00     0.131 A 
ATOM     82  C   UNL     1     -11.471   1.453  -3.550  1.00  0.00     0.055 A 
ATOM     83  C   UNL     1      -9.825   3.183  -3.283  1.00  0.00     0.041 A 
ATOM     84  F   UNL     1      -7.643   2.840  -4.065  1.00  0.00    -0.206 F 
ATOM     85  C   UNL     1     -11.133   2.737  -3.118  1.00  0.00     0.022 A 
BRANCH  82  86
ATOM     86  S   UNL     1     -13.192   0.889  -3.491  1.00  0.00     0.124 S 
ATOM     87  O   UNL     1     -13.427   0.510  -4.879  1.00  0.00    -0.237 OA
ATOM     88  O   UNL     1     -13.117  -0.206  -2.530  1.00  0.00    -0.237 OA
ATOM     89  O   UNL     1     -13.919   2.072  -3.034  1.00  0.00    -0.744 OA
ENDBRANCH  82  86
ENDBRANCH  55  79
BRANCH  67  90
ATOM     90  C   UNL     1      -8.742  -2.202 -10.495  1.00  0.00     0.023 A 
ATOM     91  C   UNL     1      -9.099  -1.070 -11.242  1.00  0.00     0.031 A 
ATOM     92  C   UNL     1      -9.328  -3.437 -10.819  1.00  0.00     0.131 A 
ATOM     93  C   UNL     1     -10.079  -1.180 -12.233  1.00  0.00     0.055 A 
ATOM     94  C   UNL     1     -10.241  -3.555 -11.864  1.00  0.00     0.041 A 
ATOM     95  F   UNL     1      -9.018  -4.545 -10.127  1.00  0.00    -0.206 F 
ATOM     96  C   UNL     1     -10.634  -2.419 -12.566  1.00  0.00     0.022 A 
BRANCH  93  97
ATOM     97  S   UNL     1     -10.704   0.341 -12.991  1.00  0.00     0.124 S 
ATOM     98  O   UNL     1     -11.215   1.066 -11.832  1.00  0.00    -0.237 OA
ATOM     99  O   UNL     1      -9.506   0.896 -13.612  1.00  0.00    -0.237 OA
ATOM    100  O   UNL     1     -11.723  -0.137 -13.924  1.00  0.00    -0.744 OA
ENDBRANCH  93  97
ENDBRANCH  67  90
ENDBRANCH  41  42
ENDBRANCH  33  36
ENDBRANCH  31  32
ENDBRANCH  30  31
ENDBRANCH   1  30
TORSDOF 18
