REMARK SMILES CO[C@@H]1C[C@H](C(=O)NCCCNC(=O)c2ccc(-c3c4nc(c(-c5cc(S(=O)(=O)[O-])ccc5F)c5ccc([nH]5)c(-c5cc(S(=O)(=O)[O-])ccc5F)c5nc(c(-c6cc(S(=O)(=O)[O-])ccc6F)c6ccc3[nH]6)C=C5)C=C4)cc2)N(C(=O)c2ccn(C)c(=O)c2)C1
REMARK SMILES IDX 10 1 9 2 8 3 6 4 7 5 5 7 3 8 4 9 89 10 78 11 2 12 1 13 79 14
REMARK SMILES IDX 80 15 81 16 82 17 88 18 83 19 86 20 84 21 87 22 85 23 11 24
REMARK SMILES IDX 12 25 13 26 14 28 15 29 16 30 77 31 17 32 76 33 18 34 19 35
REMARK SMILES IDX 20 36 70 37 21 38 75 39 69 40 71 41 22 42 74 43 68 44 67 45
REMARK SMILES IDX 23 47 55 48 35 49 54 50 36 51 39 52 53 53 72 54 37 55 38 56
REMARK SMILES IDX 52 58 73 59 40 60 24 61 25 62 33 63 26 64 32 65 34 66 31 67
REMARK SMILES IDX 27 68 28 69 29 70 30 71 56 72 57 73 65 74 58 75 64 76 66 77
REMARK SMILES IDX 63 78 59 79 60 80 61 81 62 82 41 83 42 84 50 85 43 86 49 87
REMARK SMILES IDX 51 88 48 89 44 90 45 91 46 92 47 93
REMARK H PARENT 8 6 12 27 71 46 39 57
REMARK Flexibility Score: inf
ROOT
ATOM      1  C   UNL     1      -1.778   0.305  -1.075  1.00  0.00     0.042 C 
ENDROOT
BRANCH   1   2
ATOM      2  C   UNL     1      -1.595   1.714  -0.505  1.00  0.00     0.117 C 
BRANCH   2   3
ATOM      3  N   UNL     1      -1.015   1.685   0.829  1.00  0.00    -0.354 N 
ATOM      4  C   UNL     1       0.152   2.118   1.362  1.00  0.00     0.242 C 
ATOM      5  O   UNL     1       0.352   1.766   2.536  1.00  0.00    -0.273 OA
ATOM      6  H   UNL     1      -1.602   1.255   1.492  1.00  0.00     0.163 HD
BRANCH   4   7
ATOM      7  C   UNL     1       1.278   2.903   0.641  1.00  0.00     0.177 C 
ATOM      8  C   UNL     1       2.162   1.728  -1.256  1.00  0.00     0.139 C 
ATOM      9  C   UNL     1       2.450   2.025   0.214  1.00  0.00     0.069 C 
ATOM     10  C   UNL     1       1.487   3.022  -1.753  1.00  0.00     0.152 C 
ATOM     11  N   UNL     1       1.021   3.710  -0.548  1.00  0.00    -0.324 N 
BRANCH   8  12
ATOM     12  O   UNL     1       1.282   0.622  -1.426  1.00  0.00    -0.380 OA
ATOM     13  C   UNL     1       1.782  -0.604  -0.896  1.00  0.00     0.195 C 
ENDBRANCH   8  12
BRANCH  11  14
ATOM     14  C   UNL     1       0.773   5.070  -0.591  1.00  0.00     0.254 C 
ATOM     15  O   UNL     1       0.452   5.671  -1.611  1.00  0.00    -0.269 OA
BRANCH  14  16
ATOM     16  C   UNL     1       1.073   5.832   0.654  1.00  0.00     0.046 A 
ATOM     17  C   UNL     1       0.041   6.412   1.473  1.00  0.00     0.032 A 
ATOM     18  C   UNL     1       2.368   5.949   0.988  1.00  0.00     0.085 A 
ATOM     19  C   UNL     1       0.371   6.978   2.642  1.00  0.00     0.089 A 
ATOM     20  C   UNL     1       2.743   6.557   2.288  1.00  0.00     0.251 A 
ATOM     21  N   UNL     1       1.689   7.025   3.070  1.00  0.00    -0.319 N 
ATOM     22  O   UNL     1       3.928   6.588   2.605  1.00  0.00    -0.269 OA
ATOM     23  C   UNL     1       1.983   7.590   4.377  1.00  0.00     0.153 C 
ENDBRANCH  14  16
ENDBRANCH  11  14
ENDBRANCH   4   7
ENDBRANCH   2   3
ENDBRANCH   1   2
BRANCH   1  24
ATOM     24  C   UNL     1      -2.915  -0.499  -0.451  1.00  0.00     0.118 C 
BRANCH  24  25
ATOM     25  N   UNL     1      -4.202  -0.205  -1.058  1.00  0.00    -0.352 N 
ATOM     26  C   UNL     1      -5.003  -0.971  -1.874  1.00  0.00     0.251 C 
ATOM     27  H   UNL     1      -4.559   0.689  -0.851  1.00  0.00     0.163 HD
ATOM     28  O   UNL     1      -5.944  -0.426  -2.446  1.00  0.00    -0.269 OA
BRANCH  26  29
ATOM     29  C   UNL     1      -4.747  -2.419  -2.093  1.00  0.00     0.039 A 
ATOM     30  C   UNL     1      -4.995  -2.958  -3.361  1.00  0.00     0.014 A 
ATOM     31  C   UNL     1      -4.338  -3.268  -1.062  1.00  0.00     0.014 A 
ATOM     32  C   UNL     1      -4.782  -4.321  -3.605  1.00  0.00     0.010 A 
ATOM     33  C   UNL     1      -4.046  -4.609  -1.326  1.00  0.00     0.010 A 
ATOM     34  C   UNL     1      -4.275  -5.157  -2.598  1.00  0.00    -0.014 A 
BRANCH  34  35
ATOM     35  C   UNL     1      -4.006  -6.602  -2.848  1.00  0.00     0.031 A 
ATOM     36  C   UNL     1      -4.750  -7.660  -2.073  1.00  0.00     0.074 A 
ATOM     37  C   UNL     1      -3.053  -6.969  -3.729  1.00  0.00     0.049 A 
ATOM     38  N   UNL     1      -4.594  -8.961  -2.078  1.00  0.00    -0.248 NA
ATOM     39  C   UNL     1      -5.786  -7.187  -1.143  1.00  0.00     0.031 C 
ATOM     40  C   UNL     1      -2.233  -6.047  -4.519  1.00  0.00     0.029 A 
ATOM     41  N   UNL     1      -2.602  -8.212  -4.103  1.00  0.00    -0.354 N 
ATOM     42  C   UNL     1      -5.492  -9.458  -1.139  1.00  0.00     0.074 A 
ATOM     43  C   UNL     1      -6.146  -8.311  -0.543  1.00  0.00     0.031 C 
ATOM     44  C   UNL     1      -1.399  -6.755  -5.297  1.00  0.00     0.029 A 
ATOM     45  C   UNL     1      -1.586  -8.178  -5.031  1.00  0.00     0.049 A 
ATOM     46  H   UNL     1      -2.972  -9.049  -3.741  1.00  0.00     0.167 HD
ATOM     47  C   UNL     1      -5.764 -10.748  -0.817  1.00  0.00     0.034 A 
ATOM     48  C   UNL     1      -0.875  -9.175  -5.594  1.00  0.00     0.034 A 
ATOM     49  C   UNL     1      -5.124 -11.884  -1.437  1.00  0.00     0.049 A 
ATOM     50  C   UNL     1      -1.185 -10.601  -5.216  1.00  0.00     0.074 A 
ATOM     51  C   UNL     1      -5.371 -13.232  -1.234  1.00  0.00     0.029 A 
ATOM     52  N   UNL     1      -4.103 -11.808  -2.377  1.00  0.00    -0.354 N 
ATOM     53  N   UNL     1      -2.070 -11.054  -4.358  1.00  0.00    -0.248 NA
ATOM     54  C   UNL     1      -0.408 -11.649  -5.890  1.00  0.00     0.031 C 
ATOM     55  C   UNL     1      -4.459 -13.967  -2.000  1.00  0.00     0.029 A 
ATOM     56  C   UNL     1      -3.690 -13.082  -2.738  1.00  0.00     0.049 A 
ATOM     57  H   UNL     1      -3.728 -10.971  -2.734  1.00  0.00     0.167 HD
ATOM     58  C   UNL     1      -1.971 -12.442  -4.409  1.00  0.00     0.074 A 
ATOM     59  C   UNL     1      -0.954 -12.749  -5.394  1.00  0.00     0.031 C 
ATOM     60  C   UNL     1      -2.662 -13.377  -3.709  1.00  0.00     0.034 A 
BRANCH  47  61
ATOM     61  C   UNL     1      -6.782 -10.993   0.274  1.00  0.00     0.023 A 
ATOM     62  C   UNL     1      -8.121 -10.584   0.144  1.00  0.00     0.031 A 
ATOM     63  C   UNL     1      -6.403 -11.616   1.477  1.00  0.00     0.131 A 
ATOM     64  C   UNL     1      -9.006 -10.720   1.225  1.00  0.00     0.055 A 
ATOM     65  C   UNL     1      -7.311 -11.829   2.517  1.00  0.00     0.041 A 
ATOM     66  F   UNL     1      -5.136 -12.015   1.670  1.00  0.00    -0.206 F 
ATOM     67  C   UNL     1      -8.617 -11.363   2.402  1.00  0.00     0.022 A 
BRANCH  64  68
ATOM     68  S   UNL     1     -10.623  -9.904   1.127  1.00  0.00     0.124 S 
ATOM     69  O   UNL     1     -10.237  -8.510   0.920  1.00  0.00    -0.237 OA
ATOM     70  O   UNL     1     -11.245 -10.570  -0.011  1.00  0.00    -0.237 OA
ATOM     71  O   UNL     1     -11.230 -10.188   2.426  1.00  0.00    -0.744 OA
ENDBRANCH  64  68
ENDBRANCH  47  61
BRANCH  48  72
ATOM     72  C   UNL     1       0.214  -8.866  -6.566  1.00  0.00     0.023 A 
ATOM     73  C   UNL     1       0.113  -9.251  -7.912  1.00  0.00     0.031 A 
ATOM     74  C   UNL     1       1.386  -8.208  -6.153  1.00  0.00     0.131 A 
ATOM     75  C   UNL     1       1.182  -9.011  -8.790  1.00  0.00     0.055 A 
ATOM     76  C   UNL     1       2.426  -7.927  -7.042  1.00  0.00     0.041 A 
ATOM     77  F   UNL     1       1.531  -7.814  -4.878  1.00  0.00    -0.206 F 
ATOM     78  C   UNL     1       2.331  -8.340  -8.367  1.00  0.00     0.022 A 
BRANCH  75  79
ATOM     79  S   UNL     1       1.077  -9.653 -10.483  1.00  0.00     0.124 S 
ATOM     80  O   UNL     1       0.919 -11.084 -10.250  1.00  0.00    -0.237 OA
ATOM     81  O   UNL     1      -0.094  -8.953 -11.001  1.00  0.00    -0.237 OA
ATOM     82  O   UNL     1       2.351  -9.253 -11.078  1.00  0.00    -0.744 OA
ENDBRANCH  75  79
ENDBRANCH  48  72
BRANCH  60  83
ATOM     83  C   UNL     1      -2.360 -14.824  -4.016  1.00  0.00     0.023 A 
ATOM     84  C   UNL     1      -1.118 -15.403  -3.703  1.00  0.00     0.031 A 
ATOM     85  C   UNL     1      -3.325 -15.629  -4.648  1.00  0.00     0.131 A 
ATOM     86  C   UNL     1      -0.854 -16.732  -4.070  1.00  0.00     0.055 A 
ATOM     87  C   UNL     1      -3.077 -16.966  -4.958  1.00  0.00     0.041 A 
ATOM     88  F   UNL     1      -4.527 -15.126  -4.973  1.00  0.00    -0.206 F 
ATOM     89  C   UNL     1      -1.831 -17.521  -4.681  1.00  0.00     0.022 A 
BRANCH  86  90
ATOM     90  S   UNL     1       0.818 -17.389  -3.819  1.00  0.00     0.124 S 
ATOM     91  O   UNL     1       1.628 -16.467  -4.609  1.00  0.00    -0.237 OA
ATOM     92  O   UNL     1       0.976 -17.298  -2.372  1.00  0.00    -0.237 OA
ATOM     93  O   UNL     1       0.735 -18.750  -4.348  1.00  0.00    -0.744 OA
ENDBRANCH  86  90
ENDBRANCH  60  83
ENDBRANCH  34  35
ENDBRANCH  26  29
ENDBRANCH  24  25
ENDBRANCH   1  24
TORSDOF 16
