REMARK SMILES Cc1ccc(C)c([C@@H](O)[C@@H](C)[C@@H](C)C(=O)NCCCNC(=O)c2ccc(-c3c4nc(c(-c5cc(S(=O)(=O)[O-])ccc5F)c5ccc([nH]5)c(-c5cc(S(=O)(=O)[O-])ccc5F)c5nc(c(-c6cc(S(=O)(=O)[O-])ccc6F)c6ccc3[nH]6)C=C5)C=C4)cc2)c1
REMARK SMILES IDX 18 1 17 2 16 3 14 4 15 5 12 7 13 8 10 9 11 10 8 11 7 12 1 13
REMARK SMILES IDX 2 14 3 15 86 16 4 17 5 18 6 19 9 20 19 22 20 23 21 24 22 26
REMARK SMILES IDX 23 27 24 28 85 29 25 30 84 31 26 32 27 33 28 34 78 35 29 36
REMARK SMILES IDX 83 37 77 38 79 39 30 40 82 41 76 42 75 43 31 45 63 46 43 47
REMARK SMILES IDX 62 48 44 49 47 50 61 51 80 52 45 53 46 54 60 56 81 57 48 58
REMARK SMILES IDX 32 59 33 60 41 61 34 62 40 63 42 64 39 65 35 66 36 67 37 68
REMARK SMILES IDX 38 69 64 70 65 71 73 72 66 73 72 74 74 75 71 76 67 77 68 78
REMARK SMILES IDX 69 79 70 80 49 81 50 82 58 83 51 84 57 85 59 86 56 87 52 88
REMARK SMILES IDX 53 89 54 90 55 91
REMARK H PARENT 16 6 9 21 20 25 79 44 47 55
REMARK Flexibility Score: inf
ROOT
ATOM      1  C   UNL     1      -5.207   0.550   1.441  1.00  0.00     0.042 C 
ENDROOT
BRANCH   1   2
ATOM      2  C   UNL     1      -5.535   2.027   1.204  1.00  0.00     0.117 C 
BRANCH   2   3
ATOM      3  N   UNL     1      -5.066   2.949   2.229  1.00  0.00    -0.356 N 
ATOM      4  C   UNL     1      -4.077   3.887   2.233  1.00  0.00     0.223 C 
ATOM      5  O   UNL     1      -4.036   4.660   3.193  1.00  0.00    -0.275 OA
ATOM      6  H   UNL     1      -5.556   2.881   3.080  1.00  0.00     0.163 HD
BRANCH   4   7
ATOM      7  C   UNL     1      -3.016   3.995   1.132  1.00  0.00     0.081 C 
ATOM      8  C   UNL     1      -3.640   4.530  -0.155  1.00  0.00     0.018 C 
BRANCH   7   9
ATOM      9  C   UNL     1      -2.148   2.704   1.085  1.00  0.00     0.031 C 
ATOM     10  C   UNL     1      -1.275   2.655   2.359  1.00  0.00     0.011 C 
BRANCH   9  11
ATOM     11  C   UNL     1      -1.278   2.488  -0.179  1.00  0.00     0.148 C 
BRANCH  11  12
ATOM     12  C   UNL     1      -0.547   1.142  -0.199  1.00  0.00    -0.016 A 
ATOM     13  C   UNL     1       3.108   0.016   0.069  1.00  0.00     0.044 C 
ATOM     14  C   UNL     1       1.613  -0.018  -0.042  1.00  0.00    -0.051 A 
ATOM     15  C   UNL     1       0.958  -1.247  -0.104  1.00  0.00     0.004 A 
ATOM     16  C   UNL     1       0.859   1.162  -0.077  1.00  0.00     0.010 A 
ATOM     17  C   UNL     1      -0.424  -1.292  -0.241  1.00  0.00     0.004 A 
ATOM     18  C   UNL     1      -1.188  -0.113  -0.317  1.00  0.00    -0.045 A 
ATOM     19  C   UNL     1      -2.662  -0.315  -0.519  1.00  0.00     0.045 C 
ENDBRANCH  11  12
BRANCH  11  20
ATOM     20  O   UNL     1      -2.044   2.579  -1.379  1.00  0.00    -0.388 OA
ATOM     21  H   UNL     1      -2.693   1.859  -1.404  1.00  0.00     0.211 HD
ENDBRANCH  11  20
ENDBRANCH   9  11
ENDBRANCH   7   9
ENDBRANCH   4   7
ENDBRANCH   2   3
ENDBRANCH   1   2
BRANCH   1  22
ATOM     22  C   UNL     1      -5.935  -0.130   2.579  1.00  0.00     0.118 C 
BRANCH  22  23
ATOM     23  N   UNL     1      -7.388  -0.214   2.392  1.00  0.00    -0.352 N 
ATOM     24  C   UNL     1      -8.431  -0.243   3.304  1.00  0.00     0.251 C 
ATOM     25  H   UNL     1      -7.672  -0.259   1.451  1.00  0.00     0.163 HD
ATOM     26  O   UNL     1      -9.547  -0.613   2.929  1.00  0.00    -0.269 OA
BRANCH  24  27
ATOM     27  C   UNL     1      -8.218   0.155   4.710  1.00  0.00     0.039 A 
ATOM     28  C   UNL     1      -9.187   0.150   5.715  1.00  0.00     0.014 A 
ATOM     29  C   UNL     1      -7.023   0.768   5.005  1.00  0.00     0.014 A 
ATOM     30  C   UNL     1      -8.889   0.804   6.924  1.00  0.00     0.010 A 
ATOM     31  C   UNL     1      -6.596   0.826   6.284  1.00  0.00     0.010 A 
ATOM     32  C   UNL     1      -7.579   1.238   7.146  1.00  0.00    -0.014 A 
BRANCH  32  33
ATOM     33  C   UNL     1      -7.065   1.917   8.317  1.00  0.00     0.031 A 
ATOM     34  C   UNL     1      -6.768   1.007   9.439  1.00  0.00     0.074 A 
ATOM     35  C   UNL     1      -6.470   3.127   8.257  1.00  0.00     0.049 A 
ATOM     36  N   UNL     1      -7.541   0.715  10.429  1.00  0.00    -0.248 NA
ATOM     37  C   UNL     1      -5.596   0.116   9.313  1.00  0.00     0.031 C 
ATOM     38  C   UNL     1      -6.211   3.968   7.084  1.00  0.00     0.029 A 
ATOM     39  N   UNL     1      -5.857   3.811   9.261  1.00  0.00    -0.354 N 
ATOM     40  C   UNL     1      -6.799  -0.172  11.194  1.00  0.00     0.074 A 
ATOM     41  C   UNL     1      -5.858  -0.758  10.285  1.00  0.00     0.031 C 
ATOM     42  C   UNL     1      -5.349   4.957   7.421  1.00  0.00     0.029 A 
ATOM     43  C   UNL     1      -5.093   4.899   8.852  1.00  0.00     0.049 A 
ATOM     44  H   UNL     1      -5.949   3.555  10.208  1.00  0.00     0.167 HD
ATOM     45  C   UNL     1      -6.757  -0.078  12.553  1.00  0.00     0.034 A 
ATOM     46  C   UNL     1      -4.278   5.654   9.637  1.00  0.00     0.034 A 
ATOM     47  C   UNL     1      -7.739   0.885  13.024  1.00  0.00     0.049 A 
ATOM     48  C   UNL     1      -4.702   5.426  11.045  1.00  0.00     0.074 A 
ATOM     49  C   UNL     1      -9.100   1.051  12.835  1.00  0.00     0.029 A 
ATOM     50  N   UNL     1      -7.280   2.113  13.458  1.00  0.00    -0.354 N 
ATOM     51  N   UNL     1      -5.867   5.777  11.517  1.00  0.00    -0.248 NA
ATOM     52  C   UNL     1      -4.023   4.388  11.809  1.00  0.00     0.031 C 
ATOM     53  C   UNL     1      -9.284   2.458  12.678  1.00  0.00     0.029 A 
ATOM     54  C   UNL     1      -8.053   3.088  12.873  1.00  0.00     0.049 A 
ATOM     55  H   UNL     1      -6.530   2.264  14.078  1.00  0.00     0.167 HD
ATOM     56  C   UNL     1      -6.256   4.730  12.340  1.00  0.00     0.074 A 
ATOM     57  C   UNL     1      -5.034   3.966  12.575  1.00  0.00     0.031 C 
ATOM     58  C   UNL     1      -7.576   4.412  12.506  1.00  0.00     0.034 A 
BRANCH  45  59
ATOM     59  C   UNL     1      -5.607  -0.542  13.428  1.00  0.00     0.023 A 
ATOM     60  C   UNL     1      -5.783  -0.396  14.816  1.00  0.00     0.031 A 
ATOM     61  C   UNL     1      -4.300  -0.899  13.020  1.00  0.00     0.131 A 
ATOM     62  C   UNL     1      -4.697  -0.490  15.701  1.00  0.00     0.055 A 
ATOM     63  C   UNL     1      -3.236  -1.062  13.913  1.00  0.00     0.041 A 
ATOM     64  F   UNL     1      -3.934  -1.037  11.743  1.00  0.00    -0.206 F 
ATOM     65  C   UNL     1      -3.421  -0.823  15.260  1.00  0.00     0.022 A 
BRANCH  62  66
ATOM     66  S   UNL     1      -4.957   0.005  17.419  1.00  0.00     0.124 S 
ATOM     67  O   UNL     1      -5.537   1.334  17.254  1.00  0.00    -0.237 OA
ATOM     68  O   UNL     1      -5.859  -1.038  17.896  1.00  0.00    -0.237 OA
ATOM     69  O   UNL     1      -3.611  -0.024  17.986  1.00  0.00    -0.744 OA
ENDBRANCH  62  66
ENDBRANCH  45  59
BRANCH  46  70
ATOM     70  C   UNL     1      -3.010   6.343   9.266  1.00  0.00     0.023 A 
ATOM     71  C   UNL     1      -2.448   7.378  10.045  1.00  0.00     0.031 A 
ATOM     72  C   UNL     1      -2.196   5.812   8.241  1.00  0.00     0.131 A 
ATOM     73  C   UNL     1      -1.134   7.836   9.784  1.00  0.00     0.055 A 
ATOM     74  C   UNL     1      -0.905   6.277   7.978  1.00  0.00     0.041 A 
ATOM     75  F   UNL     1      -2.593   4.754   7.517  1.00  0.00    -0.206 F 
ATOM     76  C   UNL     1      -0.364   7.287   8.757  1.00  0.00     0.022 A 
BRANCH  73  77
ATOM     77  S   UNL     1      -0.358   9.084  10.863  1.00  0.00     0.124 S 
ATOM     78  O   UNL     1      -1.093  10.296  10.519  1.00  0.00    -0.237 OA
ATOM     79  O   UNL     1      -0.593   8.539  12.195  1.00  0.00    -0.237 OA
ATOM     80  O   UNL     1       1.044   9.077  10.442  1.00  0.00    -0.744 OA
ENDBRANCH  73  77
ENDBRANCH  46  70
BRANCH  58  81
ATOM     81  C   UNL     1      -8.622   5.426  12.076  1.00  0.00     0.023 A 
ATOM     82  C   UNL     1      -8.749   5.965  10.774  1.00  0.00     0.031 A 
ATOM     83  C   UNL     1      -9.609   5.772  13.018  1.00  0.00     0.131 A 
ATOM     84  C   UNL     1      -9.826   6.821  10.464  1.00  0.00     0.055 A 
ATOM     85  C   UNL     1     -10.684   6.601  12.701  1.00  0.00     0.041 A 
ATOM     86  F   UNL     1      -9.562   5.275  14.265  1.00  0.00    -0.206 F 
ATOM     87  C   UNL     1     -10.794   7.135  11.423  1.00  0.00     0.022 A 
BRANCH  84  88
ATOM     88  S   UNL     1      -9.985   7.554   8.803  1.00  0.00     0.124 S 
ATOM     89  O   UNL     1      -8.654   8.083   8.534  1.00  0.00    -0.237 OA
ATOM     90  O   UNL     1     -10.400   6.412   7.992  1.00  0.00    -0.237 OA
ATOM     91  O   UNL     1     -11.020   8.576   8.981  1.00  0.00    -0.744 OA
ENDBRANCH  84  88
ENDBRANCH  58  81
ENDBRANCH  32  33
ENDBRANCH  24  27
ENDBRANCH  22  23
ENDBRANCH   1  22
TORSDOF 17
