REMARK SMILES [NH3+]C[C@@H]1CC[C@H](C(=O)N[C@@H](Cc2ccccc2)C(=O)NCCCNC(=O)c2ccc(-c3c4nc(c(-c5cc(S(=O)(=O)[O-])ccc5F)c5ccc([nH]5)c(-c5cc(S(=O)(=O)[O-])ccc5F)c5nc(c(-c6cc(S(=O)(=O)[O-])ccc6F)c6ccc3[nH]6)C=C5)C=C4)cc2)O1
REMARK SMILES IDX 21 1 20 2 18 3 19 4 10 6 9 7 7 8 8 9 6 11 3 12 4 13 90 14
REMARK SMILES IDX 5 15 2 16 1 17 11 21 12 22 13 23 17 24 14 25 16 26 15 27
REMARK SMILES IDX 22 28 23 29 24 30 25 31 26 33 27 34 28 35 89 36 29 37 88 38
REMARK SMILES IDX 30 39 31 40 32 41 82 42 33 43 87 44 81 45 83 46 34 47 86 48
REMARK SMILES IDX 80 49 79 50 35 52 67 53 47 54 66 55 48 56 51 57 65 58 84 59
REMARK SMILES IDX 49 60 50 61 64 63 85 64 52 65 36 66 37 67 45 68 38 69 44 70
REMARK SMILES IDX 46 71 43 72 39 73 40 74 41 75 42 76 68 77 69 78 77 79 70 80
REMARK SMILES IDX 76 81 78 82 75 83 71 84 72 85 73 86 74 87 53 88 54 89 62 90
REMARK SMILES IDX 55 91 61 92 63 93 60 94 56 95 57 96 58 97 59 98
REMARK H PARENT 20 5 9 10 1 18 1 19 1 20 24 32 83 51 51 62
REMARK Flexibility Score: inf
ROOT
ATOM      1  C   UNL     1      -4.671   3.041   1.791  1.00  0.00     0.117 C 
ENDROOT
BRANCH   1   2
ATOM      2  N   UNL     1      -3.693   1.999   1.559  1.00  0.00    -0.354 N 
ATOM      3  C   UNL     1      -2.355   2.024   1.790  1.00  0.00     0.242 C 
ATOM      4  O   UNL     1      -1.832   0.954   2.124  1.00  0.00    -0.273 OA
ATOM      5  H   UNL     1      -4.045   1.160   1.183  1.00  0.00     0.163 HD
BRANCH   3   6
ATOM      6  C   UNL     1      -1.530   3.323   1.807  1.00  0.00     0.175 C 
BRANCH   6   7
ATOM      7  N   UNL     1      -1.869   4.343   0.814  1.00  0.00    -0.342 N 
ATOM      8  C   UNL     1      -1.210   4.705  -0.323  1.00  0.00     0.249 C 
ATOM      9  O   UNL     1      -1.752   5.548  -1.045  1.00  0.00    -0.272 OA
ATOM     10  H   UNL     1      -2.698   4.843   0.994  1.00  0.00     0.164 HD
BRANCH   8  11
ATOM     11  C   UNL     1       0.202   4.178  -0.659  1.00  0.00     0.207 C 
ATOM     12  C   UNL     1       1.583   2.387  -0.100  1.00  0.00     0.174 C 
ATOM     13  C   UNL     1       1.898   3.482   0.905  1.00  0.00     0.041 C 
ATOM     14  O   UNL     1       0.334   2.757  -0.709  1.00  0.00    -0.359 OA
ATOM     15  C   UNL     1       1.270   4.713   0.291  1.00  0.00     0.045 C 
BRANCH  12  16
ATOM     16  C   UNL     1       1.453   0.991   0.534  1.00  0.00     0.291 C 
BRANCH  16  17
ATOM     17  N   UNL     1       1.633  -0.085  -0.447  1.00  0.00    -0.355 N 
ATOM     18  H   UNL     1       1.538  -0.988   0.018  1.00  0.00     0.344 HD
ATOM     19  H   UNL     1       2.561  -0.013  -0.864  1.00  0.00     0.344 HD
ATOM     20  H   UNL     1       0.925  -0.002  -1.177  1.00  0.00     0.344 HD
ENDBRANCH  16  17
ENDBRANCH  12  16
ENDBRANCH   8  11
ENDBRANCH   6   7
BRANCH   6  21
ATOM     21  C   UNL     1      -1.313   3.895   3.222  1.00  0.00     0.070 C 
BRANCH  21  22
ATOM     22  C   UNL     1      -2.557   4.155   4.032  1.00  0.00    -0.045 A 
ATOM     23  C   UNL     1      -3.250   5.368   3.922  1.00  0.00     0.004 A 
ATOM     24  C   UNL     1      -3.069   3.150   4.869  1.00  0.00     0.004 A 
ATOM     25  C   UNL     1      -4.457   5.551   4.600  1.00  0.00     0.000 A 
ATOM     26  C   UNL     1      -4.275   3.337   5.546  1.00  0.00     0.000 A 
ATOM     27  C   UNL     1      -4.974   4.534   5.402  1.00  0.00     0.000 A 
ENDBRANCH  21  22
ENDBRANCH   6  21
ENDBRANCH   3   6
ENDBRANCH   1   2
BRANCH   1  28
ATOM     28  C   UNL     1      -5.919   2.897   0.951  1.00  0.00     0.042 C 
BRANCH  28  29
ATOM     29  C   UNL     1      -6.658   1.595   1.208  1.00  0.00     0.118 C 
BRANCH  29  30
ATOM     30  N   UNL     1      -7.045   1.416   2.608  1.00  0.00    -0.352 N 
ATOM     31  C   UNL     1      -8.291   1.443   3.196  1.00  0.00     0.251 C 
ATOM     32  H   UNL     1      -6.297   1.250   3.227  1.00  0.00     0.163 HD
ATOM     33  O   UNL     1      -8.399   1.461   4.412  1.00  0.00    -0.269 OA
BRANCH  31  34
ATOM     34  C   UNL     1      -9.484   1.493   2.326  1.00  0.00     0.039 A 
ATOM     35  C   UNL     1     -10.501   2.409   2.599  1.00  0.00     0.014 A 
ATOM     36  C   UNL     1      -9.545   0.688   1.190  1.00  0.00     0.014 A 
ATOM     37  C   UNL     1     -11.521   2.596   1.663  1.00  0.00     0.010 A 
ATOM     38  C   UNL     1     -10.474   0.974   0.204  1.00  0.00     0.010 A 
ATOM     39  C   UNL     1     -11.478   1.927   0.428  1.00  0.00    -0.014 A 
BRANCH  39  40
ATOM     40  C   UNL     1     -12.472   2.181  -0.647  1.00  0.00     0.031 A 
ATOM     41  C   UNL     1     -13.274   1.029  -1.196  1.00  0.00     0.074 A 
ATOM     42  C   UNL     1     -12.576   3.408  -1.197  1.00  0.00     0.049 A 
ATOM     43  N   UNL     1     -14.062   0.988  -2.238  1.00  0.00    -0.248 NA
ATOM     44  C   UNL     1     -13.116  -0.265  -0.513  1.00  0.00     0.031 C 
ATOM     45  C   UNL     1     -11.808   4.589  -0.793  1.00  0.00     0.029 A 
ATOM     46  N   UNL     1     -13.364   3.865  -2.223  1.00  0.00    -0.354 N 
ATOM     47  C   UNL     1     -14.462  -0.340  -2.354  1.00  0.00     0.074 A 
ATOM     48  C   UNL     1     -13.762  -1.081  -1.329  1.00  0.00     0.031 C 
ATOM     49  C   UNL     1     -12.193   5.641  -1.534  1.00  0.00     0.029 A 
ATOM     50  C   UNL     1     -13.192   5.202  -2.501  1.00  0.00     0.049 A 
ATOM     51  H   UNL     1     -13.993   3.290  -2.715  1.00  0.00     0.167 HD
ATOM     52  C   UNL     1     -15.358  -0.885  -3.213  1.00  0.00     0.034 A 
ATOM     53  C   UNL     1     -13.771   5.981  -3.436  1.00  0.00     0.034 A 
ATOM     54  C   UNL     1     -16.081  -0.118  -4.197  1.00  0.00     0.049 A 
ATOM     55  C   UNL     1     -14.780   5.360  -4.368  1.00  0.00     0.074 A 
ATOM     56  C   UNL     1     -17.058  -0.545  -5.077  1.00  0.00     0.029 A 
ATOM     57  N   UNL     1     -15.907   1.242  -4.423  1.00  0.00    -0.354 N 
ATOM     58  N   UNL     1     -15.178   4.110  -4.441  1.00  0.00    -0.248 NA
ATOM     59  C   UNL     1     -15.423   6.255  -5.338  1.00  0.00     0.031 C 
ATOM     60  C   UNL     1     -17.438   0.544  -5.870  1.00  0.00     0.029 A 
ATOM     61  C   UNL     1     -16.748   1.666  -5.439  1.00  0.00     0.049 A 
ATOM     62  H   UNL     1     -15.278   1.820  -3.933  1.00  0.00     0.167 HD
ATOM     63  C   UNL     1     -16.143   4.077  -5.443  1.00  0.00     0.074 A 
ATOM     64  C   UNL     1     -16.274   5.434  -5.936  1.00  0.00     0.031 C 
ATOM     65  C   UNL     1     -16.859   3.025  -5.915  1.00  0.00     0.034 A 
BRANCH  52  66
ATOM     66  C   UNL     1     -15.590  -2.375  -3.119  1.00  0.00     0.023 A 
ATOM     67  C   UNL     1     -16.085  -2.970  -1.944  1.00  0.00     0.031 A 
ATOM     68  C   UNL     1     -15.264  -3.219  -4.194  1.00  0.00     0.131 A 
ATOM     69  C   UNL     1     -16.149  -4.366  -1.837  1.00  0.00     0.055 A 
ATOM     70  C   UNL     1     -15.418  -4.606  -4.113  1.00  0.00     0.041 A 
ATOM     71  F   UNL     1     -14.768  -2.715  -5.334  1.00  0.00    -0.206 F 
ATOM     72  C   UNL     1     -15.844  -5.189  -2.923  1.00  0.00     0.022 A 
BRANCH  69  73
ATOM     73  S   UNL     1     -16.479  -5.093  -0.208  1.00  0.00     0.124 S 
ATOM     74  O   UNL     1     -15.354  -4.583   0.573  1.00  0.00    -0.237 OA
ATOM     75  O   UNL     1     -17.788  -4.542   0.124  1.00  0.00    -0.237 OA
ATOM     76  O   UNL     1     -16.452  -6.531  -0.463  1.00  0.00    -0.744 OA
ENDBRANCH  69  73
ENDBRANCH  52  66
BRANCH  53  77
ATOM     77  C   UNL     1     -13.430   7.429  -3.537  1.00  0.00     0.023 A 
ATOM     78  C   UNL     1     -14.392   8.415  -3.264  1.00  0.00     0.031 A 
ATOM     79  C   UNL     1     -12.152   7.851  -3.944  1.00  0.00     0.131 A 
ATOM     80  C   UNL     1     -14.078   9.771  -3.445  1.00  0.00     0.055 A 
ATOM     81  C   UNL     1     -11.829   9.204  -4.074  1.00  0.00     0.041 A 
ATOM     82  F   UNL     1     -11.192   6.951  -4.209  1.00  0.00    -0.206 F 
ATOM     83  C   UNL     1     -12.800  10.172  -3.837  1.00  0.00     0.022 A 
BRANCH  80  84
ATOM     84  S   UNL     1     -15.395  11.001  -3.236  1.00  0.00     0.124 S 
ATOM     85  O   UNL     1     -16.381  10.550  -4.211  1.00  0.00    -0.237 OA
ATOM     86  O   UNL     1     -15.752  10.826  -1.832  1.00  0.00    -0.237 OA
ATOM     87  O   UNL     1     -14.733  12.264  -3.555  1.00  0.00    -0.744 OA
ENDBRANCH  80  84
ENDBRANCH  53  77
BRANCH  65  88
ATOM     88  C   UNL     1     -17.882   3.318  -6.981  1.00  0.00     0.023 A 
ATOM     89  C   UNL     1     -17.506   3.716  -8.276  1.00  0.00     0.031 A 
ATOM     90  C   UNL     1     -19.253   3.202  -6.692  1.00  0.00     0.131 A 
ATOM     91  C   UNL     1     -18.493   4.035  -9.220  1.00  0.00     0.055 A 
ATOM     92  C   UNL     1     -20.229   3.465  -7.653  1.00  0.00     0.041 A 
ATOM     93  F   UNL     1     -19.664   2.827  -5.471  1.00  0.00    -0.206 F 
ATOM     94  C   UNL     1     -19.852   3.896  -8.922  1.00  0.00     0.022 A 
BRANCH  91  95
ATOM     95  S   UNL     1     -17.979   4.716 -10.819  1.00  0.00     0.124 S 
ATOM     96  O   UNL     1     -17.253   5.918 -10.418  1.00  0.00    -0.237 OA
ATOM     97  O   UNL     1     -17.168   3.637 -11.373  1.00  0.00    -0.237 OA
ATOM     98  O   UNL     1     -19.243   4.958 -11.512  1.00  0.00    -0.744 OA
ENDBRANCH  91  95
ENDBRANCH  65  88
ENDBRANCH  39  40
ENDBRANCH  31  34
ENDBRANCH  29  30
ENDBRANCH  28  29
ENDBRANCH   1  28
TORSDOF 19
