REMARK SMILES COC(=O)c1ccc([C@H]2Nc3c(C(=O)NCCCNC(=O)c4ccc(-c5c6nc(c(-c7cc(S(=O)(=O)[O-])ccc7F)c7ccc([nH]7)c(-c7cc(S(=O)(=O)[O-])ccc7F)c7nc(c(-c8cc(S(=O)(=O)[O-])ccc8F)c8ccc5[nH]8)C=C7)C=C6)cc4)cccc3[C@@H]3[C@@H]4CC[C@@H](C4)[C@@H]32)cc1
REMARK SMILES IDX 17 1 16 2 15 3 13 4 14 5 12 7 9 8 10 9 95 10 11 11 89 13
REMARK SMILES IDX 93 14 88 15 90 16 92 17 94 18 85 19 87 20 91 21 86 22 8 23
REMARK SMILES IDX 5 24 6 25 97 26 7 27 96 28 3 29 4 30 2 31 1 32 18 33 19 34
REMARK SMILES IDX 20 35 21 37 22 38 23 39 84 40 24 41 83 42 25 43 26 44 27 45
REMARK SMILES IDX 77 46 28 47 82 48 76 49 78 50 29 51 81 52 75 53 74 54 30 56
REMARK SMILES IDX 62 57 42 58 61 59 43 60 46 61 60 62 79 63 44 64 45 65 59 67
REMARK SMILES IDX 80 68 47 69 31 70 32 71 40 72 33 73 39 74 41 75 38 76 34 77
REMARK SMILES IDX 35 78 36 79 37 80 63 81 64 82 72 83 65 84 71 85 73 86 70 87
REMARK SMILES IDX 66 88 67 89 68 90 69 91 48 92 49 93 57 94 50 95 56 96 58 97
REMARK SMILES IDX 55 98 51 99 52 100 53 101 54 102
REMARK H PARENT 15 6 10 12 19 36 78 55 46 66
REMARK Flexibility Score: inf
ROOT
ATOM      1  C   UNL     1      -4.863 -10.267   1.732  1.00  0.00     0.042 C 
ENDROOT
BRANCH   1   2
ATOM      2  C   UNL     1      -4.291  -8.962   1.242  1.00  0.00     0.118 C 
BRANCH   2   3
ATOM      3  N   UNL     1      -4.925  -7.714   1.595  1.00  0.00    -0.352 N 
ATOM      4  C   UNL     1      -4.324  -6.461   1.679  1.00  0.00     0.253 C 
ATOM      5  O   UNL     1      -5.049  -5.477   1.841  1.00  0.00    -0.269 OA
ATOM      6  H   UNL     1      -5.887  -7.754   1.800  1.00  0.00     0.163 HD
BRANCH   4   7
ATOM      7  C   UNL     1      -2.832  -6.269   1.699  1.00  0.00     0.063 A 
ATOM      8  C   UNL     1      -1.495  -7.351  -1.402  1.00  0.00     0.113 C 
ATOM      9  N   UNL     1      -2.293  -7.682  -0.214  1.00  0.00    -0.377 N 
ATOM     10  C   UNL     1      -0.281  -8.277  -1.160  1.00  0.00     0.027 C 
ATOM     11  C   UNL     1      -1.914  -6.965   0.907  1.00  0.00     0.051 A 
ATOM     12  H   UNL     1      -3.021  -8.345  -0.216  1.00  0.00     0.161 HD
ATOM     13  C   UNL     1       0.256  -8.001   0.347  1.00  0.00     0.030 C 
ATOM     14  C   UNL     1       1.034  -8.174  -1.959  1.00  0.00    -0.005 C 
ATOM     15  C   UNL     1      -0.525  -6.948   1.135  1.00  0.00    -0.020 A 
ATOM     16  C   UNL     1       1.771  -7.843   0.147  1.00  0.00    -0.003 C 
ATOM     17  C   UNL     1       1.607  -6.751  -1.991  1.00  0.00     0.004 C 
ATOM     18  C   UNL     1       2.020  -8.852  -0.982  1.00  0.00     0.008 C 
ATOM     19  C   UNL     1      -2.309  -5.269   2.517  1.00  0.00     0.016 A 
ATOM     20  C   UNL     1      -0.032  -6.012   2.033  1.00  0.00     0.006 A 
ATOM     21  C   UNL     1       2.109  -6.525  -0.560  1.00  0.00     0.004 C 
ATOM     22  C   UNL     1      -0.920  -5.123   2.659  1.00  0.00     0.001 A 
BRANCH   8  23
ATOM     23  C   UNL     1      -2.670  -7.278  -2.392  1.00  0.00    -0.025 A 
ATOM     24  C   UNL     1      -5.488  -7.248  -2.298  1.00  0.00     0.060 A 
ATOM     25  C   UNL     1      -4.781  -6.058  -2.142  1.00  0.00     0.016 A 
ATOM     26  C   UNL     1      -4.802  -8.393  -2.746  1.00  0.00     0.016 A 
ATOM     27  C   UNL     1      -3.391  -6.057  -2.254  1.00  0.00     0.007 A 
ATOM     28  C   UNL     1      -3.389  -8.415  -2.791  1.00  0.00     0.007 A 
BRANCH  24  29
ATOM     29  C   UNL     1      -6.893  -7.259  -1.786  1.00  0.00     0.337 C 
ATOM     30  O   UNL     1      -7.494  -6.252  -1.432  1.00  0.00    -0.246 OA
BRANCH  29  31
ATOM     31  O   UNL     1      -7.339  -8.527  -1.621  1.00  0.00    -0.465 OA
ATOM     32  C   UNL     1      -8.573  -8.630  -0.897  1.00  0.00     0.282 C 
ENDBRANCH  29  31
ENDBRANCH  24  29
ENDBRANCH   8  23
ENDBRANCH   4   7
ENDBRANCH   2   3
ENDBRANCH   1   2
BRANCH   1  33
ATOM     33  C   UNL     1      -6.209 -10.657   1.167  1.00  0.00     0.118 C 
BRANCH  33  34
ATOM     34  N   UNL     1      -6.261 -10.817  -0.283  1.00  0.00    -0.352 N 
ATOM     35  C   UNL     1      -6.787 -11.832  -1.058  1.00  0.00     0.251 C 
ATOM     36  H   UNL     1      -5.854 -10.079  -0.793  1.00  0.00     0.163 HD
ATOM     37  O   UNL     1      -6.737 -11.760  -2.283  1.00  0.00    -0.269 OA
BRANCH  35  38
ATOM     38  C   UNL     1      -7.351 -13.031  -0.404  1.00  0.00     0.039 A 
ATOM     39  C   UNL     1      -7.023 -14.295  -0.896  1.00  0.00     0.014 A 
ATOM     40  C   UNL     1      -8.101 -12.909   0.764  1.00  0.00     0.014 A 
ATOM     41  C   UNL     1      -7.322 -15.423  -0.131  1.00  0.00     0.010 A 
ATOM     42  C   UNL     1      -8.241 -14.007   1.597  1.00  0.00     0.010 A 
ATOM     43  C   UNL     1      -7.861 -15.281   1.159  1.00  0.00    -0.014 A 
BRANCH  43  44
ATOM     44  C   UNL     1      -8.043 -16.451   2.055  1.00  0.00     0.031 A 
ATOM     45  C   UNL     1      -9.409 -16.772   2.601  1.00  0.00     0.074 A 
ATOM     46  C   UNL     1      -6.971 -17.188   2.417  1.00  0.00     0.049 A 
ATOM     47  N   UNL     1      -9.772 -17.735   3.408  1.00  0.00    -0.248 NA
ATOM     48  C   UNL     1     -10.506 -15.863   2.228  1.00  0.00     0.031 C 
ATOM     49  C   UNL     1      -5.585 -16.921   2.018  1.00  0.00     0.029 A 
ATOM     50  N   UNL     1      -6.875 -18.316   3.191  1.00  0.00    -0.354 N 
ATOM     51  C   UNL     1     -11.129 -17.539   3.642  1.00  0.00     0.074 A 
ATOM     52  C   UNL     1     -11.499 -16.310   2.978  1.00  0.00     0.031 C 
ATOM     53  C   UNL     1      -4.792 -17.893   2.497  1.00  0.00     0.029 A 
ATOM     54  C   UNL     1      -5.598 -18.824   3.277  1.00  0.00     0.049 A 
ATOM     55  H   UNL     1      -7.648 -18.724   3.644  1.00  0.00     0.167 HD
ATOM     56  C   UNL     1     -12.000 -18.334   4.311  1.00  0.00     0.034 A 
ATOM     57  C   UNL     1      -5.135 -19.921   3.909  1.00  0.00     0.034 A 
ATOM     58  C   UNL     1     -11.613 -19.565   4.951  1.00  0.00     0.049 A 
ATOM     59  C   UNL     1      -6.122 -20.791   4.646  1.00  0.00     0.074 A 
ATOM     60  C   UNL     1     -12.411 -20.479   5.616  1.00  0.00     0.029 A 
ATOM     61  N   UNL     1     -10.313 -20.053   5.011  1.00  0.00    -0.354 N 
ATOM     62  N   UNL     1      -7.417 -20.630   4.796  1.00  0.00    -0.248 NA
ATOM     63  C   UNL     1      -5.586 -22.000   5.281  1.00  0.00     0.031 C 
ATOM     64  C   UNL     1     -11.584 -21.478   6.141  1.00  0.00     0.029 A 
ATOM     65  C   UNL     1     -10.283 -21.239   5.727  1.00  0.00     0.049 A 
ATOM     66  H   UNL     1      -9.528 -19.619   4.605  1.00  0.00     0.167 HD
ATOM     67  C   UNL     1      -7.856 -21.739   5.516  1.00  0.00     0.074 A 
ATOM     68  C   UNL     1      -6.689 -22.569   5.740  1.00  0.00     0.031 C 
ATOM     69  C   UNL     1      -9.105 -22.046   5.953  1.00  0.00     0.034 A 
BRANCH  56  70
ATOM     70  C   UNL     1     -13.439 -17.876   4.385  1.00  0.00     0.023 A 
ATOM     71  C   UNL     1     -14.215 -17.686   3.226  1.00  0.00     0.031 A 
ATOM     72  C   UNL     1     -14.031 -17.581   5.624  1.00  0.00     0.131 A 
ATOM     73  C   UNL     1     -15.499 -17.132   3.323  1.00  0.00     0.055 A 
ATOM     74  C   UNL     1     -15.346 -17.119   5.721  1.00  0.00     0.041 A 
ATOM     75  F   UNL     1     -13.336 -17.716   6.764  1.00  0.00    -0.206 F 
ATOM     76  C   UNL     1     -16.082 -16.874   4.565  1.00  0.00     0.022 A 
BRANCH  73  77
ATOM     77  S   UNL     1     -16.330 -16.599   1.801  1.00  0.00     0.124 S 
ATOM     78  O   UNL     1     -15.377 -15.624   1.272  1.00  0.00    -0.237 OA
ATOM     79  O   UNL     1     -16.449 -17.845   1.053  1.00  0.00    -0.237 OA
ATOM     80  O   UNL     1     -17.589 -16.032   2.277  1.00  0.00    -0.744 OA
ENDBRANCH  73  77
ENDBRANCH  56  70
BRANCH  57  81
ATOM     81  C   UNL     1      -3.684 -20.273   3.867  1.00  0.00     0.023 A 
ATOM     82  C   UNL     1      -3.242 -21.469   3.277  1.00  0.00     0.031 A 
ATOM     83  C   UNL     1      -2.719 -19.442   4.464  1.00  0.00     0.131 A 
ATOM     84  C   UNL     1      -1.886 -21.828   3.346  1.00  0.00     0.055 A 
ATOM     85  C   UNL     1      -1.362 -19.774   4.477  1.00  0.00     0.041 A 
ATOM     86  F   UNL     1      -3.081 -18.284   5.038  1.00  0.00    -0.206 F 
ATOM     87  C   UNL     1      -0.941 -20.981   3.930  1.00  0.00     0.022 A 
BRANCH  84  88
ATOM     88  S   UNL     1      -1.387 -23.468   2.750  1.00  0.00     0.124 S 
ATOM     89  O   UNL     1      -2.224 -24.345   3.560  1.00  0.00    -0.237 OA
ATOM     90  O   UNL     1      -1.722 -23.388   1.332  1.00  0.00    -0.237 OA
ATOM     91  O   UNL     1       0.043 -23.517   3.048  1.00  0.00    -0.744 OA
ENDBRANCH  84  88
ENDBRANCH  57  81
BRANCH  69  92
ATOM     92  C   UNL     1      -9.268 -23.360   6.679  1.00  0.00     0.023 A 
ATOM     93  C   UNL     1      -8.617 -23.617   7.897  1.00  0.00     0.031 A 
ATOM     94  C   UNL     1     -10.053 -24.385   6.122  1.00  0.00     0.131 A 
ATOM     95  C   UNL     1      -8.687 -24.895   8.471  1.00  0.00     0.055 A 
ATOM     96  C   UNL     1     -10.189 -25.628   6.742  1.00  0.00     0.041 A 
ATOM     97  F   UNL     1     -10.698 -24.199   4.958  1.00  0.00    -0.206 F 
ATOM     98  C   UNL     1      -9.486 -25.895   7.912  1.00  0.00     0.022 A 
BRANCH  95  99
ATOM     99  S   UNL     1      -7.601 -25.274   9.873  1.00  0.00     0.124 S 
ATOM    100  O   UNL     1      -6.286 -24.947   9.334  1.00  0.00    -0.237 OA
ATOM    101  O   UNL     1      -8.106 -24.377  10.909  1.00  0.00    -0.237 OA
ATOM    102  O   UNL     1      -7.838 -26.696  10.115  1.00  0.00    -0.744 OA
ENDBRANCH  95  99
ENDBRANCH  69  92
ENDBRANCH  43  44
ENDBRANCH  35  38
ENDBRANCH  33  34
ENDBRANCH   1  33
TORSDOF 16
