REMARK SMILES C[C@@H](CC(=O)NCCCNC(=O)c1ccc(-c2c3nc(c(-c4cc(S(=O)(=O)[O-])ccc4F)c4ccc([nH]4)c(-c4cc(S(=O)(=O)[O-])ccc4F)c4nc(c(-c5cc(S(=O)(=O)[O-])ccc5F)c5ccc2[nH]5)C=C4)C=C3)cc1)CC(=O)N1C[C@H](C)[C@@H](C)C1
REMARK SMILES IDX 8 1 7 2 6 3 4 4 5 5 3 7 2 8 1 9 76 10 77 11 78 12 79 13
REMARK SMILES IDX 80 14 85 15 81 16 83 17 82 18 84 19 9 20 10 21 11 22 12 24
REMARK SMILES IDX 13 25 14 26 75 27 15 28 74 29 16 30 17 31 18 32 68 33 19 34
REMARK SMILES IDX 73 35 67 36 69 37 20 38 72 39 66 40 65 41 21 43 53 44 33 45
REMARK SMILES IDX 52 46 34 47 37 48 51 49 70 50 35 51 36 52 50 54 71 55 38 56
REMARK SMILES IDX 22 57 23 58 31 59 24 60 30 61 32 62 29 63 25 64 26 65 27 66
REMARK SMILES IDX 28 67 54 68 55 69 63 70 56 71 62 72 64 73 61 74 57 75 58 76
REMARK SMILES IDX 59 77 60 78 39 79 40 80 48 81 41 82 47 83 49 84 46 85 42 86
REMARK SMILES IDX 43 87 44 88 45 89
REMARK H PARENT 6 6 10 23 69 42 37 53
REMARK Flexibility Score: inf
ROOT
ATOM      1  C   UNL     1       1.413  -2.393   0.246  1.00  0.00     0.042 C 
ENDROOT
BRANCH   1   2
ATOM      2  C   UNL     1       1.921  -2.271  -1.189  1.00  0.00     0.117 C 
BRANCH   2   3
ATOM      3  N   UNL     1       0.835  -2.209  -2.151  1.00  0.00    -0.356 N 
ATOM      4  C   UNL     1       0.316  -1.158  -2.841  1.00  0.00     0.220 C 
ATOM      5  O   UNL     1      -0.642  -1.373  -3.587  1.00  0.00    -0.275 OA
ATOM      6  H   UNL     1       0.400  -3.074  -2.333  1.00  0.00     0.163 HD
BRANCH   4   7
ATOM      7  C   UNL     1       0.903   0.240  -2.719  1.00  0.00     0.103 C 
BRANCH   7   8
ATOM      8  C   UNL     1       0.477   1.108  -1.507  1.00  0.00     0.004 C 
ATOM      9  C   UNL     1       1.680   1.345  -0.595  1.00  0.00     0.009 C 
BRANCH   8  10
ATOM     10  C   UNL     1      -0.785   0.586  -0.805  1.00  0.00     0.104 C 
BRANCH  10  11
ATOM     11  C   UNL     1      -1.316   1.339   0.409  1.00  0.00     0.222 C 
ATOM     12  O   UNL     1      -2.016   2.340   0.286  1.00  0.00    -0.275 OA
ATOM     13  N   UNL     1      -1.084   0.716   1.626  1.00  0.00    -0.342 N 
ATOM     14  C   UNL     1      -2.120   0.646   2.651  1.00  0.00     0.123 C 
ATOM     15  C   UNL     1       0.234   0.715   2.236  1.00  0.00     0.123 C 
ATOM     16  C   UNL     1      -1.394   0.865   3.983  1.00  0.00     0.010 C 
ATOM     17  C   UNL     1       0.025   0.344   3.700  1.00  0.00     0.010 C 
ATOM     18  C   UNL     1      -1.400   2.350   4.355  1.00  0.00     0.010 C 
ATOM     19  C   UNL     1       0.155  -1.164   3.917  1.00  0.00     0.010 C 
ENDBRANCH  10  11
ENDBRANCH   8  10
ENDBRANCH   7   8
ENDBRANCH   4   7
ENDBRANCH   2   3
ENDBRANCH   1   2
BRANCH   1  20
ATOM     20  C   UNL     1       0.797  -3.742   0.600  1.00  0.00     0.118 C 
BRANCH  20  21
ATOM     21  N   UNL     1       1.812  -4.751   0.841  1.00  0.00    -0.352 N 
ATOM     22  C   UNL     1       2.096  -5.479   1.972  1.00  0.00     0.251 C 
ATOM     23  H   UNL     1       2.391  -4.946   0.069  1.00  0.00     0.163 HD
ATOM     24  O   UNL     1       3.156  -6.100   2.011  1.00  0.00    -0.269 OA
BRANCH  22  25
ATOM     25  C   UNL     1       1.174  -5.517   3.137  1.00  0.00     0.039 A 
ATOM     26  C   UNL     1       1.729  -5.612   4.419  1.00  0.00     0.014 A 
ATOM     27  C   UNL     1      -0.216  -5.539   2.994  1.00  0.00     0.014 A 
ATOM     28  C   UNL     1       0.902  -5.686   5.546  1.00  0.00     0.010 A 
ATOM     29  C   UNL     1      -1.042  -5.540   4.123  1.00  0.00     0.010 A 
ATOM     30  C   UNL     1      -0.494  -5.624   5.413  1.00  0.00    -0.014 A 
BRANCH  30  31
ATOM     31  C   UNL     1      -1.386  -5.661   6.606  1.00  0.00     0.031 A 
ATOM     32  C   UNL     1      -2.354  -6.802   6.800  1.00  0.00     0.074 A 
ATOM     33  C   UNL     1      -1.368  -4.642   7.489  1.00  0.00     0.049 A 
ATOM     34  N   UNL     1      -3.260  -6.971   7.729  1.00  0.00    -0.248 NA
ATOM     35  C   UNL     1      -2.312  -7.881   5.802  1.00  0.00     0.031 C 
ATOM     36  C   UNL     1      -0.501  -3.465   7.400  1.00  0.00     0.029 A 
ATOM     37  N   UNL     1      -2.107  -4.420   8.626  1.00  0.00    -0.354 N 
ATOM     38  C   UNL     1      -3.913  -8.160   7.417  1.00  0.00     0.074 A 
ATOM     39  C   UNL     1      -3.324  -8.645   6.186  1.00  0.00     0.031 C 
ATOM     40  C   UNL     1      -0.754  -2.651   8.438  1.00  0.00     0.029 A 
ATOM     41  C   UNL     1      -1.826  -3.223   9.246  1.00  0.00     0.049 A 
ATOM     42  H   UNL     1      -2.775  -5.058   8.966  1.00  0.00     0.167 HD
ATOM     43  C   UNL     1      -4.898  -8.795   8.100  1.00  0.00     0.034 A 
ATOM     44  C   UNL     1      -2.378  -2.641  10.330  1.00  0.00     0.034 A 
ATOM     45  C   UNL     1      -5.455  -8.316   9.342  1.00  0.00     0.049 A 
ATOM     46  C   UNL     1      -3.474  -3.367  11.071  1.00  0.00     0.074 A 
ATOM     47  C   UNL     1      -6.395  -8.925  10.156  1.00  0.00     0.029 A 
ATOM     48  N   UNL     1      -5.133  -7.108   9.947  1.00  0.00    -0.354 N 
ATOM     49  N   UNL     1      -4.029  -4.525  10.796  1.00  0.00    -0.248 NA
ATOM     50  C   UNL     1      -4.005  -2.716  12.276  1.00  0.00     0.031 C 
ATOM     51  C   UNL     1      -6.694  -8.056  11.211  1.00  0.00     0.029 A 
ATOM     52  C   UNL     1      -5.883  -6.938  11.102  1.00  0.00     0.049 A 
ATOM     53  H   UNL     1      -4.470  -6.465   9.606  1.00  0.00     0.167 HD
ATOM     54  C   UNL     1      -4.953  -4.752  11.813  1.00  0.00     0.074 A 
ATOM     55  C   UNL     1      -4.866  -3.622  12.714  1.00  0.00     0.031 C 
ATOM     56  C   UNL     1      -5.795  -5.803  11.989  1.00  0.00     0.034 A 
BRANCH  43  57
ATOM     57  C   UNL     1      -5.461 -10.065   7.504  1.00  0.00     0.023 A 
ATOM     58  C   UNL     1      -4.679 -11.221   7.339  1.00  0.00     0.031 A 
ATOM     59  C   UNL     1      -6.805 -10.117   7.092  1.00  0.00     0.131 A 
ATOM     60  C   UNL     1      -5.226 -12.355   6.719  1.00  0.00     0.055 A 
ATOM     61  C   UNL     1      -7.365 -11.274   6.547  1.00  0.00     0.041 A 
ATOM     62  F   UNL     1      -7.597  -9.039   7.207  1.00  0.00    -0.206 F 
ATOM     63  C   UNL     1      -6.571 -12.399   6.346  1.00  0.00     0.022 A 
BRANCH  60  64
ATOM     64  S   UNL     1      -4.121 -13.729   6.293  1.00  0.00     0.124 S 
ATOM     65  O   UNL     1      -3.161 -13.071   5.409  1.00  0.00    -0.237 OA
ATOM     66  O   UNL     1      -3.611 -14.140   7.596  1.00  0.00    -0.237 OA
ATOM     67  O   UNL     1      -5.005 -14.690   5.636  1.00  0.00    -0.744 OA
ENDBRANCH  60  64
ENDBRANCH  43  57
BRANCH  44  68
ATOM     68  C   UNL     1      -1.927  -1.291  10.776  1.00  0.00     0.023 A 
ATOM     69  C   UNL     1      -1.315  -1.105  12.026  1.00  0.00     0.031 A 
ATOM     70  C   UNL     1      -2.152  -0.154   9.978  1.00  0.00     0.131 A 
ATOM     71  C   UNL     1      -0.999   0.190  12.465  1.00  0.00     0.055 A 
ATOM     72  C   UNL     1      -1.785   1.126  10.396  1.00  0.00     0.041 A 
ATOM     73  F   UNL     1      -2.727  -0.275   8.770  1.00  0.00    -0.206 F 
ATOM     74  C   UNL     1      -1.219   1.306  11.654  1.00  0.00     0.022 A 
BRANCH  71  75
ATOM     75  S   UNL     1      -0.384   0.407  14.158  1.00  0.00     0.124 S 
ATOM     76  O   UNL     1      -1.448  -0.211  14.942  1.00  0.00    -0.237 OA
ATOM     77  O   UNL     1       0.882  -0.316  14.113  1.00  0.00    -0.237 OA
ATOM     78  O   UNL     1      -0.269   1.857  14.295  1.00  0.00    -0.744 OA
ENDBRANCH  71  75
ENDBRANCH  44  68
BRANCH  56  79
ATOM     79  C   UNL     1      -6.653  -5.795  13.231  1.00  0.00     0.023 A 
ATOM     80  C   UNL     1      -7.674  -4.848  13.420  1.00  0.00     0.031 A 
ATOM     81  C   UNL     1      -6.436  -6.745  14.245  1.00  0.00     0.131 A 
ATOM     82  C   UNL     1      -8.402  -4.835  14.620  1.00  0.00     0.055 A 
ATOM     83  C   UNL     1      -7.205  -6.766  15.410  1.00  0.00     0.041 A 
ATOM     84  F   UNL     1      -5.473  -7.672  14.118  1.00  0.00    -0.206 F 
ATOM     85  C   UNL     1      -8.185  -5.799  15.608  1.00  0.00     0.022 A 
BRANCH  82  86
ATOM     86  S   UNL     1      -9.577  -3.484  14.913  1.00  0.00     0.124 S 
ATOM     87  O   UNL     1      -8.717  -2.309  14.816  1.00  0.00    -0.237 OA
ATOM     88  O   UNL     1     -10.536  -3.664  13.827  1.00  0.00    -0.237 OA
ATOM     89  O   UNL     1     -10.096  -3.765  16.250  1.00  0.00    -0.744 OA
ENDBRANCH  82  86
ENDBRANCH  56  79
ENDBRANCH  30  31
ENDBRANCH  22  25
ENDBRANCH  20  21
ENDBRANCH   1  20
TORSDOF 16
