REMARK SMILES C[C@H](CN(C)C(=O)CCc1nc2ccccc2o1)C(=O)NCCCNC(=O)c1ccc(-c2c3nc(c(-c4cc(S(=O)(=O)[O-])ccc4F)c4ccc([nH]4)c(-c4cc(S(=O)(=O)[O-])ccc4F)c4nc(c(-c5cc(S(=O)(=O)[O-])ccc5F)c5ccc2[nH]5)C=C4)C=C3)cc1
REMARK SMILES IDX 19 1 20 2 21 3 2 5 1 6 3 7 4 8 5 9 6 10 7 11 8 12 9 13 10 14
REMARK SMILES IDX 11 15 18 16 12 17 17 18 13 19 16 20 14 21 15 22 22 23 23 24
REMARK SMILES IDX 24 25 25 26 26 27 27 29 28 30 29 31 90 32 30 33 89 34 31 35
REMARK SMILES IDX 32 36 33 37 83 38 34 39 88 40 82 41 84 42 35 43 87 44 81 45
REMARK SMILES IDX 80 46 36 48 68 49 48 50 67 51 49 52 52 53 66 54 85 55 50 56
REMARK SMILES IDX 51 57 65 59 86 60 53 61 37 62 38 63 46 64 39 65 45 66 47 67
REMARK SMILES IDX 44 68 40 69 41 70 42 71 43 72 69 73 70 74 78 75 71 76 77 77
REMARK SMILES IDX 79 78 76 79 72 80 73 81 74 82 75 83 54 84 55 85 63 86 56 87
REMARK SMILES IDX 62 88 64 89 61 90 57 91 58 92 59 93 60 94
REMARK H PARENT 21 4 25 28 84 47 52 58
REMARK Flexibility Score: inf
ROOT
ATOM      1  C   UNL     1      -1.015  -1.332  -0.508  1.00  0.00     0.224 C 
ATOM      2  O   UNL     1      -1.409  -1.467  -1.671  1.00  0.00    -0.275 OA
ATOM      3  N   UNL     1      -1.962  -1.228   0.464  1.00  0.00    -0.356 N 
ATOM      4  H   UNL     1      -2.891  -1.269   0.142  1.00  0.00     0.163 HD
ENDROOT
BRANCH   1   5
ATOM      5  C   UNL     1       0.486  -1.321  -0.208  1.00  0.00     0.095 C 
ATOM      6  C   UNL     1       0.923  -2.597   0.506  1.00  0.00     0.020 C 
BRANCH   5   7
ATOM      7  C   UNL     1       0.942   0.027   0.376  1.00  0.00     0.132 C 
BRANCH   7   8
ATOM      8  N   UNL     1       2.131   0.004   1.237  1.00  0.00    -0.345 N 
ATOM      9  C   UNL     1       3.362   0.454   0.615  1.00  0.00     0.146 C 
BRANCH   8  10
ATOM     10  C   UNL     1       1.976  -0.237   2.594  1.00  0.00     0.222 C 
ATOM     11  O   UNL     1       0.860  -0.264   3.118  1.00  0.00    -0.275 OA
BRANCH  10  12
ATOM     12  C   UNL     1       3.163  -0.555   3.481  1.00  0.00     0.110 C 
BRANCH  12  13
ATOM     13  C   UNL     1       3.671  -1.986   3.275  1.00  0.00     0.107 C 
BRANCH  13  14
ATOM     14  C   UNL     1       4.767  -2.008   2.275  1.00  0.00     0.195 A 
ATOM     15  N   UNL     1       5.740  -1.126   2.145  1.00  0.00    -0.214 NA
ATOM     16  O   UNL     1       4.657  -2.903   1.243  1.00  0.00    -0.441 OA
ATOM     17  C   UNL     1       6.179  -1.326   0.868  1.00  0.00     0.109 A 
ATOM     18  C   UNL     1       5.550  -2.433   0.321  1.00  0.00     0.154 A 
ATOM     19  C   UNL     1       7.021  -0.547   0.068  1.00  0.00     0.032 A 
ATOM     20  C   UNL     1       5.736  -2.880  -0.980  1.00  0.00     0.049 A 
ATOM     21  C   UNL     1       7.181  -0.925  -1.271  1.00  0.00     0.003 A 
ATOM     22  C   UNL     1       6.563  -2.077  -1.778  1.00  0.00     0.004 A 
ENDBRANCH  13  14
ENDBRANCH  12  13
ENDBRANCH  10  12
ENDBRANCH   8  10
ENDBRANCH   7   8
ENDBRANCH   5   7
ENDBRANCH   1   5
BRANCH   3  23
ATOM     23  C   UNL     1      -1.821  -1.066   1.901  1.00  0.00     0.117 C 
BRANCH  23  24
ATOM     24  C   UNL     1      -2.050   0.376   2.349  1.00  0.00     0.042 C 
BRANCH  24  25
ATOM     25  C   UNL     1      -3.510   0.693   2.615  1.00  0.00     0.118 C 
BRANCH  25  26
ATOM     26  N   UNL     1      -3.990   0.043   3.827  1.00  0.00    -0.352 N 
ATOM     27  C   UNL     1      -4.317   0.570   5.050  1.00  0.00     0.251 C 
ATOM     28  H   UNL     1      -4.097  -0.933   3.757  1.00  0.00     0.163 HD
ATOM     29  O   UNL     1      -4.434  -0.197   6.011  1.00  0.00    -0.269 OA
BRANCH  27  30
ATOM     30  C   UNL     1      -4.521   2.024   5.237  1.00  0.00     0.039 A 
ATOM     31  C   UNL     1      -4.178   2.608   6.461  1.00  0.00     0.014 A 
ATOM     32  C   UNL     1      -5.097   2.812   4.238  1.00  0.00     0.014 A 
ATOM     33  C   UNL     1      -4.365   3.980   6.659  1.00  0.00     0.010 A 
ATOM     34  C   UNL     1      -5.177   4.192   4.395  1.00  0.00     0.010 A 
ATOM     35  C   UNL     1      -4.834   4.791   5.614  1.00  0.00    -0.014 A 
BRANCH  35  36
ATOM     36  C   UNL     1      -5.016   6.258   5.781  1.00  0.00     0.031 A 
ATOM     37  C   UNL     1      -6.383   6.868   5.600  1.00  0.00     0.074 A 
ATOM     38  C   UNL     1      -3.948   7.045   6.017  1.00  0.00     0.049 A 
ATOM     39  N   UNL     1      -6.735   8.128   5.580  1.00  0.00    -0.248 NA
ATOM     40  C   UNL     1      -7.496   5.933   5.368  1.00  0.00     0.031 C 
ATOM     41  C   UNL     1      -2.568   6.575   6.165  1.00  0.00     0.029 A 
ATOM     42  N   UNL     1      -3.851   8.405   6.163  1.00  0.00    -0.354 N 
ATOM     43  C   UNL     1      -8.099   8.137   5.305  1.00  0.00     0.074 A 
ATOM     44  C   UNL     1      -8.494   6.761   5.100  1.00  0.00     0.031 C 
ATOM     45  C   UNL     1      -1.769   7.627   6.409  1.00  0.00     0.029 A 
ATOM     46  C   UNL     1      -2.567   8.848   6.383  1.00  0.00     0.049 A 
ATOM     47  H   UNL     1      -4.627   9.009   6.114  1.00  0.00     0.167 HD
ATOM     48  C   UNL     1      -8.949   9.193   5.254  1.00  0.00     0.034 A 
ATOM     49  C   UNL     1      -2.085  10.098   6.535  1.00  0.00     0.034 A 
ATOM     50  C   UNL     1      -8.542  10.556   5.495  1.00  0.00     0.049 A 
ATOM     51  C   UNL     1      -3.047  11.257   6.478  1.00  0.00     0.074 A 
ATOM     52  C   UNL     1      -9.324  11.697   5.535  1.00  0.00     0.029 A 
ATOM     53  N   UNL     1      -7.235  10.962   5.738  1.00  0.00    -0.354 N 
ATOM     54  N   UNL     1      -4.343  11.245   6.261  1.00  0.00    -0.248 NA
ATOM     55  C   UNL     1      -2.485  12.595   6.697  1.00  0.00     0.031 C 
ATOM     56  C   UNL     1      -8.484  12.797   5.740  1.00  0.00     0.029 A 
ATOM     57  C   UNL     1      -7.186  12.338   5.902  1.00  0.00     0.049 A 
ATOM     58  H   UNL     1      -6.457  10.361   5.786  1.00  0.00     0.167 HD
ATOM     59  C   UNL     1      -4.753  12.572   6.348  1.00  0.00     0.074 A 
ATOM     60  C   UNL     1      -3.571  13.352   6.652  1.00  0.00     0.031 C 
ATOM     61  C   UNL     1      -5.995  13.099   6.196  1.00  0.00     0.034 A 
BRANCH  48  62
ATOM     62  C   UNL     1     -10.393   8.910   4.907  1.00  0.00     0.023 A 
ATOM     63  C   UNL     1     -11.204   8.095   5.718  1.00  0.00     0.031 A 
ATOM     64  C   UNL     1     -10.960   9.433   3.731  1.00  0.00     0.131 A 
ATOM     65  C   UNL     1     -12.500   7.758   5.302  1.00  0.00     0.055 A 
ATOM     66  C   UNL     1     -12.281   9.165   3.367  1.00  0.00     0.041 A 
ATOM     67  F   UNL     1     -10.233  10.202   2.905  1.00  0.00    -0.206 F 
ATOM     68  C   UNL     1     -13.055   8.309   4.145  1.00  0.00     0.022 A 
BRANCH  65  69
ATOM     69  S   UNL     1     -13.395   6.471   6.215  1.00  0.00     0.124 S 
ATOM     70  O   UNL     1     -12.494   5.330   6.073  1.00  0.00    -0.237 OA
ATOM     71  O   UNL     1     -13.495   7.044   7.553  1.00  0.00    -0.237 OA
ATOM     72  O   UNL     1     -14.658   6.352   5.491  1.00  0.00    -0.744 OA
ENDBRANCH  65  69
ENDBRANCH  48  62
BRANCH  49  73
ATOM     73  C   UNL     1      -0.627  10.325   6.750  1.00  0.00     0.023 A 
ATOM     74  C   UNL     1      -0.151  10.862   7.957  1.00  0.00     0.031 A 
ATOM     75  C   UNL     1       0.309  10.039   5.741  1.00  0.00     0.131 A 
ATOM     76  C   UNL     1       1.216  11.140   8.108  1.00  0.00     0.055 A 
ATOM     77  C   UNL     1       1.675  10.268   5.916  1.00  0.00     0.041 A 
ATOM     78  F   UNL     1      -0.091   9.518   4.570  1.00  0.00    -0.206 F 
ATOM     79  C   UNL     1       2.134  10.834   7.101  1.00  0.00     0.022 A 
BRANCH  76  80
ATOM     80  S   UNL     1       1.769  11.986   9.614  1.00  0.00     0.124 S 
ATOM     81  O   UNL     1       0.974  13.208   9.577  1.00  0.00    -0.237 OA
ATOM     82  O   UNL     1       1.416  11.021  10.650  1.00  0.00    -0.237 OA
ATOM     83  O   UNL     1       3.202  12.167   9.396  1.00  0.00    -0.744 OA
ENDBRANCH  76  80
ENDBRANCH  49  73
BRANCH  61  84
ATOM     84  C   UNL     1      -6.136  14.586   6.405  1.00  0.00     0.023 A 
ATOM     85  C   UNL     1      -5.561  15.515   5.521  1.00  0.00     0.031 A 
ATOM     86  C   UNL     1      -6.850  15.078   7.512  1.00  0.00     0.131 A 
ATOM     87  C   UNL     1      -5.663  16.889   5.789  1.00  0.00     0.055 A 
ATOM     88  C   UNL     1      -6.999  16.446   7.741  1.00  0.00     0.041 A 
ATOM     89  F   UNL     1      -7.418  14.234   8.388  1.00  0.00    -0.206 F 
ATOM     90  C   UNL     1      -6.393  17.360   6.883  1.00  0.00     0.022 A 
BRANCH  87  91
ATOM     91  S   UNL     1      -4.754  18.051   4.734  1.00  0.00     0.124 S 
ATOM     92  O   UNL     1      -3.377  17.600   4.902  1.00  0.00    -0.237 OA
ATOM     93  O   UNL     1      -5.348  17.814   3.423  1.00  0.00    -0.237 OA
ATOM     94  O   UNL     1      -5.055  19.355   5.323  1.00  0.00    -0.744 OA
ENDBRANCH  87  91
ENDBRANCH  61  84
ENDBRANCH  35  36
ENDBRANCH  27  30
ENDBRANCH  25  26
ENDBRANCH  24  25
ENDBRANCH  23  24
ENDBRANCH   3  23
TORSDOF 19
