REMARK SMILES C=CCCC[C@@]1(C(=O)NCCCNC(=O)c2ccc(-c3c4nc(c(-c5cc(S(=O)(=O)[O-])ccc5F)c5ccc([nH]5)c(-c5cc(S(=O)(=O)[O-])ccc5F)c5nc(c(-c6cc(S(=O)(=O)[O-])ccc6F)c6ccc3[nH]6)C=C5)C=C4)cc2)CCCN(C(=O)OC(C)(C)C)C1
REMARK SMILES IDX 10 1 9 2 7 3 8 4 6 6 79 7 90 8 80 9 82 10 81 11 5 12 4 13
REMARK SMILES IDX 3 14 2 15 1 16 83 17 84 18 85 19 86 20 87 21 88 22 89 23
REMARK SMILES IDX 11 24 12 25 13 26 14 27 15 29 16 30 17 31 78 32 18 33 77 34
REMARK SMILES IDX 19 35 20 36 21 37 71 38 22 39 76 40 70 41 72 42 23 43 75 44
REMARK SMILES IDX 69 45 68 46 24 48 56 49 36 50 55 51 37 52 40 53 54 54 73 55
REMARK SMILES IDX 38 56 39 57 53 59 74 60 41 61 25 62 26 63 34 64 27 65 33 66
REMARK SMILES IDX 35 67 32 68 28 69 29 70 30 71 31 72 57 73 58 74 66 75 59 76
REMARK SMILES IDX 65 77 67 78 64 79 60 80 61 81 62 82 63 83 42 84 43 85 51 86
REMARK SMILES IDX 44 87 50 88 52 89 49 90 45 91 46 92 47 93 48 94
REMARK H PARENT 9 5 13 28 72 47 40 58
REMARK Flexibility Score: inf
ROOT
ATOM      1  C   UNL     1      -2.029   1.272  -2.083  1.00  0.00     0.117 C 
ENDROOT
BRANCH   1   2
ATOM      2  N   UNL     1      -0.920   0.557  -2.716  1.00  0.00    -0.355 N 
ATOM      3  C   UNL     1      -0.621  -0.754  -2.945  1.00  0.00     0.228 C 
ATOM      4  O   UNL     1       0.583  -1.005  -2.829  1.00  0.00    -0.274 OA
ATOM      5  H   UNL     1      -0.226   1.166  -3.058  1.00  0.00     0.163 HD
BRANCH   3   6
ATOM      6  C   UNL     1      -1.609  -1.818  -3.499  1.00  0.00     0.067 C 
ATOM      7  C   UNL     1      -2.982  -1.812  -2.797  1.00  0.00     0.020 C 
ATOM      8  C   UNL     1      -1.143  -3.267  -3.304  1.00  0.00     0.140 C 
ATOM      9  C   UNL     1      -2.797  -2.110  -1.297  1.00  0.00     0.023 C 
ATOM     10  N   UNL     1      -1.042  -3.752  -1.954  1.00  0.00    -0.307 N 
ATOM     11  C   UNL     1      -2.104  -3.447  -1.012  1.00  0.00     0.123 C 
BRANCH   6  12
ATOM     12  C   UNL     1      -1.691  -1.646  -5.052  1.00  0.00     0.019 C 
BRANCH  12  13
ATOM     13  C   UNL     1      -0.392  -1.607  -5.935  1.00  0.00     0.005 C 
BRANCH  13  14
ATOM     14  C   UNL     1       0.929  -2.355  -5.625  1.00  0.00     0.027 C 
BRANCH  14  15
ATOM     15  C   UNL     1       1.006  -3.834  -5.905  1.00  0.00    -0.035 C 
ATOM     16  C   UNL     1       2.166  -4.506  -5.824  1.00  0.00     0.004 C 
ENDBRANCH  14  15
ENDBRANCH  13  14
ENDBRANCH  12  13
ENDBRANCH   6  12
BRANCH  10  17
ATOM     17  C   UNL     1      -0.177  -4.827  -1.821  1.00  0.00     0.410 C 
ATOM     18  O   UNL     1       0.249  -5.442  -2.793  1.00  0.00    -0.224 OA
BRANCH  17  19
ATOM     19  O   UNL     1       0.215  -5.064  -0.546  1.00  0.00    -0.444 OA
BRANCH  19  20
ATOM     20  C   UNL     1       1.419  -5.865  -0.380  1.00  0.00     0.106 C 
ATOM     21  C   UNL     1       1.246  -7.296  -0.915  1.00  0.00     0.056 C 
ATOM     22  C   UNL     1       2.634  -5.166  -1.019  1.00  0.00     0.056 C 
ATOM     23  C   UNL     1       1.648  -5.940   1.134  1.00  0.00     0.056 C 
ENDBRANCH  19  20
ENDBRANCH  17  19
ENDBRANCH  10  17
ENDBRANCH   3   6
ENDBRANCH   1   2
BRANCH   1  24
ATOM     24  C   UNL     1      -1.862   1.409  -0.562  1.00  0.00     0.042 C 
BRANCH  24  25
ATOM     25  C   UNL     1      -0.595   2.128  -0.109  1.00  0.00     0.118 C 
BRANCH  25  26
ATOM     26  N   UNL     1      -0.699   3.571  -0.239  1.00  0.00    -0.352 N 
ATOM     27  C   UNL     1      -0.609   4.543   0.731  1.00  0.00     0.251 C 
ATOM     28  H   UNL     1      -0.857   3.901  -1.153  1.00  0.00     0.163 HD
ATOM     29  O   UNL     1      -0.940   5.693   0.454  1.00  0.00    -0.269 OA
BRANCH  27  30
ATOM     30  C   UNL     1      -0.151   4.209   2.104  1.00  0.00     0.039 A 
ATOM     31  C   UNL     1      -0.798   4.801   3.193  1.00  0.00     0.014 A 
ATOM     32  C   UNL     1       0.923   3.342   2.327  1.00  0.00     0.014 A 
ATOM     33  C   UNL     1      -0.410   4.476   4.498  1.00  0.00     0.010 A 
ATOM     34  C   UNL     1       1.254   2.958   3.627  1.00  0.00     0.010 A 
ATOM     35  C   UNL     1       0.596   3.524   4.730  1.00  0.00    -0.014 A 
BRANCH  35  36
ATOM     36  C   UNL     1       0.979   3.122   6.113  1.00  0.00     0.031 A 
ATOM     37  C   UNL     1       2.376   3.380   6.617  1.00  0.00     0.074 A 
ATOM     38  C   UNL     1       0.090   2.480   6.898  1.00  0.00     0.049 A 
ATOM     39  N   UNL     1       2.924   3.036   7.755  1.00  0.00    -0.248 NA
ATOM     40  C   UNL     1       3.284   4.097   5.709  1.00  0.00     0.031 C 
ATOM     41  C   UNL     1      -1.284   2.143   6.517  1.00  0.00     0.029 A 
ATOM     42  N   UNL     1       0.206   1.988   8.176  1.00  0.00    -0.354 N 
ATOM     43  C   UNL     1       4.240   3.483   7.696  1.00  0.00     0.074 A 
ATOM     44  C   UNL     1       4.423   4.067   6.384  1.00  0.00     0.031 C 
ATOM     45  C   UNL     1      -1.888   1.525   7.545  1.00  0.00     0.029 A 
ATOM     46  C   UNL     1      -0.935   1.373   8.640  1.00  0.00     0.049 A 
ATOM     47  H   UNL     1       1.029   2.069   8.710  1.00  0.00     0.167 HD
ATOM     48  C   UNL     1       5.200   3.434   8.653  1.00  0.00     0.034 A 
ATOM     49  C   UNL     1      -1.182   0.743   9.807  1.00  0.00     0.034 A 
ATOM     50  C   UNL     1       5.001   2.860   9.963  1.00  0.00     0.049 A 
ATOM     51  C   UNL     1      -0.086   0.669  10.842  1.00  0.00     0.074 A 
ATOM     52  C   UNL     1       5.892   2.799  11.021  1.00  0.00     0.029 A 
ATOM     53  N   UNL     1       3.834   2.242  10.393  1.00  0.00    -0.354 N 
ATOM     54  N   UNL     1       1.141   1.136  10.783  1.00  0.00    -0.248 NA
ATOM     55  C   UNL     1      -0.410  -0.007  12.106  1.00  0.00     0.031 C 
ATOM     56  C   UNL     1       5.290   2.086  12.062  1.00  0.00     0.029 A 
ATOM     57  C   UNL     1       3.994   1.772  11.688  1.00  0.00     0.049 A 
ATOM     58  H   UNL     1       3.013   2.151   9.857  1.00  0.00     0.167 HD
ATOM     59  C   UNL     1       1.718   0.841  12.016  1.00  0.00     0.074 A 
ATOM     60  C   UNL     1       0.702   0.172  12.801  1.00  0.00     0.031 C 
ATOM     61  C   UNL     1       2.974   1.103  12.460  1.00  0.00     0.034 A 
BRANCH  48  62
ATOM     62  C   UNL     1       6.559   3.998   8.309  1.00  0.00     0.023 A 
ATOM     63  C   UNL     1       6.739   5.360   8.011  1.00  0.00     0.031 A 
ATOM     64  C   UNL     1       7.690   3.163   8.271  1.00  0.00     0.131 A 
ATOM     65  C   UNL     1       8.001   5.832   7.620  1.00  0.00     0.055 A 
ATOM     66  C   UNL     1       8.960   3.655   7.961  1.00  0.00     0.041 A 
ATOM     67  F   UNL     1       7.579   1.850   8.528  1.00  0.00    -0.206 F 
ATOM     68  C   UNL     1       9.118   4.995   7.619  1.00  0.00     0.022 A 
BRANCH  65  69
ATOM     69  S   UNL     1       8.133   7.526   6.984  1.00  0.00     0.124 S 
ATOM     70  O   UNL     1       7.227   7.482   5.839  1.00  0.00    -0.237 OA
ATOM     71  O   UNL     1       7.690   8.325   8.119  1.00  0.00    -0.237 OA
ATOM     72  O   UNL     1       9.549   7.654   6.644  1.00  0.00    -0.744 OA
ENDBRANCH  65  69
ENDBRANCH  48  62
BRANCH  49  73
ATOM     73  C   UNL     1      -2.510   0.113  10.067  1.00  0.00     0.023 A 
ATOM     74  C   UNL     1      -3.328   0.556  11.119  1.00  0.00     0.031 A 
ATOM     75  C   UNL     1      -2.955  -0.983   9.306  1.00  0.00     0.131 A 
ATOM     76  C   UNL     1      -4.516  -0.129  11.419  1.00  0.00     0.055 A 
ATOM     77  C   UNL     1      -4.168  -1.623   9.570  1.00  0.00     0.041 A 
ATOM     78  F   UNL     1      -2.215  -1.448   8.287  1.00  0.00    -0.206 F 
ATOM     79  C   UNL     1      -4.949  -1.206  10.643  1.00  0.00     0.022 A 
BRANCH  76  80
ATOM     80  S   UNL     1      -5.436   0.342  12.910  1.00  0.00     0.124 S 
ATOM     81  O   UNL     1      -4.424   0.180  13.947  1.00  0.00    -0.237 OA
ATOM     82  O   UNL     1      -5.827   1.714  12.603  1.00  0.00    -0.237 OA
ATOM     83  O   UNL     1      -6.533  -0.623  12.951  1.00  0.00    -0.744 OA
ENDBRANCH  76  80
ENDBRANCH  49  73
BRANCH  61  84
ATOM     84  C   UNL     1       3.296   0.711  13.883  1.00  0.00     0.023 A 
ATOM     85  C   UNL     1       3.341  -0.634  14.291  1.00  0.00     0.031 A 
ATOM     86  C   UNL     1       3.553   1.703  14.846  1.00  0.00     0.131 A 
ATOM     87  C   UNL     1       3.579  -0.948  15.638  1.00  0.00     0.055 A 
ATOM     88  C   UNL     1       3.852   1.382  16.171  1.00  0.00     0.041 A 
ATOM     89  F   UNL     1       3.521   3.003  14.514  1.00  0.00    -0.206 F 
ATOM     90  C   UNL     1       3.852   0.051  16.577  1.00  0.00     0.022 A 
BRANCH  87  91
ATOM     91  S   UNL     1       3.430  -2.676  16.169  1.00  0.00     0.124 S 
ATOM     92  O   UNL     1       2.056  -2.992  15.794  1.00  0.00    -0.237 OA
ATOM     93  O   UNL     1       4.472  -3.333  15.387  1.00  0.00    -0.237 OA
ATOM     94  O   UNL     1       3.682  -2.615  17.608  1.00  0.00    -0.744 OA
ENDBRANCH  87  91
ENDBRANCH  61  84
ENDBRANCH  35  36
ENDBRANCH  27  30
ENDBRANCH  25  26
ENDBRANCH  24  25
ENDBRANCH   1  24
TORSDOF 20
