REMARK SMILES O=C(NCCCNC(=O)[C@@H]1Nc2c(cccc2C(F)(F)F)[C@@H]2C=CC[C@@H]12)c1ccc(-c2c3nc(c(-c4cc(S(=O)(=O)[O-])ccc4F)c4ccc([nH]4)c(-c4cc(S(=O)(=O)[O-])ccc4F)c4nc(c(-c5cc(S(=O)(=O)[O-])ccc5F)c5ccc2[nH]5)C=C4)C=C3)cc1
REMARK SMILES IDX 4 1 3 2 1 3 2 4 27 6 28 7 89 8 29 9 88 10 30 11 31 12 32 13
REMARK SMILES IDX 82 14 33 15 87 16 81 17 83 18 34 19 86 20 80 21 79 22 35 24
REMARK SMILES IDX 67 25 47 26 66 27 48 28 51 29 65 30 84 31 49 32 50 33 64 35
REMARK SMILES IDX 85 36 52 37 36 38 37 39 45 40 38 41 44 42 46 43 43 44 39 45
REMARK SMILES IDX 40 46 41 47 42 48 68 49 69 50 77 51 70 52 76 53 78 54 75 55
REMARK SMILES IDX 71 56 72 57 73 58 74 59 53 60 54 61 62 62 55 63 61 64 63 65
REMARK SMILES IDX 60 66 56 67 57 68 58 69 59 70 5 71 6 72 7 73 8 74 9 76 10 77
REMARK SMILES IDX 11 78 26 79 12 80 22 82 25 83 13 84 17 85 23 86 24 87 14 88
REMARK SMILES IDX 16 89 15 90 18 91 19 92 20 93 21 94
REMARK H PARENT 3 5 83 23 51 34 7 75 11 81
REMARK Flexibility Score: inf
ROOT
ATOM      1  C   UNL     1       7.667   3.159  -3.740  1.00  0.00     0.118 C 
ENDROOT
BRANCH   1   2
ATOM      2  N   UNL     1       8.283   3.634  -4.967  1.00  0.00    -0.352 N 
ATOM      3  O   UNL     1       9.827   3.783  -6.577  1.00  0.00    -0.269 OA
ATOM      4  C   UNL     1       9.254   3.069  -5.755  1.00  0.00     0.251 C 
ATOM      5  H   UNL     1       7.949   4.504  -5.285  1.00  0.00     0.163 HD
BRANCH   4   6
ATOM      6  C   UNL     1       9.611   1.632  -5.653  1.00  0.00     0.039 A 
ATOM      7  C   UNL     1      10.919   1.244  -5.969  1.00  0.00     0.014 A 
ATOM      8  C   UNL     1       8.656   0.652  -5.371  1.00  0.00     0.014 A 
ATOM      9  C   UNL     1      11.260  -0.111  -6.011  1.00  0.00     0.010 A 
ATOM     10  C   UNL     1       9.020  -0.692  -5.316  1.00  0.00     0.010 A 
ATOM     11  C   UNL     1      10.310  -1.092  -5.690  1.00  0.00    -0.014 A 
BRANCH  11  12
ATOM     12  C   UNL     1      10.603  -2.540  -5.848  1.00  0.00     0.031 A 
ATOM     13  C   UNL     1       9.833  -3.346  -6.864  1.00  0.00     0.074 A 
ATOM     14  C   UNL     1      11.520  -3.140  -5.065  1.00  0.00     0.049 A 
ATOM     15  N   UNL     1       9.874  -4.630  -7.106  1.00  0.00    -0.248 NA
ATOM     16  C   UNL     1       8.864  -2.613  -7.696  1.00  0.00     0.031 C 
ATOM     17  C   UNL     1      12.304  -2.469  -4.030  1.00  0.00     0.029 A 
ATOM     18  N   UNL     1      11.941  -4.445  -5.012  1.00  0.00    -0.354 N 
ATOM     19  C   UNL     1       8.922  -4.859  -8.095  1.00  0.00     0.074 A 
ATOM     20  C   UNL     1       8.275  -3.595  -8.360  1.00  0.00     0.031 C 
ATOM     21  C   UNL     1      13.131  -3.360  -3.463  1.00  0.00     0.029 A 
ATOM     22  C   UNL     1      12.907  -4.676  -4.061  1.00  0.00     0.049 A 
ATOM     23  H   UNL     1      11.585  -5.150  -5.601  1.00  0.00     0.167 HD
ATOM     24  C   UNL     1       8.637  -6.011  -8.747  1.00  0.00     0.034 A 
ATOM     25  C   UNL     1      13.538  -5.815  -3.709  1.00  0.00     0.034 A 
ATOM     26  C   UNL     1       9.327  -7.251  -8.505  1.00  0.00     0.049 A 
ATOM     27  C   UNL     1      13.221  -7.086  -4.458  1.00  0.00     0.074 A 
ATOM     28  C   UNL     1       9.160  -8.461  -9.153  1.00  0.00     0.029 A 
ATOM     29  N   UNL     1      10.320  -7.438  -7.554  1.00  0.00    -0.354 N 
ATOM     30  N   UNL     1      12.368  -7.273  -5.438  1.00  0.00    -0.248 NA
ATOM     31  C   UNL     1      13.956  -8.298  -4.068  1.00  0.00     0.031 C 
ATOM     32  C   UNL     1      10.013  -9.392  -8.560  1.00  0.00     0.029 A 
ATOM     33  C   UNL     1      10.763  -8.749  -7.586  1.00  0.00     0.049 A 
ATOM     34  H   UNL     1      10.660  -6.742  -6.947  1.00  0.00     0.167 HD
ATOM     35  C   UNL     1      12.479  -8.614  -5.797  1.00  0.00     0.074 A 
ATOM     36  C   UNL     1      13.500  -9.186  -4.944  1.00  0.00     0.031 C 
ATOM     37  C   UNL     1      11.796  -9.306  -6.744  1.00  0.00     0.034 A 
BRANCH  24  38
ATOM     38  C   UNL     1       7.561  -5.993  -9.805  1.00  0.00     0.023 A 
ATOM     39  C   UNL     1       6.412  -6.791  -9.658  1.00  0.00     0.031 A 
ATOM     40  C   UNL     1       7.716  -5.266 -11.001  1.00  0.00     0.131 A 
ATOM     41  C   UNL     1       5.473  -6.859 -10.697  1.00  0.00     0.055 A 
ATOM     42  C   UNL     1       6.757  -5.302 -12.013  1.00  0.00     0.041 A 
ATOM     43  F   UNL     1       8.796  -4.491 -11.193  1.00  0.00    -0.206 F 
ATOM     44  C   UNL     1       5.634  -6.111 -11.867  1.00  0.00     0.022 A 
BRANCH  41  45
ATOM     45  S   UNL     1       4.039  -7.964 -10.595  1.00  0.00     0.124 S 
ATOM     46  O   UNL     1       2.927  -7.019 -10.690  1.00  0.00    -0.237 OA
ATOM     47  O   UNL     1       4.230  -8.819 -11.765  1.00  0.00    -0.237 OA
ATOM     48  O   UNL     1       4.189  -8.619  -9.304  1.00  0.00    -0.744 OA
ENDBRANCH  41  45
ENDBRANCH  24  38
BRANCH  25  49
ATOM     49  C   UNL     1      14.587  -5.759  -2.648  1.00  0.00     0.023 A 
ATOM     50  C   UNL     1      14.269  -5.378  -1.331  1.00  0.00     0.031 A 
ATOM     51  C   UNL     1      15.941  -5.953  -2.971  1.00  0.00     0.131 A 
ATOM     52  C   UNL     1      15.296  -5.129  -0.410  1.00  0.00     0.055 A 
ATOM     53  C   UNL     1      16.956  -5.773  -2.030  1.00  0.00     0.041 A 
ATOM     54  F   UNL     1      16.294  -6.303  -4.217  1.00  0.00    -0.206 F 
ATOM     55  C   UNL     1      16.637  -5.340  -0.747  1.00  0.00     0.022 A 
BRANCH  52  56
ATOM     56  S   UNL     1      14.937  -4.388   1.207  1.00  0.00     0.124 S 
ATOM     57  O   UNL     1      15.485  -5.379   2.127  1.00  0.00    -0.237 OA
ATOM     58  O   UNL     1      15.672  -3.127   1.126  1.00  0.00    -0.237 OA
ATOM     59  O   UNL     1      13.484  -4.257   1.212  1.00  0.00    -0.744 OA
ENDBRANCH  52  56
ENDBRANCH  25  49
BRANCH  37  60
ATOM     60  C   UNL     1      12.107 -10.770  -6.941  1.00  0.00     0.023 A 
ATOM     61  C   UNL     1      12.611 -11.220  -8.177  1.00  0.00     0.031 A 
ATOM     62  C   UNL     1      11.739 -11.729  -5.983  1.00  0.00     0.131 A 
ATOM     63  C   UNL     1      12.686 -12.593  -8.441  1.00  0.00     0.055 A 
ATOM     64  C   UNL     1      11.862 -13.097  -6.233  1.00  0.00     0.041 A 
ATOM     65  F   UNL     1      11.242 -11.350  -4.795  1.00  0.00    -0.206 F 
ATOM     66  C   UNL     1      12.321 -13.534  -7.473  1.00  0.00     0.022 A 
BRANCH  63  67
ATOM     67  S   UNL     1      13.162 -13.207 -10.081  1.00  0.00     0.124 S 
ATOM     68  O   UNL     1      14.361 -13.984  -9.775  1.00  0.00    -0.237 OA
ATOM     69  O   UNL     1      11.992 -13.991 -10.466  1.00  0.00    -0.237 OA
ATOM     70  O   UNL     1      13.389 -11.994 -10.859  1.00  0.00    -0.744 OA
ENDBRANCH  63  67
ENDBRANCH  37  60
ENDBRANCH  11  12
ENDBRANCH   4   6
ENDBRANCH   1   2
BRANCH   1  71
ATOM     71  C   UNL     1       8.161   3.936  -2.528  1.00  0.00     0.042 C 
BRANCH  71  72
ATOM     72  C   UNL     1       7.593   5.350  -2.435  1.00  0.00     0.117 C 
BRANCH  72  73
ATOM     73  N   UNL     1       6.246   5.326  -1.903  1.00  0.00    -0.354 N 
ATOM     74  C   UNL     1       5.720   5.495  -0.668  1.00  0.00     0.242 C 
ATOM     75  H   UNL     1       5.564   5.147  -2.590  1.00  0.00     0.163 HD
ATOM     76  O   UNL     1       4.499   5.274  -0.594  1.00  0.00    -0.273 OA
BRANCH  74  77
ATOM     77  C   UNL     1       6.435   6.075   0.585  1.00  0.00     0.173 C 
ATOM     78  N   UNL     1       5.979   7.481   0.719  1.00  0.00    -0.373 N 
ATOM     79  C   UNL     1       7.940   6.040   0.766  1.00  0.00     0.036 C 
ATOM     80  C   UNL     1       6.649   8.452   1.450  1.00  0.00     0.051 A 
ATOM     81  H   UNL     1       5.148   7.742   0.259  1.00  0.00     0.161 HD
ATOM     82  C   UNL     1       8.259   6.675   2.132  1.00  0.00     0.049 C 
ATOM     83  C   UNL     1       8.675   4.705   0.845  1.00  0.00     0.034 C 
ATOM     84  C   UNL     1       7.867   8.126   2.105  1.00  0.00    -0.017 A 
ATOM     85  C   UNL     1       6.185   9.778   1.513  1.00  0.00     0.079 A 
ATOM     86  C   UNL     1       9.684   6.244   2.300  1.00  0.00    -0.023 C 
ATOM     87  C   UNL     1       9.897   5.109   1.619  1.00  0.00    -0.030 C 
ATOM     88  C   UNL     1       8.588   9.102   2.804  1.00  0.00     0.006 A 
ATOM     89  C   UNL     1       6.938  10.746   2.213  1.00  0.00     0.015 A 
ATOM     90  C   UNL     1       8.131  10.413   2.847  1.00  0.00     0.001 A 
BRANCH  85  91
ATOM     91  C   UNL     1       4.889  10.236   0.892  1.00  0.00     0.418 C 
ATOM     92  F   UNL     1       4.008  10.698   1.828  1.00  0.00    -0.166 F 
ATOM     93  F   UNL     1       5.066  11.275   0.024  1.00  0.00    -0.166 F 
ATOM     94  F   UNL     1       4.205   9.287   0.192  1.00  0.00    -0.166 F 
ENDBRANCH  85  91
ENDBRANCH  74  77
ENDBRANCH  72  73
ENDBRANCH  71  72
ENDBRANCH   1  71
TORSDOF 14
