REMARK SMILES COc1cccc(C(=O)/C=C(/Nc2cc(C)c(C)cc2[N+](=O)[O-])C(=O)NCCCNC(=O)c2ccc(-c3c4nc(c(-c5cc(S(=O)(=O)[O-])ccc5F)c5ccc([nH]5)c(-c5cc(S(=O)(=O)[O-])ccc5F)c5nc(c(-c6cc(S(=O)(=O)[O-])ccc6F)c6ccc3[nH]6)C=C5)C=C4)cc2)c1
REMARK SMILES IDX 28 1 27 2 26 3 24 4 25 5 11 7 10 8 8 9 9 10 7 11 3 12 4 13
REMARK SMILES IDX 96 14 5 15 6 16 2 17 1 18 12 19 13 21 14 22 20 23 15 24
REMARK SMILES IDX 19 25 16 26 17 27 18 28 21 29 22 30 23 31 29 32 30 33 31 34
REMARK SMILES IDX 32 36 33 37 34 38 95 39 35 40 94 41 36 42 37 43 38 44 88 45
REMARK SMILES IDX 39 46 93 47 87 48 89 49 40 50 92 51 86 52 85 53 41 55 73 56
REMARK SMILES IDX 53 57 72 58 54 59 57 60 71 61 90 62 55 63 56 64 70 66 91 67
REMARK SMILES IDX 58 68 42 69 43 70 51 71 44 72 50 73 52 74 49 75 45 76 46 77
REMARK SMILES IDX 47 78 48 79 74 80 75 81 83 82 76 83 82 84 84 85 81 86 77 87
REMARK SMILES IDX 78 88 79 89 80 90 59 91 60 92 68 93 61 94 67 95 69 96 66 97
REMARK SMILES IDX 62 98 63 99 64 100 65 101
REMARK H PARENT 26 6 12 20 30 35 89 54 57 65
REMARK Flexibility Score: inf
ROOT
ATOM      1  C   UNL     1       2.428   1.931   1.091  1.00  0.00     0.042 C 
ENDROOT
BRANCH   1   2
ATOM      2  C   UNL     1       3.358   0.831   0.652  1.00  0.00     0.118 C 
BRANCH   2   3
ATOM      3  N   UNL     1       2.809  -0.266  -0.112  1.00  0.00    -0.351 N 
ATOM      4  C   UNL     1       3.455  -1.010  -1.069  1.00  0.00     0.267 C 
ATOM      5  O   UNL     1       2.947  -2.042  -1.495  1.00  0.00    -0.268 OA
ATOM      6  H   UNL     1       1.873  -0.506   0.074  1.00  0.00     0.163 HD
BRANCH   4   7
ATOM      7  C   UNL     1       4.767  -0.523  -1.614  1.00  0.00     0.108 C 
ATOM      8  C   UNL     1       4.775  -0.080  -2.887  1.00  0.00     0.084 C 
BRANCH   8   9
ATOM      9  C   UNL     1       3.795   0.040  -4.010  1.00  0.00     0.188 C 
ATOM     10  O   UNL     1       4.231   0.434  -5.095  1.00  0.00    -0.289 OA
BRANCH   9  11
ATOM     11  C   UNL     1       2.363  -0.313  -3.946  1.00  0.00     0.026 A 
ATOM     12  C   UNL     1       0.119  -0.068  -3.073  1.00  0.00     0.119 A 
ATOM     13  C   UNL     1      -0.348  -0.951  -4.050  1.00  0.00     0.046 A 
ATOM     14  C   UNL     1       1.475   0.277  -3.038  1.00  0.00     0.058 A 
ATOM     15  C   UNL     1       0.521  -1.491  -4.994  1.00  0.00     0.005 A 
ATOM     16  C   UNL     1       1.874  -1.167  -4.946  1.00  0.00     0.012 A 
BRANCH  12  17
ATOM     17  O   UNL     1      -0.864   0.435  -2.266  1.00  0.00    -0.497 OA
ATOM     18  C   UNL     1      -0.463   0.881  -0.983  1.00  0.00     0.278 C 
ENDBRANCH  12  17
ENDBRANCH   9  11
ENDBRANCH   8   9
BRANCH   7  19
ATOM     19  N   UNL     1       5.933  -0.511  -0.824  1.00  0.00    -0.345 N 
ATOM     20  H   UNL     1       6.773  -0.345  -1.310  1.00  0.00     0.167 HD
BRANCH  19  21
ATOM     21  C   UNL     1       6.061  -0.706   0.572  1.00  0.00     0.118 A 
ATOM     22  C   UNL     1       6.519   0.404   1.316  1.00  0.00     0.037 A 
ATOM     23  C   UNL     1       5.532  -1.781   1.300  1.00  0.00     0.292 A 
ATOM     24  C   UNL     1       6.276   0.532   2.701  1.00  0.00    -0.046 A 
ATOM     25  C   UNL     1       5.296  -1.684   2.683  1.00  0.00     0.091 A 
ATOM     26  C   UNL     1       6.623   1.844   3.357  1.00  0.00     0.045 C 
ATOM     27  C   UNL     1       5.595  -0.499   3.376  1.00  0.00    -0.041 A 
ATOM     28  C   UNL     1       5.109  -0.341   4.793  1.00  0.00     0.045 C 
BRANCH  23  29
ATOM     29  N   UNL     1       5.232  -3.051   0.647  1.00  0.00     0.064 N 
ATOM     30  O   UNL     1       4.231  -3.667   1.039  1.00  0.00    -0.258 OA
ATOM     31  O   UNL     1       6.035  -3.461  -0.203  1.00  0.00    -0.258 OA
ENDBRANCH  23  29
ENDBRANCH  19  21
ENDBRANCH   7  19
ENDBRANCH   4   7
ENDBRANCH   2   3
ENDBRANCH   1   2
BRANCH   1  32
ATOM     32  C   UNL     1       1.324   1.579   2.075  1.00  0.00     0.118 C 
BRANCH  32  33
ATOM     33  N   UNL     1       1.565   0.473   2.989  1.00  0.00    -0.352 N 
ATOM     34  C   UNL     1       1.273   0.356   4.332  1.00  0.00     0.251 C 
ATOM     35  H   UNL     1       2.004  -0.311   2.587  1.00  0.00     0.163 HD
ATOM     36  O   UNL     1       1.542  -0.694   4.911  1.00  0.00    -0.269 OA
BRANCH  34  37
ATOM     37  C   UNL     1       0.727   1.507   5.092  1.00  0.00     0.039 A 
ATOM     38  C   UNL     1       1.233   1.766   6.369  1.00  0.00     0.014 A 
ATOM     39  C   UNL     1      -0.216   2.373   4.540  1.00  0.00     0.014 A 
ATOM     40  C   UNL     1       0.887   2.949   7.029  1.00  0.00     0.010 A 
ATOM     41  C   UNL     1      -0.454   3.607   5.134  1.00  0.00     0.010 A 
ATOM     42  C   UNL     1       0.095   3.914   6.387  1.00  0.00    -0.014 A 
BRANCH  42  43
ATOM     43  C   UNL     1      -0.179   5.240   7.006  1.00  0.00     0.031 A 
ATOM     44  C   UNL     1      -1.600   5.680   7.252  1.00  0.00     0.074 A 
ATOM     45  C   UNL     1       0.842   6.082   7.270  1.00  0.00     0.049 A 
ATOM     46  N   UNL     1      -2.050   6.828   7.688  1.00  0.00    -0.248 NA
ATOM     47  C   UNL     1      -2.656   4.714   6.911  1.00  0.00     0.031 C 
ATOM     48  C   UNL     1       2.258   5.808   7.008  1.00  0.00     0.029 A 
ATOM     49  N   UNL     1       0.849   7.343   7.812  1.00  0.00    -0.354 N 
ATOM     50  C   UNL     1      -3.438   6.731   7.647  1.00  0.00     0.074 A 
ATOM     51  C   UNL     1      -3.749   5.443   7.066  1.00  0.00     0.031 C 
ATOM     52  C   UNL     1       2.995   6.849   7.428  1.00  0.00     0.029 A 
ATOM     53  C   UNL     1       2.108   7.882   7.949  1.00  0.00     0.049 A 
ATOM     54  H   UNL     1       0.029   7.818   8.079  1.00  0.00     0.167 HD
ATOM     55  C   UNL     1      -4.369   7.617   8.084  1.00  0.00     0.034 A 
ATOM     56  C   UNL     1       2.503   9.073   8.441  1.00  0.00     0.034 A 
ATOM     57  C   UNL     1      -4.041   8.881   8.697  1.00  0.00     0.049 A 
ATOM     58  C   UNL     1       1.456  10.024   8.961  1.00  0.00     0.074 A 
ATOM     59  C   UNL     1      -4.895   9.830   9.231  1.00  0.00     0.029 A 
ATOM     60  N   UNL     1      -2.751   9.372   8.862  1.00  0.00    -0.354 N 
ATOM     61  N   UNL     1       0.149   9.893   8.965  1.00  0.00    -0.248 NA
ATOM     62  C   UNL     1       1.940  11.273   9.561  1.00  0.00     0.031 C 
ATOM     63  C   UNL     1      -4.127  10.915   9.670  1.00  0.00     0.029 A 
ATOM     64  C   UNL     1      -2.788  10.615   9.475  1.00  0.00     0.049 A 
ATOM     65  H   UNL     1      -1.931   8.905   8.584  1.00  0.00     0.167 HD
ATOM     66  C   UNL     1      -0.343  11.033   9.596  1.00  0.00     0.074 A 
ATOM     67  C   UNL     1       0.810  11.824   9.977  1.00  0.00     0.031 C 
ATOM     68  C   UNL     1      -1.629  11.396   9.838  1.00  0.00     0.034 A 
BRANCH  55  69
ATOM     69  C   UNL     1      -5.822   7.241   7.900  1.00  0.00     0.023 A 
ATOM     70  C   UNL     1      -6.370   6.097   8.508  1.00  0.00     0.031 A 
ATOM     71  C   UNL     1      -6.659   8.006   7.070  1.00  0.00     0.131 A 
ATOM     72  C   UNL     1      -7.679   5.698   8.202  1.00  0.00     0.055 A 
ATOM     73  C   UNL     1      -7.992   7.655   6.844  1.00  0.00     0.041 A 
ATOM     74  F   UNL     1      -6.191   9.099   6.446  1.00  0.00    -0.206 F 
ATOM     75  C   UNL     1      -8.504   6.484   7.395  1.00  0.00     0.022 A 
BRANCH  72  76
ATOM     76  S   UNL     1      -8.228   4.055   8.740  1.00  0.00     0.124 S 
ATOM     77  O   UNL     1      -7.259   3.189   8.072  1.00  0.00    -0.237 OA
ATOM     78  O   UNL     1      -8.112   4.143  10.191  1.00  0.00    -0.237 OA
ATOM     79  O   UNL     1      -9.593   3.964   8.226  1.00  0.00    -0.744 OA
ENDBRANCH  72  76
ENDBRANCH  55  69
BRANCH  56  80
ATOM     80  C   UNL     1       3.949   9.434   8.487  1.00  0.00     0.023 A 
ATOM     81  C   UNL     1       4.612   9.603   9.713  1.00  0.00     0.031 A 
ATOM     82  C   UNL     1       4.681   9.656   7.307  1.00  0.00     0.131 A 
ATOM     83  C   UNL     1       5.949  10.030   9.735  1.00  0.00     0.055 A 
ATOM     84  C   UNL     1       6.025  10.034   7.333  1.00  0.00     0.041 A 
ATOM     85  F   UNL     1       4.100   9.497   6.107  1.00  0.00    -0.206 F 
ATOM     86  C   UNL     1       6.663  10.236   8.553  1.00  0.00     0.022 A 
BRANCH  83  87
ATOM     87  S   UNL     1       6.720  10.388  11.338  1.00  0.00     0.124 S 
ATOM     88  O   UNL     1       5.829  11.409  11.876  1.00  0.00    -0.237 OA
ATOM     89  O   UNL     1       6.673   9.084  11.992  1.00  0.00    -0.237 OA
ATOM     90  O   UNL     1       8.057  10.852  10.975  1.00  0.00    -0.744 OA
ENDBRANCH  83  87
ENDBRANCH  56  80
BRANCH  68  91
ATOM     91  C   UNL     1      -1.840  12.687  10.590  1.00  0.00     0.023 A 
ATOM     92  C   UNL     1      -1.479  13.929  10.039  1.00  0.00     0.031 A 
ATOM     93  C   UNL     1      -2.373  12.670  11.891  1.00  0.00     0.131 A 
ATOM     94  C   UNL     1      -1.583  15.093  10.814  1.00  0.00     0.055 A 
ATOM     95  C   UNL     1      -2.537  13.840  12.633  1.00  0.00     0.041 A 
ATOM     96  F   UNL     1      -2.734  11.512  12.466  1.00  0.00    -0.206 F 
ATOM     97  C   UNL     1      -2.124  15.059  12.102  1.00  0.00     0.022 A 
BRANCH  94  98
ATOM     98  S   UNL     1      -0.884  16.635  10.161  1.00  0.00     0.124 S 
ATOM     99  O   UNL     1       0.494  16.248   9.879  1.00  0.00    -0.237 OA
ATOM    100  O   UNL     1      -1.726  16.888   8.997  1.00  0.00    -0.237 OA
ATOM    101  O   UNL     1      -1.050  17.580  11.264  1.00  0.00    -0.744 OA
ENDBRANCH  94  98
ENDBRANCH  68  91
ENDBRANCH  42  43
ENDBRANCH  34  37
ENDBRANCH  32  33
ENDBRANCH   1  32
TORSDOF 19
