REMARK SMILES Cc1cccc(-c2ccccc2C(=O)N2CC[C@H](O)C[C@@H]2C(=O)NCCCNC(=O)c2ccc(-c3c4nc(c(-c5cc(S(=O)(=O)[O-])ccc5F)c5ccc([nH]5)c(-c5cc(S(=O)(=O)[O-])ccc5F)c5nc(c(-c6cc(S(=O)(=O)[O-])ccc6F)c6ccc3[nH]6)C=C5)C=C4)cc2)c1
REMARK SMILES IDX 26 1 25 2 24 3 22 4 23 5 21 7 15 8 16 9 17 10 20 11 18 12
REMARK SMILES IDX 13 13 14 14 12 15 7 16 8 17 9 18 11 19 10 20 6 21 1 22 2 23
REMARK SMILES IDX 3 24 94 25 4 26 5 27 19 28 27 30 28 31 29 32 30 34 31 35
REMARK SMILES IDX 32 36 93 37 33 38 92 39 34 40 35 41 36 42 86 43 37 44 91 45
REMARK SMILES IDX 85 46 87 47 38 48 90 49 84 50 83 51 39 53 71 54 51 55 70 56
REMARK SMILES IDX 52 57 55 58 69 59 88 60 53 61 54 62 68 64 89 65 56 66 40 67
REMARK SMILES IDX 41 68 49 69 42 70 48 71 50 72 47 73 43 74 44 75 45 76 46 77
REMARK SMILES IDX 72 78 73 79 81 80 74 81 80 82 82 83 79 84 75 85 76 86 77 87
REMARK SMILES IDX 78 88 57 89 58 90 66 91 59 92 65 93 67 94 64 95 60 96 61 97
REMARK SMILES IDX 62 98 63 99
REMARK H PARENT 24 6 19 29 28 33 87 52 55 63
REMARK Flexibility Score: inf
ROOT
ATOM      1  C   UNL     1      -4.324   2.802  -3.966  1.00  0.00     0.042 C 
ENDROOT
BRANCH   1   2
ATOM      2  C   UNL     1      -3.621   2.878  -5.318  1.00  0.00     0.117 C 
BRANCH   2   3
ATOM      3  N   UNL     1      -3.062   4.201  -5.582  1.00  0.00    -0.354 N 
ATOM      4  C   UNL     1      -1.810   4.704  -5.378  1.00  0.00     0.242 C 
ATOM      5  O   UNL     1      -1.615   5.902  -5.620  1.00  0.00    -0.273 OA
ATOM      6  H   UNL     1      -3.699   4.841  -5.976  1.00  0.00     0.163 HD
BRANCH   4   7
ATOM      7  C   UNL     1      -0.684   3.845  -4.750  1.00  0.00     0.177 C 
ATOM      8  N   UNL     1      -0.607   4.091  -3.296  1.00  0.00    -0.326 N 
ATOM      9  C   UNL     1      -0.008   5.359  -2.871  1.00  0.00     0.123 C 
ATOM     10  C   UNL     1       1.391   5.521  -3.450  1.00  0.00     0.053 C 
ATOM     11  C   UNL     1       0.670   4.101  -5.436  1.00  0.00     0.067 C 
ATOM     12  C   UNL     1       1.412   5.354  -4.965  1.00  0.00     0.118 C 
BRANCH   8  13
ATOM     13  C   UNL     1      -1.165   3.130  -2.452  1.00  0.00     0.255 C 
ATOM     14  O   UNL     1      -1.335   1.972  -2.832  1.00  0.00    -0.269 OA
BRANCH  13  15
ATOM     15  C   UNL     1      -1.712   3.516  -1.114  1.00  0.00     0.047 A 
ATOM     16  C   UNL     1      -1.715   2.610  -0.028  1.00  0.00    -0.006 A 
ATOM     17  C   UNL     1      -2.457   2.954   1.123  1.00  0.00     0.009 A 
ATOM     18  C   UNL     1      -3.171   4.150   1.205  1.00  0.00     0.001 A 
ATOM     19  C   UNL     1      -2.447   4.716  -1.020  1.00  0.00     0.014 A 
ATOM     20  C   UNL     1      -3.158   5.037   0.136  1.00  0.00     0.001 A 
BRANCH  16  21
ATOM     21  C   UNL     1      -1.010   1.315  -0.030  1.00  0.00    -0.017 A 
ATOM     22  C   UNL     1       2.560  -0.046   0.045  1.00  0.00     0.044 C 
ATOM     23  C   UNL     1       1.062   0.018   0.032  1.00  0.00    -0.051 A 
ATOM     24  C   UNL     1       0.316  -1.166   0.026  1.00  0.00     0.003 A 
ATOM     25  C   UNL     1       0.393   1.251   0.003  1.00  0.00     0.012 A 
ATOM     26  C   UNL     1      -1.076  -1.120  -0.009  1.00  0.00     0.001 A 
ATOM     27  C   UNL     1      -1.733   0.111  -0.035  1.00  0.00     0.009 A 
ENDBRANCH  16  21
ENDBRANCH  13  15
ENDBRANCH   8  13
BRANCH  12  28
ATOM     28  O   UNL     1       0.945   6.540  -5.596  1.00  0.00    -0.393 OA
ATOM     29  H   UNL     1       0.023   6.701  -5.340  1.00  0.00     0.210 HD
ENDBRANCH  12  28
ENDBRANCH   4   7
ENDBRANCH   2   3
ENDBRANCH   1   2
BRANCH   1  30
ATOM     30  C   UNL     1      -5.639   3.569  -3.900  1.00  0.00     0.118 C 
BRANCH  30  31
ATOM     31  N   UNL     1      -6.831   2.728  -3.934  1.00  0.00    -0.352 N 
ATOM     32  C   UNL     1      -8.164   3.087  -3.776  1.00  0.00     0.251 C 
ATOM     33  H   UNL     1      -6.668   1.770  -4.090  1.00  0.00     0.163 HD
ATOM     34  O   UNL     1      -9.049   2.254  -3.758  1.00  0.00    -0.269 OA
BRANCH  32  35
ATOM     35  C   UNL     1      -8.511   4.532  -3.762  1.00  0.00     0.039 A 
ATOM     36  C   UNL     1      -9.457   4.971  -4.697  1.00  0.00     0.014 A 
ATOM     37  C   UNL     1      -7.763   5.449  -3.034  1.00  0.00     0.014 A 
ATOM     38  C   UNL     1      -9.467   6.309  -5.082  1.00  0.00     0.010 A 
ATOM     39  C   UNL     1      -7.700   6.753  -3.483  1.00  0.00     0.010 A 
ATOM     40  C   UNL     1      -8.502   7.164  -4.554  1.00  0.00    -0.014 A 
BRANCH  40  41
ATOM     41  C   UNL     1      -8.155   8.449  -5.153  1.00  0.00     0.031 A 
ATOM     42  C   UNL     1      -8.503   9.717  -4.487  1.00  0.00     0.074 A 
ATOM     43  C   UNL     1      -7.416   8.473  -6.284  1.00  0.00     0.049 A 
ATOM     44  N   UNL     1      -8.568  10.857  -5.086  1.00  0.00    -0.248 NA
ATOM     45  C   UNL     1      -8.846   9.791  -3.074  1.00  0.00     0.031 C 
ATOM     46  C   UNL     1      -6.737   9.619  -6.881  1.00  0.00     0.029 A 
ATOM     47  N   UNL     1      -7.346   7.482  -7.260  1.00  0.00    -0.354 N 
ATOM     48  C   UNL     1      -8.663  11.834  -4.124  1.00  0.00     0.074 A 
ATOM     49  C   UNL     1      -8.901  11.114  -2.894  1.00  0.00     0.031 C 
ATOM     50  C   UNL     1      -6.566   9.384  -8.191  1.00  0.00     0.029 A 
ATOM     51  C   UNL     1      -7.251   8.144  -8.502  1.00  0.00     0.049 A 
ATOM     52  H   UNL     1      -7.361   6.508  -7.112  1.00  0.00     0.167 HD
ATOM     53  C   UNL     1      -8.405  13.130  -4.465  1.00  0.00     0.034 A 
ATOM     54  C   UNL     1      -8.228   7.981  -9.444  1.00  0.00     0.034 A 
ATOM     55  C   UNL     1      -8.173  13.279  -5.904  1.00  0.00     0.049 A 
ATOM     56  C   UNL     1      -8.980   9.259  -9.774  1.00  0.00     0.074 A 
ATOM     57  C   UNL     1      -7.054  13.441  -6.705  1.00  0.00     0.029 A 
ATOM     58  N   UNL     1      -9.216  13.002  -6.768  1.00  0.00    -0.354 N 
ATOM     59  N   UNL     1      -8.744  10.418  -9.218  1.00  0.00    -0.248 NA
ATOM     60  C   UNL     1     -10.115   9.318 -10.697  1.00  0.00     0.031 C 
ATOM     61  C   UNL     1      -7.443  13.215  -8.061  1.00  0.00     0.029 A 
ATOM     62  C   UNL     1      -8.799  12.942  -8.082  1.00  0.00     0.049 A 
ATOM     63  H   UNL     1     -10.148  12.865  -6.480  1.00  0.00     0.167 HD
ATOM     64  C   UNL     1      -9.694  11.322  -9.614  1.00  0.00     0.074 A 
ATOM     65  C   UNL     1     -10.523  10.591 -10.556  1.00  0.00     0.031 C 
ATOM     66  C   UNL     1      -9.771  12.587  -9.106  1.00  0.00     0.034 A 
BRANCH  53  67
ATOM     67  C   UNL     1      -8.134  14.237  -3.470  1.00  0.00     0.023 A 
ATOM     68  C   UNL     1      -7.329  15.327  -3.864  1.00  0.00     0.031 A 
ATOM     69  C   UNL     1      -8.591  14.281  -2.139  1.00  0.00     0.131 A 
ATOM     70  C   UNL     1      -6.930  16.317  -2.948  1.00  0.00     0.055 A 
ATOM     71  C   UNL     1      -8.143  15.229  -1.209  1.00  0.00     0.041 A 
ATOM     72  F   UNL     1      -9.540  13.452  -1.689  1.00  0.00    -0.206 F 
ATOM     73  C   UNL     1      -7.296  16.249  -1.609  1.00  0.00     0.022 A 
BRANCH  70  74
ATOM     74  S   UNL     1      -5.931  17.710  -3.539  1.00  0.00     0.124 S 
ATOM     75  O   UNL     1      -4.758  17.039  -4.088  1.00  0.00    -0.237 OA
ATOM     76  O   UNL     1      -6.825  18.343  -4.501  1.00  0.00    -0.237 OA
ATOM     77  O   UNL     1      -5.683  18.487  -2.324  1.00  0.00    -0.744 OA
ENDBRANCH  70  74
ENDBRANCH  53  67
BRANCH  54  78
ATOM     78  C   UNL     1      -8.784   6.591  -9.430  1.00  0.00     0.023 A 
ATOM     79  C   UNL     1      -7.850   5.537  -9.568  1.00  0.00     0.031 A 
ATOM     80  C   UNL     1     -10.032   6.288  -8.871  1.00  0.00     0.131 A 
ATOM     81  C   UNL     1      -8.094   4.293  -8.968  1.00  0.00     0.055 A 
ATOM     82  C   UNL     1     -10.310   5.010  -8.367  1.00  0.00     0.041 A 
ATOM     83  F   UNL     1     -10.949   7.247  -8.677  1.00  0.00    -0.206 F 
ATOM     84  C   UNL     1      -9.322   4.023  -8.365  1.00  0.00     0.022 A 
BRANCH  81  85
ATOM     85  S   UNL     1      -6.684   3.170  -8.700  1.00  0.00     0.124 S 
ATOM     86  O   UNL     1      -6.659   2.409  -9.943  1.00  0.00    -0.237 OA
ATOM     87  O   UNL     1      -5.568   4.092  -8.489  1.00  0.00    -0.237 OA
ATOM     88  O   UNL     1      -7.059   2.418  -7.505  1.00  0.00    -0.744 OA
ENDBRANCH  81  85
ENDBRANCH  54  78
BRANCH  66  89
ATOM     89  C   UNL     1     -10.812  13.590  -9.532  1.00  0.00     0.023 A 
ATOM     90  C   UNL     1     -11.164  13.763 -10.879  1.00  0.00     0.031 A 
ATOM     91  C   UNL     1     -11.418  14.468  -8.605  1.00  0.00     0.131 A 
ATOM     92  C   UNL     1     -12.112  14.733 -11.251  1.00  0.00     0.055 A 
ATOM     93  C   UNL     1     -12.289  15.490  -8.990  1.00  0.00     0.041 A 
ATOM     94  F   UNL     1     -11.228  14.341  -7.284  1.00  0.00    -0.206 F 
ATOM     95  C   UNL     1     -12.649  15.623 -10.321  1.00  0.00     0.022 A 
BRANCH  92  96
ATOM     96  S   UNL     1     -12.700  14.761 -12.964  1.00  0.00     0.124 S 
ATOM     97  O   UNL     1     -11.461  14.874 -13.726  1.00  0.00    -0.237 OA
ATOM     98  O   UNL     1     -13.388  13.476 -13.059  1.00  0.00    -0.237 OA
ATOM     99  O   UNL     1     -13.571  15.933 -13.012  1.00  0.00    -0.744 OA
ENDBRANCH  92  96
ENDBRANCH  66  89
ENDBRANCH  40  41
ENDBRANCH  32  35
ENDBRANCH  30  31
ENDBRANCH   1  30
TORSDOF 17
