REMARK SMILES O=C(NCCCNC(=O)[C@@H](Cc1c[nH]c2ccccc12)Nc1ncnc2ccccc12)c1ccc(-c2c3nc(c(-c4cc(S(=O)(=O)[O-])ccc4F)c4ccc([nH]4)c(-c4cc(S(=O)(=O)[O-])ccc4F)c4nc(c(-c5cc(S(=O)(=O)[O-])ccc5F)c5ccc2[nH]5)C=C4)C=C3)cc1
REMARK SMILES IDX 4 1 3 2 1 3 2 4 32 6 33 7 94 8 34 9 93 10 35 11 36 12 37 13
REMARK SMILES IDX 87 14 38 15 92 16 86 17 88 18 39 19 91 20 85 21 84 22 40 24
REMARK SMILES IDX 72 25 52 26 71 27 53 28 56 29 70 30 89 31 54 32 55 33 69 35
REMARK SMILES IDX 90 36 57 37 41 38 42 39 50 40 43 41 49 42 51 43 48 44 44 45
REMARK SMILES IDX 45 46 46 47 47 48 73 49 74 50 82 51 75 52 81 53 83 54 80 55
REMARK SMILES IDX 76 56 77 57 78 58 79 59 58 60 59 61 67 62 60 63 66 64 68 65
REMARK SMILES IDX 65 66 61 67 62 68 63 69 64 70 5 71 6 72 7 73 8 74 9 76 10 77
REMARK SMILES IDX 11 78 12 79 13 80 20 81 14 82 15 83 19 84 16 86 18 87 17 88
REMARK SMILES IDX 21 89 22 91 23 92 31 93 24 94 26 95 30 96 25 97 27 98 29 99
REMARK SMILES IDX 28 100
REMARK H PARENT 3 5 88 23 56 34 7 75 14 85 21 90
REMARK Flexibility Score: inf
ROOT
ATOM      1  C   UNL     1       3.794   0.428  -0.559  1.00  0.00     0.118 C 
ENDROOT
BRANCH   1   2
ATOM      2  N   UNL     1       2.370   0.165  -0.251  1.00  0.00    -0.352 N 
ATOM      3  O   UNL     1       0.510  -0.074   1.002  1.00  0.00    -0.269 OA
ATOM      4  C   UNL     1       1.733  -0.006   0.948  1.00  0.00     0.251 C 
ATOM      5  H   UNL     1       1.784   0.102  -1.040  1.00  0.00     0.163 HD
BRANCH   4   6
ATOM      6  C   UNL     1       2.560  -0.237   2.132  1.00  0.00     0.039 A 
ATOM      7  C   UNL     1       3.680   0.557   2.354  1.00  0.00     0.014 A 
ATOM      8  C   UNL     1       2.316  -1.388   2.883  1.00  0.00     0.014 A 
ATOM      9  C   UNL     1       4.688   0.063   3.151  1.00  0.00     0.010 A 
ATOM     10  C   UNL     1       3.246  -1.773   3.838  1.00  0.00     0.010 A 
ATOM     11  C   UNL     1       4.446  -1.059   3.957  1.00  0.00    -0.014 A 
BRANCH  11  12
ATOM     12  C   UNL     1       5.394  -1.351   5.046  1.00  0.00     0.031 A 
ATOM     13  C   UNL     1       6.072  -2.679   5.151  1.00  0.00     0.074 A 
ATOM     14  C   UNL     1       5.590  -0.365   5.944  1.00  0.00     0.049 A 
ATOM     15  N   UNL     1       6.806  -3.142   6.125  1.00  0.00    -0.248 NA
ATOM     16  C   UNL     1       5.879  -3.621   4.038  1.00  0.00     0.031 C 
ATOM     17  C   UNL     1       4.940   0.954   5.899  1.00  0.00     0.029 A 
ATOM     18  N   UNL     1       6.387  -0.294   7.048  1.00  0.00    -0.354 N 
ATOM     19  C   UNL     1       7.139  -4.442   5.766  1.00  0.00     0.074 A 
ATOM     20  C   UNL     1       6.505  -4.701   4.490  1.00  0.00     0.031 C 
ATOM     21  C   UNL     1       5.427   1.725   6.874  1.00  0.00     0.029 A 
ATOM     22  C   UNL     1       6.295   0.911   7.703  1.00  0.00     0.049 A 
ATOM     23  H   UNL     1       6.969  -1.030   7.345  1.00  0.00     0.167 HD
ATOM     24  C   UNL     1       7.904  -5.324   6.457  1.00  0.00     0.034 A 
ATOM     25  C   UNL     1       6.797   1.298   8.886  1.00  0.00     0.034 A 
ATOM     26  C   UNL     1       8.503  -5.002   7.734  1.00  0.00     0.049 A 
ATOM     27  C   UNL     1       7.607   0.289   9.640  1.00  0.00     0.074 A 
ATOM     28  C   UNL     1       9.286  -5.798   8.550  1.00  0.00     0.029 A 
ATOM     29  N   UNL     1       8.382  -3.774   8.381  1.00  0.00    -0.354 N 
ATOM     30  N   UNL     1       7.888  -0.951   9.308  1.00  0.00    -0.248 NA
ATOM     31  C   UNL     1       8.162   0.724  10.920  1.00  0.00     0.031 C 
ATOM     32  C   UNL     1       9.587  -5.074   9.710  1.00  0.00     0.029 A 
ATOM     33  C   UNL     1       9.062  -3.797   9.588  1.00  0.00     0.049 A 
ATOM     34  H   UNL     1       7.884  -3.000   8.030  1.00  0.00     0.167 HD
ATOM     35  C   UNL     1       8.670  -1.446  10.340  1.00  0.00     0.074 A 
ATOM     36  C   UNL     1       8.842  -0.353  11.282  1.00  0.00     0.031 C 
ATOM     37  C   UNL     1       9.193  -2.688  10.506  1.00  0.00     0.034 A 
BRANCH  24  38
ATOM     38  C   UNL     1       8.083  -6.707   5.876  1.00  0.00     0.023 A 
ATOM     39  C   UNL     1       8.713  -6.916   4.636  1.00  0.00     0.031 A 
ATOM     40  C   UNL     1       7.593  -7.837   6.556  1.00  0.00     0.131 A 
ATOM     41  C   UNL     1       8.775  -8.207   4.085  1.00  0.00     0.055 A 
ATOM     42  C   UNL     1       7.731  -9.129   6.041  1.00  0.00     0.041 A 
ATOM     43  F   UNL     1       6.957  -7.706   7.731  1.00  0.00    -0.206 F 
ATOM     44  C   UNL     1       8.313  -9.319   4.792  1.00  0.00     0.022 A 
BRANCH  41  45
ATOM     45  S   UNL     1       9.345  -8.395   2.373  1.00  0.00     0.124 S 
ATOM     46  O   UNL     1       8.369  -7.584   1.647  1.00  0.00    -0.237 OA
ATOM     47  O   UNL     1      10.701  -7.862   2.429  1.00  0.00    -0.237 OA
ATOM     48  O   UNL     1       9.248  -9.833   2.134  1.00  0.00    -0.744 OA
ENDBRANCH  41  45
ENDBRANCH  24  38
BRANCH  25  49
ATOM     49  C   UNL     1       6.494   2.651   9.424  1.00  0.00     0.023 A 
ATOM     50  C   UNL     1       7.520   3.572   9.666  1.00  0.00     0.031 A 
ATOM     51  C   UNL     1       5.170   3.051   9.698  1.00  0.00     0.131 A 
ATOM     52  C   UNL     1       7.215   4.828  10.210  1.00  0.00     0.055 A 
ATOM     53  C   UNL     1       4.866   4.327  10.169  1.00  0.00     0.041 A 
ATOM     54  F   UNL     1       4.145   2.213   9.474  1.00  0.00    -0.206 F 
ATOM     55  C   UNL     1       5.895   5.220  10.445  1.00  0.00     0.022 A 
BRANCH  52  56
ATOM     56  S   UNL     1       8.586   5.903  10.709  1.00  0.00     0.124 S 
ATOM     57  O   UNL     1       9.353   5.021  11.581  1.00  0.00    -0.237 OA
ATOM     58  O   UNL     1       9.198   6.226   9.425  1.00  0.00    -0.237 OA
ATOM     59  O   UNL     1       7.917   7.016  11.379  1.00  0.00    -0.744 OA
ENDBRANCH  52  56
ENDBRANCH  25  49
BRANCH  37  60
ATOM     60  C   UNL     1      10.031  -2.882  11.742  1.00  0.00     0.023 A 
ATOM     61  C   UNL     1       9.466  -2.816  13.027  1.00  0.00     0.031 A 
ATOM     62  C   UNL     1      11.418  -3.072  11.630  1.00  0.00     0.131 A 
ATOM     63  C   UNL     1      10.299  -2.856  14.152  1.00  0.00     0.055 A 
ATOM     64  C   UNL     1      12.232  -3.188  12.755  1.00  0.00     0.041 A 
ATOM     65  F   UNL     1      12.005  -3.134  10.423  1.00  0.00    -0.206 F 
ATOM     66  C   UNL     1      11.676  -3.061  14.025  1.00  0.00     0.022 A 
BRANCH  63  67
ATOM     67  S   UNL     1       9.574  -2.504  15.775  1.00  0.00     0.124 S 
ATOM     68  O   UNL     1       9.026  -1.166  15.576  1.00  0.00    -0.237 OA
ATOM     69  O   UNL     1       8.597  -3.578  15.920  1.00  0.00    -0.237 OA
ATOM     70  O   UNL     1      10.716  -2.579  16.683  1.00  0.00    -0.744 OA
ENDBRANCH  63  67
ENDBRANCH  37  60
ENDBRANCH  11  12
ENDBRANCH   4   6
ENDBRANCH   1   2
BRANCH   1  71
ATOM     71  C   UNL     1       4.513  -0.249  -1.940  1.00  0.00     0.042 C 
BRANCH  71  72
ATOM     72  C   UNL     1       4.299   0.023  -4.106  1.00  0.00     0.117 C 
BRANCH  72  73
ATOM     73  N   UNL     1       5.021   0.995  -5.145  1.00  0.00    -0.354 N 
ATOM     74  C   UNL     1       6.001   0.796  -6.076  1.00  0.00     0.242 C 
ATOM     75  H   UNL     1       4.694   1.923  -5.109  1.00  0.00     0.163 HD
ATOM     76  O   UNL     1       6.409   1.806  -6.667  1.00  0.00    -0.273 OA
BRANCH  74  77
ATOM     77  C   UNL     1       6.590  -0.602  -6.426  1.00  0.00     0.174 C 
BRANCH  77  78
ATOM     78  C   UNL     1       7.480  -1.269  -5.329  1.00  0.00     0.072 C 
BRANCH  78  79
ATOM     79  C   UNL     1       6.679  -1.832  -4.202  1.00  0.00    -0.020 A 
ATOM     80  C   UNL     1       6.192  -3.130  -4.071  1.00  0.00     0.087 A 
ATOM     81  C   UNL     1       5.964  -1.001  -3.311  1.00  0.00     0.003 A 
ATOM     82  N   UNL     1       4.959  -3.189  -3.419  1.00  0.00    -0.361 N 
ATOM     83  C   UNL     1       4.471  -1.920  -3.237  1.00  0.00     0.046 A 
ATOM     84  C   UNL     1       5.957   0.789  -3.041  1.00  0.00     0.010 A 
ATOM     85  H   UNL     1       4.508  -4.017  -3.133  1.00  0.00     0.166 HD
ATOM     86  C   UNL     1       2.901  -1.058  -2.979  1.00  0.00     0.026 A 
ATOM     87  C   UNL     1       4.409   1.657  -2.790  1.00  0.00     0.001 A 
ATOM     88  C   UNL     1       2.880   0.749  -2.790  1.00  0.00     0.002 A 
ENDBRANCH  78  79
ENDBRANCH  77  78
BRANCH  77  89
ATOM     89  N   UNL     1       5.524  -1.502  -6.945  1.00  0.00    -0.358 N 
ATOM     90  H   UNL     1       5.032  -2.102  -6.339  1.00  0.00     0.162 HD
BRANCH  89  91
ATOM     91  C   UNL     1       5.240  -1.476  -8.303  1.00  0.00     0.137 A 
ATOM     92  N   UNL     1       4.003  -1.049  -8.605  1.00  0.00    -0.219 NA
ATOM     93  C   UNL     1       6.163  -1.866  -9.276  1.00  0.00     0.043 A 
ATOM     94  C   UNL     1       3.722  -0.936  -9.908  1.00  0.00     0.224 A 
ATOM     95  C   UNL     1       5.758  -1.680 -10.601  1.00  0.00     0.076 A 
ATOM     96  C   UNL     1       7.423  -2.446  -8.995  1.00  0.00     0.014 A 
ATOM     97  N   UNL     1       4.546  -1.213 -10.927  1.00  0.00    -0.236 NA
ATOM     98  C   UNL     1       6.659  -2.006 -11.608  1.00  0.00     0.029 A 
ATOM     99  C   UNL     1       8.307  -2.763 -10.017  1.00  0.00     0.001 A 
ATOM    100  C   UNL     1       7.928  -2.528 -11.330  1.00  0.00     0.002 A 
ENDBRANCH  89  91
ENDBRANCH  77  89
ENDBRANCH  74  77
ENDBRANCH  72  73
ENDBRANCH  71  72
ENDBRANCH   1  71
TORSDOF 17
