REMARK SMILES COC(=O)c1ccc(N2C[C@@H](C(=O)NCCCNC(=O)c3ccc(-c4c5nc(c(-c6cc(S(=O)(=O)[O-])ccc6F)c6ccc([nH]6)c(-c6cc(S(=O)(=O)[O-])ccc6F)c6nc(c(-c7cc(S(=O)(=O)[O-])ccc7F)c7ccc4[nH]7)C=C6)C=C5)cc3)CC2=O)cc1
REMARK SMILES IDX 16 1 15 2 14 3 12 4 13 5 11 7 9 8 10 9 85 10 84 11 86 12
REMARK SMILES IDX 8 13 5 14 6 15 88 16 7 17 87 18 3 19 4 20 2 21 1 22 17 23
REMARK SMILES IDX 18 24 19 25 20 27 21 28 22 29 83 30 23 31 82 32 24 33 25 34
REMARK SMILES IDX 26 35 76 36 27 37 81 38 75 39 77 40 28 41 80 42 74 43 73 44
REMARK SMILES IDX 29 46 61 47 41 48 60 49 42 50 45 51 59 52 78 53 43 54 44 55
REMARK SMILES IDX 58 57 79 58 46 59 30 60 31 61 39 62 32 63 38 64 40 65 37 66
REMARK SMILES IDX 33 67 34 68 35 69 36 70 62 71 63 72 71 73 64 74 70 75 72 76
REMARK SMILES IDX 69 77 65 78 66 79 67 80 68 81 47 82 48 83 56 84 49 85 55 86
REMARK SMILES IDX 57 87 54 88 50 89 51 90 52 91 53 92
REMARK H PARENT 14 6 18 26 77 45 45 56
REMARK Flexibility Score: inf
ROOT
ATOM      1  C   UNL     1      -4.510  -2.173   9.139  1.00  0.00     0.042 C 
ENDROOT
BRANCH   1   2
ATOM      2  C   UNL     1      -2.995  -2.217   8.973  1.00  0.00     0.117 C 
BRANCH   2   3
ATOM      3  N   UNL     1      -2.350  -3.057   9.970  1.00  0.00    -0.356 N 
ATOM      4  C   UNL     1      -1.678  -4.231   9.871  1.00  0.00     0.225 C 
ATOM      5  O   UNL     1      -1.198  -4.698  10.908  1.00  0.00    -0.275 OA
ATOM      6  H   UNL     1      -2.413  -2.708  10.889  1.00  0.00     0.163 HD
BRANCH   4   7
ATOM      7  C   UNL     1      -1.466  -4.956   8.558  1.00  0.00     0.107 C 
ATOM      8  N   UNL     1      -1.271  -4.205   6.331  1.00  0.00    -0.312 N 
ATOM      9  C   UNL     1      -0.582  -4.185   7.598  1.00  0.00     0.139 C 
ATOM     10  C   UNL     1      -2.529  -4.799   6.409  1.00  0.00     0.227 C 
ATOM     11  C   UNL     1      -2.740  -5.309   7.809  1.00  0.00     0.116 C 
ATOM     12  O   UNL     1      -3.348  -4.948   5.514  1.00  0.00    -0.274 OA
BRANCH   8  13
ATOM     13  C   UNL     1      -0.732  -3.605   5.170  1.00  0.00     0.044 A 
ATOM     14  C   UNL     1       0.345  -2.437   2.845  1.00  0.00     0.060 A 
ATOM     15  C   UNL     1       1.175  -3.112   3.745  1.00  0.00     0.018 A 
ATOM     16  C   UNL     1      -1.024  -2.341   3.108  1.00  0.00     0.018 A 
ATOM     17  C   UNL     1       0.643  -3.665   4.914  1.00  0.00     0.027 A 
ATOM     18  C   UNL     1      -1.559  -2.944   4.252  1.00  0.00     0.027 A 
BRANCH  14  19
ATOM     19  C   UNL     1       0.955  -1.871   1.619  1.00  0.00     0.337 C 
ATOM     20  O   UNL     1       1.978  -2.311   1.112  1.00  0.00    -0.246 OA
BRANCH  19  21
ATOM     21  O   UNL     1       0.256  -0.787   1.206  1.00  0.00    -0.465 OA
ATOM     22  C   UNL     1       0.812  -0.134   0.064  1.00  0.00     0.282 C 
ENDBRANCH  19  21
ENDBRANCH  14  19
ENDBRANCH   8  13
ENDBRANCH   4   7
ENDBRANCH   2   3
ENDBRANCH   1   2
BRANCH   1  23
ATOM     23  C   UNL     1      -4.980  -1.541  10.446  1.00  0.00     0.118 C 
BRANCH  23  24
ATOM     24  N   UNL     1      -4.613  -0.137  10.555  1.00  0.00    -0.352 N 
ATOM     25  C   UNL     1      -5.405   0.984  10.639  1.00  0.00     0.251 C 
ATOM     26  H   UNL     1      -3.644   0.038  10.571  1.00  0.00     0.163 HD
ATOM     27  O   UNL     1      -4.885   2.090  10.517  1.00  0.00    -0.269 OA
BRANCH  25  28
ATOM     28  C   UNL     1      -6.866   0.864  10.847  1.00  0.00     0.039 A 
ATOM     29  C   UNL     1      -7.721   1.717  10.143  1.00  0.00     0.014 A 
ATOM     30  C   UNL     1      -7.397  -0.066  11.743  1.00  0.00     0.014 A 
ATOM     31  C   UNL     1      -9.105   1.586  10.284  1.00  0.00     0.010 A 
ATOM     32  C   UNL     1      -8.776  -0.256  11.815  1.00  0.00     0.010 A 
ATOM     33  C   UNL     1      -9.646   0.570  11.088  1.00  0.00    -0.014 A 
BRANCH  33  34
ATOM     34  C   UNL     1     -11.116   0.357  11.181  1.00  0.00     0.031 A 
ATOM     35  C   UNL     1     -11.820   0.500  12.504  1.00  0.00     0.074 A 
ATOM     36  C   UNL     1     -11.807  -0.025  10.088  1.00  0.00     0.049 A 
ATOM     37  N   UNL     1     -13.075   0.278  12.804  1.00  0.00    -0.248 NA
ATOM     38  C   UNL     1     -10.995   0.919  13.647  1.00  0.00     0.031 C 
ATOM     39  C   UNL     1     -11.231  -0.237   8.758  1.00  0.00     0.029 A 
ATOM     40  N   UNL     1     -13.138  -0.313   9.921  1.00  0.00    -0.354 N 
ATOM     41  C   UNL     1     -13.188   0.521  14.169  1.00  0.00     0.074 A 
ATOM     42  C   UNL     1     -11.858   0.836  14.648  1.00  0.00     0.031 C 
ATOM     43  C   UNL     1     -12.206  -0.594   7.908  1.00  0.00     0.029 A 
ATOM     44  C   UNL     1     -13.466  -0.691   8.638  1.00  0.00     0.049 A 
ATOM     45  H   UNL     1     -13.798  -0.255  10.649  1.00  0.00     0.167 HD
ATOM     46  C   UNL     1     -14.300   0.509  14.946  1.00  0.00     0.034 A 
ATOM     47  C   UNL     1     -14.642  -1.088   8.112  1.00  0.00     0.034 A 
ATOM     48  C   UNL     1     -15.619   0.193  14.451  1.00  0.00     0.049 A 
ATOM     49  C   UNL     1     -15.859  -1.135   9.002  1.00  0.00     0.074 A 
ATOM     50  C   UNL     1     -16.821   0.194  15.139  1.00  0.00     0.029 A 
ATOM     51  N   UNL     1     -15.911  -0.191  13.148  1.00  0.00    -0.354 N 
ATOM     52  N   UNL     1     -15.958  -0.856  10.282  1.00  0.00    -0.248 NA
ATOM     53  C   UNL     1     -17.123  -1.539   8.374  1.00  0.00     0.031 C 
ATOM     54  C   UNL     1     -17.822  -0.263  14.275  1.00  0.00     0.029 A 
ATOM     55  C   UNL     1     -17.265  -0.463  13.022  1.00  0.00     0.049 A 
ATOM     56  H   UNL     1     -15.252  -0.260  12.419  1.00  0.00     0.167 HD
ATOM     57  C   UNL     1     -17.303  -1.022  10.603  1.00  0.00     0.074 A 
ATOM     58  C   UNL     1     -17.975  -1.409   9.380  1.00  0.00     0.031 C 
ATOM     59  C   UNL     1     -17.925  -0.863  11.799  1.00  0.00     0.034 A 
BRANCH  46  60
ATOM     60  C   UNL     1     -14.124   0.820  16.415  1.00  0.00     0.023 A 
ATOM     61  C   UNL     1     -13.621   2.059  16.852  1.00  0.00     0.031 A 
ATOM     62  C   UNL     1     -14.430  -0.143  17.393  1.00  0.00     0.131 A 
ATOM     63  C   UNL     1     -13.354   2.268  18.214  1.00  0.00     0.055 A 
ATOM     64  C   UNL     1     -14.250   0.106  18.756  1.00  0.00     0.041 A 
ATOM     65  F   UNL     1     -14.893  -1.353  17.041  1.00  0.00    -0.206 F 
ATOM     66  C   UNL     1     -13.692   1.311  19.172  1.00  0.00     0.022 A 
BRANCH  63  67
ATOM     67  S   UNL     1     -12.408   3.740  18.692  1.00  0.00     0.124 S 
ATOM     68  O   UNL     1     -11.184   3.569  17.911  1.00  0.00    -0.237 OA
ATOM     69  O   UNL     1     -13.284   4.828  18.276  1.00  0.00    -0.237 OA
ATOM     70  O   UNL     1     -12.242   3.587  20.136  1.00  0.00    -0.744 OA
ENDBRANCH  63  67
ENDBRANCH  46  60
BRANCH  47  71
ATOM     71  C   UNL     1     -14.728  -1.488   6.678  1.00  0.00     0.023 A 
ATOM     72  C   UNL     1     -15.512  -0.762   5.767  1.00  0.00     0.031 A 
ATOM     73  C   UNL     1     -14.052  -2.627   6.203  1.00  0.00     0.131 A 
ATOM     74  C   UNL     1     -15.636  -1.207   4.441  1.00  0.00     0.055 A 
ATOM     75  C   UNL     1     -14.132  -3.032   4.870  1.00  0.00     0.041 A 
ATOM     76  F   UNL     1     -13.286  -3.356   7.031  1.00  0.00    -0.206 F 
ATOM     77  C   UNL     1     -14.939  -2.327   3.982  1.00  0.00     0.022 A 
BRANCH  74  78
ATOM     78  S   UNL     1     -16.793  -0.346   3.340  1.00  0.00     0.124 S 
ATOM     79  O   UNL     1     -18.052  -0.491   4.062  1.00  0.00    -0.237 OA
ATOM     80  O   UNL     1     -16.228   0.999   3.300  1.00  0.00    -0.237 OA
ATOM     81  O   UNL     1     -16.698  -1.098   2.091  1.00  0.00    -0.744 OA
ENDBRANCH  74  78
ENDBRANCH  47  71
BRANCH  59  82
ATOM     82  C   UNL     1     -19.422  -1.063  11.828  1.00  0.00     0.023 A 
ATOM     83  C   UNL     1     -20.010  -2.317  11.582  1.00  0.00     0.031 A 
ATOM     84  C   UNL     1     -20.274   0.023  12.100  1.00  0.00     0.131 A 
ATOM     85  C   UNL     1     -21.408  -2.440  11.553  1.00  0.00     0.055 A 
ATOM     86  C   UNL     1     -21.662  -0.121  12.137  1.00  0.00     0.041 A 
ATOM     87  F   UNL     1     -19.770   1.244  12.338  1.00  0.00    -0.206 F 
ATOM     88  C   UNL     1     -22.237  -1.355  11.849  1.00  0.00     0.022 A 
BRANCH  85  89
ATOM     89  S   UNL     1     -22.133  -4.017  11.024  1.00  0.00     0.124 S 
ATOM     90  O   UNL     1     -21.561  -4.181   9.692  1.00  0.00    -0.237 OA
ATOM     91  O   UNL     1     -21.649  -4.941  12.044  1.00  0.00    -0.237 OA
ATOM     92  O   UNL     1     -23.572  -3.760  11.054  1.00  0.00    -0.744 OA
ENDBRANCH  85  89
ENDBRANCH  59  82
ENDBRANCH  33  34
ENDBRANCH  25  28
ENDBRANCH  23  24
ENDBRANCH   1  23
TORSDOF 16
