REMARK SMILES CC(=O)NCCc1c[nH]c2ccc(C(=O)NCCCNC(=O)c3ccc(-c4c5nc(c(-c6cc(S(=O)(=O)[O-])ccc6F)c6ccc([nH]6)c(-c6cc(S(=O)(=O)[O-])ccc6F)c6nc(c(-c7cc(S(=O)(=O)[O-])ccc7F)c7ccc4[nH]7)C=C6)C=C5)cc3)cc12
REMARK SMILES IDX 18 1 17 2 16 3 14 4 15 5 13 7 7 8 8 9 87 10 9 11 10 12 86 13
REMARK SMILES IDX 11 15 12 16 6 17 5 18 4 19 1 20 2 21 3 22 19 24 20 25 21 26
REMARK SMILES IDX 22 28 23 29 24 30 85 31 25 32 84 33 26 34 27 35 28 36 78 37
REMARK SMILES IDX 29 38 83 39 77 40 79 41 30 42 82 43 76 44 75 45 31 47 63 48
REMARK SMILES IDX 43 49 62 50 44 51 47 52 61 53 80 54 45 55 46 56 60 58 81 59
REMARK SMILES IDX 48 60 32 61 33 62 41 63 34 64 40 65 42 66 39 67 35 68 36 69
REMARK SMILES IDX 37 70 38 71 64 72 65 73 73 74 66 75 72 76 74 77 71 78 67 79
REMARK SMILES IDX 68 80 69 81 70 82 49 83 50 84 58 85 51 86 57 87 59 88 56 89
REMARK SMILES IDX 52 90 53 91 54 92 55 93
REMARK H PARENT 16 6 9 14 4 23 20 27 79 46 47 57
REMARK Flexibility Score: inf
ROOT
ATOM      1  C   UNL     1       2.430   9.970  -6.753  1.00  0.00     0.042 C 
ENDROOT
BRANCH   1   2
ATOM      2  C   UNL     1       3.659   9.243  -6.210  1.00  0.00     0.118 C 
BRANCH   2   3
ATOM      3  N   UNL     1       3.514   8.961  -4.794  1.00  0.00    -0.352 N 
ATOM      4  C   UNL     1       3.168   7.834  -4.096  1.00  0.00     0.251 C 
ATOM      5  O   UNL     1       3.182   7.911  -2.866  1.00  0.00    -0.269 OA
ATOM      6  H   UNL     1       3.703   9.736  -4.218  1.00  0.00     0.163 HD
BRANCH   4   7
ATOM      7  C   UNL     1       2.837   6.525  -4.731  1.00  0.00     0.040 A 
ATOM      8  C   UNL     1       2.779   2.781  -3.876  1.00  0.00    -0.021 A 
ATOM      9  C   UNL     1       2.456   1.909  -4.898  1.00  0.00     0.087 A 
ATOM     10  C   UNL     1       2.757   4.098  -4.435  1.00  0.00     0.003 A 
ATOM     11  N   UNL     1       2.184   2.643  -6.021  1.00  0.00    -0.361 N 
ATOM     12  C   UNL     1       2.325   3.984  -5.754  1.00  0.00     0.046 A 
ATOM     13  C   UNL     1       3.029   5.384  -3.928  1.00  0.00     0.024 A 
ATOM     14  H   UNL     1       1.926   2.265  -6.893  1.00  0.00     0.166 HD
ATOM     15  C   UNL     1       2.082   5.096  -6.564  1.00  0.00     0.027 A 
ATOM     16  C   UNL     1       2.314   6.366  -6.016  1.00  0.00     0.016 A 
BRANCH   8  17
ATOM     17  C   UNL     1       3.040   2.421  -2.444  1.00  0.00     0.059 C 
BRANCH  17  18
ATOM     18  C   UNL     1       1.754   2.436  -1.603  1.00  0.00     0.120 C 
BRANCH  18  19
ATOM     19  N   UNL     1       0.828   1.385  -2.006  1.00  0.00    -0.356 N 
ATOM     20  C   UNL     1       1.098  -0.013  -0.003  1.00  0.00     0.114 C 
ATOM     21  C   UNL     1       0.522   0.221  -1.371  1.00  0.00     0.216 C 
ATOM     22  O   UNL     1      -0.212  -0.602  -1.914  1.00  0.00    -0.275 OA
ATOM     23  H   UNL     1       0.359   1.538  -2.858  1.00  0.00     0.163 HD
ENDBRANCH  18  19
ENDBRANCH  17  18
ENDBRANCH   8  17
ENDBRANCH   4   7
ENDBRANCH   2   3
ENDBRANCH   1   2
BRANCH   1  24
ATOM     24  C   UNL     1       2.349  11.431  -6.311  1.00  0.00     0.118 C 
BRANCH  24  25
ATOM     25  N   UNL     1       3.395  12.239  -6.922  1.00  0.00    -0.352 N 
ATOM     26  C   UNL     1       3.300  13.320  -7.762  1.00  0.00     0.251 C 
ATOM     27  H   UNL     1       4.314  11.967  -6.697  1.00  0.00     0.163 HD
ATOM     28  O   UNL     1       4.301  13.688  -8.372  1.00  0.00    -0.269 OA
BRANCH  26  29
ATOM     29  C   UNL     1       2.015  14.033  -7.942  1.00  0.00     0.039 A 
ATOM     30  C   UNL     1       1.678  14.504  -9.214  1.00  0.00     0.014 A 
ATOM     31  C   UNL     1       1.170  14.287  -6.858  1.00  0.00     0.014 A 
ATOM     32  C   UNL     1       0.475  15.187  -9.408  1.00  0.00     0.010 A 
ATOM     33  C   UNL     1      -0.062  14.905  -7.066  1.00  0.00     0.010 A 
ATOM     34  C   UNL     1      -0.418  15.370  -8.341  1.00  0.00    -0.014 A 
BRANCH  34  35
ATOM     35  C   UNL     1      -1.725  16.051  -8.538  1.00  0.00     0.031 A 
ATOM     36  C   UNL     1      -2.017  17.347  -7.833  1.00  0.00     0.074 A 
ATOM     37  C   UNL     1      -2.676  15.459  -9.286  1.00  0.00     0.049 A 
ATOM     38  N   UNL     1      -3.122  18.047  -7.805  1.00  0.00    -0.248 NA
ATOM     39  C   UNL     1      -0.928  17.908  -7.021  1.00  0.00     0.031 C 
ATOM     40  C   UNL     1      -2.530  14.171  -9.969  1.00  0.00     0.029 A 
ATOM     41  N   UNL     1      -3.958  15.847  -9.579  1.00  0.00    -0.354 N 
ATOM     42  C   UNL     1      -2.870  19.120  -6.955  1.00  0.00     0.074 A 
ATOM     43  C   UNL     1      -1.529  18.936  -6.442  1.00  0.00     0.031 C 
ATOM     44  C   UNL     1      -3.675  13.880 -10.604  1.00  0.00     0.029 A 
ATOM     45  C   UNL     1      -4.648  14.936 -10.343  1.00  0.00     0.049 A 
ATOM     46  H   UNL     1      -4.347  16.698  -9.271  1.00  0.00     0.167 HD
ATOM     47  C   UNL     1      -3.676  20.169  -6.650  1.00  0.00     0.034 A 
ATOM     48  C   UNL     1      -5.926  14.937 -10.768  1.00  0.00     0.034 A 
ATOM     49  C   UNL     1      -5.009  20.333  -7.182  1.00  0.00     0.049 A 
ATOM     50  C   UNL     1      -6.806  16.109 -10.426  1.00  0.00     0.074 A 
ATOM     51  C   UNL     1      -5.885  21.391  -7.009  1.00  0.00     0.029 A 
ATOM     52  N   UNL     1      -5.667  19.404  -7.979  1.00  0.00    -0.354 N 
ATOM     53  N   UNL     1      -6.531  17.158  -9.685  1.00  0.00    -0.248 NA
ATOM     54  C   UNL     1      -8.160  16.107 -10.992  1.00  0.00     0.031 C 
ATOM     55  C   UNL     1      -7.093  21.069  -7.638  1.00  0.00     0.029 A 
ATOM     56  C   UNL     1      -6.949  19.846  -8.273  1.00  0.00     0.049 A 
ATOM     57  H   UNL     1      -5.280  18.554  -8.290  1.00  0.00     0.167 HD
ATOM     58  C   UNL     1      -7.675  17.950  -9.709  1.00  0.00     0.074 A 
ATOM     59  C   UNL     1      -8.634  17.265 -10.553  1.00  0.00     0.031 C 
ATOM     60  C   UNL     1      -7.908  19.139  -9.095  1.00  0.00     0.034 A 
BRANCH  47  61
ATOM     61  C   UNL     1      -3.139  21.191  -5.670  1.00  0.00     0.023 A 
ATOM     62  C   UNL     1      -1.961  21.915  -5.926  1.00  0.00     0.031 A 
ATOM     63  C   UNL     1      -3.776  21.398  -4.433  1.00  0.00     0.131 A 
ATOM     64  C   UNL     1      -1.399  22.721  -4.925  1.00  0.00     0.055 A 
ATOM     65  C   UNL     1      -3.263  22.278  -3.477  1.00  0.00     0.041 A 
ATOM     66  F   UNL     1      -4.895  20.727  -4.118  1.00  0.00    -0.206 F 
ATOM     67  C   UNL     1      -2.055  22.928  -3.710  1.00  0.00     0.022 A 
BRANCH  64  68
ATOM     68  S   UNL     1       0.293  23.336  -5.160  1.00  0.00     0.124 S 
ATOM     69  O   UNL     1       1.026  22.095  -5.401  1.00  0.00    -0.237 OA
ATOM     70  O   UNL     1       0.148  24.226  -6.306  1.00  0.00    -0.237 OA
ATOM     71  O   UNL     1       0.599  23.993  -3.891  1.00  0.00    -0.744 OA
ENDBRANCH  64  68
ENDBRANCH  47  61
BRANCH  48  72
ATOM     72  C   UNL     1      -6.446  13.779 -11.547  1.00  0.00     0.023 A 
ATOM     73  C   UNL     1      -6.770  13.900 -12.907  1.00  0.00     0.031 A 
ATOM     74  C   UNL     1      -6.609  12.522 -10.937  1.00  0.00     0.131 A 
ATOM     75  C   UNL     1      -7.264  12.788 -13.608  1.00  0.00     0.055 A 
ATOM     76  C   UNL     1      -7.061  11.410 -11.648  1.00  0.00     0.041 A 
ATOM     77  F   UNL     1      -6.299  12.352  -9.641  1.00  0.00    -0.206 F 
ATOM     78  C   UNL     1      -7.399  11.541 -12.991  1.00  0.00     0.022 A 
BRANCH  75  79
ATOM     79  S   UNL     1      -7.764  13.001 -15.338  1.00  0.00     0.124 S 
ATOM     80  O   UNL     1      -8.832  13.987 -15.221  1.00  0.00    -0.237 OA
ATOM     81  O   UNL     1      -6.527  13.464 -15.957  1.00  0.00    -0.237 OA
ATOM     82  O   UNL     1      -8.191  11.661 -15.736  1.00  0.00    -0.744 OA
ENDBRANCH  75  79
ENDBRANCH  48  72
BRANCH  60  83
ATOM     83  C   UNL     1      -9.250  19.785  -9.342  1.00  0.00     0.023 A 
ATOM     84  C   UNL     1     -10.444  19.216  -8.866  1.00  0.00     0.031 A 
ATOM     85  C   UNL     1      -9.335  20.982 -10.075  1.00  0.00     0.131 A 
ATOM     86  C   UNL     1     -11.675  19.815  -9.173  1.00  0.00     0.055 A 
ATOM     87  C   UNL     1     -10.557  21.606 -10.326  1.00  0.00     0.041 A 
ATOM     88  F   UNL     1      -8.227  21.567 -10.558  1.00  0.00    -0.206 F 
ATOM     89  C   UNL     1     -11.738  21.016  -9.885  1.00  0.00     0.022 A 
BRANCH  86  90
ATOM     90  S   UNL     1     -13.204  18.955  -8.711  1.00  0.00     0.124 S 
ATOM     91  O   UNL     1     -13.058  17.681  -9.409  1.00  0.00    -0.237 OA
ATOM     92  O   UNL     1     -13.104  18.900  -7.256  1.00  0.00    -0.237 OA
ATOM     93  O   UNL     1     -14.258  19.826  -9.227  1.00  0.00    -0.744 OA
ENDBRANCH  86  90
ENDBRANCH  60  83
ENDBRANCH  34  35
ENDBRANCH  26  29
ENDBRANCH  24  25
ENDBRANCH   1  24
TORSDOF 16
