REMARK SMILES O=C(NCCCNC(=O)c1cccc(Nc2ccnc3ccc(Cl)cc23)c1)c1ccc(-c2c3nc(c(-c4cc(S(=O)(=O)[O-])ccc4F)c4ccc([nH]4)c(-c4cc(S(=O)(=O)[O-])ccc4F)c4nc(c(-c5cc(S(=O)(=O)[O-])ccc5F)c5ccc2[nH]5)C=C4)C=C3)cc1
REMARK SMILES IDX 4 1 3 2 1 3 2 4 28 6 29 7 90 8 30 9 89 10 31 11 32 12 33 13
REMARK SMILES IDX 83 14 34 15 88 16 82 17 84 18 35 19 87 20 81 21 80 22 36 24
REMARK SMILES IDX 68 25 48 26 67 27 49 28 52 29 66 30 85 31 50 32 51 33 65 35
REMARK SMILES IDX 86 36 53 37 37 38 38 39 46 40 39 41 45 42 47 43 44 44 40 45
REMARK SMILES IDX 41 46 42 47 43 48 69 49 70 50 78 51 71 52 77 53 79 54 76 55
REMARK SMILES IDX 72 56 73 57 74 58 75 59 54 60 55 61 63 62 56 63 62 64 64 65
REMARK SMILES IDX 61 66 57 67 58 68 59 69 60 70 5 71 6 72 7 73 8 74 9 76 10 77
REMARK SMILES IDX 11 78 27 79 12 80 14 81 13 82 15 83 16 85 17 86 26 87 18 88
REMARK SMILES IDX 20 89 25 90 19 91 21 92 23 93 22 94 24 95
REMARK H PARENT 3 5 84 23 52 34 7 75 15 84
REMARK Flexibility Score: inf
ROOT
ATOM      1  C   UNL     1       4.515  -0.487   1.417  1.00  0.00     0.118 C 
ENDROOT
BRANCH   1   2
ATOM      2  N   UNL     1       3.087  -0.434   1.145  1.00  0.00    -0.352 N 
ATOM      3  O   UNL     1       1.154   0.052   0.125  1.00  0.00    -0.269 OA
ATOM      4  C   UNL     1       2.382   0.034   0.061  1.00  0.00     0.251 C 
ATOM      5  H   UNL     1       2.524  -0.798   1.867  1.00  0.00     0.163 HD
BRANCH   4   6
ATOM      6  C   UNL     1       3.055   0.532  -1.165  1.00  0.00     0.039 A 
ATOM      7  C   UNL     1       4.153  -0.118  -1.732  1.00  0.00     0.014 A 
ATOM      8  C   UNL     1       2.513   1.651  -1.813  1.00  0.00     0.014 A 
ATOM      9  C   UNL     1       4.778   0.413  -2.864  1.00  0.00     0.010 A 
ATOM     10  C   UNL     1       3.099   2.144  -2.984  1.00  0.00     0.010 A 
ATOM     11  C   UNL     1       4.256   1.547  -3.507  1.00  0.00    -0.014 A 
BRANCH  11  12
ATOM     12  C   UNL     1       4.899   2.078  -4.742  1.00  0.00     0.031 A 
ATOM     13  C   UNL     1       5.529   3.445  -4.756  1.00  0.00     0.074 A 
ATOM     14  C   UNL     1       4.894   1.335  -5.866  1.00  0.00     0.049 A 
ATOM     15  N   UNL     1       6.088   4.091  -5.749  1.00  0.00    -0.248 NA
ATOM     16  C   UNL     1       5.514   4.188  -3.489  1.00  0.00     0.031 C 
ATOM     17  C   UNL     1       4.301   0.002  -5.987  1.00  0.00     0.029 A 
ATOM     18  N   UNL     1       5.390   1.594  -7.120  1.00  0.00    -0.354 N 
ATOM     19  C   UNL     1       6.481   5.322  -5.233  1.00  0.00     0.074 A 
ATOM     20  C   UNL     1       6.054   5.343  -3.848  1.00  0.00     0.031 C 
ATOM     21  C   UNL     1       4.471  -0.442  -7.241  1.00  0.00     0.029 A 
ATOM     22  C   UNL     1       5.131   0.595  -8.030  1.00  0.00     0.049 A 
ATOM     23  H   UNL     1       5.883   2.415  -7.346  1.00  0.00     0.167 HD
ATOM     24  C   UNL     1       7.143   6.333  -5.853  1.00  0.00     0.034 A 
ATOM     25  C   UNL     1       5.359   0.530  -9.357  1.00  0.00     0.034 A 
ATOM     26  C   UNL     1       7.551   6.298  -7.238  1.00  0.00     0.049 A 
ATOM     27  C   UNL     1       6.044   1.681 -10.041  1.00  0.00     0.074 A 
ATOM     28  C   UNL     1       8.274   7.242  -7.950  1.00  0.00     0.029 A 
ATOM     29  N   UNL     1       7.253   5.276  -8.133  1.00  0.00    -0.354 N 
ATOM     30  N   UNL     1       6.452   2.819  -9.529  1.00  0.00    -0.248 NA
ATOM     31  C   UNL     1       6.307   1.540 -11.479  1.00  0.00     0.031 C 
ATOM     32  C   UNL     1       8.341   6.830  -9.286  1.00  0.00     0.029 A 
ATOM     33  C   UNL     1       7.738   5.588  -9.396  1.00  0.00     0.049 A 
ATOM     34  H   UNL     1       6.768   4.451  -7.904  1.00  0.00     0.167 HD
ATOM     35  C   UNL     1       7.039   3.520 -10.578  1.00  0.00     0.074 A 
ATOM     36  C   UNL     1       6.939   2.674 -11.750  1.00  0.00     0.031 C 
ATOM     37  C   UNL     1       7.617   4.748 -10.567  1.00  0.00     0.034 A 
BRANCH  24  38
ATOM     38  C   UNL     1       7.417   7.582  -5.043  1.00  0.00     0.023 A 
ATOM     39  C   UNL     1       8.211   7.555  -3.882  1.00  0.00     0.031 A 
ATOM     40  C   UNL     1       6.842   8.812  -5.412  1.00  0.00     0.131 A 
ATOM     41  C   UNL     1       8.328   8.703  -3.083  1.00  0.00     0.055 A 
ATOM     42  C   UNL     1       7.037   9.974  -4.662  1.00  0.00     0.041 A 
ATOM     43  F   UNL     1       6.061   8.902  -6.500  1.00  0.00    -0.206 F 
ATOM     44  C   UNL     1       7.767   9.919  -3.478  1.00  0.00     0.022 A 
BRANCH  41  45
ATOM     45  S   UNL     1       9.069   8.537  -1.435  1.00  0.00     0.124 S 
ATOM     46  O   UNL     1       8.259   7.469  -0.851  1.00  0.00    -0.237 OA
ATOM     47  O   UNL     1      10.451   8.193  -1.744  1.00  0.00    -0.237 OA
ATOM     48  O   UNL     1       8.870   9.854  -0.835  1.00  0.00    -0.744 OA
ENDBRANCH  41  45
ENDBRANCH  24  38
BRANCH  25  49
ATOM     49  C   UNL     1       4.880  -0.653 -10.126  1.00  0.00     0.023 A 
ATOM     50  C   UNL     1       5.775  -1.559 -10.713  1.00  0.00     0.031 A 
ATOM     51  C   UNL     1       3.501  -0.898 -10.268  1.00  0.00     0.131 A 
ATOM     52  C   UNL     1       5.281  -2.659 -11.433  1.00  0.00     0.055 A 
ATOM     53  C   UNL     1       3.016  -2.018 -10.944  1.00  0.00     0.041 A 
ATOM     54  F   UNL     1       2.604  -0.064  -9.720  1.00  0.00    -0.206 F 
ATOM     55  C   UNL     1       3.909  -2.903 -11.538  1.00  0.00     0.022 A 
BRANCH  52  56
ATOM     56  S   UNL     1       6.460  -3.750 -12.274  1.00  0.00     0.124 S 
ATOM     57  O   UNL     1       7.116  -2.827 -13.193  1.00  0.00    -0.237 OA
ATOM     58  O   UNL     1       7.272  -4.235 -11.163  1.00  0.00    -0.237 OA
ATOM     59  O   UNL     1       5.606  -4.755 -12.903  1.00  0.00    -0.744 OA
ENDBRANCH  52  56
ENDBRANCH  25  49
BRANCH  37  60
ATOM     60  C   UNL     1       8.228   5.236 -11.858  1.00  0.00     0.023 A 
ATOM     61  C   UNL     1       7.441   5.581 -12.971  1.00  0.00     0.031 A 
ATOM     62  C   UNL     1       9.624   5.371 -11.967  1.00  0.00     0.131 A 
ATOM     63  C   UNL     1       8.058   6.009 -14.157  1.00  0.00     0.055 A 
ATOM     64  C   UNL     1      10.228   5.848 -13.131  1.00  0.00     0.041 A 
ATOM     65  F   UNL     1      10.423   5.051 -10.937  1.00  0.00    -0.206 F 
ATOM     66  C   UNL     1       9.445   6.162 -14.238  1.00  0.00     0.022 A 
BRANCH  63  67
ATOM     67  S   UNL     1       7.030   6.307 -15.622  1.00  0.00     0.124 S 
ATOM     68  O   UNL     1       6.444   4.991 -15.853  1.00  0.00    -0.237 OA
ATOM     69  O   UNL     1       6.113   7.342 -15.157  1.00  0.00    -0.237 OA
ATOM     70  O   UNL     1       7.992   6.743 -16.633  1.00  0.00    -0.744 OA
ENDBRANCH  63  67
ENDBRANCH  37  60
ENDBRANCH  11  12
ENDBRANCH   4   6
ENDBRANCH   1   2
BRANCH   1  71
ATOM     71  C   UNL     1       4.937   0.267   2.679  1.00  0.00     0.042 C 
BRANCH  71  72
ATOM     72  C   UNL     1       4.287  -0.172   3.988  1.00  0.00     0.118 C 
BRANCH  72  73
ATOM     73  N   UNL     1       4.467  -1.575   4.326  1.00  0.00    -0.352 N 
ATOM     74  C   UNL     1       5.016  -2.111   5.468  1.00  0.00     0.251 C 
ATOM     75  H   UNL     1       4.158  -2.222   3.652  1.00  0.00     0.163 HD
ATOM     76  O   UNL     1       4.814  -3.279   5.777  1.00  0.00    -0.269 OA
BRANCH  74  77
ATOM     77  C   UNL     1       5.935  -1.297   6.285  1.00  0.00     0.041 A 
ATOM     78  C   UNL     1       7.241  -1.151   5.807  1.00  0.00     0.014 A 
ATOM     79  C   UNL     1       5.538  -0.739   7.514  1.00  0.00     0.039 A 
ATOM     80  C   UNL     1       8.165  -0.431   6.550  1.00  0.00     0.003 A 
ATOM     81  C   UNL     1       6.458   0.021   8.248  1.00  0.00     0.039 A 
ATOM     82  C   UNL     1       7.771   0.150   7.753  1.00  0.00     0.026 A 
BRANCH  81  83
ATOM     83  N   UNL     1       6.074   0.801   9.363  1.00  0.00    -0.355 N 
ATOM     84  H   UNL     1       5.516   0.375  10.053  1.00  0.00     0.167 HD
BRANCH  83  85
ATOM     85  C   UNL     1       6.441   2.162   9.553  1.00  0.00     0.050 A 
ATOM     86  C   UNL     1       6.508   2.986   8.420  1.00  0.00     0.047 A 
ATOM     87  C   UNL     1       6.847   2.696  10.805  1.00  0.00     0.025 A 
ATOM     88  C   UNL     1       6.983   4.271   8.543  1.00  0.00     0.114 A 
ATOM     89  C   UNL     1       7.305   4.039  10.807  1.00  0.00     0.072 A 
ATOM     90  C   UNL     1       6.871   1.980  12.029  1.00  0.00     0.033 A 
ATOM     91  N   UNL     1       7.373   4.804   9.712  1.00  0.00    -0.256 NA
ATOM     92  C   UNL     1       7.737   4.617  11.989  1.00  0.00     0.030 A 
ATOM     93  C   UNL     1       7.317   2.592  13.204  1.00  0.00     0.041 A 
ATOM     94  C   UNL     1       7.746   3.913  13.191  1.00  0.00     0.023 A 
ATOM     95  Cl  UNL     1       7.350   1.712  14.682  1.00  0.00    -0.084 Cl
ENDBRANCH  83  85
ENDBRANCH  81  83
ENDBRANCH  74  77
ENDBRANCH  72  73
ENDBRANCH  71  72
ENDBRANCH   1  71
TORSDOF 15
