REMARK SMILES C[C@](NC(=O)[C@](C)([NH3+])C(F)(F)F)(C(=O)NCCCNC(=O)c1ccc(-c2c3nc(c(-c4cc(S(=O)(=O)[O-])ccc4F)c4ccc([nH]4)c(-c4cc(S(=O)(=O)[O-])ccc4F)c4nc(c(-c5cc(S(=O)(=O)[O-])ccc5F)c5ccc2[nH]5)C=C4)C=C3)cc1)c1ccccc1
REMARK SMILES IDX 17 1 16 2 15 3 13 4 14 5 2 7 1 8 85 9 86 10 90 11 87 12
REMARK SMILES IDX 89 13 88 14 3 15 4 16 5 18 6 19 7 20 8 21 9 25 10 26 11 27
REMARK SMILES IDX 12 28 18 29 19 30 20 31 21 33 22 34 23 35 84 36 24 37 83 38
REMARK SMILES IDX 25 39 26 40 27 41 77 42 28 43 82 44 76 45 78 46 29 47 81 48
REMARK SMILES IDX 75 49 74 50 30 52 62 53 42 54 61 55 43 56 46 57 60 58 79 59
REMARK SMILES IDX 44 60 45 61 59 63 80 64 47 65 31 66 32 67 40 68 33 69 39 70
REMARK SMILES IDX 41 71 38 72 34 73 35 74 36 75 37 76 63 77 64 78 72 79 65 80
REMARK SMILES IDX 71 81 73 82 70 83 66 84 67 85 68 86 69 87 48 88 49 89 57 90
REMARK SMILES IDX 50 91 56 92 58 93 55 94 51 95 52 96 53 97 54 98
REMARK H PARENT 15 6 3 17 8 22 8 23 8 24 19 32 78 51 46 62
REMARK Flexibility Score: inf
ROOT
ATOM      1  C   UNL     1       5.287  -2.479  -5.192  1.00  0.00     0.042 C 
ENDROOT
BRANCH   1   2
ATOM      2  C   UNL     1       6.015  -1.676  -4.128  1.00  0.00     0.117 C 
BRANCH   2   3
ATOM      3  N   UNL     1       6.336  -0.339  -4.607  1.00  0.00    -0.354 N 
ATOM      4  C   UNL     1       6.214   0.896  -4.034  1.00  0.00     0.250 C 
ATOM      5  O   UNL     1       6.726   1.826  -4.664  1.00  0.00    -0.272 OA
ATOM      6  H   UNL     1       6.713  -0.321  -5.516  1.00  0.00     0.163 HD
BRANCH   4   7
ATOM      7  C   UNL     1       5.609   1.066  -2.579  1.00  0.00     0.142 C 
ATOM      8  C   UNL     1       6.650   0.354  -1.681  1.00  0.00     0.051 C 
BRANCH   7   9
ATOM      9  C   UNL     1       5.436   2.565  -2.301  1.00  0.00    -0.013 A 
ATOM     10  C   UNL     1       4.240   3.234  -2.631  1.00  0.00     0.007 A 
ATOM     11  C   UNL     1       6.487   3.335  -1.778  1.00  0.00     0.007 A 
ATOM     12  C   UNL     1       4.059   4.584  -2.326  1.00  0.00     0.000 A 
ATOM     13  C   UNL     1       6.318   4.693  -1.503  1.00  0.00     0.000 A 
ATOM     14  C   UNL     1       5.095   5.310  -1.750  1.00  0.00     0.000 A 
ENDBRANCH   7   9
BRANCH   7  15
ATOM     15  N   UNL     1       4.289   0.379  -2.582  1.00  0.00    -0.332 N 
ATOM     16  C   UNL     1       3.255   0.101  -1.763  1.00  0.00     0.291 C 
ATOM     17  H   UNL     1       4.113   0.004  -3.475  1.00  0.00     0.165 HD
ATOM     18  O   UNL     1       2.335  -0.477  -2.369  1.00  0.00    -0.267 OA
BRANCH  16  19
ATOM     19  C   UNL     1       3.024   0.525  -0.284  1.00  0.00     0.267 C 
ATOM     20  C   UNL     1       1.898  -0.382   0.270  1.00  0.00     0.100 C 
BRANCH  19  21
ATOM     21  N   UNL     1       2.460   1.918  -0.253  1.00  0.00    -0.337 N 
ATOM     22  H   UNL     1       2.307   2.202   0.714  1.00  0.00     0.345 HD
ATOM     23  H   UNL     1       1.574   1.938  -0.758  1.00  0.00     0.345 HD
ATOM     24  H   UNL     1       3.117   2.561  -0.696  1.00  0.00     0.345 HD
ENDBRANCH  19  21
BRANCH  19  25
ATOM     25  C   UNL     1       4.257   0.305   0.598  1.00  0.00     0.453 C 
ATOM     26  F   UNL     1       3.941   0.245   1.916  1.00  0.00    -0.164 F 
ATOM     27  F   UNL     1       4.904  -0.842   0.301  1.00  0.00    -0.164 F 
ATOM     28  F   UNL     1       5.129   1.331   0.479  1.00  0.00    -0.164 F 
ENDBRANCH  19  25
ENDBRANCH  16  19
ENDBRANCH   7  15
ENDBRANCH   4   7
ENDBRANCH   2   3
ENDBRANCH   1   2
BRANCH   1  29
ATOM     29  C   UNL     1       6.135  -2.762  -6.423  1.00  0.00     0.118 C 
BRANCH  29  30
ATOM     30  N   UNL     1       7.286  -3.602  -6.128  1.00  0.00    -0.352 N 
ATOM     31  C   UNL     1       7.653  -4.798  -6.695  1.00  0.00     0.251 C 
ATOM     32  H   UNL     1       7.885  -3.267  -5.423  1.00  0.00     0.163 HD
ATOM     33  O   UNL     1       8.545  -5.463  -6.173  1.00  0.00    -0.269 OA
BRANCH  31  34
ATOM     34  C   UNL     1       6.960  -5.284  -7.907  1.00  0.00     0.039 A 
ATOM     35  C   UNL     1       6.652  -6.640  -8.013  1.00  0.00     0.014 A 
ATOM     36  C   UNL     1       6.615  -4.404  -8.937  1.00  0.00     0.014 A 
ATOM     37  C   UNL     1       5.959  -7.103  -9.133  1.00  0.00     0.010 A 
ATOM     38  C   UNL     1       5.827  -4.845  -9.993  1.00  0.00     0.010 A 
ATOM     39  C   UNL     1       5.517  -6.206 -10.120  1.00  0.00    -0.014 A 
BRANCH  39  40
ATOM     40  C   UNL     1       4.780  -6.690 -11.317  1.00  0.00     0.031 A 
ATOM     41  C   UNL     1       5.370  -6.498 -12.690  1.00  0.00     0.074 A 
ATOM     42  C   UNL     1       3.580  -7.284 -11.168  1.00  0.00     0.049 A 
ATOM     43  N   UNL     1       4.890  -6.852 -13.855  1.00  0.00    -0.248 NA
ATOM     44  C   UNL     1       6.654  -5.782 -12.768  1.00  0.00     0.031 C 
ATOM     45  C   UNL     1       2.884  -7.476  -9.893  1.00  0.00     0.029 A 
ATOM     46  N   UNL     1       2.735  -7.843 -12.092  1.00  0.00    -0.354 N 
ATOM     47  C   UNL     1       5.806  -6.396 -14.798  1.00  0.00     0.074 A 
ATOM     48  C   UNL     1       6.823  -5.666 -14.075  1.00  0.00     0.031 C 
ATOM     49  C   UNL     1       1.745  -8.152 -10.111  1.00  0.00     0.029 A 
ATOM     50  C   UNL     1       1.605  -8.403 -11.541  1.00  0.00     0.049 A 
ATOM     51  H   UNL     1       2.920  -7.845 -13.059  1.00  0.00     0.167 HD
ATOM     52  C   UNL     1       5.820  -6.598 -16.139  1.00  0.00     0.034 A 
ATOM     53  C   UNL     1       0.575  -9.048 -12.125  1.00  0.00     0.034 A 
ATOM     54  C   UNL     1       4.801  -7.340 -16.841  1.00  0.00     0.049 A 
ATOM     55  C   UNL     1       0.607  -9.255 -13.619  1.00  0.00     0.074 A 
ATOM     56  C   UNL     1       4.728  -7.641 -18.189  1.00  0.00     0.029 A 
ATOM     57  N   UNL     1       3.671  -7.894 -16.250  1.00  0.00    -0.354 N 
ATOM     58  N   UNL     1       1.510  -8.865 -14.491  1.00  0.00    -0.248 NA
ATOM     59  C   UNL     1      -0.507 -10.010 -14.201  1.00  0.00     0.031 C 
ATOM     60  C   UNL     1       3.522  -8.311 -18.424  1.00  0.00     0.029 A 
ATOM     61  C   UNL     1       2.885  -8.513 -17.210  1.00  0.00     0.049 A 
ATOM     62  H   UNL     1       3.460  -7.853 -15.289  1.00  0.00     0.167 HD
ATOM     63  C   UNL     1       1.090  -9.366 -15.720  1.00  0.00     0.074 A 
ATOM     64  C   UNL     1      -0.133 -10.102 -15.468  1.00  0.00     0.031 C 
ATOM     65  C   UNL     1       1.663  -9.236 -16.945  1.00  0.00     0.034 A 
BRANCH  52  66
ATOM     66  C   UNL     1       6.959  -5.986 -16.923  1.00  0.00     0.023 A 
ATOM     67  C   UNL     1       8.300  -6.340 -16.680  1.00  0.00     0.031 A 
ATOM     68  C   UNL     1       6.708  -5.008 -17.901  1.00  0.00     0.131 A 
ATOM     69  C   UNL     1       9.336  -5.664 -17.342  1.00  0.00     0.055 A 
ATOM     70  C   UNL     1       7.740  -4.405 -18.623  1.00  0.00     0.041 A 
ATOM     71  F   UNL     1       5.454  -4.607 -18.162  1.00  0.00    -0.206 F 
ATOM     72  C   UNL     1       9.065  -4.719 -18.333  1.00  0.00     0.022 A 
BRANCH  69  73
ATOM     73  S   UNL     1      11.040  -5.920 -16.773  1.00  0.00     0.124 S 
ATOM     74  O   UNL     1      10.947  -5.511 -15.373  1.00  0.00    -0.237 OA
ATOM     75  O   UNL     1      11.241  -7.345 -17.010  1.00  0.00    -0.237 OA
ATOM     76  O   UNL     1      11.823  -5.027 -17.624  1.00  0.00    -0.744 OA
ENDBRANCH  69  73
ENDBRANCH  52  66
BRANCH  53  77
ATOM     77  C   UNL     1      -0.565  -9.556 -11.306  1.00  0.00     0.023 A 
ATOM     78  C   UNL     1      -0.851 -10.929 -11.230  1.00  0.00     0.031 A 
ATOM     79  C   UNL     1      -1.419  -8.668 -10.627  1.00  0.00     0.131 A 
ATOM     80  C   UNL     1      -1.992 -11.370 -10.542  1.00  0.00     0.055 A 
ATOM     81  C   UNL     1      -2.518  -9.117  -9.892  1.00  0.00     0.041 A 
ATOM     82  F   UNL     1      -1.191  -7.346 -10.661  1.00  0.00    -0.206 F 
ATOM     83  C   UNL     1      -2.819 -10.475  -9.860  1.00  0.00     0.022 A 
BRANCH  80  84
ATOM     84  S   UNL     1      -2.438 -13.127 -10.634  1.00  0.00     0.124 S 
ATOM     85  O   UNL     1      -2.562 -13.326 -12.073  1.00  0.00    -0.237 OA
ATOM     86  O   UNL     1      -1.292 -13.764  -9.994  1.00  0.00    -0.237 OA
ATOM     87  O   UNL     1      -3.689 -13.199  -9.883  1.00  0.00    -0.744 OA
ENDBRANCH  80  84
ENDBRANCH  53  77
BRANCH  65  88
ATOM     88  C   UNL     1       0.997  -9.962 -18.092  1.00  0.00     0.023 A 
ATOM     89  C   UNL     1      -0.310  -9.655 -18.510  1.00  0.00     0.031 A 
ATOM     90  C   UNL     1       1.668 -11.010 -18.748  1.00  0.00     0.131 A 
ATOM     91  C   UNL     1      -0.935 -10.444 -19.486  1.00  0.00     0.055 A 
ATOM     92  C   UNL     1       1.070 -11.738 -19.777  1.00  0.00     0.041 A 
ATOM     93  F   UNL     1       2.917 -11.351 -18.393  1.00  0.00    -0.206 F 
ATOM     94  C   UNL     1      -0.248 -11.472 -20.136  1.00  0.00     0.022 A 
BRANCH  91  95
ATOM     95  S   UNL     1      -2.709 -10.208 -19.786  1.00  0.00     0.124 S 
ATOM     96  O   UNL     1      -3.266 -10.361 -18.446  1.00  0.00    -0.237 OA
ATOM     97  O   UNL     1      -2.753  -8.860 -20.344  1.00  0.00    -0.237 OA
ATOM     98  O   UNL     1      -3.043 -11.279 -20.723  1.00  0.00    -0.744 OA
ENDBRANCH  91  95
ENDBRANCH  65  88
ENDBRANCH  39  40
ENDBRANCH  31  34
ENDBRANCH  29  30
ENDBRANCH   1  29
TORSDOF 18
