REMARK SMILES O=C(C[C@@H](C[NH+]1CCCCC1)C(=O)NCCCNC(=O)c1ccc(-c2c3nc(c(-c4cc(S(=O)(=O)[O-])ccc4F)c4ccc([nH]4)c(-c4cc(S(=O)(=O)[O-])ccc4F)c4nc(c(-c5cc(S(=O)(=O)[O-])ccc5F)c5ccc2[nH]5)C=C4)C=C3)cc1)Nc1ccccc1O
REMARK SMILES IDX 15 1 14 2 12 3 13 4 4 6 3 7 2 8 1 9 84 10 85 12 86 13 90 14
REMARK SMILES IDX 87 15 89 16 88 17 91 18 5 20 6 21 7 22 11 23 8 25 10 26 9 27
REMARK SMILES IDX 16 28 17 29 18 30 19 31 20 33 21 34 22 35 83 36 23 37 82 38
REMARK SMILES IDX 24 39 25 40 26 41 76 42 27 43 81 44 75 45 77 46 28 47 80 48
REMARK SMILES IDX 74 49 73 50 29 52 61 53 41 54 60 55 42 56 45 57 59 58 78 59
REMARK SMILES IDX 43 60 44 61 58 63 79 64 46 65 30 66 31 67 39 68 32 69 38 70
REMARK SMILES IDX 40 71 37 72 33 73 34 74 35 75 36 76 62 77 63 78 71 79 64 80
REMARK SMILES IDX 70 81 72 82 69 83 65 84 66 85 67 86 68 87 47 88 48 89 56 90
REMARK SMILES IDX 49 91 55 92 57 93 54 94 50 95 51 96 52 97 53 98
REMARK H PARENT 14 5 84 11 91 19 6 24 18 32 77 51 45 62
REMARK Flexibility Score: inf
ROOT
ATOM      1  C   UNL     1       5.526  -0.639   2.768  1.00  0.00     0.117 C 
ENDROOT
BRANCH   1   2
ATOM      2  N   UNL     1       4.977  -1.970   2.620  1.00  0.00    -0.356 N 
ATOM      3  C   UNL     1       4.390  -2.511   1.511  1.00  0.00     0.229 C 
ATOM      4  O   UNL     1       4.222  -3.732   1.472  1.00  0.00    -0.275 OA
ATOM      5  H   UNL     1       5.033  -2.554   3.411  1.00  0.00     0.163 HD
BRANCH   3   6
ATOM      6  C   UNL     1       3.933  -1.627   0.344  1.00  0.00     0.142 C 
BRANCH   6   7
ATOM      7  C   UNL     1       2.914  -0.601   0.866  1.00  0.00     0.119 C 
BRANCH   7   8
ATOM      8  C   UNL     1       1.876  -0.034  -0.078  1.00  0.00     0.225 C 
ATOM      9  O   UNL     1       0.719   0.141   0.301  1.00  0.00    -0.275 OA
ATOM     10  N   UNL     1       2.357   0.396  -1.284  1.00  0.00    -0.323 N 
ATOM     11  H   UNL     1       3.232   0.029  -1.549  1.00  0.00     0.170 HD
BRANCH  10  12
ATOM     12  C   UNL     1       1.770   1.294  -2.200  1.00  0.00     0.083 A 
ATOM     13  C   UNL     1       2.358   1.308  -3.476  1.00  0.00     0.030 A 
ATOM     14  C   UNL     1       0.733   2.199  -1.935  1.00  0.00     0.139 A 
ATOM     15  C   UNL     1       1.895   2.166  -4.474  1.00  0.00     0.002 A 
ATOM     16  C   UNL     1       0.289   3.074  -2.928  1.00  0.00     0.048 A 
ATOM     17  C   UNL     1       0.857   3.049  -4.200  1.00  0.00     0.004 A 
BRANCH  14  18
ATOM     18  O   UNL     1       0.122   2.361  -0.726  1.00  0.00    -0.506 OA
ATOM     19  H   UNL     1       0.360   1.814  -0.003  1.00  0.00     0.293 HD
ENDBRANCH  14  18
ENDBRANCH  10  12
ENDBRANCH   7   8
ENDBRANCH   6   7
BRANCH   6  20
ATOM     20  C   UNL     1       5.155  -1.222  -0.538  1.00  0.00     0.276 C 
BRANCH  20  21
ATOM     21  N   UNL     1       6.015  -0.138  -0.058  1.00  0.00    -0.334 N 
ATOM     22  C   UNL     1       7.443  -0.370  -0.315  1.00  0.00     0.262 C 
ATOM     23  C   UNL     1       5.618   1.218  -0.444  1.00  0.00     0.262 C 
ATOM     24  H   UNL     1       5.867  -0.176   0.951  1.00  0.00     0.348 HD
ATOM     25  C   UNL     1       8.311   0.622   0.466  1.00  0.00     0.062 C 
ATOM     26  C   UNL     1       6.411   2.257   0.354  1.00  0.00     0.062 C 
ATOM     27  C   UNL     1       7.914   2.067   0.191  1.00  0.00     0.012 C 
ENDBRANCH  20  21
ENDBRANCH   6  20
ENDBRANCH   3   6
ENDBRANCH   1   2
BRANCH   1  28
ATOM     28  C   UNL     1       5.205   0.050   4.071  1.00  0.00     0.042 C 
BRANCH  28  29
ATOM     29  C   UNL     1       6.127  -0.375   5.192  1.00  0.00     0.118 C 
BRANCH  29  30
ATOM     30  N   UNL     1       7.527  -0.047   4.926  1.00  0.00    -0.352 N 
ATOM     31  C   UNL     1       8.392   0.798   5.577  1.00  0.00     0.251 C 
ATOM     32  H   UNL     1       7.915  -0.511   4.149  1.00  0.00     0.163 HD
ATOM     33  O   UNL     1       9.471   1.070   5.053  1.00  0.00    -0.269 OA
BRANCH  31  34
ATOM     34  C   UNL     1       8.013   1.394   6.874  1.00  0.00     0.039 A 
ATOM     35  C   UNL     1       8.414   2.697   7.174  1.00  0.00     0.014 A 
ATOM     36  C   UNL     1       7.246   0.675   7.790  1.00  0.00     0.014 A 
ATOM     37  C   UNL     1       7.974   3.296   8.356  1.00  0.00     0.010 A 
ATOM     38  C   UNL     1       6.684   1.320   8.880  1.00  0.00     0.010 A 
ATOM     39  C   UNL     1       7.064   2.629   9.194  1.00  0.00    -0.014 A 
BRANCH  39  40
ATOM     40  C   UNL     1       6.524   3.271  10.418  1.00  0.00     0.031 A 
ATOM     41  C   UNL     1       6.745   2.634  11.765  1.00  0.00     0.074 A 
ATOM     42  C   UNL     1       5.792   4.396  10.308  1.00  0.00     0.049 A 
ATOM     43  N   UNL     1       6.346   3.033  12.946  1.00  0.00    -0.248 NA
ATOM     44  C   UNL     1       7.471   1.356  11.781  1.00  0.00     0.031 C 
ATOM     45  C   UNL     1       5.455   5.067   9.050  1.00  0.00     0.029 A 
ATOM     46  N   UNL     1       5.213   5.183  11.268  1.00  0.00    -0.354 N 
ATOM     47  C   UNL     1       6.766   2.051  13.837  1.00  0.00     0.074 A 
ATOM     48  C   UNL     1       7.349   0.991  13.045  1.00  0.00     0.031 C 
ATOM     49  C   UNL     1       4.794   6.202   9.321  1.00  0.00     0.029 A 
ATOM     50  C   UNL     1       4.614   6.314  10.764  1.00  0.00     0.049 A 
ATOM     51  H   UNL     1       5.224   4.961  12.227  1.00  0.00     0.167 HD
ATOM     52  C   UNL     1       6.715   2.050  15.193  1.00  0.00     0.034 A 
ATOM     53  C   UNL     1       4.004   7.333  11.398  1.00  0.00     0.034 A 
ATOM     54  C   UNL     1       6.126   3.119  15.962  1.00  0.00     0.049 A 
ATOM     55  C   UNL     1       3.926   7.301  12.902  1.00  0.00     0.074 A 
ATOM     56  C   UNL     1       6.043   3.254  17.336  1.00  0.00     0.029 A 
ATOM     57  N   UNL     1       5.505   4.239  15.417  1.00  0.00    -0.354 N 
ATOM     58  N   UNL     1       4.382   6.397  13.739  1.00  0.00    -0.248 NA
ATOM     59  C   UNL     1       3.262   8.440  13.543  1.00  0.00     0.031 C 
ATOM     60  C   UNL     1       5.309   4.412  17.620  1.00  0.00     0.029 A 
ATOM     61  C   UNL     1       5.009   5.051  16.427  1.00  0.00     0.049 A 
ATOM     62  H   UNL     1       5.429   4.428  14.454  1.00  0.00     0.167 HD
ATOM     63  C   UNL     1       4.090   6.878  15.012  1.00  0.00     0.074 A 
ATOM     64  C   UNL     1       3.439   8.161  14.825  1.00  0.00     0.031 C 
ATOM     65  C   UNL     1       4.338   6.316  16.224  1.00  0.00     0.034 A 
BRANCH  52  66
ATOM     66  C   UNL     1       7.291   0.841  15.901  1.00  0.00     0.023 A 
ATOM     67  C   UNL     1       8.632   0.451  15.718  1.00  0.00     0.031 A 
ATOM     68  C   UNL     1       6.477   0.018  16.698  1.00  0.00     0.131 A 
ATOM     69  C   UNL     1       9.080  -0.782  16.215  1.00  0.00     0.055 A 
ATOM     70  C   UNL     1       6.962  -1.155  17.283  1.00  0.00     0.041 A 
ATOM     71  F   UNL     1       5.184   0.319  16.896  1.00  0.00    -0.206 F 
ATOM     72  C   UNL     1       8.263  -1.575  17.022  1.00  0.00     0.022 A 
BRANCH  69  73
ATOM     73  S   UNL     1      10.666  -1.429  15.612  1.00  0.00     0.124 S 
ATOM     74  O   UNL     1      10.452  -1.433  14.166  1.00  0.00    -0.237 OA
ATOM     75  O   UNL     1      11.619  -0.447  16.115  1.00  0.00    -0.237 OA
ATOM     76  O   UNL     1      10.750  -2.754  16.223  1.00  0.00    -0.744 OA
ENDBRANCH  69  73
ENDBRANCH  52  66
BRANCH  53  77
ATOM     77  C   UNL     1       3.460   8.485  10.625  1.00  0.00     0.023 A 
ATOM     78  C   UNL     1       4.012   9.767  10.770  1.00  0.00     0.031 A 
ATOM     79  C   UNL     1       2.374   8.329   9.747  1.00  0.00     0.131 A 
ATOM     80  C   UNL     1       3.452  10.853  10.080  1.00  0.00     0.055 A 
ATOM     81  C   UNL     1       1.853   9.402   9.022  1.00  0.00     0.041 A 
ATOM     82  F   UNL     1       1.815   7.121   9.565  1.00  0.00    -0.206 F 
ATOM     83  C   UNL     1       2.385  10.677   9.196  1.00  0.00     0.022 A 
BRANCH  80  84
ATOM     84  S   UNL     1       4.098  12.516  10.407  1.00  0.00     0.124 S 
ATOM     85  O   UNL     1       3.848  12.655  11.837  1.00  0.00    -0.237 OA
ATOM     86  O   UNL     1       5.495  12.382  10.009  1.00  0.00    -0.237 OA
ATOM     87  O   UNL     1       3.286  13.371   9.544  1.00  0.00    -0.744 OA
ENDBRANCH  80  84
ENDBRANCH  53  77
BRANCH  65  88
ATOM     88  C   UNL     1       3.932   7.120  17.439  1.00  0.00     0.023 A 
ATOM     89  C   UNL     1       2.589   7.449  17.693  1.00  0.00     0.031 A 
ATOM     90  C   UNL     1       4.909   7.610  18.324  1.00  0.00     0.131 A 
ATOM     91  C   UNL     1       2.269   8.319  18.746  1.00  0.00     0.055 A 
ATOM     92  C   UNL     1       4.576   8.408  19.419  1.00  0.00     0.041 A 
ATOM     93  F   UNL     1       6.209   7.332  18.132  1.00  0.00    -0.206 F 
ATOM     94  C   UNL     1       3.252   8.785  19.622  1.00  0.00     0.022 A 
BRANCH  91  95
ATOM     95  S   UNL     1       0.574   8.956  18.860  1.00  0.00     0.124 S 
ATOM     96  O   UNL     1       0.381   9.542  17.537  1.00  0.00    -0.237 OA
ATOM     97  O   UNL     1      -0.194   7.747  19.139  1.00  0.00    -0.237 OA
ATOM     98  O   UNL     1       0.642   9.916  19.960  1.00  0.00    -0.744 OA
ENDBRANCH  91  95
ENDBRANCH  65  88
ENDBRANCH  39  40
ENDBRANCH  31  34
ENDBRANCH  29  30
ENDBRANCH  28  29
ENDBRANCH   1  28
TORSDOF 19
