REMARK SMILES CCCSc1nc2n(n1)[C@@H](c1ccccc1C(=O)NCCCNC(=O)c1ccc(-c3c4nc(c(-c5cc(S(=O)(=O)[O-])ccc5F)c5ccc([nH]5)c(-c5cc(S(=O)(=O)[O-])ccc5F)c5nc(c(-c6cc(S(=O)(=O)[O-])ccc6F)c6ccc3[nH]6)C=C5)C=C4)cc1)C(C(=O)Nc1cccc(C)c1C)=C(C)N2
REMARK SMILES IDX 20 1 19 2 17 3 18 4 16 6 11 7 12 8 13 9 15 10 14 11 10 12
REMARK SMILES IDX 5 13 6 14 9 15 7 16 8 17 103 18 101 19 89 21 102 22 4 23
REMARK SMILES IDX 3 24 2 25 1 26 90 27 91 28 92 29 93 31 94 32 99 33 95 34
REMARK SMILES IDX 97 35 100 36 96 37 98 38 21 39 22 40 23 41 24 42 25 44 26 45
REMARK SMILES IDX 27 46 88 47 28 48 87 49 29 50 30 51 31 52 81 53 32 54 86 55
REMARK SMILES IDX 80 56 82 57 33 58 85 59 79 60 78 61 34 63 66 64 46 65 65 66
REMARK SMILES IDX 47 67 50 68 64 69 83 70 48 71 49 72 63 74 84 75 51 76 35 77
REMARK SMILES IDX 36 78 44 79 37 80 43 81 45 82 42 83 38 84 39 85 40 86 41 87
REMARK SMILES IDX 67 88 68 89 76 90 69 91 75 92 77 93 74 94 70 95 71 96 72 97
REMARK SMILES IDX 73 98 52 99 53 100 61 101 54 102 60 103 62 104 59 105 55 106
REMARK SMILES IDX 56 107 57 108 58 109
REMARK H PARENT 19 5 103 20 92 30 23 43 82 62 50 73
REMARK Flexibility Score: inf
ROOT
ATOM      1  C   UNL     1       0.073  -6.724   3.609  1.00  0.00     0.118 C 
ENDROOT
BRANCH   1   2
ATOM      2  N   UNL     1       0.907  -7.747   2.979  1.00  0.00    -0.352 N 
ATOM      3  C   UNL     1       2.260  -7.933   2.846  1.00  0.00     0.251 C 
ATOM      4  O   UNL     1       2.656  -9.015   3.299  1.00  0.00    -0.269 OA
ATOM      5  H   UNL     1       0.380  -8.462   2.556  1.00  0.00     0.163 HD
BRANCH   3   6
ATOM      6  C   UNL     1       3.204  -7.148   1.954  1.00  0.00     0.045 A 
ATOM      7  C   UNL     1       3.250  -5.777   1.604  1.00  0.00    -0.006 A 
ATOM      8  C   UNL     1       4.285  -5.344   0.716  1.00  0.00     0.007 A 
ATOM      9  C   UNL     1       5.261  -6.199   0.213  1.00  0.00     0.000 A 
ATOM     10  C   UNL     1       4.243  -7.980   1.444  1.00  0.00     0.014 A 
ATOM     11  C   UNL     1       5.255  -7.521   0.599  1.00  0.00     0.001 A 
BRANCH   7  12
ATOM     12  C   UNL     1       2.388  -4.687   2.240  1.00  0.00     0.180 C 
ATOM     13  C   UNL     1       1.325  -2.555  -0.349  1.00  0.00     0.210 A 
ATOM     14  N   UNL     1       2.174  -1.683   0.281  1.00  0.00    -0.185 NA
ATOM     15  N   UNL     1       1.215  -3.763   0.221  1.00  0.00    -0.141 NA
ATOM     16  C   UNL     1       2.564  -2.357   1.327  1.00  0.00     0.227 A 
ATOM     17  N   UNL     1       2.059  -3.626   1.266  1.00  0.00    -0.218 N 
ATOM     18  N   UNL     1       3.320  -1.992   2.375  1.00  0.00    -0.328 N 
ATOM     19  C   UNL     1       3.529  -2.806   3.482  1.00  0.00     0.026 C 
ATOM     20  H   UNL     1       3.746  -1.105   2.359  1.00  0.00     0.169 HD
ATOM     21  C   UNL     1       3.031  -4.067   3.493  1.00  0.00     0.065 C 
ATOM     22  C   UNL     1       4.319  -2.176   4.598  1.00  0.00     0.065 C 
BRANCH  13  23
ATOM     23  S   UNL     1       0.392  -2.119  -1.754  1.00  0.00    -0.084 SA
BRANCH  23  24
ATOM     24  C   UNL     1       1.043  -0.463  -2.137  1.00  0.00     0.078 C 
BRANCH  24  25
ATOM     25  C   UNL     1       0.302   0.690  -1.453  1.00  0.00     0.008 C 
ATOM     26  C   UNL     1       0.564   0.837   0.038  1.00  0.00     0.005 C 
ENDBRANCH  24  25
ENDBRANCH  23  24
ENDBRANCH  13  23
BRANCH  21  27
ATOM     27  C   UNL     1       3.136  -4.984   4.646  1.00  0.00     0.255 C 
ATOM     28  O   UNL     1       3.853  -5.979   4.549  1.00  0.00    -0.269 OA
ATOM     29  N   UNL     1       2.429  -4.829   5.804  1.00  0.00    -0.322 N 
ATOM     30  H   UNL     1       2.084  -5.661   6.202  1.00  0.00     0.170 HD
BRANCH  29  31
ATOM     31  C   UNL     1       2.120  -3.650   6.511  1.00  0.00     0.044 A 
ATOM     32  C   UNL     1       2.725  -3.590   7.779  1.00  0.00     0.026 A 
ATOM     33  C   UNL     1       1.321  -2.581   6.067  1.00  0.00    -0.025 A 
ATOM     34  C   UNL     1       2.656  -2.442   8.555  1.00  0.00     0.002 A 
ATOM     35  C   UNL     1       1.253  -1.408   6.866  1.00  0.00    -0.046 A 
ATOM     36  C   UNL     1       0.460  -2.667   4.840  1.00  0.00     0.047 C 
ATOM     37  C   UNL     1       1.947  -1.347   8.087  1.00  0.00     0.004 A 
ATOM     38  C   UNL     1       0.495  -0.172   6.453  1.00  0.00     0.044 C 
ENDBRANCH  29  31
ENDBRANCH  21  27
ENDBRANCH   7  12
ENDBRANCH   3   6
ENDBRANCH   1   2
BRANCH   1  39
ATOM     39  C   UNL     1      -1.008  -6.231   2.644  1.00  0.00     0.042 C 
BRANCH  39  40
ATOM     40  C   UNL     1      -2.310  -5.803   3.317  1.00  0.00     0.118 C 
BRANCH  40  41
ATOM     41  N   UNL     1      -2.229  -4.538   4.041  1.00  0.00    -0.352 N 
ATOM     42  C   UNL     1      -2.954  -4.170   5.169  1.00  0.00     0.251 C 
ATOM     43  H   UNL     1      -1.592  -3.873   3.693  1.00  0.00     0.163 HD
ATOM     44  O   UNL     1      -3.137  -3.005   5.456  1.00  0.00    -0.269 OA
BRANCH  42  45
ATOM     45  C   UNL     1      -3.500  -5.261   5.997  1.00  0.00     0.039 A 
ATOM     46  C   UNL     1      -4.878  -5.397   6.163  1.00  0.00     0.014 A 
ATOM     47  C   UNL     1      -2.614  -6.255   6.404  1.00  0.00     0.014 A 
ATOM     48  C   UNL     1      -5.375  -6.624   6.599  1.00  0.00     0.010 A 
ATOM     49  C   UNL     1      -3.117  -7.496   6.743  1.00  0.00     0.010 A 
ATOM     50  C   UNL     1      -4.498  -7.705   6.812  1.00  0.00    -0.014 A 
BRANCH  50  51
ATOM     51  C   UNL     1      -5.047  -9.071   6.861  1.00  0.00     0.031 A 
ATOM     52  C   UNL     1      -6.078  -9.398   5.824  1.00  0.00     0.074 A 
ATOM     53  C   UNL     1      -4.534 -10.107   7.557  1.00  0.00     0.049 A 
ATOM     54  N   UNL     1      -7.321  -9.705   6.005  1.00  0.00    -0.248 NA
ATOM     55  C   UNL     1      -5.701  -9.293   4.406  1.00  0.00     0.031 C 
ATOM     56  C   UNL     1      -3.329 -10.149   8.387  1.00  0.00     0.029 A 
ATOM     57  N   UNL     1      -4.947 -11.409   7.556  1.00  0.00    -0.354 N 
ATOM     58  C   UNL     1      -7.840 -10.032   4.753  1.00  0.00     0.074 A 
ATOM     59  C   UNL     1      -6.846  -9.611   3.799  1.00  0.00     0.031 C 
ATOM     60  C   UNL     1      -2.975 -11.434   8.605  1.00  0.00     0.029 A 
ATOM     61  C   UNL     1      -4.029 -12.294   8.102  1.00  0.00     0.049 A 
ATOM     62  H   UNL     1      -5.820 -11.694   7.200  1.00  0.00     0.167 HD
ATOM     63  C   UNL     1      -8.970 -10.786   4.615  1.00  0.00     0.034 A 
ATOM     64  C   UNL     1      -4.116 -13.645   8.155  1.00  0.00     0.034 A 
ATOM     65  C   UNL     1      -9.711 -10.848   5.855  1.00  0.00     0.049 A 
ATOM     66  C   UNL     1      -5.553 -13.993   8.075  1.00  0.00     0.074 A 
ATOM     67  C   UNL     1     -10.248  -9.905   6.711  1.00  0.00     0.029 A 
ATOM     68  N   UNL     1      -9.663 -12.009   6.592  1.00  0.00    -0.354 N 
ATOM     69  N   UNL     1      -6.424 -13.652   8.984  1.00  0.00    -0.248 NA
ATOM     70  C   UNL     1      -6.118 -14.359   6.787  1.00  0.00     0.031 C 
ATOM     71  C   UNL     1      -9.963 -10.399   8.020  1.00  0.00     0.029 A 
ATOM     72  C   UNL     1      -9.344 -11.643   7.878  1.00  0.00     0.049 A 
ATOM     73  H   UNL     1      -9.825 -12.923   6.263  1.00  0.00     0.167 HD
ATOM     74  C   UNL     1      -7.571 -13.332   8.280  1.00  0.00     0.074 A 
ATOM     75  C   UNL     1      -7.367 -13.913   6.955  1.00  0.00     0.031 C 
ATOM     76  C   UNL     1      -8.452 -12.395   8.744  1.00  0.00     0.034 A 
BRANCH  63  77
ATOM     77  C   UNL     1      -9.275 -11.716   3.456  1.00  0.00     0.023 A 
ATOM     78  C   UNL     1     -10.517 -12.389   3.455  1.00  0.00     0.031 A 
ATOM     79  C   UNL     1      -8.334 -12.180   2.510  1.00  0.00     0.131 A 
ATOM     80  C   UNL     1     -10.747 -13.495   2.615  1.00  0.00     0.055 A 
ATOM     81  C   UNL     1      -8.594 -13.233   1.626  1.00  0.00     0.041 A 
ATOM     82  F   UNL     1      -7.083 -11.710   2.450  1.00  0.00    -0.206 F 
ATOM     83  C   UNL     1      -9.795 -13.918   1.693  1.00  0.00     0.022 A 
BRANCH  80  84
ATOM     84  S   UNL     1     -12.240 -14.492   2.880  1.00  0.00     0.124 S 
ATOM     85  O   UNL     1     -12.168 -14.758   4.312  1.00  0.00    -0.237 OA
ATOM     86  O   UNL     1     -13.291 -13.578   2.446  1.00  0.00    -0.237 OA
ATOM     87  O   UNL     1     -12.029 -15.654   2.019  1.00  0.00    -0.744 OA
ENDBRANCH  80  84
ENDBRANCH  63  77
BRANCH  64  88
ATOM     88  C   UNL     1      -3.010 -14.624   8.059  1.00  0.00     0.023 A 
ATOM     89  C   UNL     1      -3.131 -15.942   8.535  1.00  0.00     0.031 A 
ATOM     90  C   UNL     1      -1.876 -14.328   7.270  1.00  0.00     0.131 A 
ATOM     91  C   UNL     1      -2.146 -16.902   8.217  1.00  0.00     0.055 A 
ATOM     92  C   UNL     1      -0.899 -15.278   6.967  1.00  0.00     0.041 A 
ATOM     93  F   UNL     1      -1.726 -13.123   6.696  1.00  0.00    -0.206 F 
ATOM     94  C   UNL     1      -1.036 -16.576   7.433  1.00  0.00     0.022 A 
BRANCH  91  95
ATOM     95  S   UNL     1      -2.368 -18.635   8.724  1.00  0.00     0.124 S 
ATOM     96  O   UNL     1      -2.036 -18.585  10.143  1.00  0.00    -0.237 OA
ATOM     97  O   UNL     1      -3.767 -18.884   8.395  1.00  0.00    -0.237 OA
ATOM     98  O   UNL     1      -1.407 -19.357   7.890  1.00  0.00    -0.744 OA
ENDBRANCH  91  95
ENDBRANCH  64  88
BRANCH  76  99
ATOM     99  C   UNL     1      -8.327 -11.927  10.185  1.00  0.00     0.023 A 
ATOM    100  C   UNL     1      -7.149 -11.402  10.765  1.00  0.00     0.031 A 
ATOM    101  C   UNL     1      -9.494 -11.914  10.971  1.00  0.00     0.131 A 
ATOM    102  C   UNL     1      -7.165 -10.910  12.085  1.00  0.00     0.055 A 
ATOM    103  C   UNL     1      -9.512 -11.406  12.271  1.00  0.00     0.041 A 
ATOM    104  F   UNL     1     -10.656 -12.370  10.474  1.00  0.00    -0.206 F 
ATOM    105  C   UNL     1      -8.344 -10.910  12.836  1.00  0.00     0.022 A 
BRANCH 102 106
ATOM    106  S   UNL     1      -5.641 -10.283  12.866  1.00  0.00     0.124 S 
ATOM    107  O   UNL     1      -4.630 -11.264  12.492  1.00  0.00    -0.237 OA
ATOM    108  O   UNL     1      -5.501  -8.960  12.263  1.00  0.00    -0.237 OA
ATOM    109  O   UNL     1      -5.975 -10.267  14.292  1.00  0.00    -0.744 OA
ENDBRANCH 102 106
ENDBRANCH  76  99
ENDBRANCH  50  51
ENDBRANCH  42  45
ENDBRANCH  40  41
ENDBRANCH  39  40
ENDBRANCH   1  39
TORSDOF 19
