REMARK SMILES C[C@@H](c1cccc(F)c1)[C@@](C)(O)C(=O)NCCCNC(=O)c1ccc(-c2c3nc(c(-c4cc(S(=O)(=O)[O-])ccc4F)c4ccc([nH]4)c(-c4cc(S(=O)(=O)[O-])ccc4F)c4nc(c(-c5cc(S(=O)(=O)[O-])ccc5F)c5ccc2[nH]5)C=C4)C=C3)cc1
REMARK SMILES IDX 17 1 16 2 15 3 13 4 14 5 10 7 11 8 2 9 1 10 3 11 4 12 9 13
REMARK SMILES IDX 5 14 7 15 6 16 8 17 12 18 18 20 19 21 20 22 21 24 22 25
REMARK SMILES IDX 23 26 84 27 24 28 83 29 25 30 26 31 27 32 77 33 28 34 82 35
REMARK SMILES IDX 76 36 78 37 29 38 81 39 75 40 74 41 30 43 62 44 42 45 61 46
REMARK SMILES IDX 43 47 46 48 60 49 79 50 44 51 45 52 59 54 80 55 47 56 31 57
REMARK SMILES IDX 32 58 40 59 33 60 39 61 41 62 38 63 34 64 35 65 36 66 37 67
REMARK SMILES IDX 63 68 64 69 72 70 65 71 71 72 73 73 70 74 66 75 67 76 68 77
REMARK SMILES IDX 69 78 48 79 49 80 57 81 50 82 56 83 58 84 55 85 51 86 52 87
REMARK SMILES IDX 53 88 54 89
REMARK H PARENT 15 6 12 19 19 23 78 42 46 53
REMARK Flexibility Score: inf
ROOT
ATOM      1  C   UNL     1      -4.899   1.874  -1.443  1.00  0.00     0.042 C 
ENDROOT
BRANCH   1   2
ATOM      2  C   UNL     1      -4.099   1.008  -0.478  1.00  0.00     0.117 C 
BRANCH   2   3
ATOM      3  N   UNL     1      -3.059   0.235  -1.137  1.00  0.00    -0.354 N 
ATOM      4  C   UNL     1      -1.701   0.251  -0.996  1.00  0.00     0.252 C 
ATOM      5  O   UNL     1      -1.080  -0.596  -1.646  1.00  0.00    -0.272 OA
ATOM      6  H   UNL     1      -3.392  -0.412  -1.800  1.00  0.00     0.163 HD
BRANCH   4   7
ATOM      7  C   UNL     1      -1.003   1.204   0.022  1.00  0.00     0.146 C 
ATOM      8  C   UNL     1      -1.304   0.676   1.438  1.00  0.00     0.053 C 
BRANCH   7   9
ATOM      9  C   UNL     1       0.554   1.300  -0.205  1.00  0.00     0.057 C 
ATOM     10  C   UNL     1       1.329   0.030   0.199  1.00  0.00     0.016 C 
BRANCH   9  11
ATOM     11  C   UNL     1       0.960   1.831  -1.585  1.00  0.00    -0.039 A 
ATOM     12  C   UNL     1       0.891   3.212  -1.847  1.00  0.00     0.004 A 
ATOM     13  C   UNL     1       1.424   0.993  -2.611  1.00  0.00     0.043 A 
ATOM     14  C   UNL     1       1.274   3.737  -3.085  1.00  0.00     0.003 A 
ATOM     15  C   UNL     1       1.812   1.526  -3.839  1.00  0.00     0.123 A 
ATOM     16  C   UNL     1       1.742   2.890  -4.085  1.00  0.00     0.039 A 
ATOM     17  F   UNL     1       2.268   0.708  -4.797  1.00  0.00    -0.207 F 
ENDBRANCH   9  11
ENDBRANCH   7   9
BRANCH   7  18
ATOM     18  O   UNL     1      -1.547   2.532  -0.050  1.00  0.00    -0.380 OA
ATOM     19  H   UNL     1      -1.095   3.102   0.592  1.00  0.00     0.212 HD
ENDBRANCH   7  18
ENDBRANCH   4   7
ENDBRANCH   2   3
ENDBRANCH   1   2
BRANCH   1  20
ATOM     20  C   UNL     1      -5.594   1.107  -2.564  1.00  0.00     0.118 C 
BRANCH  20  21
ATOM     21  N   UNL     1      -6.532   0.100  -2.081  1.00  0.00    -0.352 N 
ATOM     22  C   UNL     1      -7.899   0.019  -2.197  1.00  0.00     0.251 C 
ATOM     23  H   UNL     1      -6.117  -0.646  -1.590  1.00  0.00     0.163 HD
ATOM     24  O   UNL     1      -8.506  -0.847  -1.571  1.00  0.00    -0.269 OA
BRANCH  22  25
ATOM     25  C   UNL     1      -8.642   0.987  -3.033  1.00  0.00     0.039 A 
ATOM     26  C   UNL     1      -9.800   1.575  -2.517  1.00  0.00     0.014 A 
ATOM     27  C   UNL     1      -8.196   1.328  -4.312  1.00  0.00     0.014 A 
ATOM     28  C   UNL     1     -10.443   2.586  -3.234  1.00  0.00     0.010 A 
ATOM     29  C   UNL     1      -8.794   2.386  -4.994  1.00  0.00     0.010 A 
ATOM     30  C   UNL     1      -9.905   3.045  -4.448  1.00  0.00    -0.014 A 
BRANCH  30  31
ATOM     31  C   UNL     1     -10.438   4.257  -5.122  1.00  0.00     0.031 A 
ATOM     32  C   UNL     1     -11.045   4.171  -6.492  1.00  0.00     0.074 A 
ATOM     33  C   UNL     1     -10.293   5.456  -4.525  1.00  0.00     0.049 A 
ATOM     34  N   UNL     1     -11.447   5.136  -7.279  1.00  0.00    -0.248 NA
ATOM     35  C   UNL     1     -11.198   2.824  -7.059  1.00  0.00     0.031 C 
ATOM     36  C   UNL     1      -9.698   5.676  -3.204  1.00  0.00     0.029 A 
ATOM     37  N   UNL     1     -10.630   6.716  -4.950  1.00  0.00    -0.354 N 
ATOM     38  C   UNL     1     -11.898   4.516  -8.439  1.00  0.00     0.074 A 
ATOM     39  C   UNL     1     -11.668   3.095  -8.268  1.00  0.00     0.031 C 
ATOM     40  C   UNL     1      -9.747   6.984  -2.912  1.00  0.00     0.029 A 
ATOM     41  C   UNL     1     -10.325   7.703  -4.043  1.00  0.00     0.049 A 
ATOM     42  H   UNL     1     -11.051   6.896  -5.821  1.00  0.00     0.167 HD
ATOM     43  C   UNL     1     -12.465   5.078  -9.536  1.00  0.00     0.034 A 
ATOM     44  C   UNL     1     -10.479   9.039  -4.113  1.00  0.00     0.034 A 
ATOM     45  C   UNL     1     -12.681   6.496  -9.697  1.00  0.00     0.049 A 
ATOM     46  C   UNL     1     -11.069   9.648  -5.352  1.00  0.00     0.074 A 
ATOM     47  C   UNL     1     -13.252   7.166 -10.766  1.00  0.00     0.029 A 
ATOM     48  N   UNL     1     -12.335   7.467  -8.764  1.00  0.00    -0.354 N 
ATOM     49  N   UNL     1     -11.462   9.053  -6.454  1.00  0.00    -0.248 NA
ATOM     50  C   UNL     1     -11.237  11.106  -5.356  1.00  0.00     0.031 C 
ATOM     51  C   UNL     1     -13.203   8.540 -10.504  1.00  0.00     0.029 A 
ATOM     52  C   UNL     1     -12.667   8.727  -9.240  1.00  0.00     0.049 A 
ATOM     53  H   UNL     1     -11.916   7.286  -7.892  1.00  0.00     0.167 HD
ATOM     54  C   UNL     1     -11.949  10.064  -7.275  1.00  0.00     0.074 A 
ATOM     55  C   UNL     1     -11.795  11.306  -6.543  1.00  0.00     0.031 C 
ATOM     56  C   UNL     1     -12.489   9.964  -8.516  1.00  0.00     0.034 A 
BRANCH  43  57
ATOM     57  C   UNL     1     -12.863   4.147 -10.655  1.00  0.00     0.023 A 
ATOM     58  C   UNL     1     -13.866   3.178 -10.481  1.00  0.00     0.031 A 
ATOM     59  C   UNL     1     -12.213   4.207 -11.900  1.00  0.00     0.131 A 
ATOM     60  C   UNL     1     -14.141   2.262 -11.507  1.00  0.00     0.055 A 
ATOM     61  C   UNL     1     -12.545   3.342 -12.945  1.00  0.00     0.041 A 
ATOM     62  F   UNL     1     -11.234   5.099 -12.118  1.00  0.00    -0.206 F 
ATOM     63  C   UNL     1     -13.505   2.353 -12.747  1.00  0.00     0.022 A 
BRANCH  60  64
ATOM     64  S   UNL     1     -15.251   0.872 -11.154  1.00  0.00     0.124 S 
ATOM     65  O   UNL     1     -14.527   0.183 -10.088  1.00  0.00    -0.237 OA
ATOM     66  O   UNL     1     -16.484   1.543 -10.760  1.00  0.00    -0.237 OA
ATOM     67  O   UNL     1     -15.311   0.151 -12.424  1.00  0.00    -0.744 OA
ENDBRANCH  60  64
ENDBRANCH  43  57
BRANCH  44  68
ATOM     68  C   UNL     1     -10.076   9.878  -2.956  1.00  0.00     0.023 A 
ATOM     69  C   UNL     1     -11.043  10.425  -2.100  1.00  0.00     0.031 A 
ATOM     70  C   UNL     1      -8.720  10.093  -2.656  1.00  0.00     0.131 A 
ATOM     71  C   UNL     1     -10.640  11.169  -0.981  1.00  0.00     0.055 A 
ATOM     72  C   UNL     1      -8.323  10.811  -1.527  1.00  0.00     0.041 A 
ATOM     73  F   UNL     1      -7.762   9.569  -3.437  1.00  0.00    -0.206 F 
ATOM     74  C   UNL     1      -9.287  11.354  -0.682  1.00  0.00     0.022 A 
BRANCH  71  75
ATOM     75  S   UNL     1     -11.911  11.876   0.102  1.00  0.00     0.124 S 
ATOM     76  O   UNL     1     -12.482  12.913  -0.750  1.00  0.00    -0.237 OA
ATOM     77  O   UNL     1     -12.764  10.723   0.371  1.00  0.00    -0.237 OA
ATOM     78  O   UNL     1     -11.147  12.359   1.250  1.00  0.00    -0.744 OA
ENDBRANCH  71  75
ENDBRANCH  44  68
BRANCH  56  79
ATOM     79  C   UNL     1     -13.000  11.234  -9.146  1.00  0.00     0.023 A 
ATOM     80  C   UNL     1     -12.131  12.239  -9.604  1.00  0.00     0.031 A 
ATOM     81  C   UNL     1     -14.384  11.431  -9.301  1.00  0.00     0.131 A 
ATOM     82  C   UNL     1     -12.658  13.415 -10.161  1.00  0.00     0.055 A 
ATOM     83  C   UNL     1     -14.900  12.581  -9.899  1.00  0.00     0.041 A 
ATOM     84  F   UNL     1     -15.256  10.502  -8.879  1.00  0.00    -0.206 F 
ATOM     85  C   UNL     1     -14.036  13.584 -10.326  1.00  0.00     0.022 A 
BRANCH  82  86
ATOM     86  S   UNL     1     -11.520  14.751 -10.621  1.00  0.00     0.124 S 
ATOM     87  O   UNL     1     -10.934  15.105  -9.332  1.00  0.00    -0.237 OA
ATOM     88  O   UNL     1     -10.627  14.093 -11.568  1.00  0.00    -0.237 OA
ATOM     89  O   UNL     1     -12.399  15.766 -11.201  1.00  0.00    -0.744 OA
ENDBRANCH  82  86
ENDBRANCH  56  79
ENDBRANCH  30  31
ENDBRANCH  22  25
ENDBRANCH  20  21
ENDBRANCH   1  20
TORSDOF 16
