REMARK SMILES Cc1cccc(OCC(=O)Nc2cc(C(=O)NCCCNC(=O)c3ccc(-c4c5nc(c(-c6cc(S(=O)(=O)[O-])ccc6F)c6ccc([nH]6)c(-c6cc(S(=O)(=O)[O-])ccc6F)c6nc(c(-c7cc(S(=O)(=O)[O-])ccc7F)c7ccc4[nH]7)C=C6)C=C5)cc3)c(Cl)cc2Cl)c1
REMARK SMILES IDX 18 1 17 2 15 3 16 4 14 6 12 7 13 8 90 9 89 10 91 11 87 12
REMARK SMILES IDX 88 13 11 14 9 15 10 16 8 18 7 19 6 20 1 21 2 22 3 23 92 24
REMARK SMILES IDX 4 25 5 26 19 27 20 28 21 29 22 30 23 32 24 33 25 34 86 35
REMARK SMILES IDX 26 36 85 37 27 38 28 39 29 40 79 41 30 42 84 43 78 44 80 45
REMARK SMILES IDX 31 46 83 47 77 48 76 49 32 51 64 52 44 53 63 54 45 55 48 56
REMARK SMILES IDX 62 57 81 58 46 59 47 60 61 62 82 63 49 64 33 65 34 66 42 67
REMARK SMILES IDX 35 68 41 69 43 70 40 71 36 72 37 73 38 74 39 75 65 76 66 77
REMARK SMILES IDX 74 78 67 79 73 80 75 81 72 82 68 83 69 84 70 85 71 86 50 87
REMARK SMILES IDX 51 88 59 89 52 90 58 91 60 92 57 93 53 94 54 95 55 96 56 97
REMARK H PARENT 17 5 11 17 21 31 80 50 48 61
REMARK Flexibility Score: inf
ROOT
ATOM      1  C   UNL     1      -3.604   0.718   0.364  1.00  0.00     0.118 C 
ENDROOT
BRANCH   1   2
ATOM      2  N   UNL     1      -4.968   1.169   0.563  1.00  0.00    -0.352 N 
ATOM      3  C   UNL     1      -5.470   2.244   1.252  1.00  0.00     0.252 C 
ATOM      4  O   UNL     1      -6.676   2.486   1.149  1.00  0.00    -0.269 OA
ATOM      5  H   UNL     1      -5.651   0.607   0.130  1.00  0.00     0.163 HD
BRANCH   3   6
ATOM      6  C   UNL     1      -4.623   3.102   2.135  1.00  0.00     0.060 A 
ATOM      7  C   UNL     1      -2.459   4.128   2.655  1.00  0.00     0.061 A 
ATOM      8  C   UNL     1      -3.304   3.468   1.760  1.00  0.00     0.043 A 
ATOM      9  C   UNL     1      -3.006   4.571   3.878  1.00  0.00     0.066 A 
ATOM     10  C   UNL     1      -4.335   4.329   4.211  1.00  0.00     0.044 A 
ATOM     11  Cl  UNL     1      -2.043   5.444   5.028  1.00  0.00    -0.082 Cl
ATOM     12  C   UNL     1      -5.137   3.568   3.361  1.00  0.00     0.055 A 
ATOM     13  Cl  UNL     1      -6.726   3.227   3.960  1.00  0.00    -0.083 Cl
BRANCH   7  14
ATOM     14  N   UNL     1      -1.070   4.314   2.490  1.00  0.00    -0.322 N 
ATOM     15  C   UNL     1      -0.141   4.152   1.512  1.00  0.00     0.262 C 
ATOM     16  O   UNL     1       1.039   4.314   1.857  1.00  0.00    -0.271 OA
ATOM     17  H   UNL     1      -0.659   4.658   3.315  1.00  0.00     0.170 HD
BRANCH  15  18
ATOM     18  C   UNL     1      -0.475   3.900   0.047  1.00  0.00     0.329 C 
BRANCH  18  19
ATOM     19  O   UNL     1      -0.794   2.591  -0.347  1.00  0.00    -0.484 OA
BRANCH  19  20
ATOM     20  C   UNL     1       0.132   1.596  -0.288  1.00  0.00     0.120 A 
ATOM     21  C   UNL     1       3.678   0.436   0.474  1.00  0.00     0.044 C 
ATOM     22  C   UNL     1       2.212   0.442   0.178  1.00  0.00    -0.047 A 
ATOM     23  C   UNL     1       1.601  -0.793  -0.053  1.00  0.00     0.003 A 
ATOM     24  C   UNL     1       1.466   1.639   0.088  1.00  0.00     0.049 A 
ATOM     25  C   UNL     1       0.295  -0.825  -0.483  1.00  0.00     0.004 A 
ATOM     26  C   UNL     1      -0.394   0.368  -0.655  1.00  0.00     0.046 A 
ENDBRANCH  19  20
ENDBRANCH  18  19
ENDBRANCH  15  18
ENDBRANCH   7  14
ENDBRANCH   3   6
ENDBRANCH   1   2
BRANCH   1  27
ATOM     27  C   UNL     1      -3.427  -0.789   0.442  1.00  0.00     0.042 C 
BRANCH  27  28
ATOM     28  C   UNL     1      -3.726  -1.545  -0.855  1.00  0.00     0.118 C 
BRANCH  28  29
ATOM     29  N   UNL     1      -2.816  -1.246  -1.979  1.00  0.00    -0.352 N 
ATOM     30  C   UNL     1      -1.823  -1.917  -2.683  1.00  0.00     0.251 C 
ATOM     31  H   UNL     1      -2.947  -0.332  -2.319  1.00  0.00     0.163 HD
ATOM     32  O   UNL     1      -1.099  -1.316  -3.476  1.00  0.00    -0.269 OA
BRANCH  30  33
ATOM     33  C   UNL     1      -1.650  -3.396  -2.643  1.00  0.00     0.039 A 
ATOM     34  C   UNL     1      -1.970  -3.938  -3.901  1.00  0.00     0.014 A 
ATOM     35  C   UNL     1      -2.058  -4.035  -1.493  1.00  0.00     0.014 A 
ATOM     36  C   UNL     1      -3.184  -4.580  -4.019  1.00  0.00     0.010 A 
ATOM     37  C   UNL     1      -3.288  -4.629  -1.595  1.00  0.00     0.010 A 
ATOM     38  C   UNL     1      -3.905  -4.741  -2.854  1.00  0.00    -0.014 A 
BRANCH  38  39
ATOM     39  C   UNL     1      -5.325  -4.991  -2.791  1.00  0.00     0.031 A 
ATOM     40  C   UNL     1      -5.700  -6.321  -2.306  1.00  0.00     0.074 A 
ATOM     41  C   UNL     1      -6.205  -3.971  -2.938  1.00  0.00     0.049 A 
ATOM     42  N   UNL     1      -6.886  -6.791  -2.338  1.00  0.00    -0.248 NA
ATOM     43  C   UNL     1      -4.726  -7.269  -1.764  1.00  0.00     0.031 C 
ATOM     44  C   UNL     1      -7.604  -3.927  -2.517  1.00  0.00     0.029 A 
ATOM     45  N   UNL     1      -6.054  -2.821  -3.716  1.00  0.00    -0.354 N 
ATOM     46  C   UNL     1      -6.904  -7.918  -1.553  1.00  0.00     0.074 A 
ATOM     47  C   UNL     1      -5.526  -8.223  -1.291  1.00  0.00     0.031 C 
ATOM     48  C   UNL     1      -8.254  -2.996  -3.237  1.00  0.00     0.029 A 
ATOM     49  C   UNL     1      -7.329  -2.515  -4.245  1.00  0.00     0.049 A 
ATOM     50  H   UNL     1      -5.220  -2.319  -3.867  1.00  0.00     0.167 HD
ATOM     51  C   UNL     1      -8.117  -8.351  -1.125  1.00  0.00     0.034 A 
ATOM     52  C   UNL     1      -7.545  -2.582  -5.594  1.00  0.00     0.034 A 
ATOM     53  C   UNL     1      -9.175  -7.606  -1.813  1.00  0.00     0.049 A 
ATOM     54  C   UNL     1      -8.503  -3.696  -5.970  1.00  0.00     0.074 A 
ATOM     55  C   UNL     1      -9.984  -6.541  -1.457  1.00  0.00     0.029 A 
ATOM     56  N   UNL     1      -9.245  -7.709  -3.196  1.00  0.00    -0.354 N 
ATOM     57  N   UNL     1      -8.796  -4.702  -5.188  1.00  0.00    -0.248 NA
ATOM     58  C   UNL     1      -9.243  -3.746  -7.226  1.00  0.00     0.031 C 
ATOM     59  C   UNL     1     -10.485  -5.960  -2.658  1.00  0.00     0.029 A 
ATOM     60  C   UNL     1     -10.010  -6.696  -3.731  1.00  0.00     0.049 A 
ATOM     61  H   UNL     1      -8.806  -8.413  -3.725  1.00  0.00     0.167 HD
ATOM     62  C   UNL     1      -9.732  -5.509  -5.785  1.00  0.00     0.074 A 
ATOM     63  C   UNL     1      -9.980  -4.861  -7.062  1.00  0.00     0.031 C 
ATOM     64  C   UNL     1     -10.220  -6.635  -5.171  1.00  0.00     0.034 A 
BRANCH  51  65
ATOM     65  C   UNL     1      -8.376  -9.261   0.045  1.00  0.00     0.023 A 
ATOM     66  C   UNL     1      -9.690  -9.295   0.551  1.00  0.00     0.031 A 
ATOM     67  C   UNL     1      -7.442 -10.045   0.751  1.00  0.00     0.131 A 
ATOM     68  C   UNL     1     -10.019 -10.022   1.705  1.00  0.00     0.055 A 
ATOM     69  C   UNL     1      -7.767 -10.768   1.906  1.00  0.00     0.041 A 
ATOM     70  F   UNL     1      -6.170 -10.179   0.368  1.00  0.00    -0.206 F 
ATOM     71  C   UNL     1      -9.062 -10.757   2.393  1.00  0.00     0.022 A 
BRANCH  68  72
ATOM     72  S   UNL     1     -11.729  -9.974   2.291  1.00  0.00     0.124 S 
ATOM     73  O   UNL     1     -11.897  -8.563   2.623  1.00  0.00    -0.237 OA
ATOM     74  O   UNL     1     -12.467 -10.459   1.131  1.00  0.00    -0.237 OA
ATOM     75  O   UNL     1     -11.716 -10.882   3.437  1.00  0.00    -0.744 OA
ENDBRANCH  68  72
ENDBRANCH  51  65
BRANCH  52  76
ATOM     76  C   UNL     1      -6.351  -2.097  -6.357  1.00  0.00     0.023 A 
ATOM     77  C   UNL     1      -5.975  -0.756  -6.107  1.00  0.00     0.031 A 
ATOM     78  C   UNL     1      -5.356  -2.983  -6.792  1.00  0.00     0.131 A 
ATOM     79  C   UNL     1      -4.616  -0.412  -6.037  1.00  0.00     0.055 A 
ATOM     80  C   UNL     1      -4.006  -2.598  -6.820  1.00  0.00     0.041 A 
ATOM     81  F   UNL     1      -5.645  -4.272  -7.029  1.00  0.00    -0.206 F 
ATOM     82  C   UNL     1      -3.624  -1.328  -6.381  1.00  0.00     0.022 A 
BRANCH  79  83
ATOM     83  S   UNL     1      -4.182   1.152  -5.219  1.00  0.00     0.124 S 
ATOM     84  O   UNL     1      -4.949   2.128  -5.986  1.00  0.00    -0.237 OA
ATOM     85  O   UNL     1      -4.638   0.907  -3.849  1.00  0.00    -0.237 OA
ATOM     86  O   UNL     1      -2.735   1.247  -5.373  1.00  0.00    -0.744 OA
ENDBRANCH  79  83
ENDBRANCH  52  76
BRANCH  64  87
ATOM     87  C   UNL     1     -10.988  -7.771  -5.831  1.00  0.00     0.023 A 
ATOM     88  C   UNL     1     -11.197  -7.860  -7.210  1.00  0.00     0.031 A 
ATOM     89  C   UNL     1     -11.476  -8.878  -5.080  1.00  0.00     0.131 A 
ATOM     90  C   UNL     1     -11.913  -8.931  -7.776  1.00  0.00     0.055 A 
ATOM     91  C   UNL     1     -12.095  -9.991  -5.655  1.00  0.00     0.041 A 
ATOM     92  F   UNL     1     -11.369  -8.945  -3.746  1.00  0.00    -0.206 F 
ATOM     93  C   UNL     1     -12.337 -10.014  -7.015  1.00  0.00     0.022 A 
BRANCH  90  94
ATOM     94  S   UNL     1     -12.358  -8.816  -9.526  1.00  0.00     0.124 S 
ATOM     95  O   UNL     1     -13.159  -7.595  -9.551  1.00  0.00    -0.237 OA
ATOM     96  O   UNL     1     -11.054  -8.730 -10.175  1.00  0.00    -0.237 OA
ATOM     97  O   UNL     1     -13.099 -10.050  -9.775  1.00  0.00    -0.744 OA
ENDBRANCH  90  94
ENDBRANCH  64  87
ENDBRANCH  38  39
ENDBRANCH  30  33
ENDBRANCH  28  29
ENDBRANCH  27  28
ENDBRANCH   1  27
TORSDOF 17
