REMARK SMILES Cc1ccc([C@@H]2[C@H](C(=O)NCCCNC(=O)c3ccc(-c4c5nc(c(-c6cc(S(=O)(=O)[O-])ccc6F)c6ccc([nH]6)c(-c6cc(S(=O)(=O)[O-])ccc6F)c6nc(c(-c7cc(S(=O)(=O)[O-])ccc7F)c7ccc4[nH]7)C=C6)C=C5)cc3)c3ccccc3C(=O)N2c2ccccc2)cc1
REMARK SMILES IDX 13 1 12 2 11 3 10 4 8 5 9 6 7 8 6 9 88 10 80 11 86 12 81 13
REMARK SMILES IDX 85 14 87 15 82 16 84 17 83 18 5 19 1 20 2 21 3 22 96 23 4 24
REMARK SMILES IDX 95 25 89 26 90 27 94 28 91 29 93 30 92 31 14 32 15 33 16 35
REMARK SMILES IDX 17 36 18 37 79 38 19 39 78 40 20 41 21 42 22 43 72 44 23 45
REMARK SMILES IDX 77 46 71 47 73 48 24 49 76 50 70 51 69 52 25 54 57 55 37 56
REMARK SMILES IDX 56 57 38 58 41 59 55 60 74 61 39 62 40 63 54 65 75 66 42 67
REMARK SMILES IDX 26 68 27 69 35 70 28 71 34 72 36 73 33 74 29 75 30 76 31 77
REMARK SMILES IDX 32 78 58 79 59 80 67 81 60 82 66 83 68 84 65 85 61 86 62 87
REMARK SMILES IDX 63 88 64 89 43 90 44 91 52 92 45 93 51 94 53 95 50 96 46 97
REMARK SMILES IDX 47 98 48 99 49 100
REMARK H PARENT 10 7 14 34 73 53 41 64
REMARK Flexibility Score: inf
ROOT
ATOM      1  C   UNL     1      -4.096  -4.788   6.720  1.00  0.00     0.118 C 
ENDROOT
BRANCH   1   2
ATOM      2  C   UNL     1      -4.018  -3.319   6.314  1.00  0.00     0.042 C 
BRANCH   2   3
ATOM      3  C   UNL     1      -2.633  -2.874   5.873  1.00  0.00     0.117 C 
BRANCH   3   4
ATOM      4  N   UNL     1      -2.483  -2.896   4.425  1.00  0.00    -0.355 N 
ATOM      5  C   UNL     1      -1.994  -1.818   3.741  1.00  0.00     0.230 C 
ATOM      6  O   UNL     1      -0.803  -1.832   3.416  1.00  0.00    -0.274 OA
ATOM      7  H   UNL     1      -2.740  -3.705   3.927  1.00  0.00     0.163 HD
BRANCH   5   8
ATOM      8  C   UNL     1      -2.888  -0.643   3.323  1.00  0.00     0.137 C 
ATOM      9  C   UNL     1      -2.892  -0.519   1.755  1.00  0.00     0.138 C 
ATOM     10  N   UNL     1      -3.910  -1.425   1.188  1.00  0.00    -0.300 N 
ATOM     11  C   UNL     1      -4.339  -0.574   3.816  1.00  0.00    -0.020 A 
ATOM     12  C   UNL     1      -5.197  -0.937   1.454  1.00  0.00     0.259 C 
ATOM     13  C   UNL     1      -4.628  -0.311   5.162  1.00  0.00     0.005 A 
ATOM     14  C   UNL     1      -5.426  -0.673   2.913  1.00  0.00     0.044 A 
ATOM     15  O   UNL     1      -6.092  -0.805   0.627  1.00  0.00    -0.269 OA
ATOM     16  C   UNL     1      -5.952  -0.254   5.611  1.00  0.00     0.000 A 
ATOM     17  C   UNL     1      -6.749  -0.577   3.362  1.00  0.00     0.014 A 
ATOM     18  C   UNL     1      -7.010  -0.391   4.716  1.00  0.00     0.001 A 
BRANCH   9  19
ATOM     19  C   UNL     1      -1.577  -0.233   1.030  1.00  0.00    -0.024 A 
ATOM     20  C   UNL     1       2.453   0.378  -0.419  1.00  0.00     0.044 C 
ATOM     21  C   UNL     1       1.014   0.257  -0.019  1.00  0.00    -0.051 A 
ATOM     22  C   UNL     1       0.182  -0.716  -0.583  1.00  0.00     0.004 A 
ATOM     23  C   UNL     1       0.508   1.057   1.004  1.00  0.00     0.004 A 
ATOM     24  C   UNL     1      -1.116  -0.924  -0.094  1.00  0.00     0.006 A 
ATOM     25  C   UNL     1      -0.767   0.816   1.516  1.00  0.00     0.006 A 
ENDBRANCH   9  19
BRANCH  10  26
ATOM     26  C   UNL     1      -3.785  -2.872   1.158  1.00  0.00     0.045 A 
ATOM     27  C   UNL     1      -4.949  -3.673   1.161  1.00  0.00     0.026 A 
ATOM     28  C   UNL     1      -2.564  -3.547   1.238  1.00  0.00     0.026 A 
ATOM     29  C   UNL     1      -4.896  -5.061   1.329  1.00  0.00     0.002 A 
ATOM     30  C   UNL     1      -2.505  -4.941   1.379  1.00  0.00     0.002 A 
ATOM     31  C   UNL     1      -3.669  -5.696   1.446  1.00  0.00     0.000 A 
ENDBRANCH  10  26
ENDBRANCH   5   8
ENDBRANCH   3   4
ENDBRANCH   2   3
ENDBRANCH   1   2
BRANCH   1  32
ATOM     32  N   UNL     1      -4.114  -4.962   8.175  1.00  0.00    -0.352 N 
ATOM     33  C   UNL     1      -4.497  -6.055   8.931  1.00  0.00     0.251 C 
ATOM     34  H   UNL     1      -3.807  -4.183   8.693  1.00  0.00     0.163 HD
ATOM     35  O   UNL     1      -4.426  -6.045  10.150  1.00  0.00    -0.269 OA
BRANCH  33  36
ATOM     36  C   UNL     1      -4.885  -7.298   8.228  1.00  0.00     0.039 A 
ATOM     37  C   UNL     1      -4.139  -8.450   8.496  1.00  0.00     0.014 A 
ATOM     38  C   UNL     1      -5.799  -7.269   7.180  1.00  0.00     0.014 A 
ATOM     39  C   UNL     1      -4.132  -9.485   7.565  1.00  0.00     0.010 A 
ATOM     40  C   UNL     1      -5.731  -8.256   6.213  1.00  0.00     0.010 A 
ATOM     41  C   UNL     1      -4.846  -9.327   6.374  1.00  0.00    -0.014 A 
BRANCH  41  42
ATOM     42  C   UNL     1      -4.579 -10.145   5.196  1.00  0.00     0.031 A 
ATOM     43  C   UNL     1      -5.478 -11.246   4.806  1.00  0.00     0.074 A 
ATOM     44  C   UNL     1      -3.455  -9.948   4.473  1.00  0.00     0.049 A 
ATOM     45  N   UNL     1      -5.064 -12.366   4.312  1.00  0.00    -0.248 NA
ATOM     46  C   UNL     1      -6.925 -11.178   4.971  1.00  0.00     0.031 C 
ATOM     47  C   UNL     1      -3.100 -10.572   3.201  1.00  0.00     0.029 A 
ATOM     48  N   UNL     1      -2.290  -9.318   4.875  1.00  0.00    -0.354 N 
ATOM     49  C   UNL     1      -6.167 -13.031   3.836  1.00  0.00     0.074 A 
ATOM     50  C   UNL     1      -7.306 -12.296   4.343  1.00  0.00     0.031 C 
ATOM     51  C   UNL     1      -1.768 -10.512   3.046  1.00  0.00     0.029 A 
ATOM     52  C   UNL     1      -1.207  -9.956   4.264  1.00  0.00     0.049 A 
ATOM     53  H   UNL     1      -2.233  -8.550   5.488  1.00  0.00     0.167 HD
ATOM     54  C   UNL     1      -6.030 -14.038   2.930  1.00  0.00     0.034 A 
ATOM     55  C   UNL     1      -0.198 -10.510   4.998  1.00  0.00     0.034 A 
ATOM     56  C   UNL     1      -4.644 -14.249   2.531  1.00  0.00     0.049 A 
ATOM     57  C   UNL     1      -0.034 -11.996   4.773  1.00  0.00     0.074 A 
ATOM     58  C   UNL     1      -3.923 -13.840   1.420  1.00  0.00     0.029 A 
ATOM     59  N   UNL     1      -3.716 -14.734   3.445  1.00  0.00    -0.354 N 
ATOM     60  N   UNL     1      -0.930 -12.756   4.208  1.00  0.00    -0.248 NA
ATOM     61  C   UNL     1       1.145 -12.746   5.193  1.00  0.00     0.031 C 
ATOM     62  C   UNL     1      -2.548 -14.052   1.684  1.00  0.00     0.029 A 
ATOM     63  C   UNL     1      -2.433 -14.613   2.944  1.00  0.00     0.049 A 
ATOM     64  H   UNL     1      -3.941 -15.111   4.326  1.00  0.00     0.167 HD
ATOM     65  C   UNL     1      -0.498 -14.060   4.204  1.00  0.00     0.074 A 
ATOM     66  C   UNL     1       0.821 -13.993   4.809  1.00  0.00     0.031 C 
ATOM     67  C   UNL     1      -1.279 -15.070   3.709  1.00  0.00     0.034 A 
BRANCH  54  68
ATOM     68  C   UNL     1      -7.212 -14.584   2.173  1.00  0.00     0.023 A 
ATOM     69  C   UNL     1      -7.101 -14.860   0.796  1.00  0.00     0.031 A 
ATOM     70  C   UNL     1      -8.475 -14.814   2.750  1.00  0.00     0.131 A 
ATOM     71  C   UNL     1      -8.222 -15.238   0.037  1.00  0.00     0.055 A 
ATOM     72  C   UNL     1      -9.603 -15.142   1.987  1.00  0.00     0.041 A 
ATOM     73  F   UNL     1      -8.654 -14.733   4.079  1.00  0.00    -0.206 F 
ATOM     74  C   UNL     1      -9.483 -15.340   0.618  1.00  0.00     0.022 A 
BRANCH  71  75
ATOM     75  S   UNL     1      -8.004 -15.587  -1.731  1.00  0.00     0.124 S 
ATOM     76  O   UNL     1      -7.431 -14.339  -2.226  1.00  0.00    -0.237 OA
ATOM     77  O   UNL     1      -7.114 -16.742  -1.709  1.00  0.00    -0.237 OA
ATOM     78  O   UNL     1      -9.364 -15.865  -2.191  1.00  0.00    -0.744 OA
ENDBRANCH  71  75
ENDBRANCH  54  68
BRANCH  55  79
ATOM     79  C   UNL     1       0.063  -9.798   6.282  1.00  0.00     0.023 A 
ATOM     80  C   UNL     1       0.393  -8.429   6.200  1.00  0.00     0.031 A 
ATOM     81  C   UNL     1      -0.375 -10.296   7.516  1.00  0.00     0.131 A 
ATOM     82  C   UNL     1       0.116  -7.570   7.272  1.00  0.00     0.055 A 
ATOM     83  C   UNL     1      -0.574  -9.445   8.611  1.00  0.00     0.041 A 
ATOM     84  F   UNL     1      -0.735 -11.580   7.648  1.00  0.00    -0.206 F 
ATOM     85  C   UNL     1      -0.372  -8.069   8.480  1.00  0.00     0.022 A 
BRANCH  82  86
ATOM     86  S   UNL     1       0.132  -5.782   6.956  1.00  0.00     0.124 S 
ATOM     87  O   UNL     1       1.553  -5.469   7.040  1.00  0.00    -0.237 OA
ATOM     88  O   UNL     1      -0.471  -5.691   5.626  1.00  0.00    -0.237 OA
ATOM     89  O   UNL     1      -0.701  -5.227   8.021  1.00  0.00    -0.744 OA
ENDBRANCH  82  86
ENDBRANCH  55  79
BRANCH  67  90
ATOM     90  C   UNL     1      -1.006 -16.563   3.795  1.00  0.00     0.023 A 
ATOM     91  C   UNL     1      -0.006 -17.133   4.596  1.00  0.00     0.031 A 
ATOM     92  C   UNL     1      -1.811 -17.494   3.085  1.00  0.00     0.131 A 
ATOM     93  C   UNL     1       0.217 -18.524   4.616  1.00  0.00     0.055 A 
ATOM     94  C   UNL     1      -1.634 -18.880   3.161  1.00  0.00     0.041 A 
ATOM     95  F   UNL     1      -2.818 -17.102   2.291  1.00  0.00    -0.206 F 
ATOM     96  C   UNL     1      -0.602 -19.405   3.919  1.00  0.00     0.022 A 
BRANCH  93  97
ATOM     97  S   UNL     1       1.648 -19.151   5.537  1.00  0.00     0.124 S 
ATOM     98  O   UNL     1       2.760 -18.538   4.816  1.00  0.00    -0.237 OA
ATOM     99  O   UNL     1       1.405 -18.636   6.881  1.00  0.00    -0.237 OA
ATOM    100  O   UNL     1       1.541 -20.601   5.397  1.00  0.00    -0.744 OA
ENDBRANCH  93  97
ENDBRANCH  67  90
ENDBRANCH  41  42
ENDBRANCH  33  36
ENDBRANCH   1  32
TORSDOF 15
