REMARK SMILES O=C(NCCCNC(=O)[C@H]1CCCN(C(=O)CCOc2ccc(F)cc2)C1)c1ccc(-c2c3nc(c(-c4cc(S(=O)(=O)[O-])ccc4F)c4ccc([nH]4)c(-c4cc(S(=O)(=O)[O-])ccc4F)c4nc(c(-c5cc(S(=O)(=O)[O-])ccc5F)c5ccc2[nH]5)C=C4)C=C3)cc1
REMARK SMILES IDX 6 1 5 2 4 3 3 4 1 5 2 6 28 8 29 9 90 10 30 11 89 12 31 13
REMARK SMILES IDX 32 14 33 15 83 16 34 17 88 18 82 19 84 20 35 21 87 22 81 23
REMARK SMILES IDX 80 24 36 26 68 27 48 28 67 29 49 30 52 31 66 32 85 33 50 34
REMARK SMILES IDX 51 35 65 37 86 38 53 39 37 40 38 41 46 42 39 43 45 44 47 45
REMARK SMILES IDX 44 46 40 47 41 48 42 49 43 50 69 51 70 52 78 53 71 54 77 55
REMARK SMILES IDX 79 56 76 57 72 58 73 59 74 60 75 61 54 62 55 63 63 64 56 65
REMARK SMILES IDX 62 66 64 67 61 68 57 69 58 70 59 71 60 72 7 73 8 74 9 76
REMARK SMILES IDX 10 77 11 78 27 79 12 80 14 81 13 82 15 83 16 84 17 85 18 86
REMARK SMILES IDX 19 87 20 88 21 89 26 90 22 91 25 92 23 93 24 94
REMARK H PARENT 3 7 84 25 52 36 7 75
REMARK Flexibility Score: inf
ROOT
ATOM      1  C   UNL     1       7.854  -0.081   8.435  1.00  0.00     0.117 C 
ENDROOT
BRANCH   1   2
ATOM      2  C   UNL     1       7.215   1.124   9.152  1.00  0.00     0.042 C 
BRANCH   2   3
ATOM      3  C   UNL     1       6.927   0.911  10.627  1.00  0.00     0.118 C 
BRANCH   3   4
ATOM      4  N   UNL     1       8.171   0.916  11.384  1.00  0.00    -0.352 N 
ATOM      5  O   UNL     1       9.919   1.891  12.397  1.00  0.00    -0.269 OA
ATOM      6  C   UNL     1       8.713   1.907  12.165  1.00  0.00     0.251 C 
ATOM      7  H   UNL     1       8.701   0.088  11.327  1.00  0.00     0.163 HD
BRANCH   6   8
ATOM      8  C   UNL     1       7.858   2.974  12.733  1.00  0.00     0.039 A 
ATOM      9  C   UNL     1       6.565   2.692  13.179  1.00  0.00     0.014 A 
ATOM     10  C   UNL     1       8.388   4.258  12.904  1.00  0.00     0.014 A 
ATOM     11  C   UNL     1       5.764   3.707  13.689  1.00  0.00     0.010 A 
ATOM     12  C   UNL     1       7.616   5.255  13.506  1.00  0.00     0.010 A 
ATOM     13  C   UNL     1       6.295   4.988  13.898  1.00  0.00    -0.014 A 
BRANCH  13  14
ATOM     14  C   UNL     1       5.497   6.011  14.618  1.00  0.00     0.031 A 
ATOM     15  C   UNL     1       5.105   7.295  13.945  1.00  0.00     0.074 A 
ATOM     16  C   UNL     1       5.133   5.769  15.895  1.00  0.00     0.049 A 
ATOM     17  N   UNL     1       4.493   8.331  14.456  1.00  0.00    -0.248 NA
ATOM     18  C   UNL     1       5.445   7.440  12.520  1.00  0.00     0.031 C 
ATOM     19  C   UNL     1       5.435   4.542  16.640  1.00  0.00     0.029 A 
ATOM     20  N   UNL     1       4.427   6.529  16.791  1.00  0.00    -0.354 N 
ATOM     21  C   UNL     1       4.366   9.247  13.420  1.00  0.00     0.074 A 
ATOM     22  C   UNL     1       5.005   8.665  12.259  1.00  0.00     0.031 C 
ATOM     23  C   UNL     1       4.884   4.618  17.860  1.00  0.00     0.029 A 
ATOM     24  C   UNL     1       4.266   5.928  18.019  1.00  0.00     0.049 A 
ATOM     25  H   UNL     1       4.069   7.421  16.577  1.00  0.00     0.167 HD
ATOM     26  C   UNL     1       3.755  10.455  13.439  1.00  0.00     0.034 A 
ATOM     27  C   UNL     1       3.713   6.388  19.157  1.00  0.00     0.034 A 
ATOM     28  C   UNL     1       3.122  11.022  14.602  1.00  0.00     0.049 A 
ATOM     29  C   UNL     1       3.149   7.783  19.170  1.00  0.00     0.074 A 
ATOM     30  C   UNL     1       2.481  12.244  14.716  1.00  0.00     0.029 A 
ATOM     31  N   UNL     1       3.040  10.414  15.846  1.00  0.00    -0.354 N 
ATOM     32  N   UNL     1       3.060   8.646  18.185  1.00  0.00    -0.248 NA
ATOM     33  C   UNL     1       2.611   8.266  20.447  1.00  0.00     0.031 C 
ATOM     34  C   UNL     1       2.079  12.406  16.043  1.00  0.00     0.029 A 
ATOM     35  C   UNL     1       2.388  11.249  16.738  1.00  0.00     0.049 A 
ATOM     36  H   UNL     1       3.394   9.521  16.062  1.00  0.00     0.167 HD
ATOM     37  C   UNL     1       2.420   9.760  18.718  1.00  0.00     0.074 A 
ATOM     38  C   UNL     1       2.130   9.451  20.103  1.00  0.00     0.031 C 
ATOM     39  C   UNL     1       2.101  10.932  18.115  1.00  0.00     0.034 A 
BRANCH  26  40
ATOM     40  C   UNL     1       3.728  11.262  12.170  1.00  0.00     0.023 A 
ATOM     41  C   UNL     1       2.918  10.884  11.088  1.00  0.00     0.031 A 
ATOM     42  C   UNL     1       4.425  12.481  12.087  1.00  0.00     0.131 A 
ATOM     43  C   UNL     1       2.823  11.717   9.964  1.00  0.00     0.055 A 
ATOM     44  C   UNL     1       4.287  13.330  10.989  1.00  0.00     0.041 A 
ATOM     45  F   UNL     1       5.222  12.880  13.091  1.00  0.00    -0.206 F 
ATOM     46  C   UNL     1       3.480  12.951   9.920  1.00  0.00     0.022 A 
BRANCH  43  47
ATOM     47  S   UNL     1       1.845  11.155   8.547  1.00  0.00     0.124 S 
ATOM     48  O   UNL     1       2.590   9.971   8.124  1.00  0.00    -0.237 OA
ATOM     49  O   UNL     1       0.537  10.906   9.142  1.00  0.00    -0.237 OA
ATOM     50  O   UNL     1       1.903  12.284   7.620  1.00  0.00    -0.744 OA
ENDBRANCH  43  47
ENDBRANCH  26  40
BRANCH  27  51
ATOM     51  C   UNL     1       3.682   5.546  20.385  1.00  0.00     0.023 A 
ATOM     52  C   UNL     1       2.459   5.176  20.962  1.00  0.00     0.031 A 
ATOM     53  C   UNL     1       4.865   5.143  21.031  1.00  0.00     0.131 A 
ATOM     54  C   UNL     1       2.442   4.477  22.178  1.00  0.00     0.055 A 
ATOM     55  C   UNL     1       4.844   4.394  22.208  1.00  0.00     0.041 A 
ATOM     56  F   UNL     1       6.064   5.465  20.519  1.00  0.00    -0.206 F 
ATOM     57  C   UNL     1       3.626   4.071  22.797  1.00  0.00     0.022 A 
BRANCH  54  58
ATOM     58  S   UNL     1       0.844   4.181  22.980  1.00  0.00     0.124 S 
ATOM     59  O   UNL     1       0.370   5.542  23.203  1.00  0.00    -0.237 OA
ATOM     60  O   UNL     1       0.134   3.411  21.964  1.00  0.00    -0.237 OA
ATOM     61  O   UNL     1       1.203   3.437  24.185  1.00  0.00    -0.744 OA
ENDBRANCH  54  58
ENDBRANCH  27  51
BRANCH  39  62
ATOM     62  C   UNL     1       1.360  11.954  18.939  1.00  0.00     0.023 A 
ATOM     63  C   UNL     1       1.956  12.577  20.047  1.00  0.00     0.031 A 
ATOM     64  C   UNL     1       0.044  12.318  18.601  1.00  0.00     0.131 A 
ATOM     65  C   UNL     1       1.220  13.491  20.813  1.00  0.00     0.055 A 
ATOM     66  C   UNL     1      -0.660  13.279  19.327  1.00  0.00     0.041 A 
ATOM     67  F   UNL     1      -0.573  11.757  17.549  1.00  0.00    -0.206 F 
ATOM     68  C   UNL     1      -0.078  13.861  20.448  1.00  0.00     0.022 A 
BRANCH  65  69
ATOM     69  S   UNL     1       1.958  14.134  22.338  1.00  0.00     0.124 S 
ATOM     70  O   UNL     1       2.156  12.915  23.115  1.00  0.00    -0.237 OA
ATOM     71  O   UNL     1       3.170  14.783  21.850  1.00  0.00    -0.237 OA
ATOM     72  O   UNL     1       0.936  15.041  22.857  1.00  0.00    -0.744 OA
ENDBRANCH  65  69
ENDBRANCH  39  62
ENDBRANCH  13  14
ENDBRANCH   6   8
ENDBRANCH   3   4
ENDBRANCH   2   3
ENDBRANCH   1   2
BRANCH   1  73
ATOM     73  N   UNL     1       6.986  -1.227   8.052  1.00  0.00    -0.356 N 
ATOM     74  C   UNL     1       6.314  -1.702   6.938  1.00  0.00     0.224 C 
ATOM     75  H   UNL     1       6.849  -1.827   8.820  1.00  0.00     0.163 HD
ATOM     76  O   UNL     1       5.900  -2.868   7.046  1.00  0.00    -0.275 OA
BRANCH  74  77
ATOM     77  C   UNL     1       5.992  -0.865   5.417  1.00  0.00     0.098 C 
ATOM     78  C   UNL     1       4.871   1.005   4.962  1.00  0.00     0.017 C 
ATOM     79  C   UNL     1       7.905  -0.783   5.109  1.00  0.00     0.132 C 
ATOM     80  C   UNL     1       6.109   2.520   4.607  1.00  0.00     0.022 C 
ATOM     81  N   UNL     1       8.536   0.494   4.254  1.00  0.00    -0.342 N 
ATOM     82  C   UNL     1       7.981   2.126   4.550  1.00  0.00     0.119 C 
BRANCH  81  83
ATOM     83  C   UNL     1       8.847  -0.002   2.940  1.00  0.00     0.226 C 
ATOM     84  O   UNL     1       9.565  -0.994   2.783  1.00  0.00    -0.275 OA
BRANCH  83  85
ATOM     85  C   UNL     1       8.031   0.532   1.731  1.00  0.00     0.141 C 
BRANCH  85  86
ATOM     86  C   UNL     1       6.725  -0.276   1.298  1.00  0.00     0.239 C 
BRANCH  86  87
ATOM     87  O   UNL     1       5.413  -0.410   1.958  1.00  0.00    -0.493 OA
BRANCH  87  88
ATOM     88  C   UNL     1       5.310  -0.442   3.313  1.00  0.00     0.119 A 
ATOM     89  C   UNL     1       6.409   0.460   4.113  1.00  0.00     0.049 A 
ATOM     90  C   UNL     1       3.993  -0.983   4.214  1.00  0.00     0.049 A 
ATOM     91  C   UNL     1       6.398   0.857   6.020  1.00  0.00     0.043 A 
ATOM     92  C   UNL     1       3.808  -0.690   5.915  1.00  0.00     0.043 A 
ATOM     93  C   UNL     1       4.939   0.223   6.865  1.00  0.00     0.123 A 
ATOM     94  F   UNL     1       4.639   0.474   8.142  1.00  0.00    -0.207 F 
ENDBRANCH  87  88
ENDBRANCH  86  87
ENDBRANCH  85  86
ENDBRANCH  83  85
ENDBRANCH  81  83
ENDBRANCH  74  77
ENDBRANCH   1  73
TORSDOF 18
