REMARK SMILES O=C(NCCCNC(=O)[C@@H]1[C@H]2C=C[C@H]3C=C[C@@H]1[C@H]32)c1ccc(-c2c3nc(c(-c4cc(S(=O)(=O)[O-])ccc4F)c4ccc([nH]4)c(-c4cc(S(=O)(=O)[O-])ccc4F)c4nc(c(-c5cc(S(=O)(=O)[O-])ccc5F)c5ccc2[nH]5)C=C4)C=C3)cc1
REMARK SMILES IDX 1 1 2 2 3 3 19 5 20 6 81 7 21 8 80 9 22 10 23 11 24 12 74 13
REMARK SMILES IDX 25 14 79 15 73 16 75 17 26 18 78 19 72 20 71 21 27 23 59 24
REMARK SMILES IDX 39 25 58 26 40 27 43 28 57 29 76 30 41 31 42 32 56 34 77 35
REMARK SMILES IDX 44 36 28 37 29 38 37 39 30 40 36 41 38 42 35 43 31 44 32 45
REMARK SMILES IDX 33 46 34 47 60 48 61 49 69 50 62 51 68 52 70 53 67 54 63 55
REMARK SMILES IDX 64 56 65 57 66 58 45 59 46 60 54 61 47 62 53 63 55 64 52 65
REMARK SMILES IDX 48 66 49 67 50 68 51 69 4 70 5 71 6 72 7 73 8 74 9 76 10 77
REMARK SMILES IDX 17 78 11 79 16 80 18 81 12 82 15 83 14 84 13 85
REMARK H PARENT 3 4 75 22 43 33 7 75
REMARK Flexibility Score: inf
ROOT
ATOM      1  O   UNL     1       1.228  -0.026   0.169  1.00  0.00    -0.269 OA
ATOM      2  C   UNL     1       2.450  -0.004   0.053  1.00  0.00     0.251 C 
ATOM      3  N   UNL     1       3.250  -0.252   1.147  1.00  0.00    -0.352 N 
ATOM      4  H   UNL     1       2.775  -0.526   1.965  1.00  0.00     0.163 HD
ENDROOT
BRANCH   2   5
ATOM      5  C   UNL     1       3.070   0.321  -1.252  1.00  0.00     0.039 A 
ATOM      6  C   UNL     1       4.144  -0.427  -1.738  1.00  0.00     0.014 A 
ATOM      7  C   UNL     1       2.582   1.404  -1.989  1.00  0.00     0.014 A 
ATOM      8  C   UNL     1       4.836   0.006  -2.863  1.00  0.00     0.010 A 
ATOM      9  C   UNL     1       3.220   1.779  -3.176  1.00  0.00     0.010 A 
ATOM     10  C   UNL     1       4.375   1.105  -3.604  1.00  0.00    -0.014 A 
BRANCH  10  11
ATOM     11  C   UNL     1       5.080   1.494  -4.853  1.00  0.00     0.031 A 
ATOM     12  C   UNL     1       5.738   2.840  -4.990  1.00  0.00     0.074 A 
ATOM     13  C   UNL     1       5.123   0.613  -5.872  1.00  0.00     0.049 A 
ATOM     14  N   UNL     1       6.357   3.356  -6.022  1.00  0.00    -0.248 NA
ATOM     15  C   UNL     1       5.680   3.727  -3.820  1.00  0.00     0.031 C 
ATOM     16  C   UNL     1       4.510  -0.718  -5.856  1.00  0.00     0.029 A 
ATOM     17  N   UNL     1       5.702   0.696  -7.111  1.00  0.00    -0.354 N 
ATOM     18  C   UNL     1       6.744   4.636  -5.637  1.00  0.00     0.074 A 
ATOM     19  C   UNL     1       6.258   4.825  -4.285  1.00  0.00     0.031 C 
ATOM     20  C   UNL     1       4.764  -1.334  -7.018  1.00  0.00     0.029 A 
ATOM     21  C   UNL     1       5.492  -0.418  -7.888  1.00  0.00     0.049 A 
ATOM     22  H   UNL     1       6.219   1.477  -7.415  1.00  0.00     0.167 HD
ATOM     23  C   UNL     1       7.444   5.559  -6.345  1.00  0.00     0.034 A 
ATOM     24  C   UNL     1       5.809  -0.667  -9.173  1.00  0.00     0.034 A 
ATOM     25  C   UNL     1       7.920   5.344  -7.693  1.00  0.00     0.049 A 
ATOM     26  C   UNL     1       6.549   0.382  -9.952  1.00  0.00     0.074 A 
ATOM     27  C   UNL     1       8.682   6.186  -8.485  1.00  0.00     0.029 A 
ATOM     28  N   UNL     1       7.665   4.210  -8.458  1.00  0.00    -0.354 N 
ATOM     29  N   UNL     1       6.934   1.576  -9.564  1.00  0.00    -0.248 NA
ATOM     30  C   UNL     1       6.901   0.051 -11.337  1.00  0.00     0.031 C 
ATOM     31  C   UNL     1       8.825   5.596  -9.747  1.00  0.00     0.029 A 
ATOM     32  C   UNL     1       8.220   4.350  -9.722  1.00  0.00     0.049 A 
ATOM     33  H   UNL     1       7.164   3.422  -8.147  1.00  0.00     0.167 HD
ATOM     34  C   UNL     1       7.585   2.136 -10.657  1.00  0.00     0.074 A 
ATOM     35  C   UNL     1       7.556   1.141 -11.711  1.00  0.00     0.031 C 
ATOM     36  C   UNL     1       8.159   3.361 -10.774  1.00  0.00     0.034 A 
BRANCH  23  37
ATOM     37  C   UNL     1       7.686   6.901  -5.691  1.00  0.00     0.023 A 
ATOM     38  C   UNL     1       8.441   7.030  -4.512  1.00  0.00     0.031 A 
ATOM     39  C   UNL     1       7.121   8.068  -6.237  1.00  0.00     0.131 A 
ATOM     40  C   UNL     1       8.540   8.276  -3.874  1.00  0.00     0.055 A 
ATOM     41  C   UNL     1       7.293   9.320  -5.641  1.00  0.00     0.041 A 
ATOM     42  F   UNL     1       6.374   8.010  -7.351  1.00  0.00    -0.206 F 
ATOM     43  C   UNL     1       7.991   9.427  -4.443  1.00  0.00     0.022 A 
BRANCH  40  44
ATOM     44  S   UNL     1       9.255   8.341  -2.207  1.00  0.00     0.124 S 
ATOM     45  O   UNL     1       8.432   7.370  -1.491  1.00  0.00    -0.237 OA
ATOM     46  O   UNL     1      10.641   7.953  -2.443  1.00  0.00    -0.237 OA
ATOM     47  O   UNL     1       9.056   9.731  -1.802  1.00  0.00    -0.744 OA
ENDBRANCH  40  44
ENDBRANCH  23  37
BRANCH  24  48
ATOM     48  C   UNL     1       5.370  -1.943  -9.802  1.00  0.00     0.023 A 
ATOM     49  C   UNL     1       6.294  -2.921 -10.193  1.00  0.00     0.031 A 
ATOM     50  C   UNL     1       4.001  -2.205 -10.000  1.00  0.00     0.131 A 
ATOM     51  C   UNL     1       5.838  -4.112 -10.782  1.00  0.00     0.055 A 
ATOM     52  C   UNL     1       3.551  -3.409 -10.541  1.00  0.00     0.041 A 
ATOM     53  F   UNL     1       3.077  -1.303  -9.632  1.00  0.00    -0.206 F 
ATOM     54  C   UNL     1       4.474  -4.368 -10.944  1.00  0.00     0.022 A 
BRANCH  51  55
ATOM     55  S   UNL     1       7.062  -5.310 -11.378  1.00  0.00     0.124 S 
ATOM     56  O   UNL     1       7.800  -4.519 -12.357  1.00  0.00    -0.237 OA
ATOM     57  O   UNL     1       7.779  -5.646 -10.153  1.00  0.00    -0.237 OA
ATOM     58  O   UNL     1       6.242  -6.385 -11.933  1.00  0.00    -0.744 OA
ENDBRANCH  51  55
ENDBRANCH  24  48
BRANCH  36  59
ATOM     59  C   UNL     1       8.827   3.672 -12.090  1.00  0.00     0.023 A 
ATOM     60  C   UNL     1       8.085   3.851 -13.271  1.00  0.00     0.031 A 
ATOM     61  C   UNL     1      10.227   3.777 -12.164  1.00  0.00     0.131 A 
ATOM     62  C   UNL     1       8.750   4.079 -14.485  1.00  0.00     0.055 A 
ATOM     63  C   UNL     1      10.880   4.058 -13.364  1.00  0.00     0.041 A 
ATOM     64  F   UNL     1      10.983   3.611 -11.066  1.00  0.00    -0.206 F 
ATOM     65  C   UNL     1      10.141   4.200 -14.536  1.00  0.00     0.022 A 
BRANCH  62  66
ATOM     66  S   UNL     1       7.778   4.140 -16.015  1.00  0.00     0.124 S 
ATOM     67  O   UNL     1       7.177   2.811 -16.045  1.00  0.00    -0.237 OA
ATOM     68  O   UNL     1       6.863   5.248 -15.761  1.00  0.00    -0.237 OA
ATOM     69  O   UNL     1       8.781   4.390 -17.049  1.00  0.00    -0.744 OA
ENDBRANCH  62  66
ENDBRANCH  36  59
ENDBRANCH  10  11
ENDBRANCH   2   5
BRANCH   3  70
ATOM     70  C   UNL     1       4.699  -0.166   1.261  1.00  0.00     0.118 C 
BRANCH  70  71
ATOM     71  C   UNL     1       5.176   0.772   2.361  1.00  0.00     0.042 C 
BRANCH  71  72
ATOM     72  C   UNL     1       4.937   0.273   3.777  1.00  0.00     0.117 C 
BRANCH  72  73
ATOM     73  N   UNL     1       5.618  -0.969   4.070  1.00  0.00    -0.356 N 
ATOM     74  C   UNL     1       5.904  -1.569   5.267  1.00  0.00     0.224 C 
ATOM     75  H   UNL     1       5.927  -1.465   3.277  1.00  0.00     0.163 HD
ATOM     76  O   UNL     1       6.470  -2.671   5.178  1.00  0.00    -0.275 OA
BRANCH  74  77
ATOM     77  C   UNL     1       5.571  -0.953   6.639  1.00  0.00     0.093 C 
ATOM     78  C   UNL     1       4.552   0.199   6.893  1.00  0.00     0.029 C 
ATOM     79  C   UNL     1       4.685  -1.893   7.528  1.00  0.00     0.029 C 
ATOM     80  C   UNL     1       4.997   1.279   7.815  1.00  0.00    -0.026 C 
ATOM     81  C   UNL     1       3.693  -0.743   7.750  1.00  0.00     0.015 C 
ATOM     82  C   UNL     1       5.199  -2.242   8.875  1.00  0.00    -0.026 C 
ATOM     83  C   UNL     1       4.616   1.009   9.072  1.00  0.00    -0.023 C 
ATOM     84  C   UNL     1       3.878  -0.292   9.209  1.00  0.00     0.038 C 
ATOM     85  C   UNL     1       4.742  -1.375   9.790  1.00  0.00    -0.023 C 
ENDBRANCH  74  77
ENDBRANCH  72  73
ENDBRANCH  71  72
ENDBRANCH  70  71
ENDBRANCH   3  70
TORSDOF 13
