REMARK SMILES Cc1ccc2c(c1C)O[C@@H](C(=O)NCCCNC(=O)c1ccc(-c3c4nc(c(-c5cc(S(=O)(=O)[O-])ccc5F)c5ccc([nH]5)c(-c5cc(S(=O)(=O)[O-])ccc5F)c5nc(c(-c6cc(S(=O)(=O)[O-])ccc6F)c6ccc3[nH]6)C=C5)C=C4)cc1)CC2=O
REMARK SMILES IDX 17 1 18 2 19 3 16 5 15 6 14 7 13 8 11 9 12 10 10 12 1 13
REMARK SMILES IDX 2 14 3 15 7 16 4 17 6 18 8 19 5 20 9 21 84 22 83 23 85 24
REMARK SMILES IDX 20 25 21 26 82 27 22 28 81 29 23 30 24 31 25 32 75 33 26 34
REMARK SMILES IDX 80 35 74 36 76 37 27 38 79 39 73 40 72 41 28 43 60 44 40 45
REMARK SMILES IDX 59 46 41 47 44 48 58 49 77 50 42 51 43 52 57 54 78 55 45 56
REMARK SMILES IDX 29 57 30 58 38 59 31 60 37 61 39 62 36 63 32 64 33 65 34 66
REMARK SMILES IDX 35 67 61 68 62 69 70 70 63 71 69 72 71 73 68 74 64 75 65 76
REMARK SMILES IDX 66 77 67 78 46 79 47 80 55 81 48 82 54 83 56 84 53 85 49 86
REMARK SMILES IDX 50 87 51 88 52 89
REMARK H PARENT 17 4 13 11 76 42 44 53
REMARK Flexibility Score: inf
ROOT
ATOM      1  N   UNL     1      -4.413   1.687   2.034  1.00  0.00    -0.352 N 
ATOM      2  C   UNL     1      -4.830   0.438   2.421  1.00  0.00     0.251 C 
ATOM      3  O   UNL     1      -4.742  -0.502   1.633  1.00  0.00    -0.269 OA
ATOM      4  H   UNL     1      -4.248   1.791   1.069  1.00  0.00     0.163 HD
ENDROOT
BRANCH   1   5
ATOM      5  C   UNL     1      -4.175   2.886   2.835  1.00  0.00     0.118 C 
BRANCH   5   6
ATOM      6  C   UNL     1      -2.699   3.260   2.863  1.00  0.00     0.042 C 
BRANCH   6   7
ATOM      7  C   UNL     1      -2.201   3.743   1.506  1.00  0.00     0.118 C 
BRANCH   7   8
ATOM      8  N   UNL     1      -2.045   5.181   1.451  1.00  0.00    -0.353 N 
ATOM      9  C   UNL     1      -0.963   5.993   1.561  1.00  0.00     0.261 C 
ATOM     10  O   UNL     1      -1.169   7.195   1.341  1.00  0.00    -0.271 OA
ATOM     11  H   UNL     1      -2.889   5.665   1.304  1.00  0.00     0.163 HD
BRANCH   9  12
ATOM     12  C   UNL     1       0.456   5.528   1.989  1.00  0.00     0.269 C 
ATOM     13  C   UNL     1       1.065  -0.185  -0.004  1.00  0.00     0.045 C 
ATOM     14  C   UNL     1       1.035   0.916   1.022  1.00  0.00    -0.044 A 
ATOM     15  C   UNL     1       0.711   0.587   2.348  1.00  0.00     0.005 A 
ATOM     16  C   UNL     1       1.294   2.263   0.683  1.00  0.00    -0.005 A 
ATOM     17  C   UNL     1       0.600   1.577   3.322  1.00  0.00     0.016 A 
ATOM     18  C   UNL     1       1.095   3.263   1.658  1.00  0.00     0.134 A 
ATOM     19  C   UNL     1       1.679   2.678  -0.714  1.00  0.00     0.049 C 
ATOM     20  C   UNL     1       0.766   2.916   2.966  1.00  0.00     0.060 A 
ATOM     21  O   UNL     1       1.133   4.554   1.213  1.00  0.00    -0.479 OA
ATOM     22  C   UNL     1       0.475   3.972   3.946  1.00  0.00     0.170 C 
ATOM     23  C   UNL     1       0.600   5.390   3.495  1.00  0.00     0.136 C 
ATOM     24  O   UNL     1       0.161   3.685   5.096  1.00  0.00    -0.294 OA
ENDBRANCH   9  12
ENDBRANCH   7   8
ENDBRANCH   6   7
ENDBRANCH   5   6
ENDBRANCH   1   5
BRANCH   2  25
ATOM     25  C   UNL     1      -5.377   0.223   3.776  1.00  0.00     0.039 A 
ATOM     26  C   UNL     1      -5.024  -0.930   4.483  1.00  0.00     0.014 A 
ATOM     27  C   UNL     1      -6.258   1.150   4.338  1.00  0.00     0.014 A 
ATOM     28  C   UNL     1      -5.513  -1.123   5.777  1.00  0.00     0.010 A 
ATOM     29  C   UNL     1      -6.672   1.001   5.655  1.00  0.00     0.010 A 
ATOM     30  C   UNL     1      -6.323  -0.147   6.378  1.00  0.00    -0.014 A 
BRANCH  30  31
ATOM     31  C   UNL     1      -6.868  -0.326   7.745  1.00  0.00     0.031 A 
ATOM     32  C   UNL     1      -8.352  -0.464   7.935  1.00  0.00     0.074 A 
ATOM     33  C   UNL     1      -6.042  -0.294   8.807  1.00  0.00     0.049 A 
ATOM     34  N   UNL     1      -9.034  -0.570   9.045  1.00  0.00    -0.248 NA
ATOM     35  C   UNL     1      -9.185  -0.454   6.719  1.00  0.00     0.031 C 
ATOM     36  C   UNL     1      -4.592  -0.109   8.742  1.00  0.00     0.029 A 
ATOM     37  N   UNL     1      -6.304  -0.402  10.150  1.00  0.00    -0.354 N 
ATOM     38  C   UNL     1     -10.368  -0.627   8.663  1.00  0.00     0.074 A 
ATOM     39  C   UNL     1     -10.408  -0.480   7.227  1.00  0.00     0.031 C 
ATOM     40  C   UNL     1      -4.090  -0.135   9.987  1.00  0.00     0.029 A 
ATOM     41  C   UNL     1      -5.184  -0.306  10.941  1.00  0.00     0.049 A 
ATOM     42  H   UNL     1      -7.210  -0.535  10.513  1.00  0.00     0.167 HD
ATOM     43  C   UNL     1     -11.459  -0.820   9.438  1.00  0.00     0.034 A 
ATOM     44  C   UNL     1      -5.053  -0.352  12.283  1.00  0.00     0.034 A 
ATOM     45  C   UNL     1     -11.401  -0.999  10.864  1.00  0.00     0.049 A 
ATOM     46  C   UNL     1      -6.281  -0.582  13.127  1.00  0.00     0.074 A 
ATOM     47  C   UNL     1     -12.442  -1.266  11.732  1.00  0.00     0.029 A 
ATOM     48  N   UNL     1     -10.244  -0.938  11.626  1.00  0.00    -0.354 N 
ATOM     49  N   UNL     1      -7.527  -0.729  12.744  1.00  0.00    -0.248 NA
ATOM     50  C   UNL     1      -6.090  -0.667  14.582  1.00  0.00     0.031 C 
ATOM     51  C   UNL     1     -11.924  -1.319  13.026  1.00  0.00     0.029 A 
ATOM     52  C   UNL     1     -10.550  -1.145  12.959  1.00  0.00     0.049 A 
ATOM     53  H   UNL     1      -9.341  -0.772  11.272  1.00  0.00     0.167 HD
ATOM     54  C   UNL     1      -8.262  -0.955  13.903  1.00  0.00     0.074 A 
ATOM     55  C   UNL     1      -7.319  -0.939  15.002  1.00  0.00     0.031 C 
ATOM     56  C   UNL     1      -9.597  -1.156  14.043  1.00  0.00     0.034 A 
BRANCH  43  57
ATOM     57  C   UNL     1     -12.808  -0.889   8.775  1.00  0.00     0.023 A 
ATOM     58  C   UNL     1     -13.788   0.077   9.067  1.00  0.00     0.031 A 
ATOM     59  C   UNL     1     -13.161  -1.972   7.951  1.00  0.00     0.131 A 
ATOM     60  C   UNL     1     -15.085  -0.078   8.563  1.00  0.00     0.055 A 
ATOM     61  C   UNL     1     -14.444  -2.101   7.420  1.00  0.00     0.041 A 
ATOM     62  F   UNL     1     -12.257  -2.916   7.641  1.00  0.00    -0.206 F 
ATOM     63  C   UNL     1     -15.416  -1.156   7.735  1.00  0.00     0.022 A 
BRANCH  60  64
ATOM     64  S   UNL     1     -16.401   1.092   8.995  1.00  0.00     0.124 S 
ATOM     65  O   UNL     1     -16.905   1.479   7.679  1.00  0.00    -0.237 OA
ATOM     66  O   UNL     1     -17.299   0.258   9.787  1.00  0.00    -0.237 OA
ATOM     67  O   UNL     1     -15.706   2.147   9.724  1.00  0.00    -0.744 OA
ENDBRANCH  60  64
ENDBRANCH  43  57
BRANCH  44  68
ATOM     68  C   UNL     1      -3.692  -0.255  12.884  1.00  0.00     0.023 A 
ATOM     69  C   UNL     1      -2.932   0.923  12.779  1.00  0.00     0.031 A 
ATOM     70  C   UNL     1      -3.098  -1.377  13.486  1.00  0.00     0.131 A 
ATOM     71  C   UNL     1      -1.602   0.933  13.221  1.00  0.00     0.055 A 
ATOM     72  C   UNL     1      -1.792  -1.345  13.976  1.00  0.00     0.041 A 
ATOM     73  F   UNL     1      -3.783  -2.526  13.597  1.00  0.00    -0.206 F 
ATOM     74  C   UNL     1      -1.032  -0.188  13.833  1.00  0.00     0.022 A 
BRANCH  71  75
ATOM     75  S   UNL     1      -0.536   2.373  12.936  1.00  0.00     0.124 S 
ATOM     76  O   UNL     1      -0.041   2.659  14.280  1.00  0.00    -0.237 OA
ATOM     77  O   UNL     1       0.449   1.830  12.005  1.00  0.00    -0.237 OA
ATOM     78  O   UNL     1      -1.444   3.369  12.377  1.00  0.00    -0.744 OA
ENDBRANCH  71  75
ENDBRANCH  44  68
BRANCH  56  79
ATOM     79  C   UNL     1     -10.154  -1.402  15.421  1.00  0.00     0.023 A 
ATOM     80  C   UNL     1     -10.762  -2.637  15.717  1.00  0.00     0.031 A 
ATOM     81  C   UNL     1     -10.244  -0.368  16.368  1.00  0.00     0.131 A 
ATOM     82  C   UNL     1     -11.477  -2.792  16.910  1.00  0.00     0.055 A 
ATOM     83  C   UNL     1     -10.919  -0.543  17.576  1.00  0.00     0.041 A 
ATOM     84  F   UNL     1      -9.690   0.830  16.123  1.00  0.00    -0.206 F 
ATOM     85  C   UNL     1     -11.552  -1.754  17.845  1.00  0.00     0.022 A 
BRANCH  82  86
ATOM     86  S   UNL     1     -12.401  -4.314  17.255  1.00  0.00     0.124 S 
ATOM     87  O   UNL     1     -11.841  -4.725  18.540  1.00  0.00    -0.237 OA
ATOM     88  O   UNL     1     -13.779  -3.831  17.300  1.00  0.00    -0.237 OA
ATOM     89  O   UNL     1     -12.077  -5.186  16.131  1.00  0.00    -0.744 OA
ENDBRANCH  82  86
ENDBRANCH  56  79
ENDBRANCH  30  31
ENDBRANCH   2  25
TORSDOF 13
