REMARK SMILES Nc1nonc1C(=O)N1[C@@H]2CC[C@H]1C[C@H](CC(=O)NCCCNC(=O)c1ccc(-c3c4nc(c(-c5cc(S(=O)(=O)[O-])ccc5F)c5ccc([nH]5)c(-c5cc(S(=O)(=O)[O-])ccc5F)c5nc(c(-c6cc(S(=O)(=O)[O-])ccc6F)c6ccc3[nH]6)C=C5)C=C4)cc1)C2
REMARK SMILES IDX 20 1 19 2 17 3 18 4 16 6 15 7 9 8 10 9 13 10 11 11 89 12
REMARK SMILES IDX 12 13 14 14 7 15 8 16 6 17 2 18 3 19 4 20 5 21 1 22 21 25
REMARK SMILES IDX 22 26 23 27 24 28 25 30 26 31 27 32 88 33 28 34 87 35 29 36
REMARK SMILES IDX 30 37 31 38 81 39 32 40 86 41 80 42 82 43 33 44 85 45 79 46
REMARK SMILES IDX 78 47 34 49 66 50 46 51 65 52 47 53 50 54 64 55 83 56 48 57
REMARK SMILES IDX 49 58 63 60 84 61 51 62 35 63 36 64 44 65 37 66 43 67 45 68
REMARK SMILES IDX 42 69 38 70 39 71 40 72 41 73 67 74 68 75 76 76 69 77 75 78
REMARK SMILES IDX 77 79 74 80 70 81 71 82 72 83 73 84 52 85 53 86 61 87 54 88
REMARK SMILES IDX 60 89 62 90 59 91 55 92 56 93 57 94 58 95
REMARK H PARENT 19 5 1 23 1 24 23 29 82 48 50 59
REMARK Flexibility Score: inf
ROOT
ATOM      1  C   UNL     1       5.509   0.659   0.353  1.00  0.00     0.117 C 
ENDROOT
BRANCH   1   2
ATOM      2  N   UNL     1       6.434  -0.313  -0.213  1.00  0.00    -0.356 N 
ATOM      3  C   UNL     1       6.269  -1.257  -1.181  1.00  0.00     0.220 C 
ATOM      4  O   UNL     1       7.222  -1.991  -1.448  1.00  0.00    -0.275 OA
ATOM      5  H   UNL     1       7.339  -0.282   0.172  1.00  0.00     0.163 HD
BRANCH   3   6
ATOM      6  C   UNL     1       4.953  -1.410  -1.912  1.00  0.00     0.103 C 
BRANCH   6   7
ATOM      7  C   UNL     1       4.147  -2.644  -1.461  1.00  0.00     0.002 C 
ATOM      8  N   UNL     1       1.442  -3.025  -0.524  1.00  0.00    -0.331 N 
ATOM      9  C   UNL     1       1.812  -3.682  -1.768  1.00  0.00     0.086 C 
ATOM     10  C   UNL     1       2.503  -3.382   0.400  1.00  0.00     0.086 C 
ATOM     11  C   UNL     1       2.310  -5.066  -1.323  1.00  0.00     0.027 C 
ATOM     12  C   UNL     1       2.932  -2.845  -2.403  1.00  0.00     0.029 C 
ATOM     13  C   UNL     1       2.752  -4.867   0.131  1.00  0.00     0.027 C 
ATOM     14  C   UNL     1       3.718  -2.523   0.018  1.00  0.00     0.029 C 
BRANCH   8  15
ATOM     15  C   UNL     1       0.111  -3.100  -0.122  1.00  0.00     0.280 C 
ATOM     16  O   UNL     1      -0.421  -4.177   0.147  1.00  0.00    -0.267 OA
BRANCH  15  17
ATOM     17  C   UNL     1      -0.613  -1.835  -0.162  1.00  0.00     0.216 A 
ATOM     18  C   UNL     1      -0.199  -0.511   0.137  1.00  0.00     0.201 A 
ATOM     19  N   UNL     1      -1.198   0.333  -0.111  1.00  0.00    -0.032 NA
ATOM     20  O   UNL     1      -2.257  -0.462  -0.513  1.00  0.00    -0.242 OA
ATOM     21  N   UNL     1      -1.898  -1.800  -0.544  1.00  0.00    -0.042 NA
BRANCH  18  22
ATOM     22  N   UNL     1       0.986  -0.112   0.630  1.00  0.00    -0.379 N 
ATOM     23  H   UNL     1       1.153   0.844   0.796  1.00  0.00     0.158 HD
ATOM     24  H   UNL     1       1.686  -0.775   0.826  1.00  0.00     0.158 HD
ENDBRANCH  18  22
ENDBRANCH  15  17
ENDBRANCH   8  15
ENDBRANCH   6   7
ENDBRANCH   3   6
ENDBRANCH   1   2
BRANCH   1  25
ATOM     25  C   UNL     1       5.042   0.268   1.754  1.00  0.00     0.042 C 
BRANCH  25  26
ATOM     26  C   UNL     1       6.122   0.366   2.825  1.00  0.00     0.118 C 
BRANCH  26  27
ATOM     27  N   UNL     1       6.044   1.621   3.546  1.00  0.00    -0.352 N 
ATOM     28  C   UNL     1       5.765   1.869   4.869  1.00  0.00     0.251 C 
ATOM     29  H   UNL     1       6.218   2.422   3.002  1.00  0.00     0.163 HD
ATOM     30  O   UNL     1       5.489   3.023   5.192  1.00  0.00    -0.269 OA
BRANCH  28  31
ATOM     31  C   UNL     1       5.779   0.797   5.901  1.00  0.00     0.039 A 
ATOM     32  C   UNL     1       4.907   0.913   6.991  1.00  0.00     0.014 A 
ATOM     33  C   UNL     1       6.697  -0.257   5.876  1.00  0.00     0.014 A 
ATOM     34  C   UNL     1       4.945  -0.020   8.034  1.00  0.00     0.010 A 
ATOM     35  C   UNL     1       6.690  -1.226   6.884  1.00  0.00     0.010 A 
ATOM     36  C   UNL     1       5.837  -1.101   7.991  1.00  0.00    -0.014 A 
BRANCH  36  37
ATOM     37  C   UNL     1       5.954  -2.045   9.136  1.00  0.00     0.031 A 
ATOM     38  C   UNL     1       7.217  -2.074   9.961  1.00  0.00     0.074 A 
ATOM     39  C   UNL     1       4.954  -2.900   9.424  1.00  0.00     0.049 A 
ATOM     40  N   UNL     1       7.543  -2.861  10.955  1.00  0.00    -0.248 NA
ATOM     41  C   UNL     1       8.263  -1.110   9.592  1.00  0.00     0.031 C 
ATOM     42  C   UNL     1       3.696  -3.017   8.684  1.00  0.00     0.029 A 
ATOM     43  N   UNL     1       4.845  -3.841  10.418  1.00  0.00    -0.354 N 
ATOM     44  C   UNL     1       8.846  -2.517  11.303  1.00  0.00     0.074 A 
ATOM     45  C   UNL     1       9.256  -1.470  10.390  1.00  0.00     0.031 C 
ATOM     46  C   UNL     1       2.938  -3.968   9.257  1.00  0.00     0.029 A 
ATOM     47  C   UNL     1       3.660  -4.536  10.393  1.00  0.00     0.049 A 
ATOM     48  H   UNL     1       5.550  -4.002  11.085  1.00  0.00     0.167 HD
ATOM     49  C   UNL     1       9.627  -3.015  12.294  1.00  0.00     0.034 A 
ATOM     50  C   UNL     1       3.204  -5.517  11.195  1.00  0.00     0.034 A 
ATOM     51  C   UNL     1       9.202  -4.020  13.236  1.00  0.00     0.049 A 
ATOM     52  C   UNL     1       4.044  -5.983  12.352  1.00  0.00     0.074 A 
ATOM     53  C   UNL     1       9.899  -4.554  14.308  1.00  0.00     0.029 A 
ATOM     54  N   UNL     1       7.959  -4.635  13.227  1.00  0.00    -0.354 N 
ATOM     55  N   UNL     1       5.265  -5.633  12.678  1.00  0.00    -0.248 NA
ATOM     56  C   UNL     1       3.432  -6.963  13.261  1.00  0.00     0.031 C 
ATOM     57  C   UNL     1       9.085  -5.510  14.931  1.00  0.00     0.029 A 
ATOM     58  C   UNL     1       7.868  -5.542  14.271  1.00  0.00     0.049 A 
ATOM     59  H   UNL     1       7.245  -4.454  12.574  1.00  0.00     0.167 HD
ATOM     60  C   UNL     1       5.561  -6.338  13.839  1.00  0.00     0.074 A 
ATOM     61  C   UNL     1       4.392  -7.131  14.160  1.00  0.00     0.031 C 
ATOM     62  C   UNL     1       6.699  -6.326  14.577  1.00  0.00     0.034 A 
BRANCH  49  63
ATOM     63  C   UNL     1      11.037  -2.490  12.378  1.00  0.00     0.023 A 
ATOM     64  C   UNL     1      11.307  -1.154  12.721  1.00  0.00     0.031 A 
ATOM     65  C   UNL     1      12.121  -3.321  12.049  1.00  0.00     0.131 A 
ATOM     66  C   UNL     1      12.620  -0.665  12.645  1.00  0.00     0.055 A 
ATOM     67  C   UNL     1      13.434  -2.847  12.049  1.00  0.00     0.041 A 
ATOM     68  F   UNL     1      11.918  -4.600  11.696  1.00  0.00    -0.206 F 
ATOM     69  C   UNL     1      13.688  -1.507  12.331  1.00  0.00     0.022 A 
BRANCH  66  70
ATOM     70  S   UNL     1      12.889   1.120  12.817  1.00  0.00     0.124 S 
ATOM     71  O   UNL     1      12.107   1.644  11.699  1.00  0.00    -0.237 OA
ATOM     72  O   UNL     1      12.362   1.393  14.148  1.00  0.00    -0.237 OA
ATOM     73  O   UNL     1      14.337   1.264  12.676  1.00  0.00    -0.744 OA
ENDBRANCH  66  70
ENDBRANCH  49  63
BRANCH  50  74
ATOM     74  C   UNL     1       1.875  -6.127  10.941  1.00  0.00     0.023 A 
ATOM     75  C   UNL     1       0.768  -5.801  11.738  1.00  0.00     0.031 A 
ATOM     76  C   UNL     1       1.704  -7.060   9.908  1.00  0.00     0.131 A 
ATOM     77  C   UNL     1      -0.465  -6.429  11.509  1.00  0.00     0.055 A 
ATOM     78  C   UNL     1       0.471  -7.665   9.669  1.00  0.00     0.041 A 
ATOM     79  F   UNL     1       2.736  -7.389   9.115  1.00  0.00    -0.206 F 
ATOM     80  C   UNL     1      -0.622  -7.357  10.477  1.00  0.00     0.022 A 
BRANCH  77  81
ATOM     81  S   UNL     1      -1.855  -6.038  12.606  1.00  0.00     0.124 S 
ATOM     82  O   UNL     1      -1.335  -6.437  13.908  1.00  0.00    -0.237 OA
ATOM     83  O   UNL     1      -2.013  -4.603  12.395  1.00  0.00    -0.237 OA
ATOM     84  O   UNL     1      -2.942  -6.865  12.087  1.00  0.00    -0.744 OA
ENDBRANCH  77  81
ENDBRANCH  50  74
BRANCH  62  85
ATOM     85  C   UNL     1       6.705  -7.164  15.824  1.00  0.00     0.023 A 
ATOM     86  C   UNL     1       6.834  -8.562  15.771  1.00  0.00     0.031 A 
ATOM     87  C   UNL     1       6.559  -6.553  17.080  1.00  0.00     0.131 A 
ATOM     88  C   UNL     1       6.778  -9.313  16.955  1.00  0.00     0.055 A 
ATOM     89  C   UNL     1       6.533  -7.301  18.256  1.00  0.00     0.041 A 
ATOM     90  F   UNL     1       6.430  -5.221  17.178  1.00  0.00    -0.206 F 
ATOM     91  C   UNL     1       6.634  -8.690  18.198  1.00  0.00     0.022 A 
BRANCH  88  92
ATOM     92  S   UNL     1       6.837 -11.123  16.848  1.00  0.00     0.124 S 
ATOM     93  O   UNL     1       5.710 -11.417  15.968  1.00  0.00    -0.237 OA
ATOM     94  O   UNL     1       8.161 -11.359  16.283  1.00  0.00    -0.237 OA
ATOM     95  O   UNL     1       6.669 -11.556  18.234  1.00  0.00    -0.744 OA
ENDBRANCH  88  92
ENDBRANCH  62  85
ENDBRANCH  36  37
ENDBRANCH  28  31
ENDBRANCH  26  27
ENDBRANCH  25  26
ENDBRANCH   1  25
TORSDOF 17
