REMARK SMILES Cc1c(Cl)ccc2c1C=C(C(=O)NCCCNC(=O)c1ccc(-c3c4nc(c(-c5cc(S(=O)(=O)[O-])ccc5F)c5ccc([nH]5)c(-c5cc(S(=O)(=O)[O-])ccc5F)c5nc(c(-c6cc(S(=O)(=O)[O-])ccc6F)c6ccc3[nH]6)C=C5)C=C4)cc1)[C@@H](C(F)(F)F)O2
REMARK SMILES IDX 16 1 15 2 14 3 13 4 11 5 12 6 10 8 1 9 2 10 3 11 8 12 4 13
REMARK SMILES IDX 5 14 7 15 9 16 6 17 88 18 83 19 84 20 85 21 86 22 87 23
REMARK SMILES IDX 17 24 18 25 19 27 20 28 21 29 82 30 22 31 81 32 23 33 24 34
REMARK SMILES IDX 25 35 75 36 26 37 80 38 74 39 76 40 27 41 79 42 73 43 72 44
REMARK SMILES IDX 28 46 60 47 40 48 59 49 41 50 44 51 58 52 77 53 42 54 43 55
REMARK SMILES IDX 57 57 78 58 45 59 29 60 30 61 38 62 31 63 37 64 39 65 36 66
REMARK SMILES IDX 32 67 33 68 34 69 35 70 61 71 62 72 70 73 63 74 69 75 71 76
REMARK SMILES IDX 68 77 64 78 65 79 66 80 67 81 46 82 47 83 55 84 48 85 54 86
REMARK SMILES IDX 56 87 53 88 49 89 50 90 51 91 52 92
REMARK H PARENT 13 7 17 26 76 45 44 56
REMARK Flexibility Score: inf
ROOT
ATOM      1  C   UNL     1       7.932   5.971   0.052  1.00  0.00     0.118 C 
ENDROOT
BRANCH   1   2
ATOM      2  C   UNL     1       6.419   6.135   0.136  1.00  0.00     0.042 C 
BRANCH   2   3
ATOM      3  C   UNL     1       5.709   5.500  -1.051  1.00  0.00     0.118 C 
BRANCH   3   4
ATOM      4  N   UNL     1       5.696   4.047  -0.958  1.00  0.00    -0.352 N 
ATOM      5  C   UNL     1       4.794   3.071  -0.710  1.00  0.00     0.251 C 
ATOM      6  O   UNL     1       5.253   1.924  -0.720  1.00  0.00    -0.270 OA
ATOM      7  H   UNL     1       6.591   3.671  -1.119  1.00  0.00     0.163 HD
BRANCH   5   8
ATOM      8  C   UNL     1       3.338   3.282  -0.462  1.00  0.00     0.067 C 
ATOM      9  C   UNL     1       0.845  -0.284   0.069  1.00  0.00     0.047 C 
ATOM     10  C   UNL     1       0.342   1.133   0.191  1.00  0.00    -0.021 A 
ATOM     11  C   UNL     1      -1.041   1.351   0.390  1.00  0.00     0.044 A 
ATOM     12  C   UNL     1       1.188   2.262   0.072  1.00  0.00     0.022 A 
ATOM     13  Cl  UNL     1      -2.168   0.039   0.495  1.00  0.00    -0.084 Cl
ATOM     14  C   UNL     1      -1.566   2.640   0.503  1.00  0.00     0.024 A 
ATOM     15  C   UNL     1       0.633   3.548   0.171  1.00  0.00     0.128 A 
ATOM     16  C   UNL     1       2.639   2.181  -0.127  1.00  0.00     0.026 C 
ATOM     17  C   UNL     1      -0.726   3.740   0.402  1.00  0.00     0.048 A 
ATOM     18  O   UNL     1       1.372   4.694   0.086  1.00  0.00    -0.475 OA
ATOM     19  C   UNL     1       2.642   4.600  -0.608  1.00  0.00     0.314 C 
BRANCH  19  20
ATOM     20  C   UNL     1       2.450   5.010  -2.080  1.00  0.00     0.429 C 
ATOM     21  F   UNL     1       2.155   6.330  -2.176  1.00  0.00    -0.167 F 
ATOM     22  F   UNL     1       3.561   4.812  -2.829  1.00  0.00    -0.167 F 
ATOM     23  F   UNL     1       1.449   4.329  -2.684  1.00  0.00    -0.167 F 
ENDBRANCH  19  20
ENDBRANCH   5   8
ENDBRANCH   3   4
ENDBRANCH   2   3
ENDBRANCH   1   2
BRANCH   1  24
ATOM     24  N   UNL     1       8.490   6.728  -1.066  1.00  0.00    -0.352 N 
ATOM     25  C   UNL     1       9.060   7.978  -1.067  1.00  0.00     0.251 C 
ATOM     26  H   UNL     1       8.453   6.280  -1.942  1.00  0.00     0.163 HD
ATOM     27  O   UNL     1       9.200   8.590  -2.123  1.00  0.00    -0.269 OA
BRANCH  25  28
ATOM     28  C   UNL     1       9.499   8.574   0.207  1.00  0.00     0.039 A 
ATOM     29  C   UNL     1       9.188   9.905   0.495  1.00  0.00     0.014 A 
ATOM     30  C   UNL     1      10.237   7.806   1.113  1.00  0.00     0.014 A 
ATOM     31  C   UNL     1       9.571  10.447   1.723  1.00  0.00     0.010 A 
ATOM     32  C   UNL     1      10.544   8.321   2.364  1.00  0.00     0.010 A 
ATOM     33  C   UNL     1      10.233   9.652   2.672  1.00  0.00    -0.014 A 
BRANCH  33  34
ATOM     34  C   UNL     1      10.654  10.202   3.981  1.00  0.00     0.031 A 
ATOM     35  C   UNL     1      12.118  10.335   4.293  1.00  0.00     0.074 A 
ATOM     36  C   UNL     1       9.725  10.519   4.903  1.00  0.00     0.049 A 
ATOM     37  N   UNL     1      12.689  10.771   5.384  1.00  0.00    -0.248 NA
ATOM     38  C   UNL     1      13.065   9.895   3.254  1.00  0.00     0.031 C 
ATOM     39  C   UNL     1       8.280  10.365   4.729  1.00  0.00     0.029 A 
ATOM     40  N   UNL     1       9.857  11.024   6.171  1.00  0.00    -0.354 N 
ATOM     41  C   UNL     1      14.056  10.653   5.165  1.00  0.00     0.074 A 
ATOM     42  C   UNL     1      14.229  10.042   3.868  1.00  0.00     0.031 C 
ATOM     43  C   UNL     1       7.657  10.790   5.840  1.00  0.00     0.029 A 
ATOM     44  C   UNL     1       8.657  11.225   6.814  1.00  0.00     0.049 A 
ATOM     45  H   UNL     1      10.728  11.225   6.583  1.00  0.00     0.167 HD
ATOM     46  C   UNL     1      15.075  11.053   5.960  1.00  0.00     0.034 A 
ATOM     47  C   UNL     1       8.394  11.715   8.042  1.00  0.00     0.034 A 
ATOM     48  C   UNL     1      14.886  11.685   7.237  1.00  0.00     0.049 A 
ATOM     49  C   UNL     1       9.543  12.189   8.896  1.00  0.00     0.074 A 
ATOM     50  C   UNL     1      15.850  12.174   8.100  1.00  0.00     0.029 A 
ATOM     51  N   UNL     1      13.655  11.926   7.829  1.00  0.00    -0.354 N 
ATOM     52  N   UNL     1      10.829  12.158   8.635  1.00  0.00    -0.248 NA
ATOM     53  C   UNL     1       9.210  12.788  10.196  1.00  0.00     0.031 C 
ATOM     54  C   UNL     1      15.204  12.677   9.230  1.00  0.00     0.029 A 
ATOM     55  C   UNL     1      13.835  12.553   9.048  1.00  0.00     0.049 A 
ATOM     56  H   UNL     1      12.784  11.687   7.439  1.00  0.00     0.167 HD
ATOM     57  C   UNL     1      11.455  12.768   9.719  1.00  0.00     0.074 A 
ATOM     58  C   UNL     1      10.405  13.165  10.634  1.00  0.00     0.031 C 
ATOM     59  C   UNL     1      12.777  12.979   9.933  1.00  0.00     0.034 A 
BRANCH  46  60
ATOM     60  C   UNL     1      16.483  10.864   5.464  1.00  0.00     0.023 A 
ATOM     61  C   UNL     1      17.365  10.007   6.145  1.00  0.00     0.031 A 
ATOM     62  C   UNL     1      16.980  11.611   4.380  1.00  0.00     0.131 A 
ATOM     63  C   UNL     1      18.706   9.937   5.750  1.00  0.00     0.055 A 
ATOM     64  C   UNL     1      18.308  11.508   3.967  1.00  0.00     0.041 A 
ATOM     65  F   UNL     1      16.173  12.438   3.696  1.00  0.00    -0.206 F 
ATOM     66  C   UNL     1      19.180  10.675   4.660  1.00  0.00     0.022 A 
BRANCH  63  67
ATOM     67  S   UNL     1      19.895   8.909   6.655  1.00  0.00     0.124 S 
ATOM     68  O   UNL     1      20.474   8.102   5.583  1.00  0.00    -0.237 OA
ATOM     69  O   UNL     1      20.784   9.912   7.232  1.00  0.00    -0.237 OA
ATOM     70  O   UNL     1      19.068   8.172   7.605  1.00  0.00    -0.744 OA
ENDBRANCH  63  67
ENDBRANCH  46  60
BRANCH  47  71
ATOM     71  C   UNL     1       6.976  11.869   8.474  1.00  0.00     0.023 A 
ATOM     72  C   UNL     1       6.152  10.748   8.677  1.00  0.00     0.031 A 
ATOM     73  C   UNL     1       6.401  13.146   8.590  1.00  0.00     0.131 A 
ATOM     74  C   UNL     1       4.787  10.928   8.938  1.00  0.00     0.055 A 
ATOM     75  C   UNL     1       5.054  13.321   8.908  1.00  0.00     0.041 A 
ATOM     76  F   UNL     1       7.147  14.243   8.387  1.00  0.00    -0.206 F 
ATOM     77  C   UNL     1       4.236  12.207   9.073  1.00  0.00     0.022 A 
BRANCH  74  78
ATOM     78  S   UNL     1       3.659   9.510   9.020  1.00  0.00     0.124 S 
ATOM     79  O   UNL     1       3.016   9.702  10.316  1.00  0.00    -0.237 OA
ATOM     80  O   UNL     1       2.811   9.741   7.853  1.00  0.00    -0.237 OA
ATOM     81  O   UNL     1       4.548   8.357   8.924  1.00  0.00    -0.744 OA
ENDBRANCH  74  78
ENDBRANCH  47  71
BRANCH  59  82
ATOM     82  C   UNL     1      13.201  13.708  11.182  1.00  0.00     0.023 A 
ATOM     83  C   UNL     1      13.841  14.957  11.072  1.00  0.00     0.031 A 
ATOM     84  C   UNL     1      13.126  13.103  12.447  1.00  0.00     0.131 A 
ATOM     85  C   UNL     1      14.416  15.545  12.204  1.00  0.00     0.055 A 
ATOM     86  C   UNL     1      13.664  13.713  13.580  1.00  0.00     0.041 A 
ATOM     87  F   UNL     1      12.537  11.905  12.596  1.00  0.00    -0.206 F 
ATOM     88  C   UNL     1      14.325  14.934  13.459  1.00  0.00     0.022 A 
BRANCH  85  89
ATOM     89  S   UNL     1      15.371  17.082  12.076  1.00  0.00     0.124 S 
ATOM     90  O   UNL     1      14.651  17.962  12.994  1.00  0.00    -0.237 OA
ATOM     91  O   UNL     1      16.694  16.659  12.527  1.00  0.00    -0.237 OA
ATOM     92  O   UNL     1      15.273  17.442  10.666  1.00  0.00    -0.744 OA
ENDBRANCH  85  89
ENDBRANCH  59  82
ENDBRANCH  33  34
ENDBRANCH  25  28
ENDBRANCH   1  24
TORSDOF 14
