REMARK SMILES CC(C)[C@H](NC(=O)[C@H](C)NC(=O)C[NH3+])C(=O)NCCCNC(=O)c1ccc(-c2c3nc(c(-c4cc(S(=O)(=O)[O-])ccc4F)c4ccc([nH]4)c(-c4cc(S(=O)(=O)[O-])ccc4F)c4nc(c(-c5cc(S(=O)(=O)[O-])ccc5F)c5ccc2[nH]5)C=C4)C=C3)cc1
REMARK SMILES IDX 18 1 17 2 15 3 16 4 4 6 2 7 1 8 3 9 5 10 6 11 7 13 8 14 9 15
REMARK SMILES IDX 10 16 11 17 12 19 13 20 14 21 19 25 20 26 21 27 22 28 23 30
REMARK SMILES IDX 24 31 25 32 86 33 26 34 85 35 27 36 28 37 29 38 79 39 30 40
REMARK SMILES IDX 84 41 78 42 80 43 31 44 83 45 77 46 76 47 32 49 64 50 44 51
REMARK SMILES IDX 63 52 45 53 48 54 62 55 81 56 46 57 47 58 61 60 82 61 49 62
REMARK SMILES IDX 33 63 34 64 42 65 35 66 41 67 43 68 40 69 36 70 37 71 38 72
REMARK SMILES IDX 39 73 65 74 66 75 74 76 67 77 73 78 75 79 72 80 68 81 69 82
REMARK SMILES IDX 70 83 71 84 50 85 51 86 59 87 52 88 58 89 60 90 57 91 53 92
REMARK SMILES IDX 54 93 55 94 56 95
REMARK H PARENT 17 5 5 12 10 18 14 22 14 23 14 24 21 29 80 48 48 59
REMARK Flexibility Score: inf
ROOT
ATOM      1  C   UNL     1       0.070  -1.473  -0.292  1.00  0.00     0.117 C 
ENDROOT
BRANCH   1   2
ATOM      2  N   UNL     1       0.597  -0.144  -0.533  1.00  0.00    -0.354 N 
ATOM      3  C   UNL     1       0.001   0.936  -1.110  1.00  0.00     0.242 C 
ATOM      4  O   UNL     1       0.557   2.032  -0.999  1.00  0.00    -0.273 OA
ATOM      5  H   UNL     1       1.524  -0.000  -0.234  1.00  0.00     0.163 HD
BRANCH   3   6
ATOM      6  C   UNL     1      -1.379   0.829  -1.791  1.00  0.00     0.173 C 
BRANCH   6   7
ATOM      7  C   UNL     1      -2.584   0.842  -0.781  1.00  0.00     0.015 C 
ATOM      8  C   UNL     1      -3.549  -0.349  -0.855  1.00  0.00     0.010 C 
ATOM      9  C   UNL     1      -2.192   1.088   0.684  1.00  0.00     0.010 C 
ENDBRANCH   6   7
BRANCH   6  10
ATOM     10  N   UNL     1      -1.398  -0.264  -2.771  1.00  0.00    -0.342 N 
ATOM     11  C   UNL     1      -0.763  -0.453  -3.960  1.00  0.00     0.242 C 
ATOM     12  H   UNL     1      -1.989  -1.010  -2.517  1.00  0.00     0.164 HD
ATOM     13  O   UNL     1      -1.004  -1.531  -4.519  1.00  0.00    -0.273 OA
BRANCH  11  14
ATOM     14  C   UNL     1       0.325   0.481  -4.546  1.00  0.00     0.168 C 
ATOM     15  C   UNL     1       1.654   0.316  -3.811  1.00  0.00     0.041 C 
BRANCH  14  16
ATOM     16  N   UNL     1      -0.090   1.874  -4.662  1.00  0.00    -0.340 N 
ATOM     17  C   UNL     1       0.289   2.803  -5.585  1.00  0.00     0.275 C 
ATOM     18  H   UNL     1      -0.730   2.186  -3.983  1.00  0.00     0.164 HD
ATOM     19  O   UNL     1      -0.210   3.929  -5.522  1.00  0.00    -0.268 OA
BRANCH  17  20
ATOM     20  C   UNL     1       1.318   2.452  -6.660  1.00  0.00     0.360 C 
BRANCH  20  21
ATOM     21  N   UNL     1       2.664   2.407  -6.080  1.00  0.00    -0.350 N 
ATOM     22  H   UNL     1       2.896   3.320  -5.689  1.00  0.00     0.344 HD
ATOM     23  H   UNL     1       3.339   2.166  -6.805  1.00  0.00     0.344 HD
ATOM     24  H   UNL     1       2.693   1.704  -5.341  1.00  0.00     0.344 HD
ENDBRANCH  20  21
ENDBRANCH  17  20
ENDBRANCH  14  16
ENDBRANCH  11  14
ENDBRANCH   6  10
ENDBRANCH   3   6
ENDBRANCH   1   2
BRANCH   1  25
ATOM     25  C   UNL     1       0.757  -2.560  -1.102  1.00  0.00     0.042 C 
BRANCH  25  26
ATOM     26  C   UNL     1       2.253  -2.661  -0.842  1.00  0.00     0.118 C 
BRANCH  26  27
ATOM     27  N   UNL     1       2.550  -2.919   0.561  1.00  0.00    -0.352 N 
ATOM     28  C   UNL     1       2.952  -4.070   1.188  1.00  0.00     0.251 C 
ATOM     29  H   UNL     1       2.445  -2.141   1.155  1.00  0.00     0.163 HD
ATOM     30  O   UNL     1       2.867  -4.139   2.415  1.00  0.00    -0.269 OA
BRANCH  28  31
ATOM     31  C   UNL     1       3.466  -5.218   0.411  1.00  0.00     0.039 A 
ATOM     32  C   UNL     1       3.148  -6.515   0.821  1.00  0.00     0.014 A 
ATOM     33  C   UNL     1       4.296  -5.023  -0.696  1.00  0.00     0.014 A 
ATOM     34  C   UNL     1       3.610  -7.610   0.085  1.00  0.00     0.010 A 
ATOM     35  C   UNL     1       4.676  -6.107  -1.481  1.00  0.00     0.010 A 
ATOM     36  C   UNL     1       4.347  -7.414  -1.094  1.00  0.00    -0.014 A 
BRANCH  36  37
ATOM     37  C   UNL     1       4.804  -8.557  -1.926  1.00  0.00     0.031 A 
ATOM     38  C   UNL     1       6.277  -8.790  -2.136  1.00  0.00     0.074 A 
ATOM     39  C   UNL     1       3.897  -9.338  -2.545  1.00  0.00     0.049 A 
ATOM     40  N   UNL     1       6.877  -9.659  -2.909  1.00  0.00    -0.248 NA
ATOM     41  C   UNL     1       7.196  -7.903  -1.405  1.00  0.00     0.031 C 
ATOM     42  C   UNL     1       2.444  -9.186  -2.448  1.00  0.00     0.029 A 
ATOM     43  N   UNL     1       4.061 -10.409  -3.388  1.00  0.00    -0.354 N 
ATOM     44  C   UNL     1       8.240  -9.412  -2.771  1.00  0.00     0.074 A 
ATOM     45  C   UNL     1       8.372  -8.271  -1.891  1.00  0.00     0.031 C 
ATOM     46  C   UNL     1       1.851 -10.142  -3.181  1.00  0.00     0.029 A 
ATOM     47  C   UNL     1       2.877 -10.943  -3.841  1.00  0.00     0.049 A 
ATOM     48  H   UNL     1       4.944 -10.762  -3.644  1.00  0.00     0.167 HD
ATOM     49  C   UNL     1       9.284 -10.090  -3.310  1.00  0.00     0.034 A 
ATOM     50  C   UNL     1       2.644 -11.952  -4.703  1.00  0.00     0.034 A 
ATOM     51  C   UNL     1       9.133 -11.238  -4.170  1.00  0.00     0.049 A 
ATOM     52  C   UNL     1       3.821 -12.679  -5.304  1.00  0.00     0.074 A 
ATOM     53  C   UNL     1      10.119 -12.032  -4.730  1.00  0.00     0.029 A 
ATOM     54  N   UNL     1       7.917 -11.756  -4.599  1.00  0.00    -0.354 N 
ATOM     55  N   UNL     1       5.104 -12.459  -5.130  1.00  0.00    -0.248 NA
ATOM     56  C   UNL     1       3.518 -13.795  -6.209  1.00  0.00     0.031 C 
ATOM     57  C   UNL     1       9.504 -12.988  -5.545  1.00  0.00     0.029 A 
ATOM     58  C   UNL     1       8.130 -12.841  -5.436  1.00  0.00     0.049 A 
ATOM     59  H   UNL     1       7.033 -11.405  -4.345  1.00  0.00     0.167 HD
ATOM     60  C   UNL     1       5.760 -13.433  -5.879  1.00  0.00     0.074 A 
ATOM     61  C   UNL     1       4.731 -14.248  -6.491  1.00  0.00     0.031 C 
ATOM     62  C   UNL     1       7.091 -13.639  -6.043  1.00  0.00     0.034 A 
BRANCH  49  63
ATOM     63  C   UNL     1      10.675  -9.590  -2.998  1.00  0.00     0.023 A 
ATOM     64  C   UNL     1      11.177  -9.577  -1.685  1.00  0.00     0.031 A 
ATOM     65  C   UNL     1      11.503  -9.100  -4.022  1.00  0.00     0.131 A 
ATOM     66  C   UNL     1      12.436  -9.017  -1.421  1.00  0.00     0.055 A 
ATOM     67  C   UNL     1      12.789  -8.620  -3.764  1.00  0.00     0.041 A 
ATOM     68  F   UNL     1      11.073  -9.066  -5.293  1.00  0.00    -0.206 F 
ATOM     69  C   UNL     1      13.257  -8.563  -2.455  1.00  0.00     0.022 A 
BRANCH  66  70
ATOM     70  S   UNL     1      12.926  -8.764   0.307  1.00  0.00     0.124 S 
ATOM     71  O   UNL     1      11.867  -7.879   0.786  1.00  0.00    -0.237 OA
ATOM     72  O   UNL     1      12.915 -10.121   0.841  1.00  0.00    -0.237 OA
ATOM     73  O   UNL     1      14.246  -8.145   0.202  1.00  0.00    -0.744 OA
ENDBRANCH  66  70
ENDBRANCH  49  63
BRANCH  50  74
ATOM     74  C   UNL     1       1.249 -12.336  -5.064  1.00  0.00     0.023 A 
ATOM     75  C   UNL     1       0.742 -13.604  -4.736  1.00  0.00     0.031 A 
ATOM     76  C   UNL     1       0.417 -11.460  -5.784  1.00  0.00     0.131 A 
ATOM     77  C   UNL     1      -0.537 -13.981  -5.174  1.00  0.00     0.055 A 
ATOM     78  C   UNL     1      -0.876 -11.819  -6.168  1.00  0.00     0.041 A 
ATOM     79  F   UNL     1       0.850 -10.234  -6.118  1.00  0.00    -0.206 F 
ATOM     80  C   UNL     1      -1.355 -13.093  -5.877  1.00  0.00     0.022 A 
BRANCH  77  81
ATOM     81  S   UNL     1      -1.081 -15.689  -4.895  1.00  0.00     0.124 S 
ATOM     82  O   UNL     1      -0.025 -16.448  -5.555  1.00  0.00    -0.237 OA
ATOM     83  O   UNL     1      -1.109 -15.762  -3.438  1.00  0.00    -0.237 OA
ATOM     84  O   UNL     1      -2.388 -15.740  -5.545  1.00  0.00    -0.744 OA
ENDBRANCH  77  81
ENDBRANCH  50  74
BRANCH  62  85
ATOM     85  C   UNL     1       7.502 -14.826  -6.879  1.00  0.00     0.023 A 
ATOM     86  C   UNL     1       7.248 -14.883  -8.260  1.00  0.00     0.031 A 
ATOM     87  C   UNL     1       8.148 -15.922  -6.278  1.00  0.00     0.131 A 
ATOM     88  C   UNL     1       7.587 -16.036  -8.985  1.00  0.00     0.055 A 
ATOM     89  C   UNL     1       8.538 -17.040  -7.016  1.00  0.00     0.041 A 
ATOM     90  F   UNL     1       8.414 -15.921  -4.962  1.00  0.00    -0.206 F 
ATOM     91  C   UNL     1       8.246 -17.107  -8.375  1.00  0.00     0.022 A 
BRANCH  88  92
ATOM     92  S   UNL     1       7.073 -16.155 -10.720  1.00  0.00     0.124 S 
ATOM     93  O   UNL     1       5.624 -16.018 -10.618  1.00  0.00    -0.237 OA
ATOM     94  O   UNL     1       7.778 -15.033 -11.333  1.00  0.00    -0.237 OA
ATOM     95  O   UNL     1       7.544 -17.478 -11.127  1.00  0.00    -0.744 OA
ENDBRANCH  88  92
ENDBRANCH  62  85
ENDBRANCH  36  37
ENDBRANCH  28  31
ENDBRANCH  26  27
ENDBRANCH  25  26
ENDBRANCH   1  25
TORSDOF 19
