REMARK SMILES CC(C)(C)OC(=O)CSc1ccnc(C(=O)NCCCNC(=O)c2ccc(-c3c4nc(c(-c5cc(S(=O)(=O)[O-])ccc5F)c5ccc([nH]5)c(-c5cc(S(=O)(=O)[O-])ccc5F)c5nc(c(-c6cc(S(=O)(=O)[O-])ccc6F)c6ccc3[nH]6)C=C5)C=C4)cc2)c1
REMARK SMILES IDX 18 1 17 2 15 3 16 4 14 6 10 7 11 8 87 9 12 10 13 11 9 12
REMARK SMILES IDX 8 13 6 14 7 15 5 16 2 17 1 18 3 19 4 20 19 21 20 22 21 23
REMARK SMILES IDX 22 24 23 26 24 27 25 28 86 29 26 30 85 31 27 32 28 33 29 34
REMARK SMILES IDX 79 35 30 36 84 37 78 38 80 39 31 40 83 41 77 42 76 43 32 45
REMARK SMILES IDX 64 46 44 47 63 48 45 49 48 50 62 51 81 52 46 53 47 54 61 56
REMARK SMILES IDX 82 57 49 58 33 59 34 60 42 61 35 62 41 63 43 64 40 65 36 66
REMARK SMILES IDX 37 67 38 68 39 69 65 70 66 71 74 72 67 73 73 74 75 75 72 76
REMARK SMILES IDX 68 77 69 78 70 79 71 80 50 81 51 82 59 83 52 84 58 85 60 86
REMARK SMILES IDX 57 87 53 88 54 89 55 90 56 91
REMARK H PARENT 17 5 21 25 80 44 48 55
REMARK Flexibility Score: inf
ROOT
ATOM      1  C   UNL     1      -2.414   0.998   1.465  1.00  0.00     0.118 C 
ENDROOT
BRANCH   1   2
ATOM      2  N   UNL     1      -3.694   1.623   1.702  1.00  0.00    -0.351 N 
ATOM      3  C   UNL     1      -4.139   2.925   1.661  1.00  0.00     0.269 C 
ATOM      4  O   UNL     1      -5.362   3.064   1.752  1.00  0.00    -0.268 OA
ATOM      5  H   UNL     1      -4.400   0.981   1.944  1.00  0.00     0.163 HD
BRANCH   3   6
ATOM      6  C   UNL     1      -3.257   4.140   1.500  1.00  0.00     0.129 A 
ATOM      7  C   UNL     1      -1.164   5.307   1.340  1.00  0.00     0.012 A 
ATOM      8  C   UNL     1      -1.855   6.496   1.155  1.00  0.00     0.035 A 
ATOM      9  C   UNL     1      -1.876   4.135   1.592  1.00  0.00     0.049 A 
ATOM     10  C   UNL     1      -3.237   6.441   1.157  1.00  0.00     0.113 A 
ATOM     11  N   UNL     1      -3.939   5.298   1.288  1.00  0.00    -0.251 NA
BRANCH   7  12
ATOM     12  S   UNL     1       0.616   5.229   1.394  1.00  0.00    -0.114 SA
BRANCH  12  13
ATOM     13  C   UNL     1       1.044   5.004  -0.364  1.00  0.00     0.197 C 
BRANCH  13  14
ATOM     14  C   UNL     1       0.398   3.826  -1.060  1.00  0.00     0.316 C 
ATOM     15  O   UNL     1      -0.344   3.958  -2.026  1.00  0.00    -0.251 OA
BRANCH  14  16
ATOM     16  O   UNL     1       0.815   2.633  -0.555  1.00  0.00    -0.459 OA
BRANCH  16  17
ATOM     17  C   UNL     1       0.503   1.378  -1.235  1.00  0.00     0.104 C 
ATOM     18  C   UNL     1       0.902   0.276  -0.240  1.00  0.00     0.056 C 
ATOM     19  C   UNL     1       1.368   1.227  -2.490  1.00  0.00     0.056 C 
ATOM     20  C   UNL     1      -0.982   1.240  -1.607  1.00  0.00     0.056 C 
ENDBRANCH  16  17
ENDBRANCH  14  16
ENDBRANCH  13  14
ENDBRANCH  12  13
ENDBRANCH   7  12
ENDBRANCH   3   6
ENDBRANCH   1   2
BRANCH   1  21
ATOM     21  C   UNL     1      -1.810   0.402   2.726  1.00  0.00     0.042 C 
BRANCH  21  22
ATOM     22  C   UNL     1      -2.170  -1.067   2.893  1.00  0.00     0.118 C 
BRANCH  22  23
ATOM     23  N   UNL     1      -1.692  -1.885   1.780  1.00  0.00    -0.352 N 
ATOM     24  C   UNL     1      -0.849  -2.967   1.754  1.00  0.00     0.251 C 
ATOM     25  H   UNL     1      -2.034  -1.613   0.898  1.00  0.00     0.163 HD
ATOM     26  O   UNL     1      -0.407  -3.349   0.676  1.00  0.00    -0.269 OA
BRANCH  24  27
ATOM     27  C   UNL     1      -0.471  -3.647   3.009  1.00  0.00     0.039 A 
ATOM     28  C   UNL     1       0.810  -4.189   3.127  1.00  0.00     0.014 A 
ATOM     29  C   UNL     1      -1.381  -3.766   4.061  1.00  0.00     0.014 A 
ATOM     30  C   UNL     1       1.192  -4.792   4.325  1.00  0.00     0.010 A 
ATOM     31  C   UNL     1      -0.958  -4.247   5.292  1.00  0.00     0.010 A 
ATOM     32  C   UNL     1       0.325  -4.788   5.431  1.00  0.00    -0.014 A 
BRANCH  32  33
ATOM     33  C   UNL     1       0.739  -5.371   6.730  1.00  0.00     0.031 A 
ATOM     34  C   UNL     1      -0.033  -6.522   7.319  1.00  0.00     0.074 A 
ATOM     35  C   UNL     1       1.783  -4.832   7.389  1.00  0.00     0.049 A 
ATOM     36  N   UNL     1       0.164  -7.159   8.445  1.00  0.00    -0.248 NA
ATOM     37  C   UNL     1      -1.204  -6.996   6.564  1.00  0.00     0.031 C 
ATOM     38  C   UNL     1       2.557  -3.671   6.939  1.00  0.00     0.029 A 
ATOM     39  N   UNL     1       2.381  -5.190   8.569  1.00  0.00    -0.354 N 
ATOM     40  C   UNL     1      -0.861  -8.096   8.534  1.00  0.00     0.074 A 
ATOM     41  C   UNL     1      -1.724  -7.884   7.395  1.00  0.00     0.031 C 
ATOM     42  C   UNL     1       3.561  -3.451   7.802  1.00  0.00     0.029 A 
ATOM     43  C   UNL     1       3.473  -4.417   8.890  1.00  0.00     0.049 A 
ATOM     44  H   UNL     1       2.060  -5.930   9.133  1.00  0.00     0.167 HD
ATOM     45  C   UNL     1      -1.043  -9.067   9.462  1.00  0.00     0.034 A 
ATOM     46  C   UNL     1       4.309  -4.486   9.944  1.00  0.00     0.034 A 
ATOM     47  C   UNL     1      -0.159  -9.265  10.584  1.00  0.00     0.049 A 
ATOM     48  C   UNL     1       4.086  -5.573  10.962  1.00  0.00     0.074 A 
ATOM     49  C   UNL     1      -0.211 -10.239  11.564  1.00  0.00     0.029 A 
ATOM     50  N   UNL     1       0.940  -8.465  10.880  1.00  0.00    -0.354 N 
ATOM     51  N   UNL     1       3.148  -6.494  11.000  1.00  0.00    -0.248 NA
ATOM     52  C   UNL     1       5.046  -5.644  12.068  1.00  0.00     0.031 C 
ATOM     53  C   UNL     1       0.807  -9.985  12.490  1.00  0.00     0.029 A 
ATOM     54  C   UNL     1       1.554  -8.907  12.041  1.00  0.00     0.049 A 
ATOM     55  H   UNL     1       1.238  -7.696  10.342  1.00  0.00     0.167 HD
ATOM     56  C   UNL     1       3.428  -7.273  12.119  1.00  0.00     0.074 A 
ATOM     57  C   UNL     1       4.637  -6.730  12.704  1.00  0.00     0.031 C 
ATOM     58  C   UNL     1       2.750  -8.339  12.621  1.00  0.00     0.034 A 
BRANCH  45  59
ATOM     59  C   UNL     1      -2.250  -9.964   9.303  1.00  0.00     0.023 A 
ATOM     60  C   UNL     1      -2.428 -10.772   8.165  1.00  0.00     0.031 A 
ATOM     61  C   UNL     1      -3.257  -9.987  10.284  1.00  0.00     0.131 A 
ATOM     62  C   UNL     1      -3.616 -11.499   7.997  1.00  0.00     0.055 A 
ATOM     63  C   UNL     1      -4.396 -10.784  10.154  1.00  0.00     0.041 A 
ATOM     64  F   UNL     1      -3.160  -9.220  11.382  1.00  0.00    -0.206 F 
ATOM     65  C   UNL     1      -4.590 -11.534   8.997  1.00  0.00     0.022 A 
BRANCH  62  66
ATOM     66  S   UNL     1      -3.941 -12.269   6.386  1.00  0.00     0.124 S 
ATOM     67  O   UNL     1      -3.898 -11.112   5.494  1.00  0.00    -0.237 OA
ATOM     68  O   UNL     1      -2.838 -13.214   6.260  1.00  0.00    -0.237 OA
ATOM     69  O   UNL     1      -5.263 -12.869   6.553  1.00  0.00    -0.744 OA
ENDBRANCH  62  66
ENDBRANCH  45  59
BRANCH  46  70
ATOM     70  C   UNL     1       5.434  -3.516  10.085  1.00  0.00     0.023 A 
ATOM     71  C   UNL     1       6.770  -3.947  10.072  1.00  0.00     0.031 A 
ATOM     72  C   UNL     1       5.189  -2.144  10.279  1.00  0.00     0.131 A 
ATOM     73  C   UNL     1       7.806  -3.029  10.303  1.00  0.00     0.055 A 
ATOM     74  C   UNL     1       6.225  -1.225  10.448  1.00  0.00     0.041 A 
ATOM     75  F   UNL     1       3.931  -1.674  10.294  1.00  0.00    -0.206 F 
ATOM     76  C   UNL     1       7.543  -1.669  10.476  1.00  0.00     0.022 A 
BRANCH  73  77
ATOM     77  S   UNL     1       9.500  -3.656  10.473  1.00  0.00     0.124 S 
ATOM     78  O   UNL     1       9.356  -4.607  11.568  1.00  0.00    -0.237 OA
ATOM     79  O   UNL     1       9.744  -4.228   9.153  1.00  0.00    -0.237 OA
ATOM     80  O   UNL     1      10.276  -2.457  10.783  1.00  0.00    -0.744 OA
ENDBRANCH  73  77
ENDBRANCH  46  70
BRANCH  58  81
ATOM     81  C   UNL     1       3.340  -9.001  13.844  1.00  0.00     0.023 A 
ATOM     82  C   UNL     1       3.477  -8.313  15.062  1.00  0.00     0.031 A 
ATOM     83  C   UNL     1       3.820 -10.321  13.774  1.00  0.00     0.131 A 
ATOM     84  C   UNL     1       4.164  -8.911  16.128  1.00  0.00     0.055 A 
ATOM     85  C   UNL     1       4.425 -10.941  14.867  1.00  0.00     0.041 A 
ATOM     86  F   UNL     1       3.718 -11.028  12.637  1.00  0.00    -0.206 F 
ATOM     87  C   UNL     1       4.621 -10.228  16.046  1.00  0.00     0.022 A 
BRANCH  84  88
ATOM     88  S   UNL     1       4.589  -7.888  17.564  1.00  0.00     0.124 S 
ATOM     89  O   UNL     1       5.311  -6.782  16.944  1.00  0.00    -0.237 OA
ATOM     90  O   UNL     1       3.277  -7.563  18.114  1.00  0.00    -0.237 OA
ATOM     91  O   UNL     1       5.404  -8.777  18.388  1.00  0.00    -0.744 OA
ENDBRANCH  84  88
ENDBRANCH  58  81
ENDBRANCH  32  33
ENDBRANCH  24  27
ENDBRANCH  22  23
ENDBRANCH  21  22
ENDBRANCH   1  21
TORSDOF 18
