REMARK SMILES CC[NH2+][C@]1(C(=O)NCCCNC(=O)c2ccc(-c3c4nc(c(-c5cc(S(=O)(=O)[O-])ccc5F)c5ccc([nH]5)c(-c5cc(S(=O)(=O)[O-])ccc5F)c5nc(c(-c6cc(S(=O)(=O)[O-])ccc6F)c6ccc3[nH]6)C=C5)C=C4)cc2)CC[C@H]([N@H+](C)CC[NH+]2CCCC2)C1
REMARK SMILES IDX 8 1 7 2 5 3 6 4 4 6 77 7 89 8 78 9 79 10 3 11 2 14 1 15
REMARK SMILES IDX 80 16 81 17 82 19 83 20 84 21 85 22 88 23 86 25 87 26 9 27
REMARK SMILES IDX 10 28 11 29 12 30 13 32 14 33 15 34 76 35 16 36 75 37 17 38
REMARK SMILES IDX 18 39 19 40 69 41 20 42 74 43 68 44 70 45 21 46 73 47 67 48
REMARK SMILES IDX 66 49 22 51 54 52 34 53 53 54 35 55 38 56 52 57 71 58 36 59
REMARK SMILES IDX 37 60 51 62 72 63 39 64 23 65 24 66 32 67 25 68 31 69 33 70
REMARK SMILES IDX 30 71 26 72 27 73 28 74 29 75 55 76 56 77 64 78 57 79 63 80
REMARK SMILES IDX 65 81 62 82 58 83 59 84 60 85 61 86 40 87 41 88 49 89 42 90
REMARK SMILES IDX 48 91 50 92 47 93 43 94 44 95 45 96 46 97
REMARK H PARENT 7 5 3 12 3 13 80 18 84 24 11 31 70 50 38 61
REMARK Flexibility Score: inf
ROOT
ATOM      1  C   UNL     1       2.046   2.579   1.737  1.00  0.00     0.118 C 
ENDROOT
BRANCH   1   2
ATOM      2  N   UNL     1       1.954   2.103   0.384  1.00  0.00    -0.351 N 
ATOM      3  C   UNL     1       1.300   2.652  -0.676  1.00  0.00     0.281 C 
ATOM      4  O   UNL     1       1.430   2.034  -1.742  1.00  0.00    -0.268 OA
ATOM      5  H   UNL     1       2.430   1.262   0.198  1.00  0.00     0.163 HD
BRANCH   3   6
ATOM      6  C   UNL     1       0.486   3.989  -0.607  1.00  0.00     0.181 C 
ATOM      7  C   UNL     1       1.283   5.196  -1.122  1.00  0.00     0.085 C 
ATOM      8  C   UNL     1      -0.561   3.919  -1.745  1.00  0.00     0.144 C 
ATOM      9  C   UNL     1       0.213   6.194  -1.602  1.00  0.00     0.072 C 
ATOM     10  C   UNL     1      -1.054   5.359  -1.954  1.00  0.00     0.191 C 
BRANCH   6  11
ATOM     11  N   UNL     1      -0.237   4.213   0.664  1.00  0.00    -0.334 N 
ATOM     12  H   UNL     1      -1.173   4.535   0.421  1.00  0.00     0.347 HD
ATOM     13  H   UNL     1      -0.170   3.315   1.143  1.00  0.00     0.347 HD
BRANCH  11  14
ATOM     14  C   UNL     1       0.302   5.162   1.631  1.00  0.00     0.257 C 
ATOM     15  C   UNL     1      -0.241   4.930   3.042  1.00  0.00     0.071 C 
ENDBRANCH  11  14
ENDBRANCH   6  11
BRANCH  10  16
ATOM     16  N   UNL     1      -2.220   5.778  -1.146  1.00  0.00    -0.330 N 
ATOM     17  C   UNL     1      -3.211   4.728  -0.924  1.00  0.00     0.333 C 
ATOM     18  H   UNL     1      -1.847   5.982  -0.219  1.00  0.00     0.348 HD
BRANCH  16  19
ATOM     19  C   UNL     1      -2.829   7.011  -1.672  1.00  0.00     0.324 C 
BRANCH  19  20
ATOM     20  C   UNL     1      -3.974   7.659  -0.838  1.00  0.00     0.324 C 
BRANCH  20  21
ATOM     21  N   UNL     1      -3.781   8.098   0.563  1.00  0.00    -0.330 N 
ATOM     22  C   UNL     1      -4.120   9.520   0.727  1.00  0.00     0.262 C 
ATOM     23  C   UNL     1      -2.416   8.019   1.094  1.00  0.00     0.262 C 
ATOM     24  H   UNL     1      -4.385   7.445   1.063  1.00  0.00     0.348 HD
ATOM     25  C   UNL     1      -2.861  10.247   0.282  1.00  0.00     0.067 C 
ATOM     26  C   UNL     1      -1.733   9.337   0.747  1.00  0.00     0.067 C 
ENDBRANCH  20  21
ENDBRANCH  19  20
ENDBRANCH  16  19
ENDBRANCH  10  16
ENDBRANCH   3   6
ENDBRANCH   1   2
BRANCH   1  27
ATOM     27  C   UNL     1       2.349   1.522   2.767  1.00  0.00     0.042 C 
BRANCH  27  28
ATOM     28  C   UNL     1       3.776   1.039   2.695  1.00  0.00     0.118 C 
BRANCH  28  29
ATOM     29  N   UNL     1       4.734   2.093   3.021  1.00  0.00    -0.352 N 
ATOM     30  C   UNL     1       5.347   2.418   4.208  1.00  0.00     0.251 C 
ATOM     31  H   UNL     1       4.982   2.669   2.261  1.00  0.00     0.163 HD
ATOM     32  O   UNL     1       5.917   3.504   4.315  1.00  0.00    -0.269 OA
BRANCH  30  33
ATOM     33  C   UNL     1       5.289   1.488   5.354  1.00  0.00     0.039 A 
ATOM     34  C   UNL     1       5.196   1.980   6.658  1.00  0.00     0.014 A 
ATOM     35  C   UNL     1       5.308   0.113   5.138  1.00  0.00     0.014 A 
ATOM     36  C   UNL     1       5.031   1.087   7.721  1.00  0.00     0.010 A 
ATOM     37  C   UNL     1       4.957  -0.752   6.159  1.00  0.00     0.010 A 
ATOM     38  C   UNL     1       4.854  -0.284   7.473  1.00  0.00    -0.014 A 
BRANCH  38  39
ATOM     39  C   UNL     1       4.618  -1.270   8.559  1.00  0.00     0.031 A 
ATOM     40  C   UNL     1       5.541  -2.456   8.697  1.00  0.00     0.074 A 
ATOM     41  C   UNL     1       3.535  -1.152   9.352  1.00  0.00     0.049 A 
ATOM     42  N   UNL     1       5.442  -3.499   9.480  1.00  0.00    -0.248 NA
ATOM     43  C   UNL     1       6.699  -2.503   7.787  1.00  0.00     0.031 C 
ATOM     44  C   UNL     1       2.536  -0.084   9.269  1.00  0.00     0.029 A 
ATOM     45  N   UNL     1       3.088  -1.942  10.380  1.00  0.00    -0.354 N 
ATOM     46  C   UNL     1       6.502  -4.332   9.131  1.00  0.00     0.074 A 
ATOM     47  C   UNL     1       7.163  -3.722   8.001  1.00  0.00     0.031 C 
ATOM     48  C   UNL     1       1.622  -0.261  10.236  1.00  0.00     0.029 A 
ATOM     49  C   UNL     1       1.932  -1.484  10.967  1.00  0.00     0.049 A 
ATOM     50  H   UNL     1       3.552  -2.761  10.670  1.00  0.00     0.167 HD
ATOM     51  C   UNL     1       6.913  -5.479   9.726  1.00  0.00     0.034 A 
ATOM     52  C   UNL     1       1.200  -1.998  11.975  1.00  0.00     0.034 A 
ATOM     53  C   UNL     1       6.254  -6.050  10.873  1.00  0.00     0.049 A 
ATOM     54  C   UNL     1       1.667  -3.276  12.622  1.00  0.00     0.074 A 
ATOM     55  C   UNL     1       6.611  -7.167  11.606  1.00  0.00     0.029 A 
ATOM     56  N   UNL     1       5.095  -5.546  11.453  1.00  0.00    -0.354 N 
ATOM     57  N   UNL     1       2.706  -4.023  12.322  1.00  0.00    -0.248 NA
ATOM     58  C   UNL     1       0.872  -3.773  13.750  1.00  0.00     0.031 C 
ATOM     59  C   UNL     1       5.628  -7.383  12.578  1.00  0.00     0.029 A 
ATOM     60  C   UNL     1       4.705  -6.350  12.512  1.00  0.00     0.049 A 
ATOM     61  H   UNL     1       4.621  -4.737  11.155  1.00  0.00     0.167 HD
ATOM     62  C   UNL     1       2.704  -5.065  13.245  1.00  0.00     0.074 A 
ATOM     63  C   UNL     1       1.571  -4.837  14.120  1.00  0.00     0.031 C 
ATOM     64  C   UNL     1       3.562  -6.112  13.364  1.00  0.00     0.034 A 
BRANCH  51  65
ATOM     65  C   UNL     1       8.112  -6.182   9.127  1.00  0.00     0.023 A 
ATOM     66  C   UNL     1       9.363  -5.546   9.014  1.00  0.00     0.031 A 
ATOM     67  C   UNL     1       7.992  -7.481   8.604  1.00  0.00     0.131 A 
ATOM     68  C   UNL     1      10.403  -6.161   8.303  1.00  0.00     0.055 A 
ATOM     69  C   UNL     1       9.065  -8.130   7.988  1.00  0.00     0.041 A 
ATOM     70  F   UNL     1       6.822  -8.136   8.658  1.00  0.00    -0.206 F 
ATOM     71  C   UNL     1      10.273  -7.462   7.814  1.00  0.00     0.022 A 
BRANCH  68  72
ATOM     72  S   UNL     1      11.854  -5.165   7.862  1.00  0.00     0.124 S 
ATOM     73  O   UNL     1      11.242  -4.071   7.111  1.00  0.00    -0.237 OA
ATOM     74  O   UNL     1      12.405  -4.815   9.166  1.00  0.00    -0.237 OA
ATOM     75  O   UNL     1      12.668  -6.079   7.063  1.00  0.00    -0.744 OA
ENDBRANCH  68  72
ENDBRANCH  51  65
BRANCH  52  76
ATOM     76  C   UNL     1      -0.040  -1.307  12.431  1.00  0.00     0.023 A 
ATOM     77  C   UNL     1      -0.129  -0.753  13.718  1.00  0.00     0.031 A 
ATOM     78  C   UNL     1      -1.161  -1.198  11.589  1.00  0.00     0.131 A 
ATOM     79  C   UNL     1      -1.325  -0.150  14.140  1.00  0.00     0.055 A 
ATOM     80  C   UNL     1      -2.329  -0.550  11.994  1.00  0.00     0.041 A 
ATOM     81  F   UNL     1      -1.128  -1.704  10.345  1.00  0.00    -0.206 F 
ATOM     82  C   UNL     1      -2.420  -0.030  13.281  1.00  0.00     0.022 A 
BRANCH  79  83
ATOM     83  S   UNL     1      -1.455   0.414  15.859  1.00  0.00     0.124 S 
ATOM     84  O   UNL     1      -1.213  -0.821  16.596  1.00  0.00    -0.237 OA
ATOM     85  O   UNL     1      -0.401   1.421  15.929  1.00  0.00    -0.237 OA
ATOM     86  O   UNL     1      -2.818   0.935  15.944  1.00  0.00    -0.744 OA
ENDBRANCH  79  83
ENDBRANCH  52  76
BRANCH  64  87
ATOM     87  C   UNL     1       3.326  -7.064  14.511  1.00  0.00     0.023 A 
ATOM     88  C   UNL     1       2.179  -7.872  14.580  1.00  0.00     0.031 A 
ATOM     89  C   UNL     1       4.268  -7.160  15.552  1.00  0.00     0.131 A 
ATOM     90  C   UNL     1       1.973  -8.697  15.695  1.00  0.00     0.055 A 
ATOM     91  C   UNL     1       4.091  -8.035  16.623  1.00  0.00     0.041 A 
ATOM     92  F   UNL     1       5.380  -6.408  15.540  1.00  0.00    -0.206 F 
ATOM     93  C   UNL     1       2.932  -8.800  16.706  1.00  0.00     0.022 A 
BRANCH  90  94
ATOM     94  S   UNL     1       0.385  -9.556  15.859  1.00  0.00     0.124 S 
ATOM     95  O   UNL     1      -0.562  -8.446  15.835  1.00  0.00    -0.237 OA
ATOM     96  O   UNL     1       0.378 -10.426  14.687  1.00  0.00    -0.237 OA
ATOM     97  O   UNL     1       0.499 -10.247  17.142  1.00  0.00    -0.744 OA
ENDBRANCH  90  94
ENDBRANCH  64  87
ENDBRANCH  38  39
ENDBRANCH  30  33
ENDBRANCH  28  29
ENDBRANCH  27  28
ENDBRANCH   1  27
TORSDOF 19
