REMARK SMILES Cc1cccc(-c2c(C(=O)NCCCNC(=O)c3ccc(-c4c5nc(c(-c6cc(S(=O)(=O)[O-])ccc6F)c6ccc([nH]6)c(-c6cc(S(=O)(=O)[O-])ccc6F)c6nc(c(-c7cc(S(=O)(=O)[O-])ccc7F)c7ccc4[nH]7)C=C6)C=C5)cc3)nnn2Cc2cc(F)cc(F)c2)c1
REMARK SMILES IDX 13 1 12 2 11 3 9 4 10 5 8 7 7 8 83 9 81 10 82 11 6 12 1 13
REMARK SMILES IDX 2 14 3 15 93 16 4 17 5 18 84 19 85 20 86 21 92 22 87 23
REMARK SMILES IDX 90 24 88 25 89 26 91 27 14 28 15 29 16 30 17 32 18 33 19 34
REMARK SMILES IDX 80 35 20 36 79 37 21 38 22 39 23 40 73 41 24 42 78 43 72 44
REMARK SMILES IDX 74 45 25 46 77 47 71 48 70 49 26 51 58 52 38 53 57 54 39 55
REMARK SMILES IDX 42 56 56 57 75 58 40 59 41 60 55 62 76 63 43 64 27 65 28 66
REMARK SMILES IDX 36 67 29 68 35 69 37 70 34 71 30 72 31 73 32 74 33 75 59 76
REMARK SMILES IDX 60 77 68 78 61 79 67 80 69 81 66 82 62 83 63 84 64 85 65 86
REMARK SMILES IDX 44 87 45 88 53 89 46 90 52 91 54 92 51 93 47 94 48 95 49 96
REMARK SMILES IDX 50 97
REMARK H PARENT 11 6 15 31 74 50 42 61
REMARK Flexibility Score: inf
ROOT
ATOM      1  C   UNL     1      -1.367   0.151   2.692  1.00  0.00     0.042 C 
ENDROOT
BRANCH   1   2
ATOM      2  C   UNL     1      -2.853   0.284   2.398  1.00  0.00     0.118 C 
BRANCH   2   3
ATOM      3  N   UNL     1      -3.312   1.619   2.725  1.00  0.00    -0.351 N 
ATOM      4  C   UNL     1      -3.275   2.841   2.117  1.00  0.00     0.274 C 
ATOM      5  O   UNL     1      -3.784   3.744   2.796  1.00  0.00    -0.267 OA
ATOM      6  H   UNL     1      -3.762   1.653   3.600  1.00  0.00     0.163 HD
BRANCH   4   7
ATOM      7  C   UNL     1      -2.738   3.162   0.785  1.00  0.00     0.178 A 
ATOM      8  C   UNL     1      -1.889   2.587  -0.168  1.00  0.00     0.102 A 
ATOM      9  N   UNL     1      -1.872   3.528  -1.186  1.00  0.00    -0.239 N 
ATOM     10  N   UNL     1      -3.114   4.416   0.299  1.00  0.00    -0.124 NA
ATOM     11  N   UNL     1      -2.579   4.619  -0.884  1.00  0.00    -0.066 NA
BRANCH   8  12
ATOM     12  C   UNL     1      -1.114   1.359  -0.308  1.00  0.00     0.003 A 
ATOM     13  C   UNL     1       2.515   0.189  -0.037  1.00  0.00     0.044 C 
ATOM     14  C   UNL     1       1.040   0.205  -0.308  1.00  0.00    -0.050 A 
ATOM     15  C   UNL     1       0.393  -0.982  -0.676  1.00  0.00     0.003 A 
ATOM     16  C   UNL     1       0.279   1.372  -0.122  1.00  0.00     0.013 A 
ATOM     17  C   UNL     1      -0.984  -0.998  -0.890  1.00  0.00     0.001 A 
ATOM     18  C   UNL     1      -1.729   0.171  -0.726  1.00  0.00     0.010 A 
ENDBRANCH   8  12
BRANCH   9  19
ATOM     19  C   UNL     1      -1.177   3.500  -2.468  1.00  0.00     0.182 C 
BRANCH  19  20
ATOM     20  C   UNL     1      -1.594   2.372  -3.384  1.00  0.00    -0.021 A 
ATOM     21  C   UNL     1      -0.667   1.877  -4.316  1.00  0.00     0.045 A 
ATOM     22  C   UNL     1      -2.875   1.797  -3.353  1.00  0.00     0.045 A 
ATOM     23  C   UNL     1      -0.997   0.794  -5.129  1.00  0.00     0.126 A 
ATOM     24  C   UNL     1      -3.170   0.696  -4.154  1.00  0.00     0.126 A 
ATOM     25  F   UNL     1      -0.095   0.337  -6.007  1.00  0.00    -0.207 F 
ATOM     26  C   UNL     1      -2.237   0.182  -5.041  1.00  0.00     0.078 A 
ATOM     27  F   UNL     1      -4.372   0.114  -4.052  1.00  0.00    -0.207 F 
ENDBRANCH  19  20
ENDBRANCH   9  19
ENDBRANCH   4   7
ENDBRANCH   2   3
ENDBRANCH   1   2
BRANCH   1  28
ATOM     28  C   UNL     1      -1.004  -0.964   3.651  1.00  0.00     0.118 C 
BRANCH  28  29
ATOM     29  N   UNL     1      -0.405  -2.137   3.007  1.00  0.00    -0.352 N 
ATOM     30  C   UNL     1       0.155  -3.250   3.619  1.00  0.00     0.251 C 
ATOM     31  H   UNL     1      -0.399  -2.135   2.022  1.00  0.00     0.163 HD
ATOM     32  O   UNL     1       0.672  -4.155   2.987  1.00  0.00    -0.269 OA
BRANCH  30  33
ATOM     33  C   UNL     1       0.026  -3.336   5.091  1.00  0.00     0.039 A 
ATOM     34  C   UNL     1      -0.850  -4.300   5.599  1.00  0.00     0.014 A 
ATOM     35  C   UNL     1       0.423  -2.244   5.855  1.00  0.00     0.014 A 
ATOM     36  C   UNL     1      -1.538  -4.024   6.775  1.00  0.00     0.010 A 
ATOM     37  C   UNL     1      -0.363  -1.909   6.938  1.00  0.00     0.010 A 
ATOM     38  C   UNL     1      -1.390  -2.767   7.360  1.00  0.00    -0.014 A 
BRANCH  38  39
ATOM     39  C   UNL     1      -2.361  -2.199   8.295  1.00  0.00     0.031 A 
ATOM     40  C   UNL     1      -1.946  -1.819   9.663  1.00  0.00     0.074 A 
ATOM     41  C   UNL     1      -3.623  -1.930   7.888  1.00  0.00     0.049 A 
ATOM     42  N   UNL     1      -2.758  -1.604  10.641  1.00  0.00    -0.248 NA
ATOM     43  C   UNL     1      -0.547  -1.734  10.064  1.00  0.00     0.031 C 
ATOM     44  C   UNL     1      -4.610  -1.087   8.560  1.00  0.00     0.029 A 
ATOM     45  N   UNL     1      -4.351  -2.591   6.899  1.00  0.00    -0.354 N 
ATOM     46  C   UNL     1      -2.039  -1.047  11.673  1.00  0.00     0.074 A 
ATOM     47  C   UNL     1      -0.664  -1.268  11.309  1.00  0.00     0.031 C 
ATOM     48  C   UNL     1      -5.838  -1.456   8.167  1.00  0.00     0.029 A 
ATOM     49  C   UNL     1      -5.689  -2.636   7.338  1.00  0.00     0.049 A 
ATOM     50  H   UNL     1      -3.998  -2.956   6.056  1.00  0.00     0.167 HD
ATOM     51  C   UNL     1      -2.707  -0.339  12.628  1.00  0.00     0.034 A 
ATOM     52  C   UNL     1      -6.327  -3.825   7.541  1.00  0.00     0.034 A 
ATOM     53  C   UNL     1      -4.157  -0.570  12.536  1.00  0.00     0.049 A 
ATOM     54  C   UNL     1      -6.799  -4.027   8.965  1.00  0.00     0.074 A 
ATOM     55  C   UNL     1      -5.228   0.198  12.110  1.00  0.00     0.029 A 
ATOM     56  N   UNL     1      -4.645  -1.868  12.681  1.00  0.00    -0.354 N 
ATOM     57  N   UNL     1      -6.410  -3.302   9.978  1.00  0.00    -0.248 NA
ATOM     58  C   UNL     1      -7.734  -5.074   9.362  1.00  0.00     0.031 C 
ATOM     59  C   UNL     1      -6.348  -0.664  11.940  1.00  0.00     0.029 A 
ATOM     60  C   UNL     1      -5.969  -1.948  12.293  1.00  0.00     0.049 A 
ATOM     61  H   UNL     1      -4.116  -2.627  13.017  1.00  0.00     0.167 HD
ATOM     62  C   UNL     1      -6.981  -3.771  11.136  1.00  0.00     0.074 A 
ATOM     63  C   UNL     1      -7.827  -4.864  10.687  1.00  0.00     0.031 C 
ATOM     64  C   UNL     1      -6.686  -3.221  12.356  1.00  0.00     0.034 A 
BRANCH  51  65
ATOM     65  C   UNL     1      -2.094   0.778  13.469  1.00  0.00     0.023 A 
ATOM     66  C   UNL     1      -2.955   1.716  14.085  1.00  0.00     0.031 A 
ATOM     67  C   UNL     1      -0.720   1.058  13.629  1.00  0.00     0.131 A 
ATOM     68  C   UNL     1      -2.461   2.875  14.722  1.00  0.00     0.055 A 
ATOM     69  C   UNL     1      -0.228   2.215  14.247  1.00  0.00     0.041 A 
ATOM     70  F   UNL     1       0.241   0.226  13.226  1.00  0.00    -0.206 F 
ATOM     71  C   UNL     1      -1.098   3.140  14.787  1.00  0.00     0.022 A 
BRANCH  68  72
ATOM     72  S   UNL     1      -3.626   4.059  15.450  1.00  0.00     0.124 S 
ATOM     73  O   UNL     1      -4.391   4.493  14.286  1.00  0.00    -0.237 OA
ATOM     74  O   UNL     1      -4.335   3.236  16.424  1.00  0.00    -0.237 OA
ATOM     75  O   UNL     1      -2.753   5.080  16.029  1.00  0.00    -0.744 OA
ENDBRANCH  68  72
ENDBRANCH  51  65
BRANCH  52  76
ATOM     76  C   UNL     1      -5.881  -4.889   6.598  1.00  0.00     0.023 A 
ATOM     77  C   UNL     1      -6.011  -4.606   5.220  1.00  0.00     0.031 A 
ATOM     78  C   UNL     1      -4.992  -5.903   6.977  1.00  0.00     0.131 A 
ATOM     79  C   UNL     1      -5.131  -5.182   4.295  1.00  0.00     0.055 A 
ATOM     80  C   UNL     1      -4.176  -6.542   6.033  1.00  0.00     0.041 A 
ATOM     81  F   UNL     1      -4.798  -6.193   8.272  1.00  0.00    -0.206 F 
ATOM     82  C   UNL     1      -4.209  -6.150   4.692  1.00  0.00     0.022 A 
BRANCH  79  83
ATOM     83  S   UNL     1      -5.029  -4.425   2.645  1.00  0.00     0.124 S 
ATOM     84  O   UNL     1      -6.274  -4.867   2.028  1.00  0.00    -0.237 OA
ATOM     85  O   UNL     1      -4.942  -2.999   2.963  1.00  0.00    -0.237 OA
ATOM     86  O   UNL     1      -3.809  -4.992   2.077  1.00  0.00    -0.744 OA
ENDBRANCH  79  83
ENDBRANCH  52  76
BRANCH  64  87
ATOM     87  C   UNL     1      -7.087  -3.769  13.719  1.00  0.00     0.023 A 
ATOM     88  C   UNL     1      -7.645  -5.040  13.925  1.00  0.00     0.031 A 
ATOM     89  C   UNL     1      -6.848  -3.022  14.903  1.00  0.00     0.131 A 
ATOM     90  C   UNL     1      -8.008  -5.488  15.212  1.00  0.00     0.055 A 
ATOM     91  C   UNL     1      -7.141  -3.497  16.187  1.00  0.00     0.041 A 
ATOM     92  F   UNL     1      -6.306  -1.796  14.872  1.00  0.00    -0.206 F 
ATOM     93  C   UNL     1      -7.740  -4.733  16.348  1.00  0.00     0.022 A 
BRANCH  90  94
ATOM     94  S   UNL     1      -8.893  -7.064  15.357  1.00  0.00     0.124 S 
ATOM     95  O   UNL     1     -10.111  -6.798  14.597  1.00  0.00    -0.237 OA
ATOM     96  O   UNL     1      -7.959  -8.005  14.747  1.00  0.00    -0.237 OA
ATOM     97  O   UNL     1      -9.083  -7.223  16.798  1.00  0.00    -0.744 OA
ENDBRANCH  90  94
ENDBRANCH  64  87
ENDBRANCH  38  39
ENDBRANCH  30  33
ENDBRANCH  28  29
ENDBRANCH   1  28
TORSDOF 16
