REMARK SMILES Cc1ccc(NC(=O)C[C@@H]2C[NH2+]CCO2)c(C(=O)NCCCNC(=O)c2ccc(-c3c4nc(c(-c5cc(S(=O)(=O)[O-])ccc5F)c5ccc([nH]5)c(-c5cc(S(=O)(=O)[O-])ccc5F)c5nc(c(-c6cc(S(=O)(=O)[O-])ccc6F)c6ccc3[nH]6)C=C5)C=C4)cc2)c1
REMARK SMILES IDX 21 1 20 2 19 3 17 4 18 5 16 7 1 8 2 9 3 10 89 11 4 12 5 13
REMARK SMILES IDX 6 14 7 15 8 17 9 18 10 19 11 20 15 21 12 22 14 23 13 24
REMARK SMILES IDX 22 27 23 28 24 29 25 31 26 32 27 33 88 34 28 35 87 36 29 37
REMARK SMILES IDX 30 38 31 39 81 40 32 41 86 42 80 43 82 44 33 45 85 46 79 47
REMARK SMILES IDX 78 48 34 50 66 51 46 52 65 53 47 54 50 55 64 56 83 57 48 58
REMARK SMILES IDX 49 59 63 61 84 62 51 63 35 64 36 65 44 66 37 67 43 68 45 69
REMARK SMILES IDX 42 70 38 71 39 72 40 73 41 74 67 75 68 76 76 77 69 78 75 79
REMARK SMILES IDX 77 80 74 81 70 82 71 83 72 84 73 85 52 86 53 87 61 88 54 89
REMARK SMILES IDX 60 90 62 91 59 92 55 93 56 94 57 95 58 96
REMARK H PARENT 19 6 6 16 12 25 12 26 23 30 82 49 50 60
REMARK Flexibility Score: inf
ROOT
ATOM      1  C   UNL     1       1.316   4.129  -0.312  1.00  0.00     0.042 C 
ENDROOT
BRANCH   1   2
ATOM      2  C   UNL     1       0.212   3.841   0.709  1.00  0.00     0.118 C 
BRANCH   2   3
ATOM      3  N   UNL     1      -1.040   3.451   0.066  1.00  0.00    -0.352 N 
ATOM      4  C   UNL     1      -1.616   2.217  -0.137  1.00  0.00     0.253 C 
ATOM      5  O   UNL     1      -2.776   2.177  -0.548  1.00  0.00    -0.269 OA
ATOM      6  H   UNL     1      -1.567   4.205  -0.284  1.00  0.00     0.163 HD
BRANCH   4   7
ATOM      7  C   UNL     1      -0.907   0.937   0.184  1.00  0.00     0.063 A 
ATOM      8  C   UNL     1       2.664  -0.402   0.101  1.00  0.00     0.044 C 
ATOM      9  C   UNL     1       1.192  -0.316   0.370  1.00  0.00    -0.050 A 
ATOM     10  C   UNL     1       0.498  -1.373   0.944  1.00  0.00     0.005 A 
ATOM     11  C   UNL     1       0.477   0.824  -0.006  1.00  0.00     0.019 A 
ATOM     12  C   UNL     1      -0.894  -1.318   1.053  1.00  0.00     0.027 A 
ATOM     13  C   UNL     1      -1.620  -0.216   0.581  1.00  0.00     0.054 A 
BRANCH  13  14
ATOM     14  N   UNL     1      -3.027  -0.262   0.419  1.00  0.00    -0.325 N 
ATOM     15  C   UNL     1      -3.861  -1.277   0.035  1.00  0.00     0.227 C 
ATOM     16  H   UNL     1      -3.485   0.587   0.618  1.00  0.00     0.169 HD
ATOM     17  O   UNL     1      -5.072  -1.049  -0.066  1.00  0.00    -0.275 OA
BRANCH  15  18
ATOM     18  C   UNL     1      -3.365  -2.673  -0.289  1.00  0.00     0.138 C 
BRANCH  18  19
ATOM     19  C   UNL     1      -2.572  -2.834  -1.598  1.00  0.00     0.182 C 
ATOM     20  C   UNL     1      -1.728  -4.134  -1.513  1.00  0.00     0.293 C 
ATOM     21  O   UNL     1      -1.728  -1.708  -1.846  1.00  0.00    -0.366 OA
ATOM     22  N   UNL     1      -0.824  -4.339  -2.662  1.00  0.00    -0.342 N 
ATOM     23  C   UNL     1      -0.881  -1.878  -2.981  1.00  0.00     0.222 C 
ATOM     24  C   UNL     1      -0.003  -3.121  -2.816  1.00  0.00     0.289 C 
ATOM     25  H   UNL     1      -1.370  -4.497  -3.509  1.00  0.00     0.346 HD
ATOM     26  H   UNL     1      -0.228  -5.152  -2.506  1.00  0.00     0.346 HD
ENDBRANCH  18  19
ENDBRANCH  15  18
ENDBRANCH  13  14
ENDBRANCH   4   7
ENDBRANCH   2   3
ENDBRANCH   1   2
BRANCH   1  27
ATOM     27  C   UNL     1       1.350   5.581  -0.772  1.00  0.00     0.118 C 
BRANCH  27  28
ATOM     28  N   UNL     1       2.655   6.211  -0.574  1.00  0.00    -0.352 N 
ATOM     29  C   UNL     1       3.064   7.468  -0.982  1.00  0.00     0.251 C 
ATOM     30  H   UNL     1       3.325   5.674  -0.091  1.00  0.00     0.163 HD
ATOM     31  O   UNL     1       4.183   7.899  -0.750  1.00  0.00    -0.269 OA
BRANCH  29  32
ATOM     32  C   UNL     1       2.046   8.336  -1.608  1.00  0.00     0.039 A 
ATOM     33  C   UNL     1       1.643   9.463  -0.886  1.00  0.00     0.014 A 
ATOM     34  C   UNL     1       1.314   7.874  -2.699  1.00  0.00     0.014 A 
ATOM     35  C   UNL     1       0.382  10.000  -1.122  1.00  0.00     0.010 A 
ATOM     36  C   UNL     1       0.027   8.351  -2.870  1.00  0.00     0.010 A 
ATOM     37  C   UNL     1      -0.460   9.371  -2.041  1.00  0.00    -0.014 A 
BRANCH  37  38
ATOM     38  C   UNL     1      -1.898   9.620  -2.081  1.00  0.00     0.031 A 
ATOM     39  C   UNL     1      -2.506  10.369  -3.199  1.00  0.00     0.074 A 
ATOM     40  C   UNL     1      -2.692   9.159  -1.089  1.00  0.00     0.049 A 
ATOM     41  N   UNL     1      -3.608  11.037  -3.114  1.00  0.00    -0.248 NA
ATOM     42  C   UNL     1      -1.876  10.464  -4.509  1.00  0.00     0.031 C 
ATOM     43  C   UNL     1      -4.152   9.106  -1.074  1.00  0.00     0.029 A 
ATOM     44  N   UNL     1      -2.320   8.890   0.226  1.00  0.00    -0.354 N 
ATOM     45  C   UNL     1      -3.973  11.408  -4.386  1.00  0.00     0.074 A 
ATOM     46  C   UNL     1      -2.831  11.081  -5.211  1.00  0.00     0.031 C 
ATOM     47  C   UNL     1      -4.570   9.087   0.200  1.00  0.00     0.029 A 
ATOM     48  C   UNL     1      -3.402   9.261   1.044  1.00  0.00     0.049 A 
ATOM     49  H   UNL     1      -1.462   8.511   0.526  1.00  0.00     0.167 HD
ATOM     50  C   UNL     1      -5.247  11.825  -4.633  1.00  0.00     0.034 A 
ATOM     51  C   UNL     1      -3.265  10.199   2.024  1.00  0.00     0.034 A 
ATOM     52  C   UNL     1      -6.051  11.880  -3.415  1.00  0.00     0.049 A 
ATOM     53  C   UNL     1      -4.195  11.379   1.866  1.00  0.00     0.074 A 
ATOM     54  C   UNL     1      -6.981  11.014  -2.863  1.00  0.00     0.029 A 
ATOM     55  N   UNL     1      -5.753  12.816  -2.431  1.00  0.00    -0.354 N 
ATOM     56  N   UNL     1      -4.814  11.678   0.756  1.00  0.00    -0.248 NA
ATOM     57  C   UNL     1      -4.488  12.323   2.938  1.00  0.00     0.031 C 
ATOM     58  C   UNL     1      -7.199  11.403  -1.517  1.00  0.00     0.029 A 
ATOM     59  C   UNL     1      -6.428  12.524  -1.261  1.00  0.00     0.049 A 
ATOM     60  H   UNL     1      -5.145  13.581  -2.551  1.00  0.00     0.167 HD
ATOM     61  C   UNL     1      -5.558  12.818   0.936  1.00  0.00     0.074 A 
ATOM     62  C   UNL     1      -5.337  13.168   2.328  1.00  0.00     0.031 C 
ATOM     63  C   UNL     1      -6.282  13.372  -0.084  1.00  0.00     0.034 A 
BRANCH  50  64
ATOM     64  C   UNL     1      -5.840  11.872  -6.024  1.00  0.00     0.023 A 
ATOM     65  C   UNL     1      -7.202  11.557  -6.212  1.00  0.00     0.031 A 
ATOM     66  C   UNL     1      -5.119  12.163  -7.197  1.00  0.00     0.131 A 
ATOM     67  C   UNL     1      -7.753  11.421  -7.500  1.00  0.00     0.055 A 
ATOM     68  C   UNL     1      -5.644  11.960  -8.480  1.00  0.00     0.041 A 
ATOM     69  F   UNL     1      -3.892  12.702  -7.148  1.00  0.00    -0.206 F 
ATOM     70  C   UNL     1      -6.965  11.569  -8.637  1.00  0.00     0.022 A 
BRANCH  67  71
ATOM     71  S   UNL     1      -9.523  11.062  -7.672  1.00  0.00     0.124 S 
ATOM     72  O   UNL     1      -9.664   9.816  -6.925  1.00  0.00    -0.237 OA
ATOM     73  O   UNL     1     -10.136  12.245  -7.078  1.00  0.00    -0.237 OA
ATOM     74  O   UNL     1      -9.704  10.936  -9.118  1.00  0.00    -0.744 OA
ENDBRANCH  67  71
ENDBRANCH  50  64
BRANCH  51  75
ATOM     75  C   UNL     1      -1.901  10.235   2.624  1.00  0.00     0.023 A 
ATOM     76  C   UNL     1      -1.413   9.028   3.172  1.00  0.00     0.031 A 
ATOM     77  C   UNL     1      -0.974  11.239   2.321  1.00  0.00     0.131 A 
ATOM     78  C   UNL     1      -0.035   8.780   3.223  1.00  0.00     0.055 A 
ATOM     79  C   UNL     1       0.404  11.017   2.452  1.00  0.00     0.041 A 
ATOM     80  F   UNL     1      -1.373  12.399   1.778  1.00  0.00    -0.206 F 
ATOM     81  C   UNL     1       0.880   9.767   2.856  1.00  0.00     0.022 A 
BRANCH  78  82
ATOM     82  S   UNL     1       0.541   7.076   3.487  1.00  0.00     0.124 S 
ATOM     83  O   UNL     1       0.932   7.093   4.891  1.00  0.00    -0.237 OA
ATOM     84  O   UNL     1      -0.637   6.273   3.167  1.00  0.00    -0.237 OA
ATOM     85  O   UNL     1       1.632   6.933   2.525  1.00  0.00    -0.744 OA
ENDBRANCH  78  82
ENDBRANCH  51  75
BRANCH  63  86
ATOM     86  C   UNL     1      -6.996  14.710  -0.054  1.00  0.00     0.023 A 
ATOM     87  C   UNL     1      -6.738  15.711   0.895  1.00  0.00     0.031 A 
ATOM     88  C   UNL     1      -7.936  15.056  -1.060  1.00  0.00     0.131 A 
ATOM     89  C   UNL     1      -7.439  16.932   0.881  1.00  0.00     0.055 A 
ATOM     90  C   UNL     1      -8.575  16.298  -1.117  1.00  0.00     0.041 A 
ATOM     91  F   UNL     1      -8.268  14.204  -2.040  1.00  0.00    -0.206 F 
ATOM     92  C   UNL     1      -8.342  17.242  -0.132  1.00  0.00     0.022 A 
BRANCH  89  93
ATOM     93  S   UNL     1      -7.181  18.089   2.252  1.00  0.00     0.124 S 
ATOM     94  O   UNL     1      -7.703  17.331   3.386  1.00  0.00    -0.237 OA
ATOM     95  O   UNL     1      -5.735  18.283   2.233  1.00  0.00    -0.237 OA
ATOM     96  O   UNL     1      -7.970  19.259   1.872  1.00  0.00    -0.744 OA
ENDBRANCH  89  93
ENDBRANCH  63  86
ENDBRANCH  37  38
ENDBRANCH  29  32
ENDBRANCH  27  28
ENDBRANCH   1  27
TORSDOF 16
