REMARK SMILES CC(C)Cc1cc2c(cc1Cl)C=C(C(=O)NCCCNC(=O)c1ccc(-c3c4nc(c(-c5cc(S(=O)(=O)[O-])ccc5F)c5ccc([nH]5)c(-c5cc(S(=O)(=O)[O-])ccc5F)c5nc(c(-c6cc(S(=O)(=O)[O-])ccc6F)c6ccc3[nH]6)C=C5)C=C4)cc1)[C@@H](C(F)(F)F)O2
REMARK SMILES IDX 18 1 17 2 16 3 14 4 15 5 13 7 5 8 6 9 10 10 7 11 9 12 11 13
REMARK SMILES IDX 8 14 91 15 12 16 86 17 4 18 2 19 1 20 3 21 87 22 88 23 89 24
REMARK SMILES IDX 90 25 19 26 20 27 21 28 22 30 23 31 24 32 85 33 25 34 84 35
REMARK SMILES IDX 26 36 27 37 28 38 78 39 29 40 83 41 77 42 79 43 30 44 82 45
REMARK SMILES IDX 76 46 75 47 31 49 63 50 43 51 62 52 44 53 47 54 61 55 80 56
REMARK SMILES IDX 45 57 46 58 60 60 81 61 48 62 32 63 33 64 41 65 34 66 40 67
REMARK SMILES IDX 42 68 39 69 35 70 36 71 37 72 38 73 64 74 65 75 73 76 66 77
REMARK SMILES IDX 72 78 74 79 71 80 67 81 68 82 69 83 70 84 49 85 50 86 58 87
REMARK SMILES IDX 51 88 57 89 59 90 56 91 52 92 53 93 54 94 55 95
REMARK H PARENT 16 6 20 29 79 48 47 59
REMARK Flexibility Score: inf
ROOT
ATOM      1  C   UNL     1      -3.916   2.559   7.557  1.00  0.00     0.042 C 
ENDROOT
BRANCH   1   2
ATOM      2  C   UNL     1      -4.717   3.166   6.417  1.00  0.00     0.118 C 
BRANCH   2   3
ATOM      3  N   UNL     1      -4.051   4.324   5.839  1.00  0.00    -0.352 N 
ATOM      4  C   UNL     1      -3.389   4.622   4.699  1.00  0.00     0.251 C 
ATOM      5  O   UNL     1      -2.984   5.787   4.615  1.00  0.00    -0.270 OA
ATOM      6  H   UNL     1      -4.094   5.101   6.443  1.00  0.00     0.163 HD
BRANCH   4   7
ATOM      7  C   UNL     1      -3.130   3.671   3.581  1.00  0.00     0.067 C 
ATOM      8  C   UNL     1      -1.372   1.498  -0.623  1.00  0.00    -0.025 A 
ATOM      9  C   UNL     1      -1.953   1.026   0.564  1.00  0.00     0.052 A 
ATOM     10  C   UNL     1      -1.210   2.884  -0.784  1.00  0.00     0.045 A 
ATOM     11  C   UNL     1      -2.325   1.910   1.571  1.00  0.00     0.128 A 
ATOM     12  C   UNL     1      -1.573   3.768   0.239  1.00  0.00     0.032 A 
ATOM     13  Cl  UNL     1      -0.549   3.563  -2.229  1.00  0.00    -0.084 Cl
ATOM     14  C   UNL     1      -2.119   3.280   1.427  1.00  0.00     0.019 A 
ATOM     15  O   UNL     1      -2.838   1.357   2.708  1.00  0.00    -0.475 OA
ATOM     16  C   UNL     1      -2.420   4.161   2.548  1.00  0.00     0.025 C 
ATOM     17  C   UNL     1      -3.621   2.251   3.546  1.00  0.00     0.314 C 
BRANCH   8  18
ATOM     18  C   UNL     1      -0.882   0.481  -1.628  1.00  0.00     0.040 C 
BRANCH  18  19
ATOM     19  C   UNL     1       0.642   0.244  -1.563  1.00  0.00    -0.013 C 
ATOM     20  C   UNL     1       1.106  -0.257  -0.191  1.00  0.00     0.008 C 
ATOM     21  C   UNL     1       1.055  -0.760  -2.640  1.00  0.00     0.008 C 
ENDBRANCH  18  19
ENDBRANCH   8  18
BRANCH  17  22
ATOM     22  C   UNL     1      -5.106   2.157   3.143  1.00  0.00     0.429 C 
ATOM     23  F   UNL     1      -5.615   0.944   3.473  1.00  0.00    -0.167 F 
ATOM     24  F   UNL     1      -5.875   3.080   3.768  1.00  0.00    -0.167 F 
ATOM     25  F   UNL     1      -5.300   2.329   1.815  1.00  0.00    -0.167 F 
ENDBRANCH  17  22
ENDBRANCH   4   7
ENDBRANCH   2   3
ENDBRANCH   1   2
BRANCH   1  26
ATOM     26  C   UNL     1      -4.034   3.367   8.842  1.00  0.00     0.118 C 
BRANCH  26  27
ATOM     27  N   UNL     1      -5.391   3.343   9.383  1.00  0.00    -0.352 N 
ATOM     28  C   UNL     1      -5.895   2.728  10.504  1.00  0.00     0.251 C 
ATOM     29  H   UNL     1      -6.053   3.851   8.859  1.00  0.00     0.163 HD
ATOM     30  O   UNL     1      -7.112   2.626  10.639  1.00  0.00    -0.269 OA
BRANCH  28  31
ATOM     31  C   UNL     1      -4.979   2.177  11.523  1.00  0.00     0.039 A 
ATOM     32  C   UNL     1      -3.813   2.862  11.860  1.00  0.00     0.014 A 
ATOM     33  C   UNL     1      -5.284   0.968  12.155  1.00  0.00     0.014 A 
ATOM     34  C   UNL     1      -2.859   2.246  12.655  1.00  0.00     0.010 A 
ATOM     35  C   UNL     1      -4.375   0.408  13.059  1.00  0.00     0.010 A 
ATOM     36  C   UNL     1      -3.130   1.016  13.277  1.00  0.00    -0.014 A 
BRANCH  36  37
ATOM     37  C   UNL     1      -2.096   0.425  14.167  1.00  0.00     0.031 A 
ATOM     38  C   UNL     1      -1.465  -0.904  13.854  1.00  0.00     0.074 A 
ATOM     39  C   UNL     1      -1.671   1.146  15.225  1.00  0.00     0.049 A 
ATOM     40  N   UNL     1      -0.492  -1.515  14.479  1.00  0.00    -0.248 NA
ATOM     41  C   UNL     1      -1.992  -1.649  12.700  1.00  0.00     0.031 C 
ATOM     42  C   UNL     1      -2.220   2.445  15.620  1.00  0.00     0.029 A 
ATOM     43  N   UNL     1      -0.662   0.926  16.128  1.00  0.00    -0.354 N 
ATOM     44  C   UNL     1      -0.306  -2.722  13.814  1.00  0.00     0.074 A 
ATOM     45  C   UNL     1      -1.287  -2.772  12.754  1.00  0.00     0.031 C 
ATOM     46  C   UNL     1      -1.486   2.947  16.620  1.00  0.00     0.029 A 
ATOM     47  C   UNL     1      -0.472   1.971  17.005  1.00  0.00     0.049 A 
ATOM     48  H   UNL     1      -0.126   0.101  16.148  1.00  0.00     0.167 HD
ATOM     49  C   UNL     1       0.609  -3.689  14.062  1.00  0.00     0.034 A 
ATOM     50  C   UNL     1       0.412   2.130  18.011  1.00  0.00     0.034 A 
ATOM     51  C   UNL     1       1.601  -3.604  15.105  1.00  0.00     0.049 A 
ATOM     52  C   UNL     1       1.410   1.033  18.268  1.00  0.00     0.074 A 
ATOM     53  C   UNL     1       2.598  -4.514  15.409  1.00  0.00     0.029 A 
ATOM     54  N   UNL     1       1.729  -2.557  16.007  1.00  0.00    -0.354 N 
ATOM     55  N   UNL     1       1.600  -0.080  17.600  1.00  0.00    -0.248 NA
ATOM     56  C   UNL     1       2.310   1.205  19.416  1.00  0.00     0.031 C 
ATOM     57  C   UNL     1       3.284  -4.051  16.532  1.00  0.00     0.029 A 
ATOM     58  C   UNL     1       2.768  -2.814  16.886  1.00  0.00     0.049 A 
ATOM     59  H   UNL     1       1.165  -1.750  16.020  1.00  0.00     0.167 HD
ATOM     60  C   UNL     1       2.645  -0.738  18.240  1.00  0.00     0.074 A 
ATOM     61  C   UNL     1       3.071   0.122  19.326  1.00  0.00     0.031 C 
ATOM     62  C   UNL     1       3.191  -1.948  17.962  1.00  0.00     0.034 A 
BRANCH  49  63
ATOM     63  C   UNL     1       0.610  -4.930  13.202  1.00  0.00     0.023 A 
ATOM     64  C   UNL     1       0.357  -6.186  13.786  1.00  0.00     0.031 A 
ATOM     65  C   UNL     1       0.997  -4.891  11.851  1.00  0.00     0.131 A 
ATOM     66  C   UNL     1       0.532  -7.354  13.032  1.00  0.00     0.055 A 
ATOM     67  C   UNL     1       1.129  -6.056  11.092  1.00  0.00     0.041 A 
ATOM     68  F   UNL     1       1.249  -3.719  11.247  1.00  0.00    -0.206 F 
ATOM     69  C   UNL     1       0.910  -7.295  11.687  1.00  0.00     0.022 A 
BRANCH  66  70
ATOM     70  S   UNL     1       0.344  -8.994  13.784  1.00  0.00     0.124 S 
ATOM     71  O   UNL     1      -0.701  -9.586  12.951  1.00  0.00    -0.237 OA
ATOM     72  O   UNL     1       1.677  -9.563  13.611  1.00  0.00    -0.237 OA
ATOM     73  O   UNL     1      -0.048  -8.707  15.159  1.00  0.00    -0.744 OA
ENDBRANCH  66  70
ENDBRANCH  49  63
BRANCH  50  74
ATOM     74  C   UNL     1       0.400   3.397  18.799  1.00  0.00     0.023 A 
ATOM     75  C   UNL     1      -0.751   3.801  19.501  1.00  0.00     0.031 A 
ATOM     76  C   UNL     1       1.491   4.281  18.761  1.00  0.00     0.131 A 
ATOM     77  C   UNL     1      -0.817   5.085  20.056  1.00  0.00     0.055 A 
ATOM     78  C   UNL     1       1.452   5.528  19.389  1.00  0.00     0.041 A 
ATOM     79  F   UNL     1       2.608   3.948  18.096  1.00  0.00    -0.206 F 
ATOM     80  C   UNL     1       0.285   5.944  20.021  1.00  0.00     0.022 A 
BRANCH  77  81
ATOM     81  S   UNL     1      -2.385   5.738  20.696  1.00  0.00     0.124 S 
ATOM     82  O   UNL     1      -2.066   5.971  22.101  1.00  0.00    -0.237 OA
ATOM     83  O   UNL     1      -2.564   6.938  19.881  1.00  0.00    -0.237 OA
ATOM     84  O   UNL     1      -3.338   4.665  20.433  1.00  0.00    -0.744 OA
ENDBRANCH  77  81
ENDBRANCH  50  74
BRANCH  62  85
ATOM     85  C   UNL     1       4.312  -2.447  18.840  1.00  0.00     0.023 A 
ATOM     86  C   UNL     1       5.586  -2.685  18.289  1.00  0.00     0.031 A 
ATOM     87  C   UNL     1       4.082  -2.826  20.174  1.00  0.00     0.131 A 
ATOM     88  C   UNL     1       6.568  -3.323  19.056  1.00  0.00     0.055 A 
ATOM     89  C   UNL     1       5.080  -3.416  20.950  1.00  0.00     0.041 A 
ATOM     90  F   UNL     1       2.881  -2.630  20.740  1.00  0.00    -0.206 F 
ATOM     91  C   UNL     1       6.325  -3.681  20.387  1.00  0.00     0.022 A 
BRANCH  88  92
ATOM     92  S   UNL     1       8.161  -3.798  18.330  1.00  0.00     0.124 S 
ATOM     93  O   UNL     1       9.102  -3.022  19.135  1.00  0.00    -0.237 OA
ATOM     94  O   UNL     1       8.186  -5.240  18.558  1.00  0.00    -0.237 OA
ATOM     95  O   UNL     1       8.049  -3.385  16.935  1.00  0.00    -0.744 OA
ENDBRANCH  88  92
ENDBRANCH  62  85
ENDBRANCH  36  37
ENDBRANCH  28  31
ENDBRANCH  26  27
ENDBRANCH   1  26
TORSDOF 16
