REMARK SMILES CCC(=O)N1[C@H](C(=O)NCCCNC(=O)c2ccc(-c3c4nc(c(-c5cc(S(=O)(=O)[O-])ccc5F)c5ccc([nH]5)c(-c5cc(S(=O)(=O)[O-])ccc5F)c5nc(c(-c6cc(S(=O)(=O)[O-])ccc6F)c6ccc3[nH]6)C=C5)C=C4)cc2)Cc2c([nH]c3ccccc23)[C@@H]1CC(C)C
REMARK SMILES IDX 11 1 10 2 9 3 7 4 8 5 6 7 5 8 89 9 79 10 81 11 80 12 82 13
REMARK SMILES IDX 88 14 83 15 87 17 84 18 86 19 85 20 3 21 4 22 2 23 1 24
REMARK SMILES IDX 90 25 91 26 92 27 93 28 12 29 13 30 14 31 15 33 16 34 17 35
REMARK SMILES IDX 78 36 18 37 77 38 19 39 20 40 21 41 71 42 22 43 76 44 70 45
REMARK SMILES IDX 72 46 23 47 75 48 69 49 68 50 24 52 56 53 36 54 55 55 37 56
REMARK SMILES IDX 40 57 54 58 73 59 38 60 39 61 53 63 74 64 41 65 25 66 26 67
REMARK SMILES IDX 34 68 27 69 33 70 35 71 32 72 28 73 29 74 30 75 31 76 57 77
REMARK SMILES IDX 58 78 66 79 59 80 65 81 67 82 64 83 60 84 61 85 62 86 63 87
REMARK SMILES IDX 42 88 43 89 51 90 44 91 50 92 52 93 49 94 45 95 46 96 47 97
REMARK SMILES IDX 48 98
REMARK H PARENT 9 6 82 16 13 32 72 51 40 62
REMARK Flexibility Score: inf
ROOT
ATOM      1  C   UNL     1       6.122   0.601   4.843  1.00  0.00     0.042 C 
ENDROOT
BRANCH   1   2
ATOM      2  C   UNL     1       6.509   0.851   3.350  1.00  0.00     0.117 C 
BRANCH   2   3
ATOM      3  N   UNL     1       5.795   0.420   2.102  1.00  0.00    -0.354 N 
ATOM      4  C   UNL     1       4.736   0.521   1.255  1.00  0.00     0.243 C 
ATOM      5  O   UNL     1       4.866  -0.171   0.225  1.00  0.00    -0.273 OA
ATOM      6  H   UNL     1       6.374  -0.270   1.704  1.00  0.00     0.163 HD
BRANCH   4   7
ATOM      7  C   UNL     1       3.421   1.328   1.345  1.00  0.00     0.179 C 
ATOM      8  N   UNL     1       2.444   0.842   2.343  1.00  0.00    -0.322 N 
ATOM      9  C   UNL     1       2.899   0.858   3.720  1.00  0.00     0.133 C 
ATOM     10  C   UNL     1       3.732   2.822   1.489  1.00  0.00     0.073 C 
ATOM     11  C   UNL     1       3.682   2.188   3.903  1.00  0.00     0.042 A 
ATOM     12  C   UNL     1       4.097   3.063   2.897  1.00  0.00    -0.015 A 
ATOM     13  N   UNL     1       4.059   2.832   5.074  1.00  0.00    -0.356 N 
ATOM     14  C   UNL     1       5.168   3.841   3.410  1.00  0.00     0.003 A 
ATOM     15  C   UNL     1       5.177   3.620   4.786  1.00  0.00     0.046 A 
ATOM     16  H   UNL     1       3.618   2.748   5.950  1.00  0.00     0.166 HD
ATOM     17  C   UNL     1       6.269   4.481   2.794  1.00  0.00     0.010 A 
ATOM     18  C   UNL     1       6.265   4.002   5.588  1.00  0.00     0.026 A 
ATOM     19  C   UNL     1       7.419   4.709   3.558  1.00  0.00     0.001 A 
ATOM     20  C   UNL     1       7.416   4.466   4.930  1.00  0.00     0.002 A 
BRANCH   8  21
ATOM     21  C   UNL     1       1.078   0.724   2.139  1.00  0.00     0.223 C 
ATOM     22  O   UNL     1       0.252   1.211   2.916  1.00  0.00    -0.275 OA
BRANCH  21  23
ATOM     23  C   UNL     1       0.605  -0.273   1.097  1.00  0.00     0.097 C 
ATOM     24  C   UNL     1       0.766   0.110  -0.353  1.00  0.00     0.014 C 
ENDBRANCH  21  23
ENDBRANCH   8  21
BRANCH   9  25
ATOM     25  C   UNL     1       3.371  -0.640   4.118  1.00  0.00     0.034 C 
BRANCH  25  26
ATOM     26  C   UNL     1       4.079  -1.899   3.335  1.00  0.00    -0.015 C 
ATOM     27  C   UNL     1       5.574  -2.171   2.978  1.00  0.00     0.007 C 
ATOM     28  C   UNL     1       3.738  -3.141   4.212  1.00  0.00     0.007 C 
ENDBRANCH  25  26
ENDBRANCH   9  25
ENDBRANCH   4   7
ENDBRANCH   2   3
ENDBRANCH   1   2
BRANCH   1  29
ATOM     29  C   UNL     1       6.555  -0.559   5.738  1.00  0.00     0.118 C 
BRANCH  29  30
ATOM     30  N   UNL     1       7.981  -0.732   5.785  1.00  0.00    -0.352 N 
ATOM     31  C   UNL     1       8.705  -1.393   6.749  1.00  0.00     0.251 C 
ATOM     32  H   UNL     1       8.496  -0.334   5.046  1.00  0.00     0.163 HD
ATOM     33  O   UNL     1       9.909  -1.221   6.821  1.00  0.00    -0.269 OA
BRANCH  31  34
ATOM     34  C   UNL     1       8.003  -2.267   7.721  1.00  0.00     0.039 A 
ATOM     35  C   UNL     1       8.274  -2.098   9.079  1.00  0.00     0.014 A 
ATOM     36  C   UNL     1       7.138  -3.281   7.297  1.00  0.00     0.014 A 
ATOM     37  C   UNL     1       7.689  -2.955  10.012  1.00  0.00     0.010 A 
ATOM     38  C   UNL     1       6.505  -4.098   8.239  1.00  0.00     0.010 A 
ATOM     39  C   UNL     1       6.801  -3.966   9.604  1.00  0.00    -0.014 A 
BRANCH  39  40
ATOM     40  C   UNL     1       6.272  -4.925  10.615  1.00  0.00     0.031 A 
ATOM     41  C   UNL     1       6.703  -6.371  10.578  1.00  0.00     0.074 A 
ATOM     42  C   UNL     1       5.475  -4.477  11.605  1.00  0.00     0.049 A 
ATOM     43  N   UNL     1       6.465  -7.329  11.437  1.00  0.00    -0.248 NA
ATOM     44  C   UNL     1       7.492  -6.800   9.413  1.00  0.00     0.031 C 
ATOM     45  C   UNL     1       4.974  -3.105  11.723  1.00  0.00     0.029 A 
ATOM     46  N   UNL     1       4.977  -5.106  12.719  1.00  0.00    -0.354 N 
ATOM     47  C   UNL     1       7.092  -8.463  10.928  1.00  0.00     0.074 A 
ATOM     48  C   UNL     1       7.638  -8.096   9.640  1.00  0.00     0.031 C 
ATOM     49  C   UNL     1       4.300  -2.980  12.878  1.00  0.00     0.029 A 
ATOM     50  C   UNL     1       4.285  -4.267  13.566  1.00  0.00     0.049 A 
ATOM     51  H   UNL     1       5.103  -6.066  12.896  1.00  0.00     0.167 HD
ATOM     52  C   UNL     1       7.240  -9.684  11.499  1.00  0.00     0.034 A 
ATOM     53  C   UNL     1       3.720  -4.508  14.767  1.00  0.00     0.034 A 
ATOM     54  C   UNL     1       6.684 -10.034  12.782  1.00  0.00     0.049 A 
ATOM     55  C   UNL     1       3.857  -5.894  15.355  1.00  0.00     0.074 A 
ATOM     56  C   UNL     1       6.758 -11.239  13.459  1.00  0.00     0.029 A 
ATOM     57  N   UNL     1       5.948  -9.173  13.587  1.00  0.00    -0.354 N 
ATOM     58  N   UNL     1       4.490  -6.940  14.874  1.00  0.00    -0.248 NA
ATOM     59  C   UNL     1       3.223  -6.121  16.658  1.00  0.00     0.031 C 
ATOM     60  C   UNL     1       6.013 -11.126  14.638  1.00  0.00     0.029 A 
ATOM     61  C   UNL     1       5.546  -9.826  14.741  1.00  0.00     0.049 A 
ATOM     62  H   UNL     1       5.742  -8.236  13.368  1.00  0.00     0.167 HD
ATOM     63  C   UNL     1       4.362  -7.936  15.839  1.00  0.00     0.074 A 
ATOM     64  C   UNL     1       3.624  -7.349  16.939  1.00  0.00     0.031 C 
ATOM     65  C   UNL     1       4.806  -9.221  15.823  1.00  0.00     0.034 A 
BRANCH  52  66
ATOM     66  C   UNL     1       8.024 -10.722  10.727  1.00  0.00     0.023 A 
ATOM     67  C   UNL     1       9.381 -10.528  10.409  1.00  0.00     0.031 A 
ATOM     68  C   UNL     1       7.408 -11.902  10.276  1.00  0.00     0.131 A 
ATOM     69  C   UNL     1      10.053 -11.457   9.600  1.00  0.00     0.055 A 
ATOM     70  C   UNL     1       8.108 -12.865   9.544  1.00  0.00     0.041 A 
ATOM     71  F   UNL     1       6.110 -12.135  10.526  1.00  0.00    -0.206 F 
ATOM     72  C   UNL     1       9.434 -12.639   9.189  1.00  0.00     0.022 A 
BRANCH  69  73
ATOM     73  S   UNL     1      11.699 -11.026   8.970  1.00  0.00     0.124 S 
ATOM     74  O   UNL     1      11.413  -9.813   8.207  1.00  0.00    -0.237 OA
ATOM     75  O   UNL     1      12.470 -10.845  10.195  1.00  0.00    -0.237 OA
ATOM     76  O   UNL     1      12.072 -12.187   8.164  1.00  0.00    -0.744 OA
ENDBRANCH  69  73
ENDBRANCH  52  66
BRANCH  53  77
ATOM     77  C   UNL     1       2.985  -3.437  15.508  1.00  0.00     0.023 A 
ATOM     78  C   UNL     1       3.374  -3.048  16.802  1.00  0.00     0.031 A 
ATOM     79  C   UNL     1       1.823  -2.851  14.974  1.00  0.00     0.131 A 
ATOM     80  C   UNL     1       2.570  -2.169  17.544  1.00  0.00     0.055 A 
ATOM     81  C   UNL     1       1.067  -1.919  15.688  1.00  0.00     0.041 A 
ATOM     82  F   UNL     1       1.399  -3.181  13.743  1.00  0.00    -0.206 F 
ATOM     83  C   UNL     1       1.427  -1.590  16.991  1.00  0.00     0.022 A 
BRANCH  80  84
ATOM     84  S   UNL     1       2.961  -1.904  19.297  1.00  0.00     0.124 S 
ATOM     85  O   UNL     1       2.975  -3.270  19.806  1.00  0.00    -0.237 OA
ATOM     86  O   UNL     1       4.254  -1.233  19.220  1.00  0.00    -0.237 OA
ATOM     87  O   UNL     1       1.855  -1.072  19.769  1.00  0.00    -0.744 OA
ENDBRANCH  80  84
ENDBRANCH  53  77
BRANCH  65  88
ATOM     88  C   UNL     1       4.538 -10.047  17.059  1.00  0.00     0.023 A 
ATOM     89  C   UNL     1       3.230 -10.335  17.485  1.00  0.00     0.031 A 
ATOM     90  C   UNL     1       5.606 -10.508  17.850  1.00  0.00     0.131 A 
ATOM     91  C   UNL     1       3.021 -10.974  18.715  1.00  0.00     0.055 A 
ATOM     92  C   UNL     1       5.392 -11.221  19.030  1.00  0.00     0.041 A 
ATOM     93  F   UNL     1       6.877 -10.263  17.494  1.00  0.00    -0.206 F 
ATOM     94  C   UNL     1       4.093 -11.437  19.481  1.00  0.00     0.022 A 
BRANCH  91  95
ATOM     95  S   UNL     1       1.332 -11.049  19.372  1.00  0.00     0.124 S 
ATOM     96  O   UNL     1       0.945  -9.642  19.370  1.00  0.00    -0.237 OA
ATOM     97  O   UNL     1       0.655 -11.896  18.395  1.00  0.00    -0.237 OA
ATOM     98  O   UNL     1       1.505 -11.644  20.695  1.00  0.00    -0.744 OA
ENDBRANCH  91  95
ENDBRANCH  65  88
ENDBRANCH  39  40
ENDBRANCH  31  34
ENDBRANCH  29  30
ENDBRANCH   1  29
TORSDOF 17
