REMARK SMILES C[C@@H]1CC[C@@H](C(=O)NCCCNC(=O)c2ccc(-c3c4nc(c(-c5cc(S(=O)(=O)[O-])ccc5F)c5ccc([nH]5)c(-c5cc(S(=O)(=O)[O-])ccc5F)c5nc(c(-c6cc(S(=O)(=O)[O-])ccc6F)c6ccc3[nH]6)C=C5)C=C4)cc2)[C@H]2C(=O)N(c3ccccc3)C(=O)[C@@H]21
REMARK SMILES IDX 11 1 10 2 9 3 8 4 6 5 7 6 5 8 1 9 2 10 3 11 90 12 4 13 78 14
REMARK SMILES IDX 88 15 79 16 81 17 89 18 80 19 82 20 83 21 87 22 84 23 86 24
REMARK SMILES IDX 85 25 12 26 13 27 14 29 15 30 16 31 77 32 17 33 76 34 18 35
REMARK SMILES IDX 19 36 20 37 70 38 21 39 75 40 69 41 71 42 22 43 74 44 68 45
REMARK SMILES IDX 67 46 23 48 55 49 35 50 54 51 36 52 39 53 53 54 72 55 37 56
REMARK SMILES IDX 38 57 52 59 73 60 40 61 24 62 25 63 33 64 26 65 32 66 34 67
REMARK SMILES IDX 31 68 27 69 28 70 29 71 30 72 56 73 57 74 65 75 58 76 64 77
REMARK SMILES IDX 66 78 63 79 59 80 60 81 61 82 62 83 41 84 42 85 50 86 43 87
REMARK SMILES IDX 49 88 51 89 48 90 44 91 45 92 46 93 47 94
REMARK H PARENT 8 7 12 28 71 47 39 58
REMARK Flexibility Score: inf
ROOT
ATOM      1  C   UNL     1      -2.847   3.255   3.687  1.00  0.00     0.118 C 
ENDROOT
BRANCH   1   2
ATOM      2  C   UNL     1      -1.833   2.375   2.986  1.00  0.00     0.042 C 
BRANCH   2   3
ATOM      3  C   UNL     1      -0.394   2.663   3.392  1.00  0.00     0.117 C 
BRANCH   3   4
ATOM      4  N   UNL     1       0.050   1.839   4.496  1.00  0.00    -0.356 N 
ATOM      5  C   UNL     1       0.964   0.847   4.611  1.00  0.00     0.223 C 
ATOM      6  O   UNL     1       1.247   0.525   5.771  1.00  0.00    -0.275 OA
ATOM      7  H   UNL     1      -0.410   2.044   5.342  1.00  0.00     0.163 HD
BRANCH   5   8
ATOM      8  C   UNL     1       1.649   0.115   3.443  1.00  0.00     0.092 C 
ATOM      9  C   UNL     1       1.467  -0.482  -0.562  1.00  0.00     0.008 C 
ATOM     10  C   UNL     1       0.883   0.460   0.490  1.00  0.00    -0.001 C 
ATOM     11  C   UNL     1       1.988   1.350   1.117  1.00  0.00     0.005 C 
ATOM     12  C   UNL     1       0.039  -0.220   1.554  1.00  0.00     0.095 C 
ATOM     13  C   UNL     1       2.536   0.953   2.506  1.00  0.00     0.014 C 
ATOM     14  C   UNL     1       0.821  -0.881   2.651  1.00  0.00     0.104 C 
ATOM     15  C   UNL     1      -0.986  -1.273   1.216  1.00  0.00     0.237 C 
ATOM     16  C   UNL     1      -0.256  -1.671   3.353  1.00  0.00     0.238 C 
ATOM     17  N   UNL     1      -1.226  -1.958   2.402  1.00  0.00    -0.250 N 
ATOM     18  O   UNL     1      -1.542  -1.345   0.136  1.00  0.00    -0.274 OA
ATOM     19  O   UNL     1      -0.150  -2.076   4.501  1.00  0.00    -0.274 OA
BRANCH  17  20
ATOM     20  C   UNL     1      -2.339  -2.820   2.618  1.00  0.00     0.052 A 
ATOM     21  C   UNL     1      -2.978  -3.465   1.548  1.00  0.00     0.027 A 
ATOM     22  C   UNL     1      -2.859  -3.025   3.906  1.00  0.00     0.027 A 
ATOM     23  C   UNL     1      -4.095  -4.280   1.756  1.00  0.00     0.002 A 
ATOM     24  C   UNL     1      -3.992  -3.821   4.112  1.00  0.00     0.002 A 
ATOM     25  C   UNL     1      -4.609  -4.450   3.036  1.00  0.00     0.000 A 
ENDBRANCH  17  20
ENDBRANCH   5   8
ENDBRANCH   3   4
ENDBRANCH   2   3
ENDBRANCH   1   2
BRANCH   1  26
ATOM     26  N   UNL     1      -2.776   4.638   3.233  1.00  0.00    -0.352 N 
ATOM     27  C   UNL     1      -3.689   5.390   2.531  1.00  0.00     0.251 C 
ATOM     28  H   UNL     1      -1.944   5.108   3.465  1.00  0.00     0.163 HD
ATOM     29  O   UNL     1      -3.331   6.460   2.046  1.00  0.00    -0.269 OA
BRANCH  27  30
ATOM     30  C   UNL     1      -5.076   4.906   2.340  1.00  0.00     0.039 A 
ATOM     31  C   UNL     1      -5.739   5.178   1.141  1.00  0.00     0.014 A 
ATOM     32  C   UNL     1      -5.731   4.194   3.346  1.00  0.00     0.014 A 
ATOM     33  C   UNL     1      -7.029   4.682   0.933  1.00  0.00     0.010 A 
ATOM     34  C   UNL     1      -6.954   3.591   3.089  1.00  0.00     0.010 A 
ATOM     35  C   UNL     1      -7.633   3.852   1.891  1.00  0.00    -0.014 A 
BRANCH  35  36
ATOM     36  C   UNL     1      -8.994   3.288   1.700  1.00  0.00     0.031 A 
ATOM     37  C   UNL     1     -10.082   3.619   2.688  1.00  0.00     0.074 A 
ATOM     38  C   UNL     1      -9.233   2.433   0.688  1.00  0.00     0.049 A 
ATOM     39  N   UNL     1     -11.304   3.159   2.766  1.00  0.00    -0.248 NA
ATOM     40  C   UNL     1      -9.727   4.559   3.763  1.00  0.00     0.031 C 
ATOM     41  C   UNL     1      -8.249   2.005  -0.309  1.00  0.00     0.029 A 
ATOM     42  N   UNL     1     -10.377   1.768   0.330  1.00  0.00    -0.354 N 
ATOM     43  C   UNL     1     -11.853   3.738   3.906  1.00  0.00     0.074 A 
ATOM     44  C   UNL     1     -10.797   4.499   4.537  1.00  0.00     0.031 C 
ATOM     45  C   UNL     1      -8.845   1.191  -1.193  1.00  0.00     0.029 A 
ATOM     46  C   UNL     1     -10.235   0.992  -0.797  1.00  0.00     0.049 A 
ATOM     47  H   UNL     1     -11.221   1.839   0.832  1.00  0.00     0.167 HD
ATOM     48  C   UNL     1     -13.128   3.674   4.365  1.00  0.00     0.034 A 
ATOM     49  C   UNL     1     -11.126   0.206  -1.433  1.00  0.00     0.034 A 
ATOM     50  C   UNL     1     -14.166   2.916   3.713  1.00  0.00     0.049 A 
ATOM     51  C   UNL     1     -12.526   0.108  -0.884  1.00  0.00     0.074 A 
ATOM     52  C   UNL     1     -15.502   2.805   4.055  1.00  0.00     0.029 A 
ATOM     53  N   UNL     1     -13.980   2.126   2.583  1.00  0.00    -0.354 N 
ATOM     54  N   UNL     1     -13.045   0.693   0.171  1.00  0.00    -0.248 NA
ATOM     55  C   UNL     1     -13.462  -0.752  -1.618  1.00  0.00     0.031 C 
ATOM     56  C   UNL     1     -16.104   1.893   3.180  1.00  0.00     0.029 A 
ATOM     57  C   UNL     1     -15.168   1.500   2.236  1.00  0.00     0.049 A 
ATOM     58  H   UNL     1     -13.128   2.027   2.099  1.00  0.00     0.167 HD
ATOM     59  C   UNL     1     -14.380   0.299   0.206  1.00  0.00     0.074 A 
ATOM     60  C   UNL     1     -14.584  -0.566  -0.939  1.00  0.00     0.031 C 
ATOM     61  C   UNL     1     -15.350   0.628   1.097  1.00  0.00     0.034 A 
BRANCH  48  62
ATOM     62  C   UNL     1     -13.439   4.427   5.641  1.00  0.00     0.023 A 
ATOM     63  C   UNL     1     -13.232   5.816   5.746  1.00  0.00     0.031 A 
ATOM     64  C   UNL     1     -13.868   3.744   6.793  1.00  0.00     0.131 A 
ATOM     65  C   UNL     1     -13.333   6.450   6.993  1.00  0.00     0.055 A 
ATOM     66  C   UNL     1     -14.074   4.403   8.008  1.00  0.00     0.041 A 
ATOM     67  F   UNL     1     -14.066   2.417   6.768  1.00  0.00    -0.206 F 
ATOM     68  C   UNL     1     -13.781   5.759   8.120  1.00  0.00     0.022 A 
BRANCH  65  69
ATOM     69  S   UNL     1     -12.667   8.130   7.160  1.00  0.00     0.124 S 
ATOM     70  O   UNL     1     -11.284   7.943   6.724  1.00  0.00    -0.237 OA
ATOM     71  O   UNL     1     -13.521   8.899   6.263  1.00  0.00    -0.237 OA
ATOM     72  O   UNL     1     -12.827   8.422   8.583  1.00  0.00    -0.744 OA
ENDBRANCH  65  69
ENDBRANCH  48  62
BRANCH  49  73
ATOM     73  C   UNL     1     -10.731  -0.530  -2.668  1.00  0.00     0.023 A 
ATOM     74  C   UNL     1     -11.313  -0.216  -3.906  1.00  0.00     0.031 A 
ATOM     75  C   UNL     1      -9.778  -1.563  -2.630  1.00  0.00     0.131 A 
ATOM     76  C   UNL     1     -10.965  -0.950  -5.050  1.00  0.00     0.055 A 
ATOM     77  C   UNL     1      -9.397  -2.256  -3.781  1.00  0.00     0.041 A 
ATOM     78  F   UNL     1      -9.188  -1.901  -1.473  1.00  0.00    -0.206 F 
ATOM     79  C   UNL     1      -9.999  -1.957  -4.999  1.00  0.00     0.022 A 
BRANCH  76  80
ATOM     80  S   UNL     1     -11.845  -0.611  -6.600  1.00  0.00     0.124 S 
ATOM     81  O   UNL     1     -13.225  -0.899  -6.226  1.00  0.00    -0.237 OA
ATOM     82  O   UNL     1     -11.521   0.793  -6.832  1.00  0.00    -0.237 OA
ATOM     83  O   UNL     1     -11.244  -1.551  -7.544  1.00  0.00    -0.744 OA
ENDBRANCH  76  80
ENDBRANCH  49  73
BRANCH  61  84
ATOM     84  C   UNL     1     -16.735   0.086   0.835  1.00  0.00     0.023 A 
ATOM     85  C   UNL     1     -17.019  -1.289   0.900  1.00  0.00     0.031 A 
ATOM     86  C   UNL     1     -17.785   0.964   0.510  1.00  0.00     0.131 A 
ATOM     87  C   UNL     1     -18.306  -1.751   0.587  1.00  0.00     0.055 A 
ATOM     88  C   UNL     1     -19.079   0.504   0.268  1.00  0.00     0.041 A 
ATOM     89  F   UNL     1     -17.570   2.287   0.430  1.00  0.00    -0.206 F 
ATOM     90  C   UNL     1     -19.343  -0.862   0.292  1.00  0.00     0.022 A 
BRANCH  87  91
ATOM     91  S   UNL     1     -18.585  -3.540   0.475  1.00  0.00     0.124 S 
ATOM     92  O   UNL     1     -17.625  -3.932  -0.552  1.00  0.00    -0.237 OA
ATOM     93  O   UNL     1     -18.288  -3.989   1.831  1.00  0.00    -0.237 OA
ATOM     94  O   UNL     1     -19.990  -3.644   0.082  1.00  0.00    -0.744 OA
ENDBRANCH  87  91
ENDBRANCH  61  84
ENDBRANCH  35  36
ENDBRANCH  27  30
ENDBRANCH   1  26
TORSDOF 14
