REMARK SMILES CO[C@@H]1C[C@@H](C(=O)NCCCNC(=O)c2ccc(-c3c4nc(c(-c5cc(S(=O)(=O)[O-])ccc5F)c5ccc([nH]5)c(-c5cc(S(=O)(=O)[O-])ccc5F)c5nc(c(-c6cc(S(=O)(=O)[O-])ccc6F)c6ccc3[nH]6)C=C5)C=C4)cc2)N(C(=O)CSc2cccs2)C1
REMARK SMILES IDX 9 1 8 2 6 3 7 4 5 6 3 7 4 8 88 9 78 10 2 11 1 12 79 13 80 14
REMARK SMILES IDX 81 15 82 16 83 17 84 18 87 19 85 20 86 21 10 22 11 23 12 24
REMARK SMILES IDX 13 25 14 27 15 28 16 29 77 30 17 31 76 32 18 33 19 34 20 35
REMARK SMILES IDX 70 36 21 37 75 38 69 39 71 40 22 41 74 42 68 43 67 44 23 46
REMARK SMILES IDX 55 47 35 48 54 49 36 50 39 51 53 52 72 53 37 54 38 55 52 57
REMARK SMILES IDX 73 58 40 59 24 60 25 61 33 62 26 63 32 64 34 65 31 66 27 67
REMARK SMILES IDX 28 68 29 69 30 70 56 71 57 72 65 73 58 74 64 75 66 76 63 77
REMARK SMILES IDX 59 78 60 79 61 80 62 81 41 82 42 83 50 84 43 85 49 86 51 87
REMARK SMILES IDX 48 88 44 89 45 90 46 91 47 92
REMARK H PARENT 8 5 12 26 71 45 39 56
REMARK Flexibility Score: inf
ROOT
ATOM      1  C   UNL     1       4.036   4.728  -0.185  1.00  0.00     0.117 C 
ENDROOT
BRANCH   1   2
ATOM      2  N   UNL     1       3.687   4.318   1.163  1.00  0.00    -0.354 N 
ATOM      3  C   UNL     1       2.611   3.652   1.658  1.00  0.00     0.242 C 
ATOM      4  O   UNL     1       2.660   3.320   2.847  1.00  0.00    -0.273 OA
ATOM      5  H   UNL     1       4.353   4.569   1.844  1.00  0.00     0.163 HD
BRANCH   3   6
ATOM      6  C   UNL     1       1.468   3.149   0.767  1.00  0.00     0.177 C 
ATOM      7  C   UNL     1       1.038   1.725  -1.126  1.00  0.00     0.139 C 
ATOM      8  C   UNL     1       1.978   1.885   0.058  1.00  0.00     0.069 C 
ATOM      9  C   UNL     1       0.735   3.176  -1.524  1.00  0.00     0.152 C 
ATOM     10  N   UNL     1       0.948   3.978  -0.321  1.00  0.00    -0.327 N 
BRANCH   7  11
ATOM     11  O   UNL     1      -0.172   1.056  -0.759  1.00  0.00    -0.380 OA
ATOM     12  C   UNL     1       0.024  -0.308  -0.401  1.00  0.00     0.195 C 
ENDBRANCH   7  11
BRANCH  10  13
ATOM     13  C   UNL     1       0.331   5.213  -0.224  1.00  0.00     0.233 C 
ATOM     14  O   UNL     1      -0.251   5.700  -1.198  1.00  0.00    -0.274 OA
BRANCH  13  15
ATOM     15  C   UNL     1       0.445   6.006   1.070  1.00  0.00     0.175 C 
BRANCH  15  16
ATOM     16  S   UNL     1      -0.889   5.585   2.220  1.00  0.00    -0.105 SA
BRANCH  16  17
ATOM     17  C   UNL     1      -2.211   6.468   1.478  1.00  0.00     0.060 A 
ATOM     18  C   UNL     1      -3.245   5.902   0.767  1.00  0.00     0.027 A 
ATOM     19  S   UNL     1      -2.355   8.168   1.572  1.00  0.00    -0.137 S 
ATOM     20  C   UNL     1      -4.142   6.883   0.252  1.00  0.00     0.013 A 
ATOM     21  C   UNL     1      -3.766   8.161   0.605  1.00  0.00     0.066 A 
ENDBRANCH  16  17
ENDBRANCH  15  16
ENDBRANCH  13  15
ENDBRANCH  10  13
ENDBRANCH   3   6
ENDBRANCH   1   2
BRANCH   1  22
ATOM     22  C   UNL     1       3.814   6.214  -0.444  1.00  0.00     0.042 C 
BRANCH  22  23
ATOM     23  C   UNL     1       4.390   7.137   0.625  1.00  0.00     0.118 C 
BRANCH  23  24
ATOM     24  N   UNL     1       5.838   7.049   0.707  1.00  0.00    -0.352 N 
ATOM     25  C   UNL     1       6.780   8.028   0.507  1.00  0.00     0.251 C 
ATOM     26  H   UNL     1       6.194   6.161   0.938  1.00  0.00     0.163 HD
ATOM     27  O   UNL     1       7.960   7.713   0.397  1.00  0.00    -0.269 OA
BRANCH  25  28
ATOM     28  C   UNL     1       6.368   9.446   0.407  1.00  0.00     0.039 A 
ATOM     29  C   UNL     1       6.926  10.242  -0.596  1.00  0.00     0.014 A 
ATOM     30  C   UNL     1       5.457   9.997   1.314  1.00  0.00     0.014 A 
ATOM     31  C   UNL     1       6.537  11.578  -0.719  1.00  0.00     0.010 A 
ATOM     32  C   UNL     1       5.022  11.310   1.151  1.00  0.00     0.010 A 
ATOM     33  C   UNL     1       5.566  12.118   0.140  1.00  0.00    -0.014 A 
BRANCH  33  34
ATOM     34  C   UNL     1       5.134  13.534   0.017  1.00  0.00     0.031 A 
ATOM     35  C   UNL     1       5.443  14.511   1.119  1.00  0.00     0.074 A 
ATOM     36  C   UNL     1       4.422  13.928  -1.057  1.00  0.00     0.049 A 
ATOM     37  N   UNL     1       5.095  15.767   1.236  1.00  0.00    -0.248 NA
ATOM     38  C   UNL     1       6.223  13.995   2.253  1.00  0.00     0.031 C 
ATOM     39  C   UNL     1       4.029  13.064  -2.173  1.00  0.00     0.029 A 
ATOM     40  N   UNL     1       3.893  15.151  -1.382  1.00  0.00    -0.354 N 
ATOM     41  C   UNL     1       5.600  16.188   2.462  1.00  0.00     0.074 A 
ATOM     42  C   UNL     1       6.228  15.035   3.073  1.00  0.00     0.031 C 
ATOM     43  C   UNL     1       3.336  13.789  -3.066  1.00  0.00     0.029 A 
ATOM     44  C   UNL     1       3.200  15.156  -2.571  1.00  0.00     0.049 A 
ATOM     45  H   UNL     1       3.998  15.950  -0.818  1.00  0.00     0.167 HD
ATOM     46  C   UNL     1       5.562  17.425   3.018  1.00  0.00     0.034 A 
ATOM     47  C   UNL     1       2.524  16.146  -3.186  1.00  0.00     0.034 A 
ATOM     48  C   UNL     1       4.945  18.568   2.389  1.00  0.00     0.049 A 
ATOM     49  C   UNL     1       2.485  17.510  -2.546  1.00  0.00     0.074 A 
ATOM     50  C   UNL     1       4.897  19.877   2.834  1.00  0.00     0.029 A 
ATOM     51  N   UNL     1       4.261  18.537   1.180  1.00  0.00    -0.354 N 
ATOM     52  N   UNL     1       3.008  17.904  -1.407  1.00  0.00    -0.248 NA
ATOM     53  C   UNL     1       1.774  18.565  -3.280  1.00  0.00     0.031 C 
ATOM     54  C   UNL     1       4.137  20.624   1.927  1.00  0.00     0.029 A 
ATOM     55  C   UNL     1       3.766  19.797   0.879  1.00  0.00     0.049 A 
ATOM     56  H   UNL     1       4.144  17.736   0.619  1.00  0.00     0.167 HD
ATOM     57  C   UNL     1       2.712  19.260  -1.304  1.00  0.00     0.074 A 
ATOM     58  C   UNL     1       1.977  19.617  -2.500  1.00  0.00     0.031 C 
ATOM     59  C   UNL     1       3.024  20.134  -0.313  1.00  0.00     0.034 A 
BRANCH  46  60
ATOM     60  C   UNL     1       6.185  17.590   4.383  1.00  0.00     0.023 A 
ATOM     61  C   UNL     1       7.559  17.384   4.598  1.00  0.00     0.031 A 
ATOM     62  C   UNL     1       5.389  17.922   5.494  1.00  0.00     0.131 A 
ATOM     63  C   UNL     1       8.082  17.434   5.899  1.00  0.00     0.055 A 
ATOM     64  C   UNL     1       5.930  18.050   6.775  1.00  0.00     0.041 A 
ATOM     65  F   UNL     1       4.068  18.112   5.356  1.00  0.00    -0.206 F 
ATOM     66  C   UNL     1       7.281  17.790   6.986  1.00  0.00     0.022 A 
BRANCH  63  67
ATOM     67  S   UNL     1       9.789  16.885   6.168  1.00  0.00     0.124 S 
ATOM     68  O   UNL     1       9.735  15.507   5.685  1.00  0.00    -0.237 OA
ATOM     69  O   UNL     1      10.554  17.819   5.351  1.00  0.00    -0.237 OA
ATOM     70  O   UNL     1       9.971  17.024   7.611  1.00  0.00    -0.744 OA
ENDBRANCH  63  67
ENDBRANCH  46  60
BRANCH  47  71
ATOM     71  C   UNL     1       1.819  15.890  -4.473  1.00  0.00     0.023 A 
ATOM     72  C   UNL     1       2.239  16.507  -5.662  1.00  0.00     0.031 A 
ATOM     73  C   UNL     1       0.692  15.052  -4.525  1.00  0.00     0.131 A 
ATOM     74  C   UNL     1       1.512  16.310  -6.846  1.00  0.00     0.055 A 
ATOM     75  C   UNL     1      -0.001  14.822  -5.715  1.00  0.00     0.041 A 
ATOM     76  F   UNL     1       0.254  14.434  -3.417  1.00  0.00    -0.206 F 
ATOM     77  C   UNL     1       0.401  15.463  -6.883  1.00  0.00     0.022 A 
BRANCH  74  78
ATOM     78  S   UNL     1       1.997  17.237  -8.328  1.00  0.00     0.124 S 
ATOM     79  O   UNL     1       1.885  18.616  -7.867  1.00  0.00    -0.237 OA
ATOM     80  O   UNL     1       3.352  16.747  -8.561  1.00  0.00    -0.237 OA
ATOM     81  O   UNL     1       1.010  16.828  -9.324  1.00  0.00    -0.744 OA
ENDBRANCH  74  78
ENDBRANCH  47  71
BRANCH  59  82
ATOM     82  C   UNL     1       2.605  21.569  -0.511  1.00  0.00     0.023 A 
ATOM     83  C   UNL     1       1.253  21.954  -0.497  1.00  0.00     0.031 A 
ATOM     84  C   UNL     1       3.576  22.562  -0.733  1.00  0.00     0.131 A 
ATOM     85  C   UNL     1       0.905  23.289  -0.753  1.00  0.00     0.055 A 
ATOM     86  C   UNL     1       3.227  23.898  -0.933  1.00  0.00     0.041 A 
ATOM     87  F   UNL     1       4.881  22.248  -0.758  1.00  0.00    -0.206 F 
ATOM     88  C   UNL     1       1.884  24.266  -0.956  1.00  0.00     0.022 A 
BRANCH  85  89
ATOM     89  S   UNL     1      -0.850  23.720  -0.901  1.00  0.00     0.124 S 
ATOM     90  O   UNL     1      -1.282  22.863  -2.001  1.00  0.00    -0.237 OA
ATOM     91  O   UNL     1      -1.369  23.373   0.418  1.00  0.00    -0.237 OA
ATOM     92  O   UNL     1      -0.829  25.150  -1.201  1.00  0.00    -0.744 OA
ENDBRANCH  85  89
ENDBRANCH  59  82
ENDBRANCH  33  34
ENDBRANCH  25  28
ENDBRANCH  23  24
ENDBRANCH  22  23
ENDBRANCH   1  22
TORSDOF 18
