REMARK SMILES C[C@@H]1SC[C@H](C(=O)NCCCNC(=O)c2ccc(-c3c4nc(c(-c5cc(S(=O)(=O)[O-])ccc5F)c5ccc([nH]5)c(-c5cc(S(=O)(=O)[O-])ccc5F)c5nc(c(-c6cc(S(=O)(=O)[O-])ccc6F)c6ccc3[nH]6)C=C5)C=C4)cc2)N1C(=O)N(C)[C@@H](C)Cc1cccs1
REMARK SMILES IDX 9 1 8 2 6 3 7 4 5 6 1 7 2 8 3 9 78 10 4 11 79 12 80 13 81 14
REMARK SMILES IDX 82 15 83 16 84 17 85 18 86 19 87 20 90 21 88 22 89 23 10 24
REMARK SMILES IDX 11 25 12 26 13 27 14 29 15 30 16 31 77 32 17 33 76 34 18 35
REMARK SMILES IDX 19 36 20 37 70 38 21 39 75 40 69 41 71 42 22 43 74 44 68 45
REMARK SMILES IDX 67 46 23 48 55 49 35 50 54 51 36 52 39 53 53 54 72 55 37 56
REMARK SMILES IDX 38 57 52 59 73 60 40 61 24 62 25 63 33 64 26 65 32 66 34 67
REMARK SMILES IDX 31 68 27 69 28 70 29 71 30 72 56 73 57 74 65 75 58 76 64 77
REMARK SMILES IDX 66 78 63 79 59 80 60 81 61 82 62 83 41 84 42 85 50 86 43 87
REMARK SMILES IDX 49 88 51 89 48 90 44 91 45 92 46 93 47 94
REMARK H PARENT 8 5 12 28 71 47 39 58
REMARK Flexibility Score: inf
ROOT
ATOM      1  C   UNL     1       3.634   3.565   1.214  1.00  0.00     0.117 C 
ENDROOT
BRANCH   1   2
ATOM      2  N   UNL     1       2.738   4.401   1.985  1.00  0.00    -0.354 N 
ATOM      3  C   UNL     1       1.391   4.336   2.152  1.00  0.00     0.243 C 
ATOM      4  O   UNL     1       0.860   5.288   2.738  1.00  0.00    -0.273 OA
ATOM      5  H   UNL     1       3.178   5.138   2.468  1.00  0.00     0.163 HD
BRANCH   3   6
ATOM      6  C   UNL     1       0.513   3.266   1.468  1.00  0.00     0.187 C 
ATOM      7  C   UNL     1       1.330   0.499  -0.763  1.00  0.00     0.043 C 
ATOM      8  C   UNL     1       0.355   1.175   0.201  1.00  0.00     0.142 C 
ATOM      9  S   UNL     1      -0.576   2.433  -0.748  1.00  0.00    -0.135 SA
ATOM     10  N   UNL     1       0.953   1.849   1.360  1.00  0.00    -0.300 N 
ATOM     11  C   UNL     1       0.237   3.805   0.070  1.00  0.00     0.107 C 
BRANCH  10  12
ATOM     12  C   UNL     1       1.467   1.318   2.527  1.00  0.00     0.321 C 
ATOM     13  O   UNL     1       1.624   2.075   3.492  1.00  0.00    -0.248 OA
BRANCH  12  14
ATOM     14  N   UNL     1       1.893   0.014   2.650  1.00  0.00    -0.325 N 
ATOM     15  C   UNL     1       1.552  -1.126   1.819  1.00  0.00     0.149 C 
BRANCH  14  16
ATOM     16  C   UNL     1       2.690  -0.341   3.862  1.00  0.00     0.088 C 
ATOM     17  C   UNL     1       4.016   0.430   3.948  1.00  0.00     0.031 C 
BRANCH  16  18
ATOM     18  C   UNL     1       1.891  -0.253   5.190  1.00  0.00     0.071 C 
BRANCH  18  19
ATOM     19  C   UNL     1       0.571  -0.978   5.107  1.00  0.00     0.007 A 
ATOM     20  C   UNL     1       0.339  -2.339   5.093  1.00  0.00     0.015 A 
ATOM     21  S   UNL     1      -0.890  -0.091   4.964  1.00  0.00    -0.149 S 
ATOM     22  C   UNL     1      -1.037  -2.650   4.888  1.00  0.00     0.012 A 
ATOM     23  C   UNL     1      -1.813  -1.518   4.791  1.00  0.00     0.065 A 
ENDBRANCH  18  19
ENDBRANCH  16  18
ENDBRANCH  14  16
ENDBRANCH  12  14
ENDBRANCH  10  12
ENDBRANCH   3   6
ENDBRANCH   1   2
BRANCH   1  24
ATOM     24  C   UNL     1       4.442   4.395   0.227  1.00  0.00     0.042 C 
BRANCH  24  25
ATOM     25  C   UNL     1       5.364   5.412   0.888  1.00  0.00     0.118 C 
BRANCH  25  26
ATOM     26  N   UNL     1       6.449   4.785   1.631  1.00  0.00    -0.352 N 
ATOM     27  C   UNL     1       7.809   4.883   1.430  1.00  0.00     0.251 C 
ATOM     28  H   UNL     1       6.172   4.210   2.381  1.00  0.00     0.163 HD
ATOM     29  O   UNL     1       8.574   4.136   2.021  1.00  0.00    -0.269 OA
BRANCH  27  30
ATOM     30  C   UNL     1       8.320   5.882   0.467  1.00  0.00     0.039 A 
ATOM     31  C   UNL     1       9.251   5.489  -0.498  1.00  0.00     0.014 A 
ATOM     32  C   UNL     1       7.842   7.194   0.494  1.00  0.00     0.014 A 
ATOM     33  C   UNL     1       9.636   6.392  -1.493  1.00  0.00     0.010 A 
ATOM     34  C   UNL     1       8.159   8.061  -0.543  1.00  0.00     0.010 A 
ATOM     35  C   UNL     1       9.057   7.670  -1.550  1.00  0.00    -0.014 A 
BRANCH  35  36
ATOM     36  C   UNL     1       9.367   8.634  -2.639  1.00  0.00     0.031 A 
ATOM     37  C   UNL     1       9.976   9.964  -2.294  1.00  0.00     0.074 A 
ATOM     38  C   UNL     1       8.985   8.371  -3.903  1.00  0.00     0.049 A 
ATOM     39  N   UNL     1      10.135  11.026  -3.041  1.00  0.00    -0.248 NA
ATOM     40  C   UNL     1      10.421  10.132  -0.902  1.00  0.00     0.031 C 
ATOM     41  C   UNL     1       8.347   7.133  -4.354  1.00  0.00     0.029 A 
ATOM     42  N   UNL     1       9.044   9.145  -5.036  1.00  0.00    -0.354 N 
ATOM     43  C   UNL     1      10.661  12.002  -2.200  1.00  0.00     0.074 A 
ATOM     44  C   UNL     1      10.737  11.416  -0.878  1.00  0.00     0.031 C 
ATOM     45  C   UNL     1       8.071   7.233  -5.665  1.00  0.00     0.029 A 
ATOM     46  C   UNL     1       8.461   8.559  -6.135  1.00  0.00     0.049 A 
ATOM     47  H   UNL     1       9.465  10.035  -5.059  1.00  0.00     0.167 HD
ATOM     48  C   UNL     1      11.056  13.263  -2.508  1.00  0.00     0.034 A 
ATOM     49  C   UNL     1       8.231   9.044  -7.372  1.00  0.00     0.034 A 
ATOM     50  C   UNL     1      10.988  13.815  -3.839  1.00  0.00     0.049 A 
ATOM     51  C   UNL     1       8.672  10.447  -7.699  1.00  0.00     0.074 A 
ATOM     52  C   UNL     1      11.431  15.047  -4.286  1.00  0.00     0.029 A 
ATOM     53  N   UNL     1      10.428  13.174  -4.939  1.00  0.00    -0.354 N 
ATOM     54  N   UNL     1       9.216  11.345  -6.910  1.00  0.00    -0.248 NA
ATOM     55  C   UNL     1       8.477  10.899  -9.083  1.00  0.00     0.031 C 
ATOM     56  C   UNL     1      11.075  15.180  -5.633  1.00  0.00     0.029 A 
ATOM     57  C   UNL     1      10.485  13.998  -6.052  1.00  0.00     0.049 A 
ATOM     58  H   UNL     1      10.047  12.266  -4.928  1.00  0.00     0.167 HD
ATOM     59  C   UNL     1       9.456  12.458  -7.710  1.00  0.00     0.074 A 
ATOM     60  C   UNL     1       8.999  12.117  -9.043  1.00  0.00     0.031 C 
ATOM     61  C   UNL     1      10.017  13.648  -7.375  1.00  0.00     0.034 A 
BRANCH  48  62
ATOM     62  C   UNL     1      11.554  14.128  -1.372  1.00  0.00     0.023 A 
ATOM     63  C   UNL     1      12.666  13.762  -0.594  1.00  0.00     0.031 A 
ATOM     64  C   UNL     1      10.867  15.303  -1.019  1.00  0.00     0.131 A 
ATOM     65  C   UNL     1      12.989  14.495   0.558  1.00  0.00     0.055 A 
ATOM     66  C   UNL     1      11.255  16.085   0.071  1.00  0.00     0.041 A 
ATOM     67  F   UNL     1       9.786  15.699  -1.710  1.00  0.00    -0.206 F 
ATOM     68  C   UNL     1      12.307  15.670   0.882  1.00  0.00     0.022 A 
BRANCH  65  69
ATOM     69  S   UNL     1      14.180  13.783   1.727  1.00  0.00     0.124 S 
ATOM     70  O   UNL     1      13.574  12.483   2.010  1.00  0.00    -0.237 OA
ATOM     71  O   UNL     1      15.411  13.757   0.946  1.00  0.00    -0.237 OA
ATOM     72  O   UNL     1      14.167  14.723   2.845  1.00  0.00    -0.744 OA
ENDBRANCH  65  69
ENDBRANCH  48  62
BRANCH  49  73
ATOM     73  C   UNL     1       7.525   8.203  -8.378  1.00  0.00     0.023 A 
ATOM     74  C   UNL     1       8.192   7.704  -9.507  1.00  0.00     0.031 A 
ATOM     75  C   UNL     1       6.166   7.877  -8.215  1.00  0.00     0.131 A 
ATOM     76  C   UNL     1       7.494   6.925 -10.443  1.00  0.00     0.055 A 
ATOM     77  C   UNL     1       5.487   7.066  -9.127  1.00  0.00     0.041 A 
ATOM     78  F   UNL     1       5.486   8.319  -7.146  1.00  0.00    -0.206 F 
ATOM     79  C   UNL     1       6.150   6.591 -10.254  1.00  0.00     0.022 A 
BRANCH  76  80
ATOM     80  S   UNL     1       8.359   6.381 -11.942  1.00  0.00     0.124 S 
ATOM     81  O   UNL     1       8.700   7.654 -12.566  1.00  0.00    -0.237 OA
ATOM     82  O   UNL     1       9.473   5.617 -11.389  1.00  0.00    -0.237 OA
ATOM     83  O   UNL     1       7.353   5.588 -12.646  1.00  0.00    -0.744 OA
ENDBRANCH  76  80
ENDBRANCH  49  73
BRANCH  61  84
ATOM     84  C   UNL     1      10.225  14.653  -8.482  1.00  0.00     0.023 A 
ATOM     85  C   UNL     1       9.152  15.311  -9.105  1.00  0.00     0.031 A 
ATOM     86  C   UNL     1      11.531  14.972  -8.898  1.00  0.00     0.131 A 
ATOM     87  C   UNL     1       9.402  16.231 -10.136  1.00  0.00     0.055 A 
ATOM     88  C   UNL     1      11.776  15.926  -9.886  1.00  0.00     0.041 A 
ATOM     89  F   UNL     1      12.592  14.369  -8.338  1.00  0.00    -0.206 F 
ATOM     90  C   UNL     1      10.707  16.556 -10.516  1.00  0.00     0.022 A 
BRANCH  87  91
ATOM     91  S   UNL     1       7.996  16.958 -11.022  1.00  0.00     0.124 S 
ATOM     92  O   UNL     1       7.347  15.776 -11.581  1.00  0.00    -0.237 OA
ATOM     93  O   UNL     1       7.271  17.639  -9.954  1.00  0.00    -0.237 OA
ATOM     94  O   UNL     1       8.626  17.841 -12.002  1.00  0.00    -0.744 OA
ENDBRANCH  87  91
ENDBRANCH  61  84
ENDBRANCH  35  36
ENDBRANCH  27  30
ENDBRANCH  25  26
ENDBRANCH  24  25
ENDBRANCH   1  24
TORSDOF 18
