REMARK SMILES Cc1ccc(F)c(O[C@H]2CC[C@]([NH2+]C(C)C)(C(=O)NCCCNC(=O)c3ccc(-c4c5nc(c(-c6cc(S(=O)(=O)[O-])ccc6F)c6ccc([nH]6)c(-c6cc(S(=O)(=O)[O-])ccc6F)c6nc(c(-c7cc(S(=O)(=O)[O-])ccc7F)c7ccc4[nH]7)C=C6)C=C5)cc3)C2)c1
REMARK SMILES IDX 21 1 20 2 19 3 17 4 18 5 12 7 9 8 10 9 89 10 11 11 8 12 7 13
REMARK SMILES IDX 1 14 2 15 3 16 90 17 4 18 5 19 6 20 13 21 14 24 15 25 16 26
REMARK SMILES IDX 22 27 23 28 24 29 25 31 26 32 27 33 88 34 28 35 87 36 29 37
REMARK SMILES IDX 30 38 31 39 81 40 32 41 86 42 80 43 82 44 33 45 85 46 79 47
REMARK SMILES IDX 78 48 34 50 66 51 46 52 65 53 47 54 50 55 64 56 83 57 48 58
REMARK SMILES IDX 49 59 63 61 84 62 51 63 35 64 36 65 44 66 37 67 43 68 45 69
REMARK SMILES IDX 42 70 38 71 39 72 40 73 41 74 67 75 68 76 76 77 69 78 75 79
REMARK SMILES IDX 77 80 74 81 70 82 71 83 72 84 73 85 52 86 53 87 61 88 54 89
REMARK SMILES IDX 60 90 62 91 59 92 55 93 56 94 57 95 58 96
REMARK H PARENT 19 6 13 22 13 23 23 30 82 49 50 60
REMARK Flexibility Score: inf
ROOT
ATOM      1  C   UNL     1       4.148  -2.731   1.204  1.00  0.00     0.042 C 
ENDROOT
BRANCH   1   2
ATOM      2  C   UNL     1       3.257  -2.691  -0.029  1.00  0.00     0.118 C 
BRANCH   2   3
ATOM      3  N   UNL     1       3.402  -3.862  -0.873  1.00  0.00    -0.351 N 
ATOM      4  C   UNL     1       2.565  -4.890  -1.201  1.00  0.00     0.281 C 
ATOM      5  O   UNL     1       3.083  -5.745  -1.928  1.00  0.00    -0.268 OA
ATOM      6  H   UNL     1       4.288  -3.931  -1.297  1.00  0.00     0.163 HD
BRANCH   4   7
ATOM      7  C   UNL     1       1.095  -4.986  -0.664  1.00  0.00     0.179 C 
ATOM      8  C   UNL     1      -0.644  -3.586   0.345  1.00  0.00     0.180 C 
ATOM      9  C   UNL     1       0.265  -4.036   1.482  1.00  0.00     0.052 C 
ATOM     10  C   UNL     1       0.238  -3.721  -0.898  1.00  0.00     0.124 C 
ATOM     11  C   UNL     1       1.151  -5.129   0.888  1.00  0.00     0.083 C 
BRANCH   8  12
ATOM     12  O   UNL     1      -1.746  -4.480   0.167  1.00  0.00    -0.487 OA
BRANCH  12  13
ATOM     13  C   UNL     1      -2.796  -4.414   1.036  1.00  0.00     0.155 A 
ATOM     14  C   UNL     1      -5.931  -6.555   1.384  1.00  0.00     0.044 C 
ATOM     15  C   UNL     1      -4.903  -5.492   1.627  1.00  0.00    -0.047 A 
ATOM     16  C   UNL     1      -5.053  -4.597   2.693  1.00  0.00     0.007 A 
ATOM     17  C   UNL     1      -3.770  -5.393   0.808  1.00  0.00     0.053 A 
ATOM     18  C   UNL     1      -4.093  -3.612   2.921  1.00  0.00     0.043 A 
ATOM     19  C   UNL     1      -2.978  -3.521   2.092  1.00  0.00     0.165 A 
ATOM     20  F   UNL     1      -2.088  -2.554   2.361  1.00  0.00    -0.203 F 
ENDBRANCH  12  13
ENDBRANCH   8  12
BRANCH   7  21
ATOM     21  N   UNL     1       0.371  -6.213  -1.111  1.00  0.00    -0.332 N 
ATOM     22  H   UNL     1      -0.599  -6.098  -0.819  1.00  0.00     0.347 HD
ATOM     23  H   UNL     1       0.921  -6.961  -0.688  1.00  0.00     0.347 HD
BRANCH  21  24
ATOM     24  C   UNL     1       0.337  -6.604  -2.523  1.00  0.00     0.176 C 
ATOM     25  C   UNL     1      -0.303  -7.999  -2.566  1.00  0.00     0.075 C 
ATOM     26  C   UNL     1      -0.454  -5.671  -3.437  1.00  0.00     0.075 C 
ENDBRANCH  21  24
ENDBRANCH   7  21
ENDBRANCH   4   7
ENDBRANCH   2   3
ENDBRANCH   1   2
BRANCH   1  27
ATOM     27  C   UNL     1       5.637  -2.673   0.897  1.00  0.00     0.118 C 
BRANCH  27  28
ATOM     28  N   UNL     1       6.013  -1.445   0.211  1.00  0.00    -0.352 N 
ATOM     29  C   UNL     1       6.806  -0.404   0.617  1.00  0.00     0.251 C 
ATOM     30  H   UNL     1       5.635  -1.346  -0.693  1.00  0.00     0.163 HD
ATOM     31  O   UNL     1       6.784   0.644  -0.034  1.00  0.00    -0.269 OA
BRANCH  29  32
ATOM     32  C   UNL     1       7.667  -0.515   1.815  1.00  0.00     0.039 A 
ATOM     33  C   UNL     1       7.863   0.617   2.612  1.00  0.00     0.014 A 
ATOM     34  C   UNL     1       8.329  -1.704   2.130  1.00  0.00     0.014 A 
ATOM     35  C   UNL     1       8.684   0.542   3.741  1.00  0.00     0.010 A 
ATOM     36  C   UNL     1       9.068  -1.804   3.306  1.00  0.00     0.010 A 
ATOM     37  C   UNL     1       9.274  -0.677   4.112  1.00  0.00    -0.014 A 
BRANCH  37  38
ATOM     38  C   UNL     1      10.145  -0.774   5.314  1.00  0.00     0.031 A 
ATOM     39  C   UNL     1      11.598  -1.149   5.163  1.00  0.00     0.074 A 
ATOM     40  C   UNL     1       9.617  -0.578   6.539  1.00  0.00     0.049 A 
ATOM     41  N   UNL     1      12.506  -1.334   6.087  1.00  0.00    -0.248 NA
ATOM     42  C   UNL     1      12.084  -1.380   3.793  1.00  0.00     0.031 C 
ATOM     43  C   UNL     1       8.210  -0.273   6.814  1.00  0.00     0.029 A 
ATOM     44  N   UNL     1      10.195  -0.613   7.782  1.00  0.00    -0.354 N 
ATOM     45  C   UNL     1      13.658  -1.730   5.414  1.00  0.00     0.074 A 
ATOM     46  C   UNL     1      13.317  -1.811   4.011  1.00  0.00     0.031 C 
ATOM     47  C   UNL     1       8.042  -0.126   8.138  1.00  0.00     0.029 A 
ATOM     48  C   UNL     1       9.315  -0.363   8.810  1.00  0.00     0.049 A 
ATOM     49  H   UNL     1      11.151  -0.800   7.926  1.00  0.00     0.167 HD
ATOM     50  C   UNL     1      14.892  -1.980   5.918  1.00  0.00     0.034 A 
ATOM     51  C   UNL     1       9.512  -0.332  10.143  1.00  0.00     0.034 A 
ATOM     52  C   UNL     1      15.223  -1.858   7.317  1.00  0.00     0.049 A 
ATOM     53  C   UNL     1      10.905  -0.567  10.674  1.00  0.00     0.074 A 
ATOM     54  C   UNL     1      16.455  -2.011   7.928  1.00  0.00     0.029 A 
ATOM     55  N   UNL     1      14.317  -1.552   8.325  1.00  0.00    -0.354 N 
ATOM     56  N   UNL     1      12.001  -0.867  10.015  1.00  0.00    -0.248 NA
ATOM     57  C   UNL     1      11.091  -0.433  12.123  1.00  0.00     0.031 C 
ATOM     58  C   UNL     1      16.283  -1.861   9.309  1.00  0.00     0.029 A 
ATOM     59  C   UNL     1      14.958  -1.536   9.554  1.00  0.00     0.049 A 
ATOM     60  H   UNL     1      13.358  -1.373   8.186  1.00  0.00     0.167 HD
ATOM     61  C   UNL     1      13.012  -0.925  10.970  1.00  0.00     0.074 A 
ATOM     62  C   UNL     1      12.398  -0.603  12.242  1.00  0.00     0.031 C 
ATOM     63  C   UNL     1      14.329  -1.219  10.814  1.00  0.00     0.034 A 
BRANCH  50  64
ATOM     64  C   UNL     1      15.965  -2.433   4.955  1.00  0.00     0.023 A 
ATOM     65  C   UNL     1      16.425  -1.609   3.913  1.00  0.00     0.031 A 
ATOM     66  C   UNL     1      16.530  -3.715   5.076  1.00  0.00     0.131 A 
ATOM     67  C   UNL     1      17.367  -2.099   2.995  1.00  0.00     0.055 A 
ATOM     68  C   UNL     1      17.524  -4.168   4.207  1.00  0.00     0.041 A 
ATOM     69  F   UNL     1      16.117  -4.555   6.039  1.00  0.00    -0.206 F 
ATOM     70  C   UNL     1      17.939  -3.364   3.151  1.00  0.00     0.022 A 
BRANCH  67  71
ATOM     71  S   UNL     1      17.743  -1.108   1.523  1.00  0.00     0.124 S 
ATOM     72  O   UNL     1      16.434  -1.029   0.880  1.00  0.00    -0.237 OA
ATOM     73  O   UNL     1      18.249   0.133   2.098  1.00  0.00    -0.237 OA
ATOM     74  O   UNL     1      18.732  -1.914   0.810  1.00  0.00    -0.744 OA
ENDBRANCH  67  71
ENDBRANCH  50  64
BRANCH  51  75
ATOM     75  C   UNL     1       8.376  -0.073  11.075  1.00  0.00     0.023 A 
ATOM     76  C   UNL     1       8.351   1.069  11.891  1.00  0.00     0.031 A 
ATOM     77  C   UNL     1       7.322  -0.996  11.202  1.00  0.00     0.131 A 
ATOM     78  C   UNL     1       7.330   1.228  12.841  1.00  0.00     0.055 A 
ATOM     79  C   UNL     1       6.278  -0.804  12.108  1.00  0.00     0.041 A 
ATOM     80  F   UNL     1       7.291  -2.100  10.439  1.00  0.00    -0.206 F 
ATOM     81  C   UNL     1       6.287   0.306  12.947  1.00  0.00     0.022 A 
BRANCH  78  82
ATOM     82  S   UNL     1       7.441   2.611  14.011  1.00  0.00     0.124 S 
ATOM     83  O   UNL     1       8.753   2.392  14.608  1.00  0.00    -0.237 OA
ATOM     84  O   UNL     1       7.323   3.765  13.126  1.00  0.00    -0.237 OA
ATOM     85  O   UNL     1       6.304   2.393  14.903  1.00  0.00    -0.744 OA
ENDBRANCH  78  82
ENDBRANCH  51  75
BRANCH  63  86
ATOM     86  C   UNL     1      15.193  -1.151  12.050  1.00  0.00     0.023 A 
ATOM     87  C   UNL     1      15.005  -2.028  13.133  1.00  0.00     0.031 A 
ATOM     88  C   UNL     1      16.193  -0.169  12.161  1.00  0.00     0.131 A 
ATOM     89  C   UNL     1      15.751  -1.856  14.309  1.00  0.00     0.055 A 
ATOM     90  C   UNL     1      16.980  -0.047  13.307  1.00  0.00     0.041 A 
ATOM     91  F   UNL     1      16.416   0.697  11.159  1.00  0.00    -0.206 F 
ATOM     92  C   UNL     1      16.748  -0.882  14.397  1.00  0.00     0.022 A 
BRANCH  89  93
ATOM     93  S   UNL     1      15.310  -2.840  15.768  1.00  0.00     0.124 S 
ATOM     94  O   UNL     1      13.892  -2.534  15.924  1.00  0.00    -0.237 OA
ATOM     95  O   UNL     1      15.625  -4.197  15.333  1.00  0.00    -0.237 OA
ATOM     96  O   UNL     1      16.179  -2.307  16.815  1.00  0.00    -0.744 OA
ENDBRANCH  89  93
ENDBRANCH  63  86
ENDBRANCH  37  38
ENDBRANCH  29  32
ENDBRANCH  27  28
ENDBRANCH   1  27
TORSDOF 17
