REMARK SMILES O=C(C[NH+]1CC(c2nc(-c3cccs3)no2)C1)NCCCNC(=O)c1ccc(-c2c3nc(c(-c4cc(S(=O)(=O)[O-])ccc4F)c4ccc([nH]4)c(-c4cc(S(=O)(=O)[O-])ccc4F)c4nc(c(-c5cc(S(=O)(=O)[O-])ccc5F)c5ccc2[nH]5)C=C4)C=C3)cc1
REMARK SMILES IDX 20 1 19 2 18 3 1 4 2 5 3 7 4 8 5 9 17 10 6 12 7 13 8 14
REMARK SMILES IDX 16 15 9 16 15 17 10 18 11 19 14 20 12 21 13 22 21 23 22 24
REMARK SMILES IDX 23 25 24 27 25 28 26 29 87 30 27 31 86 32 28 33 29 34 30 35
REMARK SMILES IDX 80 36 31 37 85 38 79 39 81 40 32 41 84 42 78 43 77 44 33 46
REMARK SMILES IDX 65 47 45 48 64 49 46 50 49 51 63 52 82 53 47 54 48 55 62 57
REMARK SMILES IDX 83 58 50 59 34 60 35 61 43 62 36 63 42 64 44 65 41 66 37 67
REMARK SMILES IDX 38 68 39 69 40 70 66 71 67 72 75 73 68 74 74 75 76 76 73 77
REMARK SMILES IDX 69 78 70 79 71 80 72 81 51 82 52 83 60 84 53 85 59 86 61 87
REMARK SMILES IDX 58 88 54 89 55 90 56 91 57 92
REMARK H PARENT 18 6 4 11 22 26 81 45 49 56
REMARK Flexibility Score: inf
ROOT
ATOM      1  C   UNL     1       2.407   1.966  -2.704  1.00  0.00     0.042 C 
ENDROOT
BRANCH   1   2
ATOM      2  C   UNL     1       2.118   0.525  -2.289  1.00  0.00     0.118 C 
BRANCH   2   3
ATOM      3  N   UNL     1       2.777   0.155  -1.053  1.00  0.00    -0.351 N 
ATOM      4  O   UNL     1       0.878  -0.147   0.217  1.00  0.00    -0.269 OA
ATOM      5  C   UNL     1       2.101  -0.156   0.110  1.00  0.00     0.275 C 
ATOM      6  H   UNL     1       3.761   0.125  -1.041  1.00  0.00     0.163 HD
BRANCH   5   7
ATOM      7  C   UNL     1       3.026  -0.443   1.299  1.00  0.00     0.363 C 
BRANCH   7   8
ATOM      8  N   UNL     1       4.034  -1.452   0.917  1.00  0.00    -0.325 N 
ATOM      9  C   UNL     1       5.004  -1.668   2.025  1.00  0.00     0.282 C 
ATOM     10  C   UNL     1       3.522  -2.827   1.189  1.00  0.00     0.282 C 
ATOM     11  H   UNL     1       4.327  -1.151  -0.013  1.00  0.00     0.348 HD
ATOM     12  C   UNL     1       4.954  -3.184   1.691  1.00  0.00     0.188 C 
BRANCH  12  13
ATOM     13  C   UNL     1       4.936  -4.121   2.880  1.00  0.00     0.241 A 
ATOM     14  N   UNL     1       5.349  -5.371   2.832  1.00  0.00    -0.190 NA
ATOM     15  O   UNL     1       4.421  -3.783   4.100  1.00  0.00    -0.338 OA
ATOM     16  C   UNL     1       4.991  -5.853   4.072  1.00  0.00     0.212 A 
ATOM     17  N   UNL     1       4.467  -4.927   4.888  1.00  0.00    -0.056 NA
BRANCH  16  18
ATOM     18  C   UNL     1       5.085  -7.303   4.432  1.00  0.00     0.075 A 
ATOM     19  C   UNL     1       5.646  -8.268   3.620  1.00  0.00     0.024 A 
ATOM     20  S   UNL     1       4.454  -7.974   5.872  1.00  0.00    -0.140 S 
ATOM     21  C   UNL     1       5.508  -9.579   4.170  1.00  0.00     0.012 A 
ATOM     22  C   UNL     1       4.854  -9.563   5.381  1.00  0.00     0.065 A 
ENDBRANCH  16  18
ENDBRANCH  12  13
ENDBRANCH   7   8
ENDBRANCH   5   7
ENDBRANCH   2   3
ENDBRANCH   1   2
BRANCH   1  23
ATOM     23  C   UNL     1       3.873   2.267  -3.010  1.00  0.00     0.118 C 
BRANCH  23  24
ATOM     24  N   UNL     1       4.390   1.519  -4.147  1.00  0.00    -0.352 N 
ATOM     25  C   UNL     1       5.011   1.951  -5.294  1.00  0.00     0.251 C 
ATOM     26  H   UNL     1       4.276   0.543  -4.083  1.00  0.00     0.163 HD
ATOM     27  O   UNL     1       5.234   1.133  -6.189  1.00  0.00    -0.269 OA
BRANCH  25  28
ATOM     28  C   UNL     1       5.385   3.372  -5.485  1.00  0.00     0.039 A 
ATOM     29  C   UNL     1       5.201   3.950  -6.746  1.00  0.00     0.014 A 
ATOM     30  C   UNL     1       5.943   4.133  -4.455  1.00  0.00     0.014 A 
ATOM     31  C   UNL     1       5.507   5.299  -6.952  1.00  0.00     0.010 A 
ATOM     32  C   UNL     1       6.178   5.497  -4.640  1.00  0.00     0.010 A 
ATOM     33  C   UNL     1       5.959   6.098  -5.890  1.00  0.00    -0.014 A 
BRANCH  33  34
ATOM     34  C   UNL     1       6.200   7.558  -6.067  1.00  0.00     0.031 A 
ATOM     35  C   UNL     1       7.580   8.131  -5.880  1.00  0.00     0.074 A 
ATOM     36  C   UNL     1       5.165   8.379  -6.341  1.00  0.00     0.049 A 
ATOM     37  N   UNL     1       7.970   9.381  -5.907  1.00  0.00    -0.248 NA
ATOM     38  C   UNL     1       8.659   7.173  -5.600  1.00  0.00     0.031 C 
ATOM     39  C   UNL     1       3.776   7.954  -6.521  1.00  0.00     0.029 A 
ATOM     40  N   UNL     1       5.116   9.742  -6.507  1.00  0.00    -0.354 N 
ATOM     41  C   UNL     1       9.335   9.361  -5.638  1.00  0.00     0.074 A 
ATOM     42  C   UNL     1       9.689   7.979  -5.391  1.00  0.00     0.031 C 
ATOM     43  C   UNL     1       3.018   9.027  -6.795  1.00  0.00     0.029 A 
ATOM     44  C   UNL     1       3.851  10.225  -6.755  1.00  0.00     0.049 A 
ATOM     45  H   UNL     1       5.911  10.320  -6.453  1.00  0.00     0.167 HD
ATOM     46  C   UNL     1      10.214  10.395  -5.619  1.00  0.00     0.034 A 
ATOM     47  C   UNL     1       3.405  11.488  -6.913  1.00  0.00     0.034 A 
ATOM     48  C   UNL     1       9.847  11.768  -5.872  1.00  0.00     0.049 A 
ATOM     49  C   UNL     1       4.393  12.626  -6.837  1.00  0.00     0.074 A 
ATOM     50  C   UNL     1      10.666  12.883  -5.924  1.00  0.00     0.029 A 
ATOM     51  N   UNL     1       8.553  12.220  -6.103  1.00  0.00    -0.354 N 
ATOM     52  N   UNL     1       5.688  12.585  -6.624  1.00  0.00    -0.248 NA
ATOM     53  C   UNL     1       3.859  13.981  -7.030  1.00  0.00     0.031 C 
ATOM     54  C   UNL     1       9.862  14.013  -6.105  1.00  0.00     0.029 A 
ATOM     55  C   UNL     1       8.549  13.599  -6.259  1.00  0.00     0.049 A 
ATOM     56  H   UNL     1       7.755  11.645  -6.150  1.00  0.00     0.167 HD
ATOM     57  C   UNL     1       6.127  13.905  -6.693  1.00  0.00     0.074 A 
ATOM     58  C   UNL     1       4.961  14.714  -6.982  1.00  0.00     0.031 C 
ATOM     59  C   UNL     1       7.380  14.402  -6.536  1.00  0.00     0.034 A 
BRANCH  46  60
ATOM     60  C   UNL     1      11.653  10.080  -5.282  1.00  0.00     0.023 A 
ATOM     61  C   UNL     1      12.434   9.232  -6.088  1.00  0.00     0.031 A 
ATOM     62  C   UNL     1      12.251  10.620  -4.129  1.00  0.00     0.131 A 
ATOM     63  C   UNL     1      13.735   8.887  -5.690  1.00  0.00     0.055 A 
ATOM     64  C   UNL     1      13.576  10.343  -3.785  1.00  0.00     0.041 A 
ATOM     65  F   UNL     1      11.552  11.419  -3.307  1.00  0.00    -0.206 F 
ATOM     66  C   UNL     1      14.321   9.459  -4.559  1.00  0.00     0.022 A 
BRANCH  63  67
ATOM     67  S   UNL     1      14.590   7.563  -6.586  1.00  0.00     0.124 S 
ATOM     68  O   UNL     1      13.659   6.449  -6.425  1.00  0.00    -0.237 OA
ATOM     69  O   UNL     1      14.702   8.113  -7.932  1.00  0.00    -0.237 OA
ATOM     70  O   UNL     1      15.852   7.419  -5.862  1.00  0.00    -0.744 OA
ENDBRANCH  63  67
ENDBRANCH  46  60
BRANCH  47  71
ATOM     71  C   UNL     1       1.954  11.758  -7.138  1.00  0.00     0.023 A 
ATOM     72  C   UNL     1       1.504  12.356  -8.325  1.00  0.00     0.031 A 
ATOM     73  C   UNL     1       1.001  11.469  -6.144  1.00  0.00     0.131 A 
ATOM     74  C   UNL     1       0.149  12.694  -8.469  1.00  0.00     0.055 A 
ATOM     75  C   UNL     1      -0.355  11.751  -6.318  1.00  0.00     0.041 A 
ATOM     76  F   UNL     1       1.375  10.898  -4.988  1.00  0.00    -0.206 F 
ATOM     77  C   UNL     1      -0.786  12.381  -7.481  1.00  0.00     0.022 A 
BRANCH  74  78
ATOM     78  S   UNL     1      -0.358  13.643  -9.930  1.00  0.00     0.124 S 
ATOM     79  O   UNL     1       0.479  14.831  -9.816  1.00  0.00    -0.237 OA
ATOM     80  O   UNL     1      -0.029  12.726 -11.016  1.00  0.00    -0.237 OA
ATOM     81  O   UNL     1      -1.787  13.862  -9.713  1.00  0.00    -0.744 OA
ENDBRANCH  74  78
ENDBRANCH  47  71
BRANCH  59  82
ATOM     82  C   UNL     1       7.561  15.891  -6.724  1.00  0.00     0.023 A 
ATOM     83  C   UNL     1       6.975  16.828  -5.855  1.00  0.00     0.031 A 
ATOM     84  C   UNL     1       8.325  16.378  -7.800  1.00  0.00     0.131 A 
ATOM     85  C   UNL     1       7.113  18.201  -6.110  1.00  0.00     0.055 A 
ATOM     86  C   UNL     1       8.515  17.745  -8.009  1.00  0.00     0.041 A 
ATOM     87  F   UNL     1       8.905  15.532  -8.666  1.00  0.00    -0.206 F 
ATOM     88  C   UNL     1       7.896  18.665  -7.170  1.00  0.00     0.022 A 
BRANCH  85  89
ATOM     89  S   UNL     1       6.170  19.375  -5.098  1.00  0.00     0.124 S 
ATOM     90  O   UNL     1       4.797  18.931  -5.319  1.00  0.00    -0.237 OA
ATOM     91  O   UNL     1       6.709  19.138  -3.762  1.00  0.00    -0.237 OA
ATOM     92  O   UNL     1       6.503  20.674  -5.678  1.00  0.00    -0.744 OA
ENDBRANCH  85  89
ENDBRANCH  59  82
ENDBRANCH  33  34
ENDBRANCH  25  28
ENDBRANCH  23  24
ENDBRANCH   1  23
TORSDOF 16
