REMARK SMILES O=C(NCCCNC(=O)c1ccc(N2C(=O)[C@@H]3CC=CC[C@H]3C2=O)cc1Cl)c1ccc(-c2c3nc(c(-c4cc(S(=O)(=O)[O-])ccc4F)c4ccc([nH]4)c(-c4cc(S(=O)(=O)[O-])ccc4F)c4nc(c(-c5cc(S(=O)(=O)[O-])ccc5F)c5ccc2[nH]5)C=C4)C=C3)cc1
REMARK SMILES IDX 4 1 3 2 1 3 2 4 28 6 29 7 90 8 30 9 89 10 31 11 32 12 33 13
REMARK SMILES IDX 83 14 34 15 88 16 82 17 84 18 35 19 87 20 81 21 80 22 36 24
REMARK SMILES IDX 68 25 48 26 67 27 49 28 52 29 66 30 85 31 50 32 51 33 65 35
REMARK SMILES IDX 86 36 53 37 37 38 38 39 46 40 39 41 45 42 47 43 44 44 40 45
REMARK SMILES IDX 41 46 42 47 43 48 69 49 70 50 78 51 71 52 77 53 79 54 76 55
REMARK SMILES IDX 72 56 73 57 74 58 75 59 54 60 55 61 63 62 56 63 62 64 64 65
REMARK SMILES IDX 61 66 57 67 58 68 59 69 60 70 5 71 6 72 7 73 8 74 9 76 10 77
REMARK SMILES IDX 11 78 26 79 12 80 25 81 27 82 13 83 14 84 15 85 23 86 16 87
REMARK SMILES IDX 17 88 22 89 24 90 18 91 21 92 19 93 20 94
REMARK H PARENT 3 5 84 23 52 34 7 75
REMARK Flexibility Score: inf
ROOT
ATOM      1  C   UNL     1       4.577  -1.080  -0.587  1.00  0.00     0.118 C 
ENDROOT
BRANCH   1   2
ATOM      2  N   UNL     1       3.134  -0.862  -0.601  1.00  0.00    -0.352 N 
ATOM      3  O   UNL     1       1.148   0.050  -0.049  1.00  0.00    -0.269 OA
ATOM      4  C   UNL     1       2.374   0.126  -0.016  1.00  0.00     0.251 C 
ATOM      5  H   UNL     1       2.621  -1.530  -1.110  1.00  0.00     0.163 HD
BRANCH   4   6
ATOM      6  C   UNL     1       3.027   1.256   0.681  1.00  0.00     0.039 A 
ATOM      7  C   UNL     1       4.156   1.869   0.140  1.00  0.00     0.014 A 
ATOM      8  C   UNL     1       2.518   1.696   1.906  1.00  0.00     0.014 A 
ATOM      9  C   UNL     1       4.901   2.747   0.916  1.00  0.00     0.010 A 
ATOM     10  C   UNL     1       3.201   2.680   2.630  1.00  0.00     0.010 A 
ATOM     11  C   UNL     1       4.431   3.174   2.168  1.00  0.00    -0.014 A 
BRANCH  11  12
ATOM     12  C   UNL     1       5.242   4.145   2.953  1.00  0.00     0.031 A 
ATOM     13  C   UNL     1       5.778   3.790   4.316  1.00  0.00     0.074 A 
ATOM     14  C   UNL     1       5.541   5.339   2.402  1.00  0.00     0.049 A 
ATOM     15  N   UNL     1       6.529   4.502   5.119  1.00  0.00    -0.248 NA
ATOM     16  C   UNL     1       5.415   2.472   4.854  1.00  0.00     0.031 C 
ATOM     17  C   UNL     1       5.085   5.794   1.085  1.00  0.00     0.029 A 
ATOM     18  N   UNL     1       6.318   6.373   2.855  1.00  0.00    -0.354 N 
ATOM     19  C   UNL     1       6.707   3.732   6.265  1.00  0.00     0.074 A 
ATOM     20  C   UNL     1       5.951   2.514   6.065  1.00  0.00     0.031 C 
ATOM     21  C   UNL     1       5.645   6.979   0.810  1.00  0.00     0.029 A 
ATOM     22  C   UNL     1       6.427   7.413   1.961  1.00  0.00     0.049 A 
ATOM     23  H   UNL     1       6.757   6.372   3.737  1.00  0.00     0.167 HD
ATOM     24  C   UNL     1       7.437   4.014   7.375  1.00  0.00     0.034 A 
ATOM     25  C   UNL     1       7.065   8.595   2.058  1.00  0.00     0.034 A 
ATOM     26  C   UNL     1       8.190   5.236   7.552  1.00  0.00     0.049 A 
ATOM     27  C   UNL     1       7.825   8.903   3.320  1.00  0.00     0.074 A 
ATOM     28  C   UNL     1       8.990   5.607   8.619  1.00  0.00     0.029 A 
ATOM     29  N   UNL     1       8.226   6.292   6.649  1.00  0.00    -0.354 N 
ATOM     30  N   UNL     1       7.996   8.156   4.387  1.00  0.00    -0.248 NA
ATOM     31  C   UNL     1       8.483  10.212   3.387  1.00  0.00     0.031 C 
ATOM     32  C   UNL     1       9.436   6.915   8.403  1.00  0.00     0.029 A 
ATOM     33  C   UNL     1       9.002   7.327   7.153  1.00  0.00     0.049 A 
ATOM     34  H   UNL     1       7.767   6.304   5.778  1.00  0.00     0.167 HD
ATOM     35  C   UNL     1       8.817   8.892   5.236  1.00  0.00     0.074 A 
ATOM     36  C   UNL     1       9.115  10.133   4.548  1.00  0.00     0.031 C 
ATOM     37  C   UNL     1       9.289   8.567   6.467  1.00  0.00     0.034 A 
BRANCH  24  38
ATOM     38  C   UNL     1       7.407   3.009   8.507  1.00  0.00     0.023 A 
ATOM     39  C   UNL     1       7.879   1.693   8.353  1.00  0.00     0.031 A 
ATOM     40  C   UNL     1       6.870   3.368   9.757  1.00  0.00     0.131 A 
ATOM     41  C   UNL     1       7.729   0.766   9.397  1.00  0.00     0.055 A 
ATOM     42  C   UNL     1       6.807   2.466  10.822  1.00  0.00     0.041 A 
ATOM     43  F   UNL     1       6.381   4.601   9.963  1.00  0.00    -0.206 F 
ATOM     44  C   UNL     1       7.222   1.151  10.640  1.00  0.00     0.022 A 
BRANCH  41  45
ATOM     45  S   UNL     1       8.051  -0.987   9.054  1.00  0.00     0.124 S 
ATOM     46  O   UNL     1       7.152  -1.238   7.929  1.00  0.00    -0.237 OA
ATOM     47  O   UNL     1       9.476  -0.992   8.746  1.00  0.00    -0.237 OA
ATOM     48  O   UNL     1       7.677  -1.655  10.299  1.00  0.00    -0.744 OA
ENDBRANCH  41  45
ENDBRANCH  24  38
BRANCH  25  49
ATOM     49  C   UNL     1       6.998   9.581   0.943  1.00  0.00     0.023 A 
ATOM     50  C   UNL     1       8.159   9.986   0.265  1.00  0.00     0.031 A 
ATOM     51  C   UNL     1       5.776  10.163   0.561  1.00  0.00     0.131 A 
ATOM     52  C   UNL     1       8.080  10.979  -0.723  1.00  0.00     0.055 A 
ATOM     53  C   UNL     1       5.694  11.103  -0.467  1.00  0.00     0.041 A 
ATOM     54  F   UNL     1       4.634   9.811   1.175  1.00  0.00    -0.206 F 
ATOM     55  C   UNL     1       6.854  11.527  -1.105  1.00  0.00     0.022 A 
BRANCH  52  56
ATOM     56  S   UNL     1       9.621  11.614  -1.437  1.00  0.00     0.124 S 
ATOM     57  O   UNL     1      10.319  12.097  -0.251  1.00  0.00    -0.237 OA
ATOM     58  O   UNL     1      10.177  10.421  -2.068  1.00  0.00    -0.237 OA
ATOM     59  O   UNL     1       9.165  12.651  -2.360  1.00  0.00    -0.744 OA
ENDBRANCH  52  56
ENDBRANCH  25  49
BRANCH  37  60
ATOM     60  C   UNL     1      10.237   9.548   7.118  1.00  0.00     0.023 A 
ATOM     61  C   UNL     1       9.839  10.848   7.477  1.00  0.00     0.031 A 
ATOM     62  C   UNL     1      11.575   9.182   7.349  1.00  0.00     0.131 A 
ATOM     63  C   UNL     1      10.785  11.756   7.977  1.00  0.00     0.055 A 
ATOM     64  C   UNL     1      12.494  10.065   7.918  1.00  0.00     0.041 A 
ATOM     65  F   UNL     1      12.016   7.957   7.020  1.00  0.00    -0.206 F 
ATOM     66  C   UNL     1      12.105  11.367   8.218  1.00  0.00     0.022 A 
BRANCH  63  67
ATOM     67  S   UNL     1      10.301  13.492   8.185  1.00  0.00     0.124 S 
ATOM     68  O   UNL     1       9.835  13.840   6.847  1.00  0.00    -0.237 OA
ATOM     69  O   UNL     1       9.273  13.407   9.217  1.00  0.00    -0.237 OA
ATOM     70  O   UNL     1      11.541  14.147   8.600  1.00  0.00    -0.744 OA
ENDBRANCH  63  67
ENDBRANCH  37  60
ENDBRANCH  11  12
ENDBRANCH   4   6
ENDBRANCH   1   2
BRANCH   1  71
ATOM     71  C   UNL     1       4.996  -2.337   0.160  1.00  0.00     0.042 C 
BRANCH  71  72
ATOM     72  C   UNL     1       4.503  -3.627  -0.473  1.00  0.00     0.118 C 
BRANCH  72  73
ATOM     73  N   UNL     1       4.983  -3.800  -1.838  1.00  0.00    -0.352 N 
ATOM     74  C   UNL     1       5.695  -4.837  -2.382  1.00  0.00     0.252 C 
ATOM     75  H   UNL     1       4.765  -3.067  -2.458  1.00  0.00     0.163 HD
ATOM     76  O   UNL     1       6.080  -4.795  -3.546  1.00  0.00    -0.269 OA
BRANCH  74  77
ATOM     77  C   UNL     1       6.039  -5.999  -1.551  1.00  0.00     0.058 A 
ATOM     78  C   UNL     1       7.395  -6.242  -1.306  1.00  0.00     0.017 A 
ATOM     79  C   UNL     1       5.071  -6.860  -1.038  1.00  0.00     0.055 A 
ATOM     80  C   UNL     1       7.780  -7.316  -0.495  1.00  0.00     0.028 A 
ATOM     81  C   UNL     1       5.464  -7.930  -0.232  1.00  0.00     0.048 A 
ATOM     82  Cl  UNL     1       3.381  -6.686  -1.360  1.00  0.00    -0.083 Cl
ATOM     83  C   UNL     1       6.817  -8.177   0.048  1.00  0.00     0.053 A 
BRANCH  83  84
ATOM     84  N   UNL     1       7.177  -9.281   0.860  1.00  0.00    -0.250 N 
ATOM     85  C   UNL     1       8.297  -9.348   1.681  1.00  0.00     0.238 C 
ATOM     86  C   UNL     1       6.447 -10.462   0.921  1.00  0.00     0.238 C 
ATOM     87  O   UNL     1       9.270  -8.613   1.741  1.00  0.00    -0.274 OA
ATOM     88  C   UNL     1       8.028 -10.492   2.618  1.00  0.00     0.096 C 
ATOM     89  C   UNL     1       7.292 -11.431   1.685  1.00  0.00     0.096 C 
ATOM     90  O   UNL     1       5.398 -10.764   0.373  1.00  0.00    -0.274 OA
ATOM     91  C   UNL     1       9.176 -11.213   3.295  1.00  0.00     0.041 C 
ATOM     92  C   UNL     1       6.583 -12.524   2.455  1.00  0.00     0.041 C 
ATOM     93  C   UNL     1       8.698 -12.551   3.822  1.00  0.00    -0.030 C 
ATOM     94  C   UNL     1       7.529 -13.121   3.469  1.00  0.00    -0.030 C 
ENDBRANCH  83  84
ENDBRANCH  74  77
ENDBRANCH  72  73
ENDBRANCH  71  72
ENDBRANCH   1  71
TORSDOF 14
