REMARK SMILES CC(C)(CC(=O)NCCCNC(=O)c1ccc(-c2c3nc(c(-c4cc(S(=O)(=O)[O-])ccc4F)c4ccc([nH]4)c(-c4cc(S(=O)(=O)[O-])ccc4F)c4nc(c(-c5cc(S(=O)(=O)[O-])ccc5F)c5ccc2[nH]5)C=C4)C=C3)cc1)CC(=O)Nc1sc2c(c1C#N)CCCCCC2
REMARK SMILES IDX 5 1 6 2 7 3 4 5 2 6 1 7 3 8 77 9 78 10 79 11 80 12 81 14
REMARK SMILES IDX 82 15 85 16 83 17 84 18 86 19 87 20 93 21 92 22 91 23 88 25
REMARK SMILES IDX 89 26 90 27 8 29 9 30 10 31 11 32 12 33 13 35 14 36 15 37
REMARK SMILES IDX 76 38 16 39 75 40 17 41 18 42 19 43 69 44 20 45 74 46 68 47
REMARK SMILES IDX 70 48 21 49 73 50 67 51 66 52 22 54 54 55 34 56 53 57 35 58
REMARK SMILES IDX 38 59 52 60 71 61 36 62 37 63 51 65 72 66 39 67 23 68 24 69
REMARK SMILES IDX 32 70 25 71 31 72 33 73 30 74 26 75 27 76 28 77 29 78 55 79
REMARK SMILES IDX 56 80 64 81 57 82 63 83 65 84 62 85 58 86 59 87 60 88 61 89
REMARK SMILES IDX 40 90 41 91 49 92 42 93 48 94 50 95 47 96 43 97 44 98 45 99
REMARK SMILES IDX 46 100
REMARK H PARENT 7 4 80 13 11 34 70 53 38 64
REMARK Flexibility Score: 90.00
ROOT
ATOM      1  C   UNL     1      -0.590   0.471  -0.808  1.00  0.00     0.220 C 
ATOM      2  O   UNL     1      -0.965   0.272  -1.959  1.00  0.00    -0.275 OA
ATOM      3  N   UNL     1      -0.843   1.701  -0.280  1.00  0.00    -0.356 N 
ATOM      4  H   UNL     1      -1.756   2.059  -0.365  1.00  0.00     0.163 HD
ENDROOT
BRANCH   1   5
ATOM      5  C   UNL     1      -0.061  -0.608   0.121  1.00  0.00     0.107 C 
BRANCH   5   6
ATOM      6  C   UNL     1       1.036  -1.575  -0.378  1.00  0.00    -0.018 C 
ATOM      7  C   UNL     1       2.281  -0.744  -0.733  1.00  0.00     0.012 C 
ATOM      8  C   UNL     1       1.403  -2.450   0.857  1.00  0.00     0.012 C 
BRANCH   6   9
ATOM      9  C   UNL     1       0.691  -2.592  -1.519  1.00  0.00     0.107 C 
BRANCH   9  10
ATOM     10  C   UNL     1      -0.158  -2.160  -2.710  1.00  0.00     0.225 C 
ATOM     11  O   UNL     1       0.389  -1.710  -3.722  1.00  0.00    -0.275 OA
ATOM     12  N   UNL     1      -1.537  -2.215  -2.663  1.00  0.00    -0.317 N 
ATOM     13  H   UNL     1      -2.035  -1.898  -3.451  1.00  0.00     0.170 HD
BRANCH  12  14
ATOM     14  C   UNL     1      -2.263  -2.681  -1.593  1.00  0.00     0.114 A 
ATOM     15  S   UNL     1      -2.392  -4.374  -1.427  1.00  0.00    -0.121 S 
ATOM     16  C   UNL     1      -3.095  -2.044  -0.699  1.00  0.00     0.090 A 
ATOM     17  C   UNL     1      -3.332  -4.211   0.010  1.00  0.00     0.011 A 
ATOM     18  C   UNL     1      -3.289  -2.895   0.442  1.00  0.00    -0.014 A 
BRANCH  16  19
ATOM     19  C   UNL     1      -3.507  -0.670  -0.749  1.00  0.00     0.103 C 
ATOM     20  N   UNL     1      -3.906   0.417  -0.721  1.00  0.00    -0.192 NA
ENDBRANCH  16  19
BRANCH  17  21
ATOM     21  C   UNL     1      -3.973  -5.430   0.602  1.00  0.00     0.047 C 
BRANCH  21  22
ATOM     22  C   UNL     1      -4.875  -5.222   1.823  1.00  0.00     0.006 C 
BRANCH  22  23
ATOM     23  C   UNL     1      -6.146  -4.381   1.640  1.00  0.00     0.000 CG0
ATOM     24  G   UNL     1      -6.039  -2.871   1.412  1.00  0.00     0.000 G0
ENDBRANCH  22  23
ENDBRANCH  21  22
ENDBRANCH  17  21
BRANCH  18  25
ATOM     25  C   UNL     1      -3.534  -2.424   1.843  1.00  0.00     0.038 C 
BRANCH  25  26
ATOM     26  C   UNL     1      -4.977  -2.120   2.208  1.00  0.00     0.005 C 
BRANCH  26  27
ATOM     27  C   UNL     1      -6.039  -2.871   1.412  1.00  0.00     0.000 CG0
ATOM     28  G   UNL     1      -6.146  -4.381   1.640  1.00  0.00     0.000 G0
ENDBRANCH  26  27
ENDBRANCH  25  26
ENDBRANCH  18  25
ENDBRANCH  12  14
ENDBRANCH   9  10
ENDBRANCH   6   9
ENDBRANCH   5   6
ENDBRANCH   1   5
BRANCH   3  29
ATOM     29  C   UNL     1       0.142   2.514   0.398  1.00  0.00     0.117 C 
BRANCH  29  30
ATOM     30  C   UNL     1       1.244   2.956  -0.565  1.00  0.00     0.042 C 
BRANCH  30  31
ATOM     31  C   UNL     1       0.716   3.507  -1.889  1.00  0.00     0.118 C 
BRANCH  31  32
ATOM     32  N   UNL     1      -0.071   4.716  -1.692  1.00  0.00    -0.352 N 
ATOM     33  C   UNL     1       0.342   6.023  -1.777  1.00  0.00     0.251 C 
ATOM     34  H   UNL     1      -1.020   4.579  -1.469  1.00  0.00     0.163 HD
ATOM     35  O   UNL     1      -0.332   6.918  -1.278  1.00  0.00    -0.269 OA
BRANCH  33  36
ATOM     36  C   UNL     1       1.618   6.321  -2.455  1.00  0.00     0.039 A 
ATOM     37  C   UNL     1       2.545   7.163  -1.841  1.00  0.00     0.014 A 
ATOM     38  C   UNL     1       1.899   5.739  -3.694  1.00  0.00     0.014 A 
ATOM     39  C   UNL     1       3.783   7.376  -2.450  1.00  0.00     0.010 A 
ATOM     40  C   UNL     1       3.166   5.873  -4.247  1.00  0.00     0.010 A 
ATOM     41  C   UNL     1       4.115   6.709  -3.642  1.00  0.00    -0.014 A 
BRANCH  41  42
ATOM     42  C   UNL     1       5.430   6.912  -4.304  1.00  0.00     0.031 A 
ATOM     43  C   UNL     1       5.478   7.505  -5.688  1.00  0.00     0.074 A 
ATOM     44  C   UNL     1       6.563   6.521  -3.688  1.00  0.00     0.049 A 
ATOM     45  N   UNL     1       6.505   7.688  -6.476  1.00  0.00    -0.248 NA
ATOM     46  C   UNL     1       4.192   7.918  -6.276  1.00  0.00     0.031 C 
ATOM     47  C   UNL     1       6.636   5.900  -2.362  1.00  0.00     0.029 A 
ATOM     48  N   UNL     1       7.873   6.582  -4.094  1.00  0.00    -0.354 N 
ATOM     49  C   UNL     1       5.989   8.223  -7.652  1.00  0.00     0.074 A 
ATOM     50  C   UNL     1       4.552   8.263  -7.502  1.00  0.00     0.031 C 
ATOM     51  C   UNL     1       7.923   5.671  -2.053  1.00  0.00     0.029 A 
ATOM     52  C   UNL     1       8.764   6.077  -3.174  1.00  0.00     0.049 A 
ATOM     53  H   UNL     1       8.149   6.954  -4.963  1.00  0.00     0.167 HD
ATOM     54  C   UNL     1       6.655   8.671  -8.744  1.00  0.00     0.034 A 
ATOM     55  C   UNL     1      10.105   5.949  -3.236  1.00  0.00     0.034 A 
ATOM     56  C   UNL     1       8.090   8.642  -8.870  1.00  0.00     0.049 A 
ATOM     57  C   UNL     1      10.820   6.427  -4.478  1.00  0.00     0.074 A 
ATOM     58  C   UNL     1       8.873   9.101  -9.913  1.00  0.00     0.029 A 
ATOM     59  N   UNL     1       8.959   8.126  -7.917  1.00  0.00    -0.354 N 
ATOM     60  N   UNL     1      10.318   6.968  -5.565  1.00  0.00    -0.248 NA
ATOM     61  C   UNL     1      12.281   6.287  -4.497  1.00  0.00     0.031 C 
ATOM     62  C   UNL     1      10.209   8.806  -9.620  1.00  0.00     0.029 A 
ATOM     63  C   UNL     1      10.267   8.236  -8.359  1.00  0.00     0.049 A 
ATOM     64  H   UNL     1       8.685   7.738  -7.054  1.00  0.00     0.167 HD
ATOM     65  C   UNL     1      11.409   7.270  -6.377  1.00  0.00     0.074 A 
ATOM     66  C   UNL     1      12.592   6.866  -5.647  1.00  0.00     0.031 C 
ATOM     67  C   UNL     1      11.434   7.831  -7.612  1.00  0.00     0.034 A 
BRANCH  54  68
ATOM     68  C   UNL     1       5.832   9.218  -9.886  1.00  0.00     0.023 A 
ATOM     69  C   UNL     1       5.032  10.364  -9.733  1.00  0.00     0.031 A 
ATOM     70  C   UNL     1       5.836   8.582 -11.139  1.00  0.00     0.131 A 
ATOM     71  C   UNL     1       4.219  10.799 -10.790  1.00  0.00     0.055 A 
ATOM     72  C   UNL     1       5.086   9.067 -12.213  1.00  0.00     0.041 A 
ATOM     73  F   UNL     1       6.563   7.471 -11.340  1.00  0.00    -0.206 F 
ATOM     74  C   UNL     1       4.261  10.174 -12.038  1.00  0.00     0.022 A 
BRANCH  71  75
ATOM     75  S   UNL     1       3.013  12.115 -10.471  1.00  0.00     0.124 S 
ATOM     76  O   UNL     1       2.178  11.505  -9.438  1.00  0.00    -0.237 OA
ATOM     77  O   UNL     1       3.858  13.221 -10.037  1.00  0.00    -0.237 OA
ATOM     78  O   UNL     1       2.357  12.300 -11.764  1.00  0.00    -0.744 OA
ENDBRANCH  71  75
ENDBRANCH  54  68
BRANCH  55  79
ATOM     79  C   UNL     1      10.871   5.341  -2.108  1.00  0.00     0.023 A 
ATOM     80  C   UNL     1      11.849   6.078  -1.420  1.00  0.00     0.031 A 
ATOM     81  C   UNL     1      10.693   3.993  -1.748  1.00  0.00     0.131 A 
ATOM     82  C   UNL     1      12.657   5.448  -0.460  1.00  0.00     0.055 A 
ATOM     83  C   UNL     1      11.455   3.388  -0.747  1.00  0.00     0.041 A 
ATOM     84  F   UNL     1       9.771   3.240  -2.369  1.00  0.00    -0.206 F 
ATOM     85  C   UNL     1      12.457   4.112  -0.109  1.00  0.00     0.022 A 
BRANCH  82  86
ATOM     86  S   UNL     1      14.057   6.370   0.234  1.00  0.00     0.124 S 
ATOM     87  O   UNL     1      14.782   6.759  -0.971  1.00  0.00    -0.237 OA
ATOM     88  O   UNL     1      13.383   7.445   0.953  1.00  0.00    -0.237 OA
ATOM     89  O   UNL     1      14.729   5.383   1.077  1.00  0.00    -0.744 OA
ENDBRANCH  82  86
ENDBRANCH  55  79
BRANCH  67  90
ATOM     90  C   UNL     1      12.790   8.095  -8.220  1.00  0.00     0.023 A 
ATOM     91  C   UNL     1      13.653   7.050  -8.590  1.00  0.00     0.031 A 
ATOM     92  C   UNL     1      13.223   9.417  -8.425  1.00  0.00     0.131 A 
ATOM     93  C   UNL     1      14.929   7.344  -9.093  1.00  0.00     0.055 A 
ATOM     94  C   UNL     1      14.468   9.703  -8.986  1.00  0.00     0.041 A 
ATOM     95  F   UNL     1      12.440  10.454  -8.088  1.00  0.00    -0.206 F 
ATOM     96  C   UNL     1      15.334   8.663  -9.311  1.00  0.00     0.022 A 
BRANCH  93  97
ATOM     97  S   UNL     1      16.089   5.979  -9.373  1.00  0.00     0.124 S 
ATOM     98  O   UNL     1      16.182   5.382  -8.044  1.00  0.00    -0.237 OA
ATOM     99  O   UNL     1      15.399   5.183 -10.382  1.00  0.00    -0.237 OA
ATOM    100  O   UNL     1      17.302   6.650  -9.837  1.00  0.00    -0.744 OA
ENDBRANCH  93  97
ENDBRANCH  67  90
ENDBRANCH  41  42
ENDBRANCH  33  36
ENDBRANCH  31  32
ENDBRANCH  30  31
ENDBRANCH  29  30
ENDBRANCH   3  29
TORSDOF 18
