REMARK SMILES CCC(=CC(=O)[C@H](Cc1ccc(Cl)cc1Cl)C(=O)NCCCNC(=O)c1ccc(-c2c3nc(c(-c4cc(S(=O)(=O)[O-])ccc4F)c4ccc([nH]4)c(-c4cc(S(=O)(=O)[O-])ccc4F)c4nc(c(-c5cc(S(=O)(=O)[O-])ccc5F)c5ccc2[nH]5)C=C4)C=C3)cc1)N(C)C
REMARK SMILES IDX 21 1 20 2 19 3 17 4 18 5 7 7 5 8 6 9 4 10 3 11 2 12 1 13
REMARK SMILES IDX 89 14 90 15 91 16 8 17 9 18 10 19 15 20 11 21 14 22 16 23
REMARK SMILES IDX 12 24 13 25 22 26 23 27 24 28 25 30 26 31 27 32 88 33 28 34
REMARK SMILES IDX 87 35 29 36 30 37 31 38 81 39 32 40 86 41 80 42 82 43 33 44
REMARK SMILES IDX 85 45 79 46 78 47 34 49 66 50 46 51 65 52 47 53 50 54 64 55
REMARK SMILES IDX 83 56 48 57 49 58 63 60 84 61 51 62 35 63 36 64 44 65 37 66
REMARK SMILES IDX 43 67 45 68 42 69 38 70 39 71 40 72 41 73 67 74 68 75 76 76
REMARK SMILES IDX 69 77 75 78 77 79 74 80 70 81 71 82 72 83 73 84 52 85 53 86
REMARK SMILES IDX 61 87 54 88 60 89 62 90 59 91 55 92 56 93 57 94 58 95
REMARK H PARENT 19 6 23 29 82 48 50 59
REMARK Flexibility Score: inf
ROOT
ATOM      1  C   UNL     1       3.232   1.501   1.625  1.00  0.00     0.042 C 
ENDROOT
BRANCH   1   2
ATOM      2  C   UNL     1       4.161   0.775   2.629  1.00  0.00     0.117 C 
BRANCH   2   3
ATOM      3  N   UNL     1       3.493   0.467   4.018  1.00  0.00    -0.355 N 
ATOM      4  C   UNL     1       2.600  -0.337   4.737  1.00  0.00     0.231 C 
ATOM      5  O   UNL     1       2.438   0.065   5.906  1.00  0.00    -0.274 OA
ATOM      6  H   UNL     1       3.860   1.119   4.657  1.00  0.00     0.163 HD
BRANCH   4   7
ATOM      7  C   UNL     1       1.802  -1.731   4.324  1.00  0.00     0.154 C 
BRANCH   7   8
ATOM      8  C   UNL     1       2.868  -2.411   3.561  1.00  0.00     0.170 C 
ATOM      9  O   UNL     1       3.557  -3.331   3.992  1.00  0.00    -0.294 OA
BRANCH   8  10
ATOM     10  C   UNL     1       3.059  -1.829   2.202  1.00  0.00     0.069 C 
ATOM     11  C   UNL     1       1.806  -1.698   1.706  1.00  0.00     0.016 C 
BRANCH  11  12
ATOM     12  C   UNL     1       1.473  -3.333   1.375  1.00  0.00     0.050 C 
ATOM     13  C   UNL     1       0.320  -4.349   1.146  1.00  0.00     0.010 C 
ENDBRANCH  11  12
BRANCH  11  14
ATOM     14  N   UNL     1       0.892  -0.448   1.964  1.00  0.00    -0.381 N 
ATOM     15  C   UNL     1       0.442   0.464   0.850  1.00  0.00     0.143 C 
ATOM     16  C   UNL     1       0.572   0.445   3.174  1.00  0.00     0.143 C 
ENDBRANCH  11  14
ENDBRANCH   8  10
ENDBRANCH   7   8
BRANCH   7  17
ATOM     17  C   UNL     1       0.117  -2.202   3.811  1.00  0.00     0.059 C 
BRANCH  17  18
ATOM     18  C   UNL     1      -1.167  -1.916   2.666  1.00  0.00    -0.028 A 
ATOM     19  C   UNL     1      -2.405  -1.759   3.351  1.00  0.00     0.007 A 
ATOM     20  C   UNL     1      -1.361  -1.863   1.190  1.00  0.00     0.045 A 
ATOM     21  C   UNL     1      -3.643  -1.501   2.704  1.00  0.00     0.021 A 
ATOM     22  C   UNL     1      -2.610  -1.570   0.586  1.00  0.00     0.041 A 
ATOM     23  Cl  UNL     1      -0.345  -2.027  -0.271  1.00  0.00    -0.084 Cl
ATOM     24  C   UNL     1      -3.736  -1.385   1.331  1.00  0.00     0.042 A 
ATOM     25  Cl  UNL     1      -5.211  -1.036   0.529  1.00  0.00    -0.084 Cl
ENDBRANCH  17  18
ENDBRANCH   7  17
ENDBRANCH   4   7
ENDBRANCH   2   3
ENDBRANCH   1   2
BRANCH   1  26
ATOM     26  C   UNL     1       3.532   2.138   0.240  1.00  0.00     0.118 C 
BRANCH  26  27
ATOM     27  N   UNL     1       3.334   1.237  -0.917  1.00  0.00    -0.352 N 
ATOM     28  C   UNL     1       2.484   1.041  -1.996  1.00  0.00     0.251 C 
ATOM     29  H   UNL     1       4.039   0.550  -0.924  1.00  0.00     0.163 HD
ATOM     30  O   UNL     1       2.849   0.110  -2.729  1.00  0.00    -0.269 OA
BRANCH  28  31
ATOM     31  C   UNL     1       1.194   1.746  -2.394  1.00  0.00     0.039 A 
ATOM     32  C   UNL     1       0.509   1.224  -3.524  1.00  0.00     0.014 A 
ATOM     33  C   UNL     1       0.585   2.835  -1.775  1.00  0.00     0.014 A 
ATOM     34  C   UNL     1      -0.705   1.764  -4.019  1.00  0.00     0.010 A 
ATOM     35  C   UNL     1      -0.655   3.364  -2.257  1.00  0.00     0.010 A 
ATOM     36  C   UNL     1      -1.323   2.846  -3.389  1.00  0.00    -0.014 A 
BRANCH  36  37
ATOM     37  C   UNL     1      -2.618   3.440  -3.908  1.00  0.00     0.031 A 
ATOM     38  C   UNL     1      -2.666   4.862  -4.437  1.00  0.00     0.074 A 
ATOM     39  C   UNL     1      -3.781   2.746  -3.905  1.00  0.00     0.049 A 
ATOM     40  N   UNL     1      -3.696   5.586  -4.814  1.00  0.00    -0.248 NA
ATOM     41  C   UNL     1      -1.380   5.560  -4.544  1.00  0.00     0.031 C 
ATOM     42  C   UNL     1      -3.939   1.361  -3.464  1.00  0.00     0.029 A 
ATOM     43  N   UNL     1      -5.063   3.120  -4.265  1.00  0.00    -0.354 N 
ATOM     44  C   UNL     1      -3.187   6.831  -5.180  1.00  0.00     0.074 A 
ATOM     45  C   UNL     1      -1.757   6.768  -4.943  1.00  0.00     0.031 C 
ATOM     46  C   UNL     1      -5.235   1.012  -3.555  1.00  0.00     0.029 A 
ATOM     47  C   UNL     1      -6.019   2.155  -4.023  1.00  0.00     0.049 A 
ATOM     48  H   UNL     1      -5.275   3.998  -4.658  1.00  0.00     0.167 HD
ATOM     49  C   UNL     1      -3.832   7.922  -5.677  1.00  0.00     0.034 A 
ATOM     50  C   UNL     1      -7.368   2.178  -4.129  1.00  0.00     0.034 A 
ATOM     51  C   UNL     1      -5.251   7.997  -5.947  1.00  0.00     0.049 A 
ATOM     52  C   UNL     1      -8.077   3.420  -4.620  1.00  0.00     0.074 A 
ATOM     53  C   UNL     1      -5.967   9.042  -6.514  1.00  0.00     0.029 A 
ATOM     54  N   UNL     1      -6.176   7.002  -5.666  1.00  0.00    -0.354 N 
ATOM     55  N   UNL     1      -7.569   4.574  -4.980  1.00  0.00    -0.248 NA
ATOM     56  C   UNL     1      -9.545   3.356  -4.726  1.00  0.00     0.031 C 
ATOM     57  C   UNL     1      -7.327   8.707  -6.512  1.00  0.00     0.029 A 
ATOM     58  C   UNL     1      -7.455   7.423  -6.011  1.00  0.00     0.049 A 
ATOM     59  H   UNL     1      -5.958   6.124  -5.278  1.00  0.00     0.167 HD
ATOM     60  C   UNL     1      -8.650   5.356  -5.387  1.00  0.00     0.074 A 
ATOM     61  C   UNL     1      -9.837   4.544  -5.235  1.00  0.00     0.031 C 
ATOM     62  C   UNL     1      -8.651   6.629  -5.857  1.00  0.00     0.034 A 
BRANCH  49  63
ATOM     63  C   UNL     1      -3.003   9.162  -5.935  1.00  0.00     0.023 A 
ATOM     64  C   UNL     1      -1.990   9.188  -6.907  1.00  0.00     0.031 A 
ATOM     65  C   UNL     1      -3.229  10.336  -5.191  1.00  0.00     0.131 A 
ATOM     66  C   UNL     1      -1.188  10.329  -7.054  1.00  0.00     0.055 A 
ATOM     67  C   UNL     1      -2.481  11.496  -5.399  1.00  0.00     0.041 A 
ATOM     68  F   UNL     1      -4.177  10.371  -4.242  1.00  0.00    -0.206 F 
ATOM     69  C   UNL     1      -1.440  11.493  -6.323  1.00  0.00     0.022 A 
BRANCH  66  70
ATOM     70  S   UNL     1       0.289  10.237  -8.105  1.00  0.00     0.124 S 
ATOM     71  O   UNL     1       1.021   9.127  -7.478  1.00  0.00    -0.237 OA
ATOM     72  O   UNL     1      -0.288   9.938  -9.424  1.00  0.00    -0.237 OA
ATOM     73  O   UNL     1       0.899  11.533  -7.970  1.00  0.00    -0.744 OA
ENDBRANCH  66  70
ENDBRANCH  49  63
BRANCH  50  74
ATOM     74  C   UNL     1      -8.177   0.994  -3.704  1.00  0.00     0.023 A 
ATOM     75  C   UNL     1      -8.945   0.260  -4.624  1.00  0.00     0.031 A 
ATOM     76  C   UNL     1      -8.248   0.627  -2.347  1.00  0.00     0.131 A 
ATOM     77  C   UNL     1      -9.779  -0.777  -4.171  1.00  0.00     0.055 A 
ATOM     78  C   UNL     1      -9.037  -0.438  -1.909  1.00  0.00     0.041 A 
ATOM     79  F   UNL     1      -7.546   1.306  -1.425  1.00  0.00    -0.206 F 
ATOM     80  C   UNL     1      -9.819  -1.139  -2.822  1.00  0.00     0.022 A 
BRANCH  77  81
ATOM     81  S   UNL     1     -10.879  -1.596  -5.360  1.00  0.00     0.124 S 
ATOM     82  O   UNL     1     -11.668  -0.475  -5.858  1.00  0.00    -0.237 OA
ATOM     83  O   UNL     1      -9.928  -2.179  -6.301  1.00  0.00    -0.237 OA
ATOM     84  O   UNL     1     -11.611  -2.559  -4.541  1.00  0.00    -0.744 OA
ENDBRANCH  77  81
ENDBRANCH  50  74
BRANCH  62  85
ATOM     85  C   UNL     1      -9.976   7.210  -6.298  1.00  0.00     0.023 A 
ATOM     86  C   UNL     1     -11.008   7.497  -5.386  1.00  0.00     0.031 A 
ATOM     87  C   UNL     1     -10.215   7.465  -7.662  1.00  0.00     0.131 A 
ATOM     88  C   UNL     1     -12.245   7.974  -5.852  1.00  0.00     0.055 A 
ATOM     89  C   UNL     1     -11.429   7.987  -8.114  1.00  0.00     0.041 A 
ATOM     90  F   UNL     1      -9.270   7.209  -8.580  1.00  0.00    -0.206 F 
ATOM     91  C   UNL     1     -12.457   8.234  -7.208  1.00  0.00     0.022 A 
BRANCH  88  92
ATOM     92  S   UNL     1     -13.607   8.180  -4.670  1.00  0.00     0.124 S 
ATOM     93  O   UNL     1     -13.762   6.827  -4.145  1.00  0.00    -0.237 OA
ATOM     94  O   UNL     1     -13.069   9.166  -3.740  1.00  0.00    -0.237 OA
ATOM     95  O   UNL     1     -14.714   8.653  -5.500  1.00  0.00    -0.744 OA
ENDBRANCH  88  92
ENDBRANCH  62  85
ENDBRANCH  36  37
ENDBRANCH  28  31
ENDBRANCH  26  27
ENDBRANCH   1  26
TORSDOF 19
