REMARK SMILES Cc1ccc(-c2cc(Cl)cc3c2O[C@@H](C(F)(F)F)C(C(=O)NCCCNC(=O)c2ccc(-c4c5nc(c(-c6cc(S(=O)(=O)[O-])ccc6F)c6ccc([nH]6)c(-c6cc(S(=O)(=O)[O-])ccc6F)c6nc(c(-c7cc(S(=O)(=O)[O-])ccc7F)c7ccc4[nH]7)C=C6)C=C5)cc2)=C3)cc1
REMARK SMILES IDX 25 1 24 2 23 3 22 4 20 5 21 6 19 8 6 9 7 10 12 11 8 12 11 13
REMARK SMILES IDX 13 14 9 15 10 16 92 17 14 18 5 19 1 20 2 21 3 22 94 23 4 24
REMARK SMILES IDX 93 25 15 26 16 27 17 28 18 29 26 30 27 31 28 33 29 34 30 35
REMARK SMILES IDX 91 36 31 37 90 38 32 39 33 40 34 41 84 42 35 43 89 44 83 45
REMARK SMILES IDX 85 46 36 47 88 48 82 49 81 50 37 52 69 53 49 54 68 55 50 56
REMARK SMILES IDX 53 57 67 58 86 59 51 60 52 61 66 63 87 64 54 65 38 66 39 67
REMARK SMILES IDX 47 68 40 69 46 70 48 71 45 72 41 73 42 74 43 75 44 76 70 77
REMARK SMILES IDX 71 78 79 79 72 80 78 81 80 82 77 83 73 84 74 85 75 86 76 87
REMARK SMILES IDX 55 88 56 89 64 90 57 91 63 92 65 93 62 94 58 95 59 96 60 97
REMARK SMILES IDX 61 98
REMARK H PARENT 22 7 26 32 85 51 53 62
REMARK Flexibility Score: inf
ROOT
ATOM      1  C   UNL     1      -2.987  -4.346   6.126  1.00  0.00     0.118 C 
ENDROOT
BRANCH   1   2
ATOM      2  C   UNL     1      -4.151  -3.575   5.505  1.00  0.00     0.042 C 
BRANCH   2   3
ATOM      3  C   UNL     1      -4.302  -2.132   5.980  1.00  0.00     0.118 C 
BRANCH   3   4
ATOM      4  N   UNL     1      -3.750  -1.145   5.064  1.00  0.00    -0.352 N 
ATOM      5  C   UNL     1      -4.305  -0.211   4.244  1.00  0.00     0.251 C 
ATOM      6  O   UNL     1      -3.596   0.746   3.914  1.00  0.00    -0.270 OA
ATOM      7  H   UNL     1      -2.766  -1.156   5.029  1.00  0.00     0.163 HD
BRANCH   5   8
ATOM      8  C   UNL     1      -5.728  -0.319   3.674  1.00  0.00     0.067 C 
ATOM      9  C   UNL     1      -3.906  -1.075   0.122  1.00  0.00     0.026 A 
ATOM     10  C   UNL     1      -4.348  -0.450  -1.060  1.00  0.00     0.033 A 
ATOM     11  C   UNL     1      -4.731  -0.915   1.234  1.00  0.00     0.135 A 
ATOM     12  C   UNL     1      -5.323   0.551  -1.005  1.00  0.00     0.042 A 
ATOM     13  C   UNL     1      -5.508   0.267   1.369  1.00  0.00     0.019 A 
ATOM     14  O   UNL     1      -4.885  -1.968   2.154  1.00  0.00    -0.475 OA
ATOM     15  Cl  UNL     1      -5.786   1.358  -2.453  1.00  0.00    -0.084 Cl
ATOM     16  C   UNL     1      -5.828   0.985   0.223  1.00  0.00     0.032 A 
ATOM     17  C   UNL     1      -5.939   0.660   2.750  1.00  0.00     0.025 C 
ATOM     18  C   UNL     1      -6.027  -1.651   3.002  1.00  0.00     0.314 C 
BRANCH   9  19
ATOM     19  C   UNL     1      -2.430  -1.054   0.305  1.00  0.00    -0.015 A 
ATOM     20  C   UNL     1       1.871  -0.489   0.235  1.00  0.00     0.044 C 
ATOM     21  C   UNL     1       0.384  -0.692   0.304  1.00  0.00    -0.051 A 
ATOM     22  C   UNL     1      -0.186  -1.967   0.150  1.00  0.00     0.004 A 
ATOM     23  C   UNL     1      -0.455   0.394   0.531  1.00  0.00     0.004 A 
ATOM     24  C   UNL     1      -1.583  -2.149   0.143  1.00  0.00     0.009 A 
ATOM     25  C   UNL     1      -1.834   0.209   0.541  1.00  0.00     0.009 A 
ENDBRANCH   9  19
BRANCH  18  26
ATOM     26  C   UNL     1      -6.778  -2.738   3.783  1.00  0.00     0.429 C 
ATOM     27  F   UNL     1      -8.032  -2.893   3.256  1.00  0.00    -0.167 F 
ATOM     28  F   UNL     1      -6.205  -3.954   3.715  1.00  0.00    -0.167 F 
ATOM     29  F   UNL     1      -6.994  -2.426   5.077  1.00  0.00    -0.167 F 
ENDBRANCH  18  26
ENDBRANCH   5   8
ENDBRANCH   3   4
ENDBRANCH   2   3
ENDBRANCH   1   2
BRANCH   1  30
ATOM     30  N   UNL     1      -3.317  -4.977   7.410  1.00  0.00    -0.352 N 
ATOM     31  C   UNL     1      -2.589  -5.909   8.139  1.00  0.00     0.251 C 
ATOM     32  H   UNL     1      -4.173  -4.702   7.810  1.00  0.00     0.163 HD
ATOM     33  O   UNL     1      -2.967  -6.360   9.189  1.00  0.00    -0.269 OA
BRANCH  31  34
ATOM     34  C   UNL     1      -1.245  -6.266   7.621  1.00  0.00     0.039 A 
ATOM     35  C   UNL     1      -0.139  -5.837   8.362  1.00  0.00     0.014 A 
ATOM     36  C   UNL     1      -1.105  -6.741   6.321  1.00  0.00     0.014 A 
ATOM     37  C   UNL     1       1.076  -5.652   7.712  1.00  0.00     0.010 A 
ATOM     38  C   UNL     1       0.080  -6.484   5.657  1.00  0.00     0.010 A 
ATOM     39  C   UNL     1       1.141  -5.864   6.332  1.00  0.00    -0.014 A 
BRANCH  39  40
ATOM     40  C   UNL     1       2.152  -5.215   5.498  1.00  0.00     0.031 A 
ATOM     41  C   UNL     1       3.195  -5.969   4.779  1.00  0.00     0.074 A 
ATOM     42  C   UNL     1       2.079  -3.877   5.312  1.00  0.00     0.049 A 
ATOM     43  N   UNL     1       4.359  -5.488   4.484  1.00  0.00    -0.248 NA
ATOM     44  C   UNL     1       3.008  -7.347   4.342  1.00  0.00     0.031 C 
ATOM     45  C   UNL     1       2.788  -3.079   4.317  1.00  0.00     0.029 A 
ATOM     46  N   UNL     1       1.485  -2.937   6.151  1.00  0.00    -0.354 N 
ATOM     47  C   UNL     1       4.936  -6.346   3.578  1.00  0.00     0.074 A 
ATOM     48  C   UNL     1       4.093  -7.522   3.581  1.00  0.00     0.031 C 
ATOM     49  C   UNL     1       2.802  -1.799   4.719  1.00  0.00     0.029 A 
ATOM     50  C   UNL     1       2.229  -1.751   6.052  1.00  0.00     0.049 A 
ATOM     51  H   UNL     1       0.689  -3.079   6.712  1.00  0.00     0.167 HD
ATOM     52  C   UNL     1       5.967  -5.931   2.789  1.00  0.00     0.034 A 
ATOM     53  C   UNL     1       2.829  -1.205   7.149  1.00  0.00     0.034 A 
ATOM     54  C   UNL     1       6.339  -4.541   3.034  1.00  0.00     0.049 A 
ATOM     55  C   UNL     1       4.332  -1.126   7.044  1.00  0.00     0.074 A 
ATOM     56  C   UNL     1       6.054  -3.364   2.359  1.00  0.00     0.029 A 
ATOM     57  N   UNL     1       6.879  -4.166   4.261  1.00  0.00    -0.354 N 
ATOM     58  N   UNL     1       5.035  -1.743   6.136  1.00  0.00    -0.248 NA
ATOM     59  C   UNL     1       5.164  -0.373   7.978  1.00  0.00     0.031 C 
ATOM     60  C   UNL     1       6.360  -2.278   3.217  1.00  0.00     0.029 A 
ATOM     61  C   UNL     1       6.861  -2.790   4.402  1.00  0.00     0.049 A 
ATOM     62  H   UNL     1       7.225  -4.793   4.936  1.00  0.00     0.167 HD
ATOM     63  C   UNL     1       6.370  -1.539   6.372  1.00  0.00     0.074 A 
ATOM     64  C   UNL     1       6.396  -0.637   7.511  1.00  0.00     0.031 C 
ATOM     65  C   UNL     1       7.336  -2.151   5.623  1.00  0.00     0.034 A 
BRANCH  52  66
ATOM     66  C   UNL     1       6.377  -6.712   1.563  1.00  0.00     0.023 A 
ATOM     67  C   UNL     1       6.682  -6.040   0.363  1.00  0.00     0.031 A 
ATOM     68  C   UNL     1       6.429  -8.117   1.510  1.00  0.00     0.131 A 
ATOM     69  C   UNL     1       6.902  -6.747  -0.832  1.00  0.00     0.055 A 
ATOM     70  C   UNL     1       6.588  -8.822   0.310  1.00  0.00     0.041 A 
ATOM     71  F   UNL     1       6.337  -8.857   2.627  1.00  0.00    -0.206 F 
ATOM     72  C   UNL     1       6.808  -8.135  -0.875  1.00  0.00     0.022 A 
BRANCH  69  73
ATOM     73  S   UNL     1       7.319  -5.821  -2.337  1.00  0.00     0.124 S 
ATOM     74  O   UNL     1       6.179  -4.921  -2.475  1.00  0.00    -0.237 OA
ATOM     75  O   UNL     1       8.589  -5.202  -1.975  1.00  0.00    -0.237 OA
ATOM     76  O   UNL     1       7.410  -6.862  -3.361  1.00  0.00    -0.744 OA
ENDBRANCH  69  73
ENDBRANCH  52  66
BRANCH  53  77
ATOM     77  C   UNL     1       2.060  -1.405   8.408  1.00  0.00     0.023 A 
ATOM     78  C   UNL     1       0.757  -0.871   8.447  1.00  0.00     0.031 A 
ATOM     79  C   UNL     1       2.400  -2.382   9.352  1.00  0.00     0.131 A 
ATOM     80  C   UNL     1      -0.209  -1.427   9.294  1.00  0.00     0.055 A 
ATOM     81  C   UNL     1       1.447  -2.890  10.244  1.00  0.00     0.041 A 
ATOM     82  F   UNL     1       3.616  -2.945   9.346  1.00  0.00    -0.206 F 
ATOM     83  C   UNL     1       0.124  -2.447  10.187  1.00  0.00     0.022 A 
BRANCH  80  84
ATOM     84  S   UNL     1      -1.952  -1.012   9.014  1.00  0.00     0.124 S 
ATOM     85  O   UNL     1      -2.198   0.008  10.024  1.00  0.00    -0.237 OA
ATOM     86  O   UNL     1      -1.956  -0.552   7.626  1.00  0.00    -0.237 OA
ATOM     87  O   UNL     1      -2.638  -2.286   9.218  1.00  0.00    -0.744 OA
ENDBRANCH  80  84
ENDBRANCH  53  77
BRANCH  65  88
ATOM     88  C   UNL     1       8.816  -2.117   5.923  1.00  0.00     0.023 A 
ATOM     89  C   UNL     1       9.336  -1.849   7.198  1.00  0.00     0.031 A 
ATOM     90  C   UNL     1       9.769  -2.424   4.923  1.00  0.00     0.131 A 
ATOM     91  C   UNL     1      10.723  -1.782   7.420  1.00  0.00     0.055 A 
ATOM     92  C   UNL     1      11.147  -2.441   5.165  1.00  0.00     0.041 A 
ATOM     93  F   UNL     1       9.403  -2.721   3.667  1.00  0.00    -0.206 F 
ATOM     94  C   UNL     1      11.634  -2.096   6.417  1.00  0.00     0.022 A 
BRANCH  91  95
ATOM     95  S   UNL     1      11.305  -1.191   9.031  1.00  0.00     0.124 S 
ATOM     96  O   UNL     1      10.751   0.160   9.073  1.00  0.00    -0.237 OA
ATOM     97  O   UNL     1      10.706  -2.151   9.953  1.00  0.00    -0.237 OA
ATOM     98  O   UNL     1      12.760  -1.260   8.919  1.00  0.00    -0.744 OA
ENDBRANCH  91  95
ENDBRANCH  65  88
ENDBRANCH  39  40
ENDBRANCH  31  34
ENDBRANCH   1  30
TORSDOF 15
