REMARK SMILES O=C(NCCCNC(=O)[C@@H]1CCCC[C@@H]1NS(=O)(=O)c1ccc2ccccc2c1)c1ccc(-c2c3nc(c(-c4cc(S(=O)(=O)[O-])ccc4F)c4ccc([nH]4)c(-c4cc(S(=O)(=O)[O-])ccc4F)c4nc(c(-c5cc(S(=O)(=O)[O-])ccc5F)c5ccc2[nH]5)C=C4)C=C3)cc1
REMARK SMILES IDX 5 1 4 2 3 3 1 4 2 5 30 7 31 8 92 9 32 10 91 11 33 12 34 13
REMARK SMILES IDX 35 14 85 15 36 16 90 17 84 18 86 19 37 20 89 21 83 22 82 23
REMARK SMILES IDX 38 25 70 26 50 27 69 28 51 29 54 30 68 31 87 32 52 33 53 34
REMARK SMILES IDX 67 36 88 37 55 38 39 39 40 40 48 41 41 42 47 43 49 44 46 45
REMARK SMILES IDX 42 46 43 47 44 48 45 49 71 50 72 51 80 52 73 53 79 54 81 55
REMARK SMILES IDX 78 56 74 57 75 58 76 59 77 60 56 61 57 62 65 63 58 64 64 65
REMARK SMILES IDX 66 66 63 67 59 68 60 69 61 70 62 71 6 72 7 73 8 74 9 76
REMARK SMILES IDX 10 77 11 78 15 79 12 80 14 81 13 82 16 83 17 85 18 86 19 87
REMARK SMILES IDX 20 88 21 89 29 90 22 91 28 92 23 93 27 94 24 95 26 96 25 97
REMARK H PARENT 3 6 86 24 54 35 7 75 16 84
REMARK Flexibility Score: inf
ROOT
ATOM      1  C   UNL     1       4.741   2.808   0.042  1.00  0.00     0.042 C 
ENDROOT
BRANCH   1   2
ATOM      2  C   UNL     1       4.478   1.405   0.580  1.00  0.00     0.118 C 
BRANCH   2   3
ATOM      3  N   UNL     1       3.060   1.074   0.596  1.00  0.00    -0.352 N 
ATOM      4  O   UNL     1       1.169   0.026  -0.007  1.00  0.00    -0.269 OA
ATOM      5  C   UNL     1       2.398   0.016   0.023  1.00  0.00     0.251 C 
ATOM      6  H   UNL     1       2.490   1.704   1.093  1.00  0.00     0.163 HD
BRANCH   5   7
ATOM      7  C   UNL     1       3.147  -1.123  -0.556  1.00  0.00     0.039 A 
ATOM      8  C   UNL     1       4.261  -1.659   0.095  1.00  0.00     0.014 A 
ATOM      9  C   UNL     1       2.683  -1.707  -1.740  1.00  0.00     0.014 A 
ATOM     10  C   UNL     1       4.969  -2.707  -0.486  1.00  0.00     0.010 A 
ATOM     11  C   UNL     1       3.354  -2.806  -2.285  1.00  0.00     0.010 A 
ATOM     12  C   UNL     1       4.509  -3.308  -1.668  1.00  0.00    -0.014 A 
BRANCH  12  13
ATOM     13  C   UNL     1       5.194  -4.522  -2.182  1.00  0.00     0.031 A 
ATOM     14  C   UNL     1       5.945  -4.500  -3.483  1.00  0.00     0.074 A 
ATOM     15  C   UNL     1       5.132  -5.651  -1.447  1.00  0.00     0.049 A 
ATOM     16  N   UNL     1       6.602  -5.469  -4.068  1.00  0.00    -0.248 NA
ATOM     17  C   UNL     1       5.956  -3.233  -4.228  1.00  0.00     0.031 C 
ATOM     18  C   UNL     1       4.412  -5.786  -0.177  1.00  0.00     0.029 A 
ATOM     19  N   UNL     1       5.679  -6.891  -1.650  1.00  0.00    -0.354 N 
ATOM     20  C   UNL     1       7.093  -4.938  -5.255  1.00  0.00     0.074 A 
ATOM     21  C   UNL     1       6.639  -3.564  -5.316  1.00  0.00     0.031 C 
ATOM     22  C   UNL     1       4.585  -7.029   0.298  1.00  0.00     0.029 A 
ATOM     23  C   UNL     1       5.375  -7.796  -0.658  1.00  0.00     0.049 A 
ATOM     24  H   UNL     1       6.236  -7.114  -2.430  1.00  0.00     0.167 HD
ATOM     25  C   UNL     1       7.855  -5.544  -6.199  1.00  0.00     0.034 A 
ATOM     26  C   UNL     1       5.673  -9.104  -0.543  1.00  0.00     0.034 A 
ATOM     27  C   UNL     1       8.307  -6.912  -6.114  1.00  0.00     0.049 A 
ATOM     28  C   UNL     1       6.494  -9.754  -1.624  1.00  0.00     0.074 A 
ATOM     29  C   UNL     1       9.144  -7.597  -6.979  1.00  0.00     0.029 A 
ATOM     30  N   UNL     1       7.950  -7.809  -5.116  1.00  0.00    -0.354 N 
ATOM     31  N   UNL     1       6.996  -9.217  -2.712  1.00  0.00    -0.248 NA
ATOM     32  C   UNL     1       6.790 -11.182  -1.461  1.00  0.00     0.031 C 
ATOM     33  C   UNL     1       9.238  -8.924  -6.542  1.00  0.00     0.029 A 
ATOM     34  C   UNL     1       8.513  -9.052  -5.368  1.00  0.00     0.049 A 
ATOM     35  H   UNL     1       7.380  -7.595  -4.343  1.00  0.00     0.167 HD
ATOM     36  C   UNL     1       7.676 -10.244  -3.359  1.00  0.00     0.074 A 
ATOM     37  C   UNL     1       7.544 -11.420  -2.523  1.00  0.00     0.031 C 
ATOM     38  C   UNL     1       8.347 -10.220  -4.538  1.00  0.00     0.034 A 
BRANCH  25  39
ATOM     39  C   UNL     1       8.216  -4.750  -7.429  1.00  0.00     0.023 A 
ATOM     40  C   UNL     1       9.100  -3.659  -7.378  1.00  0.00     0.031 A 
ATOM     41  C   UNL     1       7.686  -5.113  -8.680  1.00  0.00     0.131 A 
ATOM     42  C   UNL     1       9.396  -2.944  -8.549  1.00  0.00     0.055 A 
ATOM     43  C   UNL     1       8.030  -4.435  -9.851  1.00  0.00     0.041 A 
ATOM     44  F   UNL     1       6.823  -6.136  -8.784  1.00  0.00    -0.206 F 
ATOM     45  C   UNL     1       8.885  -3.339  -9.789  1.00  0.00     0.022 A 
BRANCH  42  46
ATOM     46  S   UNL     1      10.396  -1.436  -8.422  1.00  0.00     0.124 S 
ATOM     47  O   UNL     1       9.561  -0.599  -7.563  1.00  0.00    -0.237 OA
ATOM     48  O   UNL     1      11.633  -1.926  -7.826  1.00  0.00    -0.237 OA
ATOM     49  O   UNL     1      10.508  -0.980  -9.806  1.00  0.00    -0.744 OA
ENDBRANCH  42  46
ENDBRANCH  25  39
BRANCH  26  50
ATOM     50  C   UNL     1       5.155  -9.898   0.607  1.00  0.00     0.023 A 
ATOM     51  C   UNL     1       6.027 -10.491   1.532  1.00  0.00     0.031 A 
ATOM     52  C   UNL     1       3.774 -10.114   0.767  1.00  0.00     0.131 A 
ATOM     53  C   UNL     1       5.512 -11.310   2.550  1.00  0.00     0.055 A 
ATOM     54  C   UNL     1       3.264 -10.883   1.813  1.00  0.00     0.041 A 
ATOM     55  F   UNL     1       2.897  -9.567  -0.090  1.00  0.00    -0.206 F 
ATOM     56  C   UNL     1       4.136 -11.499   2.704  1.00  0.00     0.022 A 
BRANCH  53  57
ATOM     57  S   UNL     1       6.675 -12.208   3.612  1.00  0.00     0.124 S 
ATOM     58  O   UNL     1       7.499 -12.906   2.631  1.00  0.00    -0.237 OA
ATOM     59  O   UNL     1       7.324 -11.119   4.335  1.00  0.00    -0.237 OA
ATOM     60  O   UNL     1       5.808 -13.062   4.420  1.00  0.00    -0.744 OA
ENDBRANCH  53  57
ENDBRANCH  26  50
BRANCH  38  61
ATOM     61  C   UNL     1       8.994 -11.510  -4.969  1.00  0.00     0.023 A 
ATOM     62  C   UNL     1       8.223 -12.621  -5.353  1.00  0.00     0.031 A 
ATOM     63  C   UNL     1      10.393 -11.642  -4.962  1.00  0.00     0.131 A 
ATOM     64  C   UNL     1       8.854 -13.836  -5.657  1.00  0.00     0.055 A 
ATOM     65  C   UNL     1      11.018 -12.836  -5.320  1.00  0.00     0.041 A 
ATOM     66  F   UNL     1      11.174 -10.611  -4.601  1.00  0.00    -0.206 F 
ATOM     67  C   UNL     1      10.247 -13.946  -5.658  1.00  0.00     0.022 A 
BRANCH  64  68
ATOM     68  S   UNL     1       7.825 -15.296  -5.969  1.00  0.00     0.124 S 
ATOM     69  O   UNL     1       7.100 -15.430  -4.709  1.00  0.00    -0.237 OA
ATOM     70  O   UNL     1       7.032 -14.881  -7.120  1.00  0.00    -0.237 OA
ATOM     71  O   UNL     1       8.800 -16.352  -6.238  1.00  0.00    -0.744 OA
ENDBRANCH  64  68
ENDBRANCH  38  61
ENDBRANCH  12  13
ENDBRANCH   5   7
ENDBRANCH   2   3
ENDBRANCH   1   2
BRANCH   1  72
ATOM     72  C   UNL     1       4.201   3.917   0.936  1.00  0.00     0.117 C 
BRANCH  72  73
ATOM     73  N   UNL     1       4.904   3.991   2.205  1.00  0.00    -0.356 N 
ATOM     74  C   UNL     1       5.935   4.799   2.581  1.00  0.00     0.224 C 
ATOM     75  H   UNL     1       4.588   3.365   2.896  1.00  0.00     0.163 HD
ATOM     76  O   UNL     1       6.383   4.684   3.723  1.00  0.00    -0.275 OA
BRANCH  74  77
ATOM     77  C   UNL     1       6.419   5.886   1.636  1.00  0.00     0.096 C 
ATOM     78  C   UNL     1       7.898   6.228   1.857  1.00  0.00     0.015 C 
ATOM     79  C   UNL     1       5.519   7.139   1.760  1.00  0.00     0.082 C 
ATOM     80  C   UNL     1       8.356   7.287   0.858  1.00  0.00     0.001 C 
ATOM     81  C   UNL     1       6.004   8.218   0.789  1.00  0.00     0.021 C 
ATOM     82  C   UNL     1       7.491   8.541   0.938  1.00  0.00     0.002 C 
BRANCH  79  83
ATOM     83  N   UNL     1       5.406   7.583   3.164  1.00  0.00    -0.207 NA
ATOM     84  H   UNL     1       6.329   7.403   3.559  1.00  0.00     0.141 HD
BRANCH  83  85
ATOM     85  S   UNL     1       4.983   9.075   3.777  1.00  0.00     0.240 S 
ATOM     86  O   UNL     1       5.080   8.914   5.214  1.00  0.00    -0.207 OA
ATOM     87  O   UNL     1       5.724  10.114   3.101  1.00  0.00    -0.207 OA
BRANCH  85  88
ATOM     88  C   UNL     1       3.263   9.375   3.440  1.00  0.00     0.083 A 
ATOM     89  C   UNL     1       2.557   8.730   2.431  1.00  0.00     0.022 A 
ATOM     90  C   UNL     1       2.623  10.347   4.223  1.00  0.00     0.030 A 
ATOM     91  C   UNL     1       1.223   9.065   2.184  1.00  0.00     0.010 A 
ATOM     92  C   UNL     1       1.286  10.700   3.979  1.00  0.00    -0.017 A 
ATOM     93  C   UNL     1       0.578  10.052   2.941  1.00  0.00    -0.018 A 
ATOM     94  C   UNL     1       0.636  11.692   4.731  1.00  0.00     0.009 A 
ATOM     95  C   UNL     1      -0.752  10.412   2.680  1.00  0.00     0.009 A 
ATOM     96  C   UNL     1      -0.687  12.043   4.458  1.00  0.00     0.001 A 
ATOM     97  C   UNL     1      -1.380  11.405   3.433  1.00  0.00     0.001 A 
ENDBRANCH  85  88
ENDBRANCH  83  85
ENDBRANCH  79  83
ENDBRANCH  74  77
ENDBRANCH  72  73
ENDBRANCH   1  72
TORSDOF 16
