REMARK SMILES CCCC[C@@H](C(=O)NCCCNC(=O)c1ccc(-c2c3nc(c(-c4cc(S(=O)(=O)[O-])ccc4F)c4ccc([nH]4)c(-c4cc(S(=O)(=O)[O-])ccc4F)c4nc(c(-c5cc(S(=O)(=O)[O-])ccc5F)c5ccc2[nH]5)C=C4)C=C3)cc1)[C@]1(O)COc2cc(O)ccc21
REMARK SMILES IDX 10 1 9 2 8 3 6 4 7 5 5 7 4 8 3 9 2 10 1 11 78 12 80 13 88 14
REMARK SMILES IDX 81 15 82 16 87 17 83 18 86 19 84 20 79 21 85 23 11 25 12 26
REMARK SMILES IDX 13 27 14 29 15 30 16 31 77 32 17 33 76 34 18 35 19 36 20 37
REMARK SMILES IDX 70 38 21 39 75 40 69 41 71 42 22 43 74 44 68 45 67 46 23 48
REMARK SMILES IDX 55 49 35 50 54 51 36 52 39 53 53 54 72 55 37 56 38 57 52 59
REMARK SMILES IDX 73 60 40 61 24 62 25 63 33 64 26 65 32 66 34 67 31 68 27 69
REMARK SMILES IDX 28 70 29 71 30 72 56 73 57 74 65 75 58 76 64 77 66 78 63 79
REMARK SMILES IDX 59 80 60 81 61 82 62 83 41 84 42 85 50 86 43 87 49 88 51 89
REMARK SMILES IDX 48 90 44 91 45 92 46 93 47 94
REMARK H PARENT 8 6 79 22 85 24 12 28 71 47 39 58
REMARK Flexibility Score: inf
ROOT
ATOM      1  C   UNL     1       0.314   1.564  -4.031  1.00  0.00     0.042 C 
ENDROOT
BRANCH   1   2
ATOM      2  C   UNL     1      -1.054   1.128  -3.503  1.00  0.00     0.117 C 
BRANCH   2   3
ATOM      3  N   UNL     1      -1.524  -0.039  -4.226  1.00  0.00    -0.356 N 
ATOM      4  C   UNL     1      -1.175  -1.340  -3.981  1.00  0.00     0.226 C 
ATOM      5  O   UNL     1      -0.884  -2.036  -4.951  1.00  0.00    -0.275 OA
ATOM      6  H   UNL     1      -2.155   0.120  -4.965  1.00  0.00     0.163 HD
BRANCH   4   7
ATOM      7  C   UNL     1      -1.221  -1.878  -2.549  1.00  0.00     0.118 C 
BRANCH   7   8
ATOM      8  C   UNL     1       0.195  -2.144  -1.969  1.00  0.00     0.017 C 
BRANCH   8   9
ATOM      9  C   UNL     1       1.131  -0.975  -1.663  1.00  0.00     0.001 C 
BRANCH   9  10
ATOM     10  C   UNL     1       0.671   0.007  -0.587  1.00  0.00    -0.003 C 
ATOM     11  C   UNL     1       1.282  -0.289   0.772  1.00  0.00     0.004 C 
ENDBRANCH   9  10
ENDBRANCH   8   9
ENDBRANCH   7   8
BRANCH   7  12
ATOM     12  C   UNL     1      -2.093  -3.192  -2.463  1.00  0.00     0.139 C 
ATOM     13  C   UNL     1      -1.367  -4.527  -2.790  1.00  0.00     0.270 C 
ATOM     14  C   UNL     1      -3.207  -3.358  -3.460  1.00  0.00     0.030 A 
ATOM     15  O   UNL     1      -1.587  -4.862  -4.173  1.00  0.00    -0.490 OA
ATOM     16  C   UNL     1      -2.805  -4.285  -4.426  1.00  0.00     0.129 A 
ATOM     17  C   UNL     1      -4.453  -2.758  -3.568  1.00  0.00     0.014 A 
ATOM     18  C   UNL     1      -3.553  -4.577  -5.546  1.00  0.00     0.093 A 
ATOM     19  C   UNL     1      -5.254  -3.075  -4.677  1.00  0.00     0.047 A 
ATOM     20  C   UNL     1      -4.787  -3.956  -5.664  1.00  0.00     0.119 A 
BRANCH  12  21
ATOM     21  O   UNL     1      -2.598  -3.275  -1.117  1.00  0.00    -0.381 OA
ATOM     22  H   UNL     1      -1.866  -3.166  -0.490  1.00  0.00     0.212 HD
ENDBRANCH  12  21
BRANCH  20  23
ATOM     23  O   UNL     1      -5.532  -4.237  -6.772  1.00  0.00    -0.508 OA
ATOM     24  H   UNL     1      -5.203  -4.829  -7.420  1.00  0.00     0.293 HD
ENDBRANCH  20  23
ENDBRANCH   7  12
ENDBRANCH   4   7
ENDBRANCH   2   3
ENDBRANCH   1   2
BRANCH   1  25
ATOM     25  C   UNL     1       0.274   2.180  -5.420  1.00  0.00     0.118 C 
BRANCH  25  26
ATOM     26  N   UNL     1      -0.328   3.499  -5.413  1.00  0.00    -0.352 N 
ATOM     27  C   UNL     1       0.222   4.704  -5.779  1.00  0.00     0.251 C 
ATOM     28  H   UNL     1      -1.262   3.537  -5.104  1.00  0.00     0.163 HD
ATOM     29  O   UNL     1      -0.356   5.742  -5.473  1.00  0.00    -0.269 OA
BRANCH  27  30
ATOM     30  C   UNL     1       1.509   4.745  -6.513  1.00  0.00     0.039 A 
ATOM     31  C   UNL     1       2.433   5.745  -6.200  1.00  0.00     0.014 A 
ATOM     32  C   UNL     1       1.800   3.820  -7.519  1.00  0.00     0.014 A 
ATOM     33  C   UNL     1       3.661   5.787  -6.864  1.00  0.00     0.010 A 
ATOM     34  C   UNL     1       3.060   3.802  -8.108  1.00  0.00     0.010 A 
ATOM     35  C   UNL     1       3.998   4.799  -7.804  1.00  0.00    -0.014 A 
BRANCH  35  36
ATOM     36  C   UNL     1       5.307   4.817  -8.508  1.00  0.00     0.031 A 
ATOM     37  C   UNL     1       5.349   4.968 -10.007  1.00  0.00     0.074 A 
ATOM     38  C   UNL     1       6.448   4.655  -7.808  1.00  0.00     0.049 A 
ATOM     39  N   UNL     1       6.379   4.945 -10.814  1.00  0.00    -0.248 NA
ATOM     40  C   UNL     1       4.057   5.134 -10.691  1.00  0.00     0.031 C 
ATOM     41  C   UNL     1       6.528   4.462  -6.358  1.00  0.00     0.029 A 
ATOM     42  N   UNL     1       7.757   4.623  -8.218  1.00  0.00    -0.354 N 
ATOM     43  C   UNL     1       5.859   5.079 -12.097  1.00  0.00     0.074 A 
ATOM     44  C   UNL     1       4.419   5.109 -11.965  1.00  0.00     0.031 C 
ATOM     45  C   UNL     1       7.818   4.366  -5.998  1.00  0.00     0.029 A 
ATOM     46  C   UNL     1       8.655   4.437  -7.191  1.00  0.00     0.049 A 
ATOM     47  H   UNL     1       8.029   4.724  -9.159  1.00  0.00     0.167 HD
ATOM     48  C   UNL     1       6.521   5.194 -13.275  1.00  0.00     0.034 A 
ATOM     49  C   UNL     1       9.998   4.324  -7.212  1.00  0.00     0.034 A 
ATOM     50  C   UNL     1       7.959   5.176 -13.384  1.00  0.00     0.049 A 
ATOM     51  C   UNL     1      10.712   4.425  -8.537  1.00  0.00     0.074 A 
ATOM     52  C   UNL     1       8.739   5.335 -14.516  1.00  0.00     0.029 A 
ATOM     53  N   UNL     1       8.835   4.980 -12.323  1.00  0.00    -0.354 N 
ATOM     54  N   UNL     1      10.207   4.603  -9.737  1.00  0.00    -0.248 NA
ATOM     55  C   UNL     1      12.176   4.323  -8.510  1.00  0.00     0.031 C 
ATOM     56  C   UNL     1      10.079   5.159 -14.153  1.00  0.00     0.029 A 
ATOM     57  C   UNL     1      10.144   4.980 -12.780  1.00  0.00     0.049 A 
ATOM     58  H   UNL     1       8.565   4.858 -11.384  1.00  0.00     0.167 HD
ATOM     59  C   UNL     1      11.296   4.668 -10.602  1.00  0.00     0.074 A 
ATOM     60  C   UNL     1      12.483   4.528  -9.783  1.00  0.00     0.031 C 
ATOM     61  C   UNL     1      11.316   4.831 -11.949  1.00  0.00     0.034 A 
BRANCH  48  62
ATOM     62  C   UNL     1       5.693   5.326 -14.532  1.00  0.00     0.023 A 
ATOM     63  C   UNL     1       4.824   6.412 -14.736  1.00  0.00     0.031 A 
ATOM     64  C   UNL     1       5.754   4.340 -15.533  1.00  0.00     0.131 A 
ATOM     65  C   UNL     1       3.997   6.448 -15.869  1.00  0.00     0.055 A 
ATOM     66  C   UNL     1       4.992   4.425 -16.701  1.00  0.00     0.041 A 
ATOM     67  F   UNL     1       6.547   3.266 -15.388  1.00  0.00    -0.206 F 
ATOM     68  C   UNL     1       4.095   5.476 -16.867  1.00  0.00     0.022 A 
BRANCH  65  69
ATOM     69  S   UNL     1       2.687   7.700 -15.947  1.00  0.00     0.124 S 
ATOM     70  O   UNL     1       1.916   7.396 -14.743  1.00  0.00    -0.237 OA
ATOM     71  O   UNL     1       3.441   8.948 -15.924  1.00  0.00    -0.237 OA
ATOM     72  O   UNL     1       2.004   7.406 -17.205  1.00  0.00    -0.744 OA
ENDBRANCH  65  69
ENDBRANCH  48  62
BRANCH  49  73
ATOM     73  C   UNL     1      10.760   4.094  -5.949  1.00  0.00     0.023 A 
ATOM     74  C   UNL     1      11.696   5.032  -5.486  1.00  0.00     0.031 A 
ATOM     75  C   UNL     1      10.600   2.907  -5.211  1.00  0.00     0.131 A 
ATOM     76  C   UNL     1      12.472   4.748  -4.352  1.00  0.00     0.055 A 
ATOM     77  C   UNL     1      11.331   2.655  -4.049  1.00  0.00     0.041 A 
ATOM     78  F   UNL     1       9.717   1.975  -5.606  1.00  0.00    -0.206 F 
ATOM     79  C   UNL     1      12.285   3.572  -3.621  1.00  0.00     0.022 A 
BRANCH  76  80
ATOM     80  S   UNL     1      13.804   5.894  -3.901  1.00  0.00     0.124 S 
ATOM     81  O   UNL     1      14.604   5.914  -5.121  1.00  0.00    -0.237 OA
ATOM     82  O   UNL     1      13.064   7.114  -3.598  1.00  0.00    -0.237 OA
ATOM     83  O   UNL     1      14.434   5.248  -2.752  1.00  0.00    -0.744 OA
ENDBRANCH  76  80
ENDBRANCH  49  73
BRANCH  61  84
ATOM     84  C   UNL     1      12.671   4.919 -12.611  1.00  0.00     0.023 A 
ATOM     85  C   UNL     1      13.556   3.828 -12.636  1.00  0.00     0.031 A 
ATOM     86  C   UNL     1      13.082   6.119 -13.219  1.00  0.00     0.131 A 
ATOM     87  C   UNL     1      14.831   3.976 -13.203  1.00  0.00     0.055 A 
ATOM     88  C   UNL     1      14.324   6.239 -13.842  1.00  0.00     0.041 A 
ATOM     89  F   UNL     1      12.279   7.195 -13.222  1.00  0.00    -0.206 F 
ATOM     90  C   UNL     1      15.213   5.168 -13.824  1.00  0.00     0.022 A 
BRANCH  87  91
ATOM     91  S   UNL     1      16.025   2.622 -13.027  1.00  0.00     0.124 S 
ATOM     92  O   UNL     1      16.105   2.476 -11.578  1.00  0.00    -0.237 OA
ATOM     93  O   UNL     1      15.368   1.533 -13.743  1.00  0.00    -0.237 OA
ATOM     94  O   UNL     1      17.232   3.144 -13.666  1.00  0.00    -0.744 OA
ENDBRANCH  87  91
ENDBRANCH  61  84
ENDBRANCH  35  36
ENDBRANCH  27  30
ENDBRANCH  25  26
ENDBRANCH   1  25
TORSDOF 19
