REMARK SMILES COc1ncccc1C[C@H](C(=O)NCCCNC(=O)c1ccc(-c2c3nc(c(-c4cc(S(=O)(=O)[O-])ccc4F)c4ccc([nH]4)c(-c4cc(S(=O)(=O)[O-])ccc4F)c4nc(c(-c5cc(S(=O)(=O)[O-])ccc5F)c5ccc2[nH]5)C=C4)C=C3)cc1)c1ccc(F)cc1
REMARK SMILES IDX 15 1 14 2 13 3 11 4 12 5 10 7 9 8 8 9 3 10 4 11 5 12 7 13
REMARK SMILES IDX 6 14 2 15 1 16 83 17 84 18 89 19 85 20 88 21 86 22 87 23
REMARK SMILES IDX 16 24 17 25 18 26 19 28 20 29 21 30 82 31 22 32 81 33 23 34
REMARK SMILES IDX 24 35 25 36 75 37 26 38 80 39 74 40 76 41 27 42 79 43 73 44
REMARK SMILES IDX 72 45 28 47 60 48 40 49 59 50 41 51 44 52 58 53 77 54 42 55
REMARK SMILES IDX 43 56 57 58 78 59 45 60 29 61 30 62 38 63 31 64 37 65 39 66
REMARK SMILES IDX 36 67 32 68 33 69 34 70 35 71 61 72 62 73 70 74 63 75 69 76
REMARK SMILES IDX 71 77 68 78 64 79 65 80 66 81 67 82 46 83 47 84 55 85 48 86
REMARK SMILES IDX 54 87 56 88 53 89 49 90 50 91 51 92 52 93
REMARK H PARENT 13 6 17 27 76 46 44 57
REMARK Flexibility Score: inf
ROOT
ATOM      1  C   UNL     1       5.826  -0.421   1.963  1.00  0.00     0.042 C 
ENDROOT
BRANCH   1   2
ATOM      2  C   UNL     1       5.341  -0.530   0.532  1.00  0.00     0.117 C 
BRANCH   2   3
ATOM      3  N   UNL     1       4.239  -1.429   0.240  1.00  0.00    -0.355 N 
ATOM      4  C   UNL     1       3.366  -1.414  -0.820  1.00  0.00     0.227 C 
ATOM      5  O   UNL     1       2.854  -2.510  -1.097  1.00  0.00    -0.274 OA
ATOM      6  H   UNL     1       4.097  -2.150   0.894  1.00  0.00     0.163 HD
BRANCH   4   7
ATOM      7  C   UNL     1       2.812  -0.138  -1.531  1.00  0.00     0.113 C 
BRANCH   7   8
ATOM      8  C   UNL     1       1.442   0.096  -0.752  1.00  0.00     0.059 C 
BRANCH   8   9
ATOM      9  C   UNL     1       0.800   1.456  -0.707  1.00  0.00     0.015 A 
ATOM     10  C   UNL     1       1.011   2.368   0.334  1.00  0.00     0.216 A 
ATOM     11  N   UNL     1       0.635   3.665   0.275  1.00  0.00    -0.222 NA
ATOM     12  C   UNL     1      -0.019   4.073  -0.832  1.00  0.00     0.115 A 
ATOM     13  C   UNL     1       0.025   1.896  -1.794  1.00  0.00     0.011 A 
ATOM     14  C   UNL     1      -0.385   3.225  -1.862  1.00  0.00     0.021 A 
BRANCH  10  15
ATOM     15  O   UNL     1       1.421   1.969   1.575  1.00  0.00    -0.481 OA
ATOM     16  C   UNL     1       2.812   1.713   1.665  1.00  0.00     0.280 C 
ENDBRANCH  10  15
ENDBRANCH   8   9
ENDBRANCH   7   8
BRANCH   7  17
ATOM     17  C   UNL     1       3.795   1.009  -1.834  1.00  0.00    -0.035 A 
ATOM     18  C   UNL     1       5.164   0.788  -2.050  1.00  0.00     0.007 A 
ATOM     19  C   UNL     1       3.394   2.346  -1.940  1.00  0.00     0.007 A 
ATOM     20  C   UNL     1       6.088   1.838  -1.908  1.00  0.00     0.039 A 
ATOM     21  C   UNL     1       4.291   3.407  -1.814  1.00  0.00     0.039 A 
ATOM     22  C   UNL     1       5.636   3.134  -1.716  1.00  0.00     0.123 A 
ATOM     23  F   UNL     1       6.500   4.123  -1.462  1.00  0.00    -0.207 F 
ENDBRANCH   7  17
ENDBRANCH   4   7
ENDBRANCH   2   3
ENDBRANCH   1   2
BRANCH   1  24
ATOM     24  C   UNL     1       6.467  -1.663   2.547  1.00  0.00     0.118 C 
BRANCH  24  25
ATOM     25  N   UNL     1       7.724  -2.037   1.914  1.00  0.00    -0.352 N 
ATOM     26  C   UNL     1       9.045  -1.847   2.262  1.00  0.00     0.251 C 
ATOM     27  H   UNL     1       7.608  -2.524   1.066  1.00  0.00     0.163 HD
ATOM     28  O   UNL     1       9.905  -2.167   1.448  1.00  0.00    -0.269 OA
BRANCH  26  29
ATOM     29  C   UNL     1       9.449  -1.235   3.556  1.00  0.00     0.039 A 
ATOM     30  C   UNL     1      10.634  -0.490   3.612  1.00  0.00     0.014 A 
ATOM     31  C   UNL     1       8.718  -1.414   4.727  1.00  0.00     0.014 A 
ATOM     32  C   UNL     1      11.028   0.119   4.810  1.00  0.00     0.010 A 
ATOM     33  C   UNL     1       9.025  -0.686   5.873  1.00  0.00     0.010 A 
ATOM     34  C   UNL     1      10.203   0.065   5.945  1.00  0.00    -0.014 A 
BRANCH  34  35
ATOM     35  C   UNL     1      10.582   0.731   7.223  1.00  0.00     0.031 A 
ATOM     36  C   UNL     1      10.721  -0.080   8.490  1.00  0.00     0.074 A 
ATOM     37  C   UNL     1      10.760   2.067   7.257  1.00  0.00     0.049 A 
ATOM     38  N   UNL     1      11.004   0.318   9.705  1.00  0.00    -0.248 NA
ATOM     39  C   UNL     1      10.466  -1.526   8.385  1.00  0.00     0.031 C 
ATOM     40  C   UNL     1      10.598   2.972   6.116  1.00  0.00     0.029 A 
ATOM     41  N   UNL     1      11.123   2.900   8.287  1.00  0.00    -0.354 N 
ATOM     42  C   UNL     1      10.947  -0.822  10.503  1.00  0.00     0.074 A 
ATOM     43  C   UNL     1      10.509  -1.905   9.652  1.00  0.00     0.031 C 
ATOM     44  C   UNL     1      10.914   4.220   6.494  1.00  0.00     0.029 A 
ATOM     45  C   UNL     1      11.251   4.219   7.913  1.00  0.00     0.049 A 
ATOM     46  H   UNL     1      11.276   2.583   9.206  1.00  0.00     0.167 HD
ATOM     47  C   UNL     1      11.267  -0.966  11.814  1.00  0.00     0.034 A 
ATOM     48  C   UNL     1      11.604   5.303   8.633  1.00  0.00     0.034 A 
ATOM     49  C   UNL     1      11.719   0.122  12.647  1.00  0.00     0.049 A 
ATOM     50  C   UNL     1      11.945   5.123  10.091  1.00  0.00     0.074 A 
ATOM     51  C   UNL     1      12.110   0.090  13.974  1.00  0.00     0.029 A 
ATOM     52  N   UNL     1      11.837   1.444  12.232  1.00  0.00    -0.354 N 
ATOM     53  N   UNL     1      11.936   4.027  10.816  1.00  0.00    -0.248 NA
ATOM     54  C   UNL     1      12.363   6.325  10.820  1.00  0.00     0.031 C 
ATOM     55  C   UNL     1      12.393   1.398  14.380  1.00  0.00     0.029 A 
ATOM     56  C   UNL     1      12.270   2.237  13.284  1.00  0.00     0.049 A 
ATOM     57  H   UNL     1      11.643   1.769  11.323  1.00  0.00     0.167 HD
ATOM     58  C   UNL     1      12.386   4.406  12.079  1.00  0.00     0.074 A 
ATOM     59  C   UNL     1      12.680   5.823  12.003  1.00  0.00     0.031 C 
ATOM     60  C   UNL     1      12.545   3.653  13.199  1.00  0.00     0.034 A 
BRANCH  47  61
ATOM     61  C   UNL     1      11.121  -2.346  12.418  1.00  0.00     0.023 A 
ATOM     62  C   UNL     1      11.845  -3.449  11.928  1.00  0.00     0.031 A 
ATOM     63  C   UNL     1      10.216  -2.575  13.469  1.00  0.00     0.131 A 
ATOM     64  C   UNL     1      11.586  -4.736  12.421  1.00  0.00     0.055 A 
ATOM     65  C   UNL     1      10.033  -3.846  14.022  1.00  0.00     0.041 A 
ATOM     66  F   UNL     1       9.477  -1.572  13.967  1.00  0.00    -0.206 F 
ATOM     67  C   UNL     1      10.707  -4.939  13.485  1.00  0.00     0.022 A 
BRANCH  64  68
ATOM     68  S   UNL     1      12.287  -6.158  11.537  1.00  0.00     0.124 S 
ATOM     69  O   UNL     1      11.731  -5.975  10.198  1.00  0.00    -0.237 OA
ATOM     70  O   UNL     1      13.722  -5.937  11.669  1.00  0.00    -0.237 OA
ATOM     71  O   UNL     1      11.761  -7.309  12.269  1.00  0.00    -0.744 OA
ENDBRANCH  64  68
ENDBRANCH  47  61
BRANCH  48  72
ATOM     72  C   UNL     1      11.671   6.651   7.995  1.00  0.00     0.023 A 
ATOM     73  C   UNL     1      12.884   7.353   7.911  1.00  0.00     0.031 A 
ATOM     74  C   UNL     1      10.513   7.279   7.502  1.00  0.00     0.131 A 
ATOM     75  C   UNL     1      12.905   8.661   7.402  1.00  0.00     0.055 A 
ATOM     76  C   UNL     1      10.550   8.557   6.939  1.00  0.00     0.041 A 
ATOM     77  F   UNL     1       9.327   6.654   7.551  1.00  0.00    -0.206 F 
ATOM     78  C   UNL     1      11.748   9.262   6.901  1.00  0.00     0.022 A 
BRANCH  75  79
ATOM     79  S   UNL     1      14.452   9.605   7.494  1.00  0.00     0.124 S 
ATOM     80  O   UNL     1      14.729   9.582   8.925  1.00  0.00    -0.237 OA
ATOM     81  O   UNL     1      15.342   8.810   6.655  1.00  0.00    -0.237 OA
ATOM     82  O   UNL     1      14.086  10.910   6.948  1.00  0.00    -0.744 OA
ENDBRANCH  75  79
ENDBRANCH  48  72
BRANCH  60  83
ATOM     83  C   UNL     1      13.112   4.351  14.414  1.00  0.00     0.023 A 
ATOM     84  C   UNL     1      12.440   5.415  15.040  1.00  0.00     0.031 A 
ATOM     85  C   UNL     1      14.370   3.978  14.922  1.00  0.00     0.131 A 
ATOM     86  C   UNL     1      13.066   6.129  16.072  1.00  0.00     0.055 A 
ATOM     87  C   UNL     1      14.951   4.638  16.006  1.00  0.00     0.041 A 
ATOM     88  F   UNL     1      15.062   2.970  14.367  1.00  0.00    -0.206 F 
ATOM     89  C   UNL     1      14.310   5.735  16.572  1.00  0.00     0.022 A 
BRANCH  86  90
ATOM     90  S   UNL     1      12.304   7.672  16.646  1.00  0.00     0.124 S 
ATOM     91  O   UNL     1      12.168   8.423  15.402  1.00  0.00    -0.237 OA
ATOM     92  O   UNL     1      11.059   7.200  17.244  1.00  0.00    -0.237 OA
ATOM     93  O   UNL     1      13.283   8.207  17.590  1.00  0.00    -0.744 OA
ENDBRANCH  86  90
ENDBRANCH  60  83
ENDBRANCH  34  35
ENDBRANCH  26  29
ENDBRANCH  24  25
ENDBRANCH   1  24
TORSDOF 17
