REMARK SMILES CC(C)CN(C)c1cc2c(cc1Cl)C=C(C(=O)NCCCNC(=O)c1ccc(-c3c4nc(c(-c5cc(S(=O)(=O)[O-])ccc5F)c5ccc([nH]5)c(-c5cc(S(=O)(=O)[O-])ccc5F)c5nc(c(-c6cc(S(=O)(=O)[O-])ccc6F)c6ccc3[nH]6)C=C5)C=C4)cc1)[C@@H](C(F)(F)F)O2
REMARK SMILES IDX 20 1 19 2 18 3 16 4 17 5 15 7 7 8 8 9 12 10 9 11 11 12 13 13
REMARK SMILES IDX 10 14 93 15 14 16 88 17 5 18 6 19 4 20 2 21 1 22 3 23 89 24
REMARK SMILES IDX 90 25 91 26 92 27 21 28 22 29 23 30 24 32 25 33 26 34 87 35
REMARK SMILES IDX 27 36 86 37 28 38 29 39 30 40 80 41 31 42 85 43 79 44 81 45
REMARK SMILES IDX 32 46 84 47 78 48 77 49 33 51 65 52 45 53 64 54 46 55 49 56
REMARK SMILES IDX 63 57 82 58 47 59 48 60 62 62 83 63 50 64 34 65 35 66 43 67
REMARK SMILES IDX 36 68 42 69 44 70 41 71 37 72 38 73 39 74 40 75 66 76 67 77
REMARK SMILES IDX 75 78 68 79 74 80 76 81 73 82 69 83 70 84 71 85 72 86 51 87
REMARK SMILES IDX 52 88 60 89 53 90 59 91 61 92 58 93 54 94 55 95 56 96 57 97
REMARK H PARENT 18 6 22 31 81 50 49 61
REMARK Flexibility Score: inf
ROOT
ATOM      1  C   UNL     1      -4.023   5.837  -7.019  1.00  0.00     0.042 C 
ENDROOT
BRANCH   1   2
ATOM      2  C   UNL     1      -3.039   4.763  -7.445  1.00  0.00     0.118 C 
BRANCH   2   3
ATOM      3  N   UNL     1      -1.690   5.078  -7.003  1.00  0.00    -0.352 N 
ATOM      4  C   UNL     1      -0.828   4.619  -6.070  1.00  0.00     0.251 C 
ATOM      5  O   UNL     1       0.255   5.210  -6.012  1.00  0.00    -0.270 OA
ATOM      6  H   UNL     1      -1.304   5.822  -7.519  1.00  0.00     0.163 HD
BRANCH   4   7
ATOM      7  C   UNL     1      -1.091   3.472  -5.163  1.00  0.00     0.067 C 
ATOM      8  C   UNL     1      -0.702  -0.363  -1.933  1.00  0.00     0.059 A 
ATOM      9  C   UNL     1      -1.759   0.471  -2.335  1.00  0.00     0.074 A 
ATOM     10  C   UNL     1       0.583  -0.084  -2.458  1.00  0.00     0.065 A 
ATOM     11  C   UNL     1      -1.530   1.534  -3.205  1.00  0.00     0.130 A 
ATOM     12  C   UNL     1       0.824   1.060  -3.228  1.00  0.00     0.034 A 
ATOM     13  Cl  UNL     1       1.921  -1.165  -2.260  1.00  0.00    -0.082 Cl
ATOM     14  C   UNL     1      -0.236   1.874  -3.599  1.00  0.00     0.019 A 
ATOM     15  O   UNL     1      -2.620   2.208  -3.692  1.00  0.00    -0.475 OA
ATOM     16  C   UNL     1      -0.040   3.047  -4.439  1.00  0.00     0.025 C 
ATOM     17  C   UNL     1      -2.403   2.747  -5.035  1.00  0.00     0.314 C 
BRANCH   8  18
ATOM     18  N   UNL     1      -0.937  -1.427  -1.045  1.00  0.00    -0.373 N 
ATOM     19  C   UNL     1      -2.002  -2.349  -1.441  1.00  0.00     0.143 C 
BRANCH  18  20
ATOM     20  C   UNL     1      -0.864  -1.100   0.397  1.00  0.00     0.119 C 
BRANCH  20  21
ATOM     21  C   UNL     1       0.586  -1.032   0.919  1.00  0.00     0.002 C 
ATOM     22  C   UNL     1       1.122   0.403   0.944  1.00  0.00     0.009 C 
ATOM     23  C   UNL     1       0.704  -1.628   2.324  1.00  0.00     0.009 C 
ENDBRANCH  20  21
ENDBRANCH  18  20
ENDBRANCH   8  18
BRANCH  17  24
ATOM     24  C   UNL     1      -2.559   1.639  -6.107  1.00  0.00     0.429 C 
ATOM     25  F   UNL     1      -3.862   1.294  -6.252  1.00  0.00    -0.167 F 
ATOM     26  F   UNL     1      -2.126   2.038  -7.329  1.00  0.00    -0.167 F 
ATOM     27  F   UNL     1      -1.875   0.510  -5.816  1.00  0.00    -0.167 F 
ENDBRANCH  17  24
ENDBRANCH   4   7
ENDBRANCH   2   3
ENDBRANCH   1   2
BRANCH   1  28
ATOM     28  C   UNL     1      -3.889   7.095  -7.863  1.00  0.00     0.118 C 
BRANCH  28  29
ATOM     29  N   UNL     1      -4.279   6.864  -9.253  1.00  0.00    -0.352 N 
ATOM     30  C   UNL     1      -5.408   7.252  -9.935  1.00  0.00     0.251 C 
ATOM     31  H   UNL     1      -3.631   6.348  -9.784  1.00  0.00     0.163 HD
ATOM     32  O   UNL     1      -5.671   6.730 -11.016  1.00  0.00    -0.269 OA
BRANCH  30  33
ATOM     33  C   UNL     1      -6.301   8.275  -9.356  1.00  0.00     0.039 A 
ATOM     34  C   UNL     1      -5.760   9.356  -8.665  1.00  0.00     0.014 A 
ATOM     35  C   UNL     1      -7.687   8.158  -9.494  1.00  0.00     0.014 A 
ATOM     36  C   UNL     1      -6.589  10.178  -7.921  1.00  0.00     0.010 A 
ATOM     37  C   UNL     1      -8.526   9.082  -8.861  1.00  0.00     0.010 A 
ATOM     38  C   UNL     1      -7.985  10.069  -8.025  1.00  0.00    -0.014 A 
BRANCH  38  39
ATOM     39  C   UNL     1      -8.823  11.048  -7.285  1.00  0.00     0.031 A 
ATOM     40  C   UNL     1      -9.805  10.613  -6.235  1.00  0.00     0.074 A 
ATOM     41  C   UNL     1      -8.628  12.361  -7.524  1.00  0.00     0.049 A 
ATOM     42  N   UNL     1     -10.527  11.354  -5.435  1.00  0.00    -0.248 NA
ATOM     43  C   UNL     1     -10.020   9.168  -6.066  1.00  0.00     0.031 C 
ATOM     44  C   UNL     1      -7.718  12.891  -8.542  1.00  0.00     0.029 A 
ATOM     45  N   UNL     1      -9.133  13.481  -6.916  1.00  0.00    -0.354 N 
ATOM     46  C   UNL     1     -11.303  10.473  -4.691  1.00  0.00     0.074 A 
ATOM     47  C   UNL     1     -10.984   9.141  -5.155  1.00  0.00     0.031 C 
ATOM     48  C   UNL     1      -7.662  14.222  -8.430  1.00  0.00     0.029 A 
ATOM     49  C   UNL     1      -8.603  14.654  -7.402  1.00  0.00     0.049 A 
ATOM     50  H   UNL     1      -9.810  13.449  -6.202  1.00  0.00     0.167 HD
ATOM     51  C   UNL     1     -12.191  10.756  -3.708  1.00  0.00     0.034 A 
ATOM     52  C   UNL     1      -8.849  15.938  -7.076  1.00  0.00     0.034 A 
ATOM     53  C   UNL     1     -12.469  12.092  -3.241  1.00  0.00     0.049 A 
ATOM     54  C   UNL     1      -9.824  16.224  -5.969  1.00  0.00     0.074 A 
ATOM     55  C   UNL     1     -13.295  12.475  -2.198  1.00  0.00     0.029 A 
ATOM     56  N   UNL     1     -11.947  13.260  -3.782  1.00  0.00    -0.354 N 
ATOM     57  N   UNL     1     -10.489  15.375  -5.221  1.00  0.00    -0.248 NA
ATOM     58  C   UNL     1     -10.085  17.634  -5.657  1.00  0.00     0.031 C 
ATOM     59  C   UNL     1     -13.335  13.870  -2.162  1.00  0.00     0.029 A 
ATOM     60  C   UNL     1     -12.469  14.364  -3.124  1.00  0.00     0.049 A 
ATOM     61  H   UNL     1     -11.300  13.298  -4.523  1.00  0.00     0.167 HD
ATOM     62  C   UNL     1     -11.257  16.146  -4.356  1.00  0.00     0.074 A 
ATOM     63  C   UNL     1     -10.930  17.530  -4.639  1.00  0.00     0.031 C 
ATOM     64  C   UNL     1     -12.160  15.743  -3.426  1.00  0.00     0.034 A 
BRANCH  51  65
ATOM     65  C   UNL     1     -12.941   9.618  -3.056  1.00  0.00     0.023 A 
ATOM     66  C   UNL     1     -14.347   9.575  -3.137  1.00  0.00     0.031 A 
ATOM     67  C   UNL     1     -12.295   8.660  -2.255  1.00  0.00     0.131 A 
ATOM     68  C   UNL     1     -15.061   8.619  -2.404  1.00  0.00     0.055 A 
ATOM     69  C   UNL     1     -13.009   7.679  -1.563  1.00  0.00     0.041 A 
ATOM     70  F   UNL     1     -10.957   8.658  -2.139  1.00  0.00    -0.206 F 
ATOM     71  C   UNL     1     -14.399   7.665  -1.625  1.00  0.00     0.022 A 
BRANCH  68  72
ATOM     72  S   UNL     1     -16.874   8.621  -2.373  1.00  0.00     0.124 S 
ATOM     73  O   UNL     1     -17.184   7.298  -2.909  1.00  0.00    -0.237 OA
ATOM     74  O   UNL     1     -17.153   8.798  -0.950  1.00  0.00    -0.237 OA
ATOM     75  O   UNL     1     -17.239   9.742  -3.232  1.00  0.00    -0.744 OA
ENDBRANCH  68  72
ENDBRANCH  51  65
BRANCH  52  76
ATOM     76  C   UNL     1      -8.116  17.012  -7.807  1.00  0.00     0.023 A 
ATOM     77  C   UNL     1      -8.234  17.129  -9.206  1.00  0.00     0.031 A 
ATOM     78  C   UNL     1      -7.166  17.814  -7.155  1.00  0.00     0.131 A 
ATOM     79  C   UNL     1      -7.340  17.940  -9.915  1.00  0.00     0.055 A 
ATOM     80  C   UNL     1      -6.338  18.692  -7.859  1.00  0.00     0.041 A 
ATOM     81  F   UNL     1      -7.007  17.730  -5.825  1.00  0.00    -0.206 F 
ATOM     82  C   UNL     1      -6.405  18.737  -9.249  1.00  0.00     0.022 A 
BRANCH  79  83
ATOM     83  S   UNL     1      -7.241  17.841 -11.725  1.00  0.00     0.124 S 
ATOM     84  O   UNL     1      -7.500  19.221 -12.121  1.00  0.00    -0.237 OA
ATOM     85  O   UNL     1      -5.870  17.374 -11.920  1.00  0.00    -0.237 OA
ATOM     86  O   UNL     1      -8.278  16.877 -12.075  1.00  0.00    -0.744 OA
ENDBRANCH  79  83
ENDBRANCH  52  76
BRANCH  64  87
ATOM     87  C   UNL     1     -12.909  16.806  -2.656  1.00  0.00     0.023 A 
ATOM     88  C   UNL     1     -12.793  16.885  -1.255  1.00  0.00     0.031 A 
ATOM     89  C   UNL     1     -13.834  17.652  -3.294  1.00  0.00     0.131 A 
ATOM     90  C   UNL     1     -13.615  17.762  -0.536  1.00  0.00     0.055 A 
ATOM     91  C   UNL     1     -14.612  18.563  -2.578  1.00  0.00     0.041 A 
ATOM     92  F   UNL     1     -13.992  17.608  -4.627  1.00  0.00    -0.206 F 
ATOM     93  C   UNL     1     -14.515  18.610  -1.190  1.00  0.00     0.022 A 
BRANCH  90  94
ATOM     94  S   UNL     1     -13.615  17.769   1.278  1.00  0.00     0.124 S 
ATOM     95  O   UNL     1     -13.150  19.122   1.574  1.00  0.00    -0.237 OA
ATOM     96  O   UNL     1     -15.019  17.510   1.588  1.00  0.00    -0.237 OA
ATOM     97  O   UNL     1     -12.687  16.701   1.635  1.00  0.00    -0.744 OA
ENDBRANCH  90  94
ENDBRANCH  64  87
ENDBRANCH  38  39
ENDBRANCH  30  33
ENDBRANCH  28  29
ENDBRANCH   1  28
TORSDOF 17
