REMARK SMILES CC(C)(C)OC(=O)N1CCC[C@](Cc2ccccc2)(C(=O)NCCCNC(=O)c2ccc(-c3c4nc(c(-c5cc(S(=O)(=O)[O-])ccc5F)c5ccc([nH]5)c(-c5cc(S(=O)(=O)[O-])ccc5F)c5nc(c(-c6cc(S(=O)(=O)[O-])ccc6F)c6ccc3[nH]6)C=C5)C=C4)cc2)C1
REMARK SMILES IDX 24 1 23 2 22 3 20 4 21 5 12 7 8 8 9 9 92 10 10 11 11 12 6 13
REMARK SMILES IDX 7 14 5 15 2 16 1 17 3 18 4 19 13 20 14 21 15 22 19 23 16 24
REMARK SMILES IDX 18 25 17 26 25 27 26 28 27 29 28 31 29 32 30 33 91 34 31 35
REMARK SMILES IDX 90 36 32 37 33 38 34 39 84 40 35 41 89 42 83 43 85 44 36 45
REMARK SMILES IDX 88 46 82 47 81 48 37 50 69 51 49 52 68 53 50 54 53 55 67 56
REMARK SMILES IDX 86 57 51 58 52 59 66 61 87 62 54 63 38 64 39 65 47 66 40 67
REMARK SMILES IDX 46 68 48 69 45 70 41 71 42 72 43 73 44 74 70 75 71 76 79 77
REMARK SMILES IDX 72 78 78 79 80 80 77 81 73 82 74 83 75 84 76 85 55 86 56 87
REMARK SMILES IDX 64 88 57 89 63 90 65 91 62 92 58 93 59 94 60 95 61 96
REMARK H PARENT 22 6 26 30 85 49 53 60
REMARK Flexibility Score: inf
ROOT
ATOM      1  C   UNL     1      -0.223   3.973  -6.895  1.00  0.00     0.042 C 
ENDROOT
BRANCH   1   2
ATOM      2  C   UNL     1       0.608   3.252  -5.846  1.00  0.00     0.117 C 
BRANCH   2   3
ATOM      3  N   UNL     1       2.024   3.519  -5.956  1.00  0.00    -0.355 N 
ATOM      4  C   UNL     1       2.873   4.250  -5.188  1.00  0.00     0.228 C 
ATOM      5  O   UNL     1       4.068   4.127  -5.487  1.00  0.00    -0.274 OA
ATOM      6  H   UNL     1       2.454   3.090  -6.731  1.00  0.00     0.163 HD
BRANCH   4   7
ATOM      7  C   UNL     1       2.428   5.152  -3.994  1.00  0.00     0.071 C 
ATOM      8  N   UNL     1       0.649   3.993  -2.621  1.00  0.00    -0.307 N 
ATOM      9  C   UNL     1      -0.203   5.163  -2.608  1.00  0.00     0.123 C 
ATOM     10  C   UNL     1       2.074   4.229  -2.790  1.00  0.00     0.140 C 
ATOM     11  C   UNL     1      -0.109   5.952  -3.895  1.00  0.00     0.023 C 
ATOM     12  C   UNL     1       1.309   6.145  -4.437  1.00  0.00     0.021 C 
BRANCH   8  13
ATOM     13  C   UNL     1       0.084   2.743  -2.444  1.00  0.00     0.410 C 
ATOM     14  O   UNL     1      -1.069   2.496  -2.774  1.00  0.00    -0.224 OA
BRANCH  13  15
ATOM     15  O   UNL     1       0.922   1.871  -1.831  1.00  0.00    -0.444 OA
BRANCH  15  16
ATOM     16  C   UNL     1       0.498   0.529  -1.449  1.00  0.00     0.106 C 
ATOM     17  C   UNL     1       1.260   0.217  -0.151  1.00  0.00     0.056 C 
ATOM     18  C   UNL     1       0.947  -0.433  -2.550  1.00  0.00     0.056 C 
ATOM     19  C   UNL     1      -1.001   0.354  -1.154  1.00  0.00     0.056 C 
ENDBRANCH  15  16
ENDBRANCH  13  15
ENDBRANCH   8  13
BRANCH   7  20
ATOM     20  C   UNL     1       3.741   5.979  -3.644  1.00  0.00     0.054 C 
BRANCH  20  21
ATOM     21  C   UNL     1       3.630   7.093  -2.620  1.00  0.00    -0.047 A 
ATOM     22  C   UNL     1       3.416   8.417  -3.035  1.00  0.00     0.004 A 
ATOM     23  C   UNL     1       3.721   6.830  -1.249  1.00  0.00     0.004 A 
ATOM     24  C   UNL     1       3.195   9.431  -2.103  1.00  0.00     0.000 A 
ATOM     25  C   UNL     1       3.499   7.843  -0.316  1.00  0.00     0.000 A 
ATOM     26  C   UNL     1       3.218   9.139  -0.743  1.00  0.00     0.000 A 
ENDBRANCH  20  21
ENDBRANCH   7  20
ENDBRANCH   4   7
ENDBRANCH   2   3
ENDBRANCH   1   2
BRANCH   1  27
ATOM     27  C   UNL     1      -0.612   3.075  -8.053  1.00  0.00     0.118 C 
BRANCH  27  28
ATOM     28  N   UNL     1      -1.519   2.009  -7.638  1.00  0.00    -0.352 N 
ATOM     29  C   UNL     1      -2.808   1.727  -8.019  1.00  0.00     0.251 C 
ATOM     30  H   UNL     1      -1.144   1.387  -6.974  1.00  0.00     0.163 HD
ATOM     31  O   UNL     1      -3.446   0.882  -7.396  1.00  0.00    -0.269 OA
BRANCH  29  32
ATOM     32  C   UNL     1      -3.436   2.448  -9.147  1.00  0.00     0.039 A 
ATOM     33  C   UNL     1      -4.794   2.772  -9.075  1.00  0.00     0.014 A 
ATOM     34  C   UNL     1      -2.699   2.793 -10.280  1.00  0.00     0.014 A 
ATOM     35  C   UNL     1      -5.390   3.498 -10.109  1.00  0.00     0.010 A 
ATOM     36  C   UNL     1      -3.260   3.615 -11.248  1.00  0.00     0.010 A 
ATOM     37  C   UNL     1      -4.617   3.959 -11.185  1.00  0.00    -0.014 A 
BRANCH  37  38
ATOM     38  C   UNL     1      -5.207   4.763 -12.286  1.00  0.00     0.031 A 
ATOM     39  C   UNL     1      -5.150   4.241 -13.698  1.00  0.00     0.074 A 
ATOM     40  C   UNL     1      -5.710   5.986 -12.027  1.00  0.00     0.049 A 
ATOM     41  N   UNL     1      -5.481   4.833 -14.816  1.00  0.00    -0.248 NA
ATOM     42  C   UNL     1      -4.599   2.888 -13.877  1.00  0.00     0.031 C 
ATOM     43  C   UNL     1      -5.769   6.616 -10.706  1.00  0.00     0.029 A 
ATOM     44  N   UNL     1      -6.257   6.925 -12.864  1.00  0.00    -0.354 N 
ATOM     45  C   UNL     1      -5.148   3.939 -15.829  1.00  0.00     0.074 A 
ATOM     46  C   UNL     1      -4.524   2.799 -15.195  1.00  0.00     0.031 C 
ATOM     47  C   UNL     1      -6.346   7.823 -10.818  1.00  0.00     0.029 A 
ATOM     48  C   UNL     1      -6.654   8.075 -12.222  1.00  0.00     0.049 A 
ATOM     49  H   UNL     1      -6.357   6.788 -13.834  1.00  0.00     0.167 HD
ATOM     50  C   UNL     1      -5.369   4.048 -17.163  1.00  0.00     0.034 A 
ATOM     51  C   UNL     1      -7.194   9.207 -12.712  1.00  0.00     0.034 A 
ATOM     52  C   UNL     1      -6.029   5.179 -17.766  1.00  0.00     0.049 A 
ATOM     53  C   UNL     1      -7.447   9.301 -14.195  1.00  0.00     0.074 A 
ATOM     54  C   UNL     1      -6.372   5.372 -19.092  1.00  0.00     0.029 A 
ATOM     55  N   UNL     1      -6.447   6.312 -17.078  1.00  0.00    -0.354 N 
ATOM     56  N   UNL     1      -7.173   8.426 -15.137  1.00  0.00    -0.248 NA
ATOM     57  C   UNL     1      -8.095  10.525 -14.680  1.00  0.00     0.031 C 
ATOM     58  C   UNL     1      -6.942   6.644 -19.216  1.00  0.00     0.029 A 
ATOM     59  C   UNL     1      -7.023   7.217 -17.956  1.00  0.00     0.049 A 
ATOM     60  H   UNL     1      -6.349   6.451 -16.109  1.00  0.00     0.167 HD
ATOM     61  C   UNL     1      -7.641   8.986 -16.322  1.00  0.00     0.074 A 
ATOM     62  C   UNL     1      -8.228  10.264 -15.972  1.00  0.00     0.031 C 
ATOM     63  C   UNL     1      -7.594   8.490 -17.585  1.00  0.00     0.034 A 
BRANCH  50  64
ATOM     64  C   UNL     1      -4.874   2.924 -18.044  1.00  0.00     0.023 A 
ATOM     65  C   UNL     1      -5.349   1.607 -17.904  1.00  0.00     0.031 A 
ATOM     66  C   UNL     1      -3.880   3.162 -19.011  1.00  0.00     0.131 A 
ATOM     67  C   UNL     1      -4.770   0.568 -18.648  1.00  0.00     0.055 A 
ATOM     68  C   UNL     1      -3.371   2.137 -19.812  1.00  0.00     0.041 A 
ATOM     69  F   UNL     1      -3.370   4.392 -19.180  1.00  0.00    -0.206 F 
ATOM     70  C   UNL     1      -3.802   0.828 -19.620  1.00  0.00     0.022 A 
BRANCH  67  71
ATOM     71  S   UNL     1      -5.186  -1.143 -18.212  1.00  0.00     0.124 S 
ATOM     72  O   UNL     1      -4.756  -1.204 -16.817  1.00  0.00    -0.237 OA
ATOM     73  O   UNL     1      -6.625  -1.186 -18.439  1.00  0.00    -0.237 OA
ATOM     74  O   UNL     1      -4.382  -1.938 -19.139  1.00  0.00    -0.744 OA
ENDBRANCH  67  71
ENDBRANCH  50  64
BRANCH  51  75
ATOM     75  C   UNL     1      -7.530  10.339 -11.803  1.00  0.00     0.023 A 
ATOM     76  C   UNL     1      -8.862  10.736 -11.605  1.00  0.00     0.031 A 
ATOM     77  C   UNL     1      -6.523  11.059 -11.136  1.00  0.00     0.131 A 
ATOM     78  C   UNL     1      -9.149  11.849 -10.798  1.00  0.00     0.055 A 
ATOM     79  C   UNL     1      -6.817  12.134 -10.295  1.00  0.00     0.041 A 
ATOM     80  F   UNL     1      -5.233  10.716 -11.283  1.00  0.00    -0.206 F 
ATOM     81  C   UNL     1      -8.137  12.542 -10.132  1.00  0.00     0.022 A 
BRANCH  78  82
ATOM     82  S   UNL     1     -10.866  12.426 -10.693  1.00  0.00     0.124 S 
ATOM     83  O   UNL     1     -11.178  12.688 -12.093  1.00  0.00    -0.237 OA
ATOM     84  O   UNL     1     -11.534  11.277 -10.090  1.00  0.00    -0.237 OA
ATOM     85  O   UNL     1     -10.775  13.609  -9.841  1.00  0.00    -0.744 OA
ENDBRANCH  78  82
ENDBRANCH  51  75
BRANCH  63  86
ATOM     86  C   UNL     1      -8.236   9.320 -18.667  1.00  0.00     0.023 A 
ATOM     87  C   UNL     1      -7.705  10.560 -19.060  1.00  0.00     0.031 A 
ATOM     88  C   UNL     1      -9.403   8.864 -19.306  1.00  0.00     0.131 A 
ATOM     89  C   UNL     1      -8.371  11.329 -20.026  1.00  0.00     0.055 A 
ATOM     90  C   UNL     1     -10.027   9.606 -20.310  1.00  0.00     0.041 A 
ATOM     91  F   UNL     1      -9.952   7.687 -18.968  1.00  0.00    -0.206 F 
ATOM     92  C   UNL     1      -9.519  10.852 -20.665  1.00  0.00     0.022 A 
BRANCH  89  93
ATOM     93  S   UNL     1      -7.768  13.004 -20.372  1.00  0.00     0.124 S 
ATOM     94  O   UNL     1      -7.857  13.636 -19.060  1.00  0.00    -0.237 OA
ATOM     95  O   UNL     1      -6.419  12.753 -20.868  1.00  0.00    -0.237 OA
ATOM     96  O   UNL     1      -8.710  13.509 -21.369  1.00  0.00    -0.744 OA
ENDBRANCH  89  93
ENDBRANCH  63  86
ENDBRANCH  37  38
ENDBRANCH  29  32
ENDBRANCH  27  28
ENDBRANCH   1  27
TORSDOF 18
