REMARK SMILES CC1(C)C[C@@H]([NH2+]C[C@@H]2CCCC[C@@H]2C(=O)NCCCNC(=O)c2ccc(-c3c4nc(c(-c5cc(S(=O)(=O)[O-])ccc5F)c5ccc([nH]5)c(-c5cc(S(=O)(=O)[O-])ccc5F)c5nc(c(-c6cc(S(=O)(=O)[O-])ccc6F)c6ccc3[nH]6)C=C5)C=C4)cc2)C(C)(C)O1
REMARK SMILES IDX 18 1 17 2 16 3 14 4 15 5 13 7 8 8 9 9 10 10 12 11 11 12 7 13
REMARK SMILES IDX 6 14 5 17 1 18 2 19 3 20 4 21 89 22 86 23 87 24 88 25 19 26
REMARK SMILES IDX 20 27 21 28 22 30 23 31 24 32 85 33 25 34 84 35 26 36 27 37
REMARK SMILES IDX 28 38 78 39 29 40 83 41 77 42 79 43 30 44 82 45 76 46 75 47
REMARK SMILES IDX 31 49 63 50 43 51 62 52 44 53 47 54 61 55 80 56 45 57 46 58
REMARK SMILES IDX 60 60 81 61 48 62 32 63 33 64 41 65 34 66 40 67 42 68 39 69
REMARK SMILES IDX 35 70 36 71 37 72 38 73 64 74 65 75 73 76 66 77 72 78 74 79
REMARK SMILES IDX 71 80 67 81 68 82 69 83 70 84 49 85 50 86 58 87 51 88 57 89
REMARK SMILES IDX 59 90 56 91 52 92 53 93 54 94 55 95
REMARK H PARENT 16 6 6 15 6 16 20 29 79 48 47 59
REMARK Flexibility Score: inf
ROOT
ATOM      1  C   UNL     1       7.432   1.087   5.986  1.00  0.00     0.042 C 
ENDROOT
BRANCH   1   2
ATOM      2  C   UNL     1       7.281  -0.369   5.556  1.00  0.00     0.117 C 
BRANCH   2   3
ATOM      3  N   UNL     1       6.287  -1.055   6.364  1.00  0.00    -0.356 N 
ATOM      4  C   UNL     1       4.972  -1.294   6.094  1.00  0.00     0.223 C 
ATOM      5  O   UNL     1       4.257  -1.715   7.000  1.00  0.00    -0.275 OA
ATOM      6  H   UNL     1       6.609  -1.395   7.230  1.00  0.00     0.163 HD
BRANCH   4   7
ATOM      7  C   UNL     1       4.483  -1.111   4.665  1.00  0.00     0.087 C 
ATOM      8  C   UNL     1       2.993  -0.772   4.521  1.00  0.00     0.056 C 
ATOM      9  C   UNL     1       2.050  -1.922   4.891  1.00  0.00     0.010 C 
ATOM     10  C   UNL     1       2.377  -3.160   4.063  1.00  0.00     0.001 C 
ATOM     11  C   UNL     1       4.798  -2.390   3.860  1.00  0.00     0.014 C 
ATOM     12  C   UNL     1       3.847  -3.551   4.178  1.00  0.00     0.001 C 
BRANCH   8  13
ATOM     13  C   UNL     1       2.552   0.570   5.138  1.00  0.00     0.265 C 
BRANCH  13  14
ATOM     14  N   UNL     1       2.413   1.661   4.158  1.00  0.00    -0.341 N 
ATOM     15  H   UNL     1       2.337   2.538   4.674  1.00  0.00     0.346 HD
ATOM     16  H   UNL     1       3.236   1.604   3.559  1.00  0.00     0.346 HD
BRANCH  14  17
ATOM     17  C   UNL     1       1.250   1.564   3.256  1.00  0.00     0.217 C 
ATOM     18  C   UNL     1       0.757   0.381  -0.238  1.00  0.00     0.042 C 
ATOM     19  C   UNL     1       0.341   0.911   1.133  1.00  0.00     0.069 C 
ATOM     20  C   UNL     1      -1.074   0.435   1.472  1.00  0.00     0.042 C 
ATOM     21  C   UNL     1       1.345   0.489   2.186  1.00  0.00     0.103 C 
ATOM     22  O   UNL     1       0.360   2.343   1.135  1.00  0.00    -0.363 OA
ATOM     23  C   UNL     1       0.957   2.819   2.374  1.00  0.00     0.115 C 
ATOM     24  C   UNL     1       2.212   3.602   1.969  1.00  0.00     0.048 C 
ATOM     25  C   UNL     1      -0.045   3.763   3.040  1.00  0.00     0.048 C 
ENDBRANCH  14  17
ENDBRANCH  13  14
ENDBRANCH   8  13
ENDBRANCH   4   7
ENDBRANCH   2   3
ENDBRANCH   1   2
BRANCH   1  26
ATOM     26  C   UNL     1       7.878   1.255   7.437  1.00  0.00     0.118 C 
BRANCH  26  27
ATOM     27  N   UNL     1       9.132   0.566   7.716  1.00  0.00    -0.352 N 
ATOM     28  C   UNL     1      10.316   1.050   8.207  1.00  0.00     0.251 C 
ATOM     29  H   UNL     1       9.127  -0.399   7.520  1.00  0.00     0.163 HD
ATOM     30  O   UNL     1      11.319   0.337   8.162  1.00  0.00    -0.269 OA
BRANCH  28  31
ATOM     31  C   UNL     1      10.395   2.415   8.764  1.00  0.00     0.039 A 
ATOM     32  C   UNL     1      11.510   3.201   8.464  1.00  0.00     0.014 A 
ATOM     33  C   UNL     1       9.387   2.916   9.592  1.00  0.00     0.014 A 
ATOM     34  C   UNL     1      11.580   4.512   8.939  1.00  0.00     0.010 A 
ATOM     35  C   UNL     1       9.420   4.247   9.998  1.00  0.00     0.010 A 
ATOM     36  C   UNL     1      10.516   5.061   9.675  1.00  0.00    -0.014 A 
BRANCH  36  37
ATOM     37  C   UNL     1      10.531   6.485  10.100  1.00  0.00     0.031 A 
ATOM     38  C   UNL     1      10.525   6.842  11.562  1.00  0.00     0.074 A 
ATOM     39  C   UNL     1      10.492   7.455   9.165  1.00  0.00     0.049 A 
ATOM     40  N   UNL     1      10.470   8.022  12.124  1.00  0.00    -0.248 NA
ATOM     41  C   UNL     1      10.558   5.723  12.515  1.00  0.00     0.031 C 
ATOM     42  C   UNL     1      10.456   7.230   7.717  1.00  0.00     0.029 A 
ATOM     43  N   UNL     1      10.466   8.822   9.286  1.00  0.00    -0.354 N 
ATOM     44  C   UNL     1      10.450   7.789  13.495  1.00  0.00     0.074 A 
ATOM     45  C   UNL     1      10.438   6.353  13.675  1.00  0.00     0.031 C 
ATOM     46  C   UNL     1      10.442   8.415   7.088  1.00  0.00     0.029 A 
ATOM     47  C   UNL     1      10.410   9.484   8.080  1.00  0.00     0.049 A 
ATOM     48  H   UNL     1      10.487   9.286  10.154  1.00  0.00     0.167 HD
ATOM     49  C   UNL     1      10.462   8.691  14.508  1.00  0.00     0.034 A 
ATOM     50  C   UNL     1      10.323  10.800   7.804  1.00  0.00     0.034 A 
ATOM     51  C   UNL     1      10.479  10.120  14.308  1.00  0.00     0.049 A 
ATOM     52  C   UNL     1      10.299  11.782   8.949  1.00  0.00     0.074 A 
ATOM     53  C   UNL     1      10.549  11.121  15.261  1.00  0.00     0.029 A 
ATOM     54  N   UNL     1      10.410  10.754  13.074  1.00  0.00    -0.354 N 
ATOM     55  N   UNL     1      10.339  11.546  10.241  1.00  0.00    -0.248 NA
ATOM     56  C   UNL     1      10.227  13.206   8.600  1.00  0.00     0.031 C 
ATOM     57  C   UNL     1      10.439  12.355  14.612  1.00  0.00     0.029 A 
ATOM     58  C   UNL     1      10.395  12.131  13.245  1.00  0.00     0.049 A 
ATOM     59  H   UNL     1      10.376  10.294  12.204  1.00  0.00     0.167 HD
ATOM     60  C   UNL     1      10.330  12.796  10.855  1.00  0.00     0.074 A 
ATOM     61  C   UNL     1      10.300  13.779   9.791  1.00  0.00     0.031 C 
ATOM     62  C   UNL     1      10.351  13.103  12.177  1.00  0.00     0.034 A 
BRANCH  49  63
ATOM     63  C   UNL     1      10.425   8.155  15.921  1.00  0.00     0.023 A 
ATOM     64  C   UNL     1      11.453   7.345  16.435  1.00  0.00     0.031 A 
ATOM     65  C   UNL     1       9.338   8.449  16.765  1.00  0.00     0.131 A 
ATOM     66  C   UNL     1      11.339   6.798  17.722  1.00  0.00     0.055 A 
ATOM     67  C   UNL     1       9.272   7.972  18.076  1.00  0.00     0.041 A 
ATOM     68  F   UNL     1       8.315   9.198  16.326  1.00  0.00    -0.206 F 
ATOM     69  C   UNL     1      10.269   7.129  18.556  1.00  0.00     0.022 A 
BRANCH  66  70
ATOM     70  S   UNL     1      12.534   5.534  18.235  1.00  0.00     0.124 S 
ATOM     71  O   UNL     1      12.352   4.519  17.199  1.00  0.00    -0.237 OA
ATOM     72  O   UNL     1      13.797   6.262  18.202  1.00  0.00    -0.237 OA
ATOM     73  O   UNL     1      12.072   5.145  19.566  1.00  0.00    -0.744 OA
ENDBRANCH  66  70
ENDBRANCH  49  63
BRANCH  50  74
ATOM     74  C   UNL     1      10.231  11.273   6.392  1.00  0.00     0.023 A 
ATOM     75  C   UNL     1      11.227  12.091   5.834  1.00  0.00     0.031 A 
ATOM     76  C   UNL     1       9.119  10.953   5.592  1.00  0.00     0.131 A 
ATOM     77  C   UNL     1      11.067  12.603   4.537  1.00  0.00     0.055 A 
ATOM     78  C   UNL     1       8.995  11.414   4.280  1.00  0.00     0.041 A 
ATOM     79  F   UNL     1       8.137  10.173   6.073  1.00  0.00    -0.206 F 
ATOM     80  C   UNL     1       9.966  12.257   3.751  1.00  0.00     0.022 A 
BRANCH  77  81
ATOM     81  S   UNL     1      12.274  13.812   3.926  1.00  0.00     0.124 S 
ATOM     82  O   UNL     1      12.182  14.858   4.938  1.00  0.00    -0.237 OA
ATOM     83  O   UNL     1      13.507  13.031   3.920  1.00  0.00    -0.237 OA
ATOM     84  O   UNL     1      11.758  14.170   2.607  1.00  0.00    -0.744 OA
ENDBRANCH  77  81
ENDBRANCH  50  74
BRANCH  62  85
ATOM     85  C   UNL     1      10.388  14.569  12.543  1.00  0.00     0.023 A 
ATOM     86  C   UNL     1       9.318  15.434  12.254  1.00  0.00     0.031 A 
ATOM     87  C   UNL     1      11.519  15.108  13.181  1.00  0.00     0.131 A 
ATOM     88  C   UNL     1       9.426  16.802  12.548  1.00  0.00     0.055 A 
ATOM     89  C   UNL     1      11.593  16.456  13.534  1.00  0.00     0.041 A 
ATOM     90  F   UNL     1      12.574  14.331  13.476  1.00  0.00    -0.206 F 
ATOM     91  C   UNL     1      10.548  17.315  13.205  1.00  0.00     0.022 A 
BRANCH  88  92
ATOM     92  S   UNL     1       8.125  17.924  11.966  1.00  0.00     0.124 S 
ATOM     93  O   UNL     1       8.145  17.689  10.526  1.00  0.00    -0.237 OA
ATOM     94  O   UNL     1       6.949  17.433  12.677  1.00  0.00    -0.237 OA
ATOM     95  O   UNL     1       8.596  19.242  12.386  1.00  0.00    -0.744 OA
ENDBRANCH  88  92
ENDBRANCH  62  85
ENDBRANCH  36  37
ENDBRANCH  28  31
ENDBRANCH  26  27
ENDBRANCH   1  26
TORSDOF 16
