REMARK SMILES C[C@H]1CCC[C@H](C)N1C(=O)[C@H]1[C@@H](C(=O)NCCCNC(=O)c2ccc(-c3c4nc(c(-c5cc(S(=O)(=O)[O-])ccc5F)c5ccc([nH]5)c(-c5cc(S(=O)(=O)[O-])ccc5F)c5nc(c(-c6cc(S(=O)(=O)[O-])ccc6F)c6ccc3[nH]6)C=C5)C=C4)cc2)[C@H]2CC[C@@H]1O2
REMARK SMILES IDX 18 1 17 2 16 3 15 4 13 5 14 6 12 8 11 9 88 10 85 11 87 12
REMARK SMILES IDX 89 13 86 14 9 15 1 16 2 17 3 18 8 19 4 20 6 21 5 22 7 23
REMARK SMILES IDX 10 24 19 25 20 26 21 28 22 29 23 30 84 31 24 32 83 33 25 34
REMARK SMILES IDX 26 35 27 36 77 37 28 38 82 39 76 40 78 41 29 42 81 43 75 44
REMARK SMILES IDX 74 45 30 47 62 48 42 49 61 50 43 51 46 52 60 53 79 54 44 55
REMARK SMILES IDX 45 56 59 58 80 59 47 60 31 61 32 62 40 63 33 64 39 65 41 66
REMARK SMILES IDX 38 67 34 68 35 69 36 70 37 71 63 72 64 73 72 74 65 75 71 76
REMARK SMILES IDX 73 77 70 78 66 79 67 80 68 81 69 82 48 83 49 84 57 85 50 86
REMARK SMILES IDX 56 87 58 88 55 89 51 90 52 91 53 92 54 93
REMARK H PARENT 15 7 19 27 78 46 46 57
REMARK Flexibility Score: inf
ROOT
ATOM      1  C   UNL     1       0.159   5.371  -0.686  1.00  0.00     0.118 C 
ENDROOT
BRANCH   1   2
ATOM      2  C   UNL     1      -0.134   3.950  -0.212  1.00  0.00     0.042 C 
BRANCH   2   3
ATOM      3  C   UNL     1       0.888   3.325   0.766  1.00  0.00     0.117 C 
BRANCH   3   4
ATOM      4  N   UNL     1       0.893   3.928   2.108  1.00  0.00    -0.356 N 
ATOM      5  C   UNL     1       0.996   3.399   3.377  1.00  0.00     0.226 C 
ATOM      6  O   UNL     1       1.160   4.189   4.308  1.00  0.00    -0.275 OA
ATOM      7  H   UNL     1       0.804   4.909   2.097  1.00  0.00     0.163 HD
BRANCH   5   8
ATOM      8  C   UNL     1       0.959   1.900   3.616  1.00  0.00     0.122 C 
ATOM      9  C   UNL     1      -0.348   1.154   3.938  1.00  0.00     0.122 C 
ATOM     10  C   UNL     1       0.151   0.055   4.911  1.00  0.00     0.132 C 
ATOM     11  C   UNL     1       1.873   1.379   4.743  1.00  0.00     0.132 C 
ATOM     12  C   UNL     1       0.322   0.466   6.356  1.00  0.00     0.035 C 
ATOM     13  O   UNL     1       1.574  -0.039   4.545  1.00  0.00    -0.373 OA
ATOM     14  C   UNL     1       1.459   1.478   6.227  1.00  0.00     0.035 C 
BRANCH   9  15
ATOM     15  C   UNL     1      -1.518   2.029   4.384  1.00  0.00     0.229 C 
ATOM     16  C   UNL     1      -2.186   0.936   1.435  1.00  0.00     0.031 C 
ATOM     17  C   UNL     1      -2.381   2.363   1.972  1.00  0.00     0.082 C 
ATOM     18  C   UNL     1      -3.612   2.908   1.222  1.00  0.00     0.025 C 
ATOM     19  N   UNL     1      -2.393   2.594   3.438  1.00  0.00    -0.337 N 
ATOM     20  C   UNL     1      -4.036   4.293   1.651  1.00  0.00     0.004 C 
ATOM     21  C   UNL     1      -3.039   3.857   3.917  1.00  0.00     0.082 C 
ATOM     22  C   UNL     1      -4.296   4.259   3.141  1.00  0.00     0.025 C 
ATOM     23  C   UNL     1      -2.033   5.024   3.918  1.00  0.00     0.031 C 
ATOM     24  O   UNL     1      -1.649   2.308   5.579  1.00  0.00    -0.274 OA
ENDBRANCH   9  15
ENDBRANCH   5   8
ENDBRANCH   3   4
ENDBRANCH   2   3
ENDBRANCH   1   2
BRANCH   1  25
ATOM     25  N   UNL     1       0.541   5.398  -2.087  1.00  0.00    -0.352 N 
ATOM     26  C   UNL     1      -0.180   5.621  -3.238  1.00  0.00     0.251 C 
ATOM     27  H   UNL     1       1.497   5.224  -2.244  1.00  0.00     0.163 HD
ATOM     28  O   UNL     1       0.341   5.280  -4.301  1.00  0.00    -0.269 OA
BRANCH  26  29
ATOM     29  C   UNL     1      -1.539   6.234  -3.260  1.00  0.00     0.039 A 
ATOM     30  C   UNL     1      -2.391   5.910  -4.328  1.00  0.00     0.014 A 
ATOM     31  C   UNL     1      -1.958   7.210  -2.353  1.00  0.00     0.014 A 
ATOM     32  C   UNL     1      -3.637   6.538  -4.473  1.00  0.00     0.010 A 
ATOM     33  C   UNL     1      -3.239   7.775  -2.449  1.00  0.00     0.010 A 
ATOM     34  C   UNL     1      -4.085   7.470  -3.526  1.00  0.00    -0.014 A 
BRANCH  34  35
ATOM     35  C   UNL     1      -5.392   8.178  -3.693  1.00  0.00     0.031 A 
ATOM     36  C   UNL     1      -5.427   9.681  -3.860  1.00  0.00     0.074 A 
ATOM     37  C   UNL     1      -6.551   7.487  -3.683  1.00  0.00     0.049 A 
ATOM     38  N   UNL     1      -6.457  10.485  -3.951  1.00  0.00    -0.248 NA
ATOM     39  C   UNL     1      -4.129  10.370  -3.905  1.00  0.00     0.031 C 
ATOM     40  C   UNL     1      -6.667   6.037  -3.519  1.00  0.00     0.029 A 
ATOM     41  N   UNL     1      -7.853   7.908  -3.812  1.00  0.00    -0.354 N 
ATOM     42  C   UNL     1      -5.932  11.771  -4.057  1.00  0.00     0.074 A 
ATOM     43  C   UNL     1      -4.495  11.642  -3.944  1.00  0.00     0.031 C 
ATOM     44  C   UNL     1      -7.962   5.688  -3.584  1.00  0.00     0.029 A 
ATOM     45  C   UNL     1      -8.777   6.889  -3.744  1.00  0.00     0.049 A 
ATOM     46  H   UNL     1      -8.103   8.852  -3.942  1.00  0.00     0.167 HD
ATOM     47  C   UNL     1      -6.579  12.948  -4.260  1.00  0.00     0.034 A 
ATOM     48  C   UNL     1     -10.126   6.916  -3.791  1.00  0.00     0.034 A 
ATOM     49  C   UNL     1      -8.012  13.069  -4.386  1.00  0.00     0.049 A 
ATOM     50  C   UNL     1     -10.827   8.243  -3.966  1.00  0.00     0.074 A 
ATOM     51  C   UNL     1      -8.766  14.209  -4.612  1.00  0.00     0.029 A 
ATOM     52  N   UNL     1      -8.911  12.014  -4.298  1.00  0.00    -0.354 N 
ATOM     53  N   UNL     1     -10.308   9.443  -4.086  1.00  0.00    -0.248 NA
ATOM     54  C   UNL     1     -12.295   8.215  -4.025  1.00  0.00     0.031 C 
ATOM     55  C   UNL     1     -10.119  13.853  -4.599  1.00  0.00     0.029 A 
ATOM     56  C   UNL     1     -10.209  12.480  -4.443  1.00  0.00     0.049 A 
ATOM     57  H   UNL     1      -8.662  11.072  -4.154  1.00  0.00     0.167 HD
ATOM     58  C   UNL     1     -11.387  10.305  -4.273  1.00  0.00     0.074 A 
ATOM     59  C   UNL     1     -12.580   9.486  -4.267  1.00  0.00     0.031 C 
ATOM     60  C   UNL     1     -11.392  11.653  -4.436  1.00  0.00     0.034 A 
BRANCH  47  61
ATOM     61  C   UNL     1      -5.736  14.200  -4.343  1.00  0.00     0.023 A 
ATOM     62  C   UNL     1      -4.782  14.378  -5.361  1.00  0.00     0.031 A 
ATOM     63  C   UNL     1      -5.870  15.223  -3.386  1.00  0.00     0.131 A 
ATOM     64  C   UNL     1      -3.946  15.505  -5.353  1.00  0.00     0.055 A 
ATOM     65  C   UNL     1      -5.095  16.384  -3.434  1.00  0.00     0.041 A 
ATOM     66  F   UNL     1      -6.750  15.106  -2.379  1.00  0.00    -0.206 F 
ATOM     67  C   UNL     1      -4.114  16.523  -4.412  1.00  0.00     0.022 A 
BRANCH  64  68
ATOM     68  S   UNL     1      -2.540  15.551  -6.497  1.00  0.00     0.124 S 
ATOM     69  O   UNL     1      -1.800  14.354  -6.099  1.00  0.00    -0.237 OA
ATOM     70  O   UNL     1      -3.195  15.488  -7.803  1.00  0.00    -0.237 OA
ATOM     71  O   UNL     1      -1.884  16.813  -6.188  1.00  0.00    -0.744 OA
ENDBRANCH  64  68
ENDBRANCH  47  61
BRANCH  48  72
ATOM     72  C   UNL     1     -10.920   5.658  -3.654  1.00  0.00     0.023 A 
ATOM     73  C   UNL     1     -11.761   5.216  -4.687  1.00  0.00     0.031 A 
ATOM     74  C   UNL     1     -10.905   4.917  -2.458  1.00  0.00     0.131 A 
ATOM     75  C   UNL     1     -12.598   4.106  -4.485  1.00  0.00     0.055 A 
ATOM     76  C   UNL     1     -11.692   3.776  -2.285  1.00  0.00     0.041 A 
ATOM     77  F   UNL     1     -10.120   5.292  -1.435  1.00  0.00    -0.206 F 
ATOM     78  C   UNL     1     -12.558   3.375  -3.297  1.00  0.00     0.022 A 
BRANCH  75  79
ATOM     79  S   UNL     1     -13.826   3.702  -5.758  1.00  0.00     0.124 S 
ATOM     80  O   UNL     1     -14.559   4.957  -5.872  1.00  0.00    -0.237 OA
ATOM     81  O   UNL     1     -12.979   3.348  -6.892  1.00  0.00    -0.237 OA
ATOM     82  O   UNL     1     -14.572   2.592  -5.169  1.00  0.00    -0.744 OA
ENDBRANCH  75  79
ENDBRANCH  48  72
BRANCH  60  83
ATOM     83  C   UNL     1     -12.729  12.312  -4.679  1.00  0.00     0.023 A 
ATOM     84  C   UNL     1     -13.731  12.345  -3.695  1.00  0.00     0.031 A 
ATOM     85  C   UNL     1     -13.006  12.906  -5.924  1.00  0.00     0.131 A 
ATOM     86  C   UNL     1     -14.984  12.904  -3.990  1.00  0.00     0.055 A 
ATOM     87  C   UNL     1     -14.232  13.517  -6.191  1.00  0.00     0.041 A 
ATOM     88  F   UNL     1     -12.086  12.903  -6.903  1.00  0.00    -0.206 F 
ATOM     89  C   UNL     1     -15.235  13.505  -5.226  1.00  0.00     0.022 A 
BRANCH  86  90
ATOM     90  S   UNL     1     -16.316  12.751  -2.769  1.00  0.00     0.124 S 
ATOM     91  O   UNL     1     -16.417  11.304  -2.609  1.00  0.00    -0.237 OA
ATOM     92  O   UNL     1     -15.778  13.482  -1.627  1.00  0.00    -0.237 OA
ATOM     93  O   UNL     1     -17.459  13.383  -3.426  1.00  0.00    -0.744 OA
ENDBRANCH  86  90
ENDBRANCH  60  83
ENDBRANCH  34  35
ENDBRANCH  26  29
ENDBRANCH   1  25
TORSDOF 14
