REMARK SMILES O=C(NCCCNC(=O)c1ccc(-c2c3nc(c(-c4cc(S(=O)(=O)[O-])ccc4F)c4ccc([nH]4)c(-c4cc(S(=O)(=O)[O-])ccc4F)c4nc(c(-c5cc(S(=O)(=O)[O-])ccc5F)c5ccc2[nH]5)C=C4)C=C3)cc1)C1=Cc2cc(Cl)cc(-c3ccccc3)c2O[C@@H]1C(F)(F)F
REMARK SMILES IDX 6 1 5 2 4 3 3 4 1 5 2 6 73 8 74 9 89 10 75 11 88 12 76 13
REMARK SMILES IDX 87 14 77 15 80 16 78 17 79 18 90 19 91 20 92 21 93 22 81 23
REMARK SMILES IDX 82 24 86 25 83 26 85 27 84 28 7 29 8 30 9 32 10 33 11 34
REMARK SMILES IDX 72 35 12 36 71 37 13 38 14 39 15 40 65 41 16 42 70 43 64 44
REMARK SMILES IDX 66 45 17 46 69 47 63 48 62 49 18 51 50 52 30 53 49 54 31 55
REMARK SMILES IDX 34 56 48 57 67 58 32 59 33 60 47 62 68 63 35 64 19 65 20 66
REMARK SMILES IDX 28 67 21 68 27 69 29 70 26 71 22 72 23 73 24 74 25 75 51 76
REMARK SMILES IDX 52 77 60 78 53 79 59 80 61 81 58 82 54 83 55 84 56 85 57 86
REMARK SMILES IDX 36 87 37 88 45 89 38 90 44 91 46 92 43 93 39 94 40 95 41 96
REMARK SMILES IDX 42 97
REMARK H PARENT 3 7 7 31 66 50 34 61
REMARK Flexibility Score: inf
ROOT
ATOM      1  C   UNL     1       4.610  -3.630   1.665  1.00  0.00     0.118 C 
ENDROOT
BRANCH   1   2
ATOM      2  C   UNL     1       4.111  -2.205   1.898  1.00  0.00     0.042 C 
BRANCH   2   3
ATOM      3  C   UNL     1       3.050  -1.778   0.881  1.00  0.00     0.118 C 
BRANCH   3   4
ATOM      4  N   UNL     1       2.238  -0.646   1.346  1.00  0.00    -0.352 N 
ATOM      5  O   UNL     1       1.367   1.452   1.284  1.00  0.00    -0.270 OA
ATOM      6  C   UNL     1       2.249   0.669   0.956  1.00  0.00     0.251 C 
ATOM      7  H   UNL     1       1.583  -0.866   2.048  1.00  0.00     0.163 HD
BRANCH   6   8
ATOM      8  C   UNL     1       3.338   1.082   0.062  1.00  0.00     0.067 C 
ATOM      9  C   UNL     1       4.586   1.030   0.540  1.00  0.00     0.025 C 
ATOM     10  C   UNL     1       3.033   1.181  -1.397  1.00  0.00     0.314 C 
ATOM     11  C   UNL     1       5.580   0.548  -0.423  1.00  0.00     0.019 A 
ATOM     12  O   UNL     1       3.883   0.299  -2.167  1.00  0.00    -0.475 OA
ATOM     13  C   UNL     1       6.855   0.236   0.054  1.00  0.00     0.032 A 
ATOM     14  C   UNL     1       5.132   0.024  -1.654  1.00  0.00     0.135 A 
ATOM     15  C   UNL     1       7.636  -0.681  -0.640  1.00  0.00     0.042 A 
ATOM     16  C   UNL     1       5.891  -0.954  -2.320  1.00  0.00     0.026 A 
ATOM     17  Cl  UNL     1       9.142  -1.178   0.026  1.00  0.00    -0.084 Cl
ATOM     18  C   UNL     1       7.152  -1.293  -1.796  1.00  0.00     0.033 A 
BRANCH  10  19
ATOM     19  C   UNL     1       3.091   2.633  -1.901  1.00  0.00     0.429 C 
ATOM     20  F   UNL     1       2.723   2.716  -3.204  1.00  0.00    -0.167 F 
ATOM     21  F   UNL     1       2.247   3.438  -1.212  1.00  0.00    -0.167 F 
ATOM     22  F   UNL     1       4.328   3.174  -1.802  1.00  0.00    -0.167 F 
ENDBRANCH  10  19
BRANCH  16  23
ATOM     23  C   UNL     1       5.324  -1.773  -3.403  1.00  0.00    -0.015 A 
ATOM     24  C   UNL     1       4.647  -2.967  -3.095  1.00  0.00     0.009 A 
ATOM     25  C   UNL     1       5.474  -1.430  -4.750  1.00  0.00     0.009 A 
ATOM     26  C   UNL     1       4.181  -3.821  -4.093  1.00  0.00     0.001 A 
ATOM     27  C   UNL     1       4.994  -2.278  -5.754  1.00  0.00     0.001 A 
ATOM     28  C   UNL     1       4.362  -3.478  -5.426  1.00  0.00     0.000 A 
ENDBRANCH  16  23
ENDBRANCH   6   8
ENDBRANCH   3   4
ENDBRANCH   2   3
ENDBRANCH   1   2
BRANCH   1  29
ATOM     29  N   UNL     1       5.331  -3.835   0.422  1.00  0.00    -0.352 N 
ATOM     30  C   UNL     1       6.005  -4.951  -0.036  1.00  0.00     0.251 C 
ATOM     31  H   UNL     1       5.341  -3.062  -0.187  1.00  0.00     0.163 HD
ATOM     32  O   UNL     1       6.543  -4.899  -1.141  1.00  0.00    -0.269 OA
BRANCH  30  33
ATOM     33  C   UNL     1       6.193  -6.152   0.820  1.00  0.00     0.039 A 
ATOM     34  C   UNL     1       7.418  -6.827   0.741  1.00  0.00     0.014 A 
ATOM     35  C   UNL     1       5.250  -6.572   1.755  1.00  0.00     0.014 A 
ATOM     36  C   UNL     1       7.743  -7.804   1.686  1.00  0.00     0.010 A 
ATOM     37  C   UNL     1       5.614  -7.458   2.764  1.00  0.00     0.010 A 
ATOM     38  C   UNL     1       6.878  -8.061   2.760  1.00  0.00    -0.014 A 
BRANCH  38  39
ATOM     39  C   UNL     1       7.304  -8.891   3.917  1.00  0.00     0.031 A 
ATOM     40  C   UNL     1       6.527 -10.117   4.309  1.00  0.00     0.074 A 
ATOM     41  C   UNL     1       8.336  -8.465   4.675  1.00  0.00     0.049 A 
ATOM     42  N   UNL     1       6.700 -10.917   5.330  1.00  0.00    -0.248 NA
ATOM     43  C   UNL     1       5.366 -10.456   3.474  1.00  0.00     0.031 C 
ATOM     44  C   UNL     1       9.095  -7.229   4.454  1.00  0.00     0.029 A 
ATOM     45  N   UNL     1       8.927  -9.014   5.783  1.00  0.00    -0.354 N 
ATOM     46  C   UNL     1       5.656 -11.835   5.275  1.00  0.00     0.074 A 
ATOM     47  C   UNL     1       4.816 -11.442   4.164  1.00  0.00     0.031 C 
ATOM     48  C   UNL     1      10.080  -7.144   5.361  1.00  0.00     0.029 A 
ATOM     49  C   UNL     1      10.002  -8.294   6.252  1.00  0.00     0.049 A 
ATOM     50  H   UNL     1       8.612  -9.847   6.204  1.00  0.00     0.167 HD
ATOM     51  C   UNL     1       5.438 -12.921   6.059  1.00  0.00     0.034 A 
ATOM     52  C   UNL     1      10.839  -8.541   7.278  1.00  0.00     0.034 A 
ATOM     53  C   UNL     1       6.311 -13.306   7.142  1.00  0.00     0.049 A 
ATOM     54  C   UNL     1      10.632  -9.800   8.077  1.00  0.00     0.074 A 
ATOM     55  C   UNL     1       6.229 -14.409   7.975  1.00  0.00     0.029 A 
ATOM     56  N   UNL     1       7.440 -12.596   7.538  1.00  0.00    -0.354 N 
ATOM     57  N   UNL     1       9.677 -10.697   7.971  1.00  0.00    -0.248 NA
ATOM     58  C   UNL     1      11.628 -10.094   9.113  1.00  0.00     0.031 C 
ATOM     59  C   UNL     1       7.282 -14.343   8.897  1.00  0.00     0.029 A 
ATOM     60  C   UNL     1       8.058 -13.233   8.603  1.00  0.00     0.049 A 
ATOM     61  H   UNL     1       7.755 -11.762   7.121  1.00  0.00     0.167 HD
ATOM     62  C   UNL     1       9.972 -11.674   8.916  1.00  0.00     0.074 A 
ATOM     63  C   UNL     1      11.208 -11.269   9.556  1.00  0.00     0.031 C 
ATOM     64  C   UNL     1       9.283 -12.800   9.233  1.00  0.00     0.034 A 
BRANCH  51  65
ATOM     65  C   UNL     1       4.202 -13.744   5.769  1.00  0.00     0.023 A 
ATOM     66  C   UNL     1       4.012 -14.368   4.522  1.00  0.00     0.031 A 
ATOM     67  C   UNL     1       3.170 -13.852   6.717  1.00  0.00     0.131 A 
ATOM     68  C   UNL     1       2.784 -14.975   4.219  1.00  0.00     0.055 A 
ATOM     69  C   UNL     1       1.986 -14.542   6.443  1.00  0.00     0.041 A 
ATOM     70  F   UNL     1       3.281 -13.265   7.919  1.00  0.00    -0.206 F 
ATOM     71  C   UNL     1       1.778 -15.090   5.180  1.00  0.00     0.022 A 
BRANCH  68  72
ATOM     72  S   UNL     1       2.459 -15.455   2.500  1.00  0.00     0.124 S 
ATOM     73  O   UNL     1       2.558 -14.168   1.814  1.00  0.00    -0.237 OA
ATOM     74  O   UNL     1       3.530 -16.407   2.229  1.00  0.00    -0.237 OA
ATOM     75  O   UNL     1       1.114 -16.024   2.550  1.00  0.00    -0.744 OA
ENDBRANCH  68  72
ENDBRANCH  51  65
BRANCH  52  76
ATOM     76  C   UNL     1      11.962  -7.610   7.584  1.00  0.00     0.023 A 
ATOM     77  C   UNL     1      13.296  -8.008   7.406  1.00  0.00     0.031 A 
ATOM     78  C   UNL     1      11.721  -6.317   8.081  1.00  0.00     0.131 A 
ATOM     79  C   UNL     1      14.341  -7.143   7.766  1.00  0.00     0.055 A 
ATOM     80  C   UNL     1      12.763  -5.442   8.394  1.00  0.00     0.041 A 
ATOM     81  F   UNL     1      10.463  -5.880   8.254  1.00  0.00    -0.206 F 
ATOM     82  C   UNL     1      14.083  -5.858   8.250  1.00  0.00     0.022 A 
BRANCH  79  83
ATOM     83  S   UNL     1      16.047  -7.750   7.663  1.00  0.00     0.124 S 
ATOM     84  O   UNL     1      15.995  -8.934   8.513  1.00  0.00    -0.237 OA
ATOM     85  O   UNL     1      16.194  -7.995   6.232  1.00  0.00    -0.237 OA
ATOM     86  O   UNL     1      16.837  -6.638   8.188  1.00  0.00    -0.744 OA
ENDBRANCH  79  83
ENDBRANCH  52  76
BRANCH  64  87
ATOM     87  C   UNL     1       9.889 -13.675  10.301  1.00  0.00     0.023 A 
ATOM     88  C   UNL     1       9.997 -13.239  11.633  1.00  0.00     0.031 A 
ATOM     89  C   UNL     1      10.408 -14.939   9.971  1.00  0.00     0.131 A 
ATOM     90  C   UNL     1      10.680 -14.025  12.571  1.00  0.00     0.055 A 
ATOM     91  C   UNL     1      11.031 -15.745  10.924  1.00  0.00     0.041 A 
ATOM     92  F   UNL     1      10.331 -15.403   8.714  1.00  0.00    -0.206 F 
ATOM     93  C   UNL     1      11.186 -15.281  12.228  1.00  0.00     0.022 A 
BRANCH  90  94
ATOM     94  S   UNL     1      11.007 -13.327  14.212  1.00  0.00     0.124 S 
ATOM     95  O   UNL     1      11.696 -12.083  13.883  1.00  0.00    -0.237 OA
ATOM     96  O   UNL     1       9.663 -13.184  14.762  1.00  0.00    -0.237 OA
ATOM     97  O   UNL     1      11.836 -14.343  14.857  1.00  0.00    -0.744 OA
ENDBRANCH  90  94
ENDBRANCH  64  87
ENDBRANCH  38  39
ENDBRANCH  30  33
ENDBRANCH   1  29
TORSDOF 15
