REMARK SMILES COc1ccccc1-c1nnc(S[C@@H](C)C(=O)NCCCNC(=O)c2ccc(-c3c4nc(c(-c5cc(S(=O)(=O)[O-])ccc5F)c5ccc([nH]5)c(-c5cc(S(=O)(=O)[O-])ccc5F)c5nc(c(-c6cc(S(=O)(=O)[O-])ccc6F)c6ccc3[nH]6)C=C5)C=C4)cc2)n1-c1ccccc1
REMARK SMILES IDX 19 1 18 2 16 3 17 4 14 6 15 7 13 8 12 9 9 10 10 11 88 12
REMARK SMILES IDX 11 13 8 14 3 15 4 16 5 17 7 18 6 19 2 20 1 21 89 22 90 23
REMARK SMILES IDX 94 24 91 25 93 26 92 27 20 28 21 29 22 30 23 31 24 33 25 34
REMARK SMILES IDX 26 35 87 36 27 37 86 38 28 39 29 40 30 41 80 42 31 43 85 44
REMARK SMILES IDX 79 45 81 46 32 47 84 48 78 49 77 50 33 52 65 53 45 54 64 55
REMARK SMILES IDX 46 56 49 57 63 58 82 59 47 60 48 61 62 63 83 64 50 65 34 66
REMARK SMILES IDX 35 67 43 68 36 69 42 70 44 71 41 72 37 73 38 74 39 75 40 76
REMARK SMILES IDX 66 77 67 78 75 79 68 80 74 81 76 82 73 83 69 84 70 85 71 86
REMARK SMILES IDX 72 87 51 88 52 89 60 90 53 91 59 92 61 93 58 94 54 95 55 96
REMARK SMILES IDX 56 97 57 98
REMARK H PARENT 18 5 22 32 81 51 49 62
REMARK Flexibility Score: inf
ROOT
ATOM      1  C   UNL     1       5.127  -2.704  -0.594  1.00  0.00     0.117 C 
ENDROOT
BRANCH   1   2
ATOM      2  N   UNL     1       5.865  -3.051   0.598  1.00  0.00    -0.355 N 
ATOM      3  C   UNL     1       5.219  -3.196   1.811  1.00  0.00     0.233 C 
ATOM      4  O   UNL     1       5.175  -4.331   2.296  1.00  0.00    -0.274 OA
ATOM      5  H   UNL     1       6.839  -3.187   0.546  1.00  0.00     0.163 HD
BRANCH   3   6
ATOM      6  C   UNL     1       4.856  -1.973   2.659  1.00  0.00     0.141 C 
ATOM      7  C   UNL     1       3.924  -2.190   3.850  1.00  0.00     0.030 C 
BRANCH   6   8
ATOM      8  S   UNL     1       4.633  -0.364   1.950  1.00  0.00    -0.073 SA
BRANCH   8   9
ATOM      9  C   UNL     1       3.333  -0.101   0.843  1.00  0.00     0.196 A 
ATOM     10  C   UNL     1       2.036  -0.163  -0.928  1.00  0.00     0.173 A 
ATOM     11  N   UNL     1       2.650   1.000  -0.900  1.00  0.00    -0.129 NA
ATOM     12  N   UNL     1       2.374  -0.910   0.217  1.00  0.00    -0.270 N 
ATOM     13  N   UNL     1       3.384   1.065   0.229  1.00  0.00    -0.122 NA
BRANCH  10  14
ATOM     14  C   UNL     1       1.056  -0.480  -1.959  1.00  0.00     0.062 A 
ATOM     15  C   UNL     1      -0.213  -0.971  -1.648  1.00  0.00     0.129 A 
ATOM     16  C   UNL     1      -1.018  -1.504  -2.653  1.00  0.00     0.047 A 
ATOM     17  C   UNL     1      -0.628  -1.398  -3.987  1.00  0.00     0.004 A 
ATOM     18  C   UNL     1       1.382  -0.259  -3.305  1.00  0.00     0.016 A 
ATOM     19  C   UNL     1       0.537  -0.712  -4.318  1.00  0.00     0.001 A 
BRANCH  15  20
ATOM     20  O   UNL     1      -0.724  -0.956  -0.374  1.00  0.00    -0.496 OA
ATOM     21  C   UNL     1      -0.758   0.379   0.153  1.00  0.00     0.278 C 
ENDBRANCH  15  20
ENDBRANCH  10  14
BRANCH  12  22
ATOM     22  C   UNL     1       1.937  -2.234   0.558  1.00  0.00     0.050 A 
ATOM     23  C   UNL     1       1.533  -2.521   1.858  1.00  0.00     0.027 A 
ATOM     24  C   UNL     1       2.005  -3.288  -0.369  1.00  0.00     0.027 A 
ATOM     25  C   UNL     1       1.399  -3.851   2.279  1.00  0.00     0.002 A 
ATOM     26  C   UNL     1       1.936  -4.616   0.067  1.00  0.00     0.002 A 
ATOM     27  C   UNL     1       1.667  -4.897   1.401  1.00  0.00     0.000 A 
ENDBRANCH  12  22
ENDBRANCH   8   9
ENDBRANCH   6   8
ENDBRANCH   3   6
ENDBRANCH   1   2
BRANCH   1  28
ATOM     28  C   UNL     1       5.708  -1.682  -1.560  1.00  0.00     0.042 C 
BRANCH  28  29
ATOM     29  C   UNL     1       5.331  -2.038  -3.003  1.00  0.00     0.118 C 
BRANCH  29  30
ATOM     30  N   UNL     1       3.889  -2.177  -3.305  1.00  0.00    -0.352 N 
ATOM     31  C   UNL     1       3.269  -2.773  -4.406  1.00  0.00     0.251 C 
ATOM     32  H   UNL     1       3.279  -1.796  -2.633  1.00  0.00     0.163 HD
ATOM     33  O   UNL     1       2.055  -2.938  -4.509  1.00  0.00    -0.269 OA
BRANCH  31  34
ATOM     34  C   UNL     1       4.112  -3.433  -5.373  1.00  0.00     0.039 A 
ATOM     35  C   UNL     1       4.409  -2.983  -6.669  1.00  0.00     0.014 A 
ATOM     36  C   UNL     1       4.850  -4.383  -4.717  1.00  0.00     0.014 A 
ATOM     37  C   UNL     1       5.551  -3.503  -7.271  1.00  0.00     0.010 A 
ATOM     38  C   UNL     1       6.131  -4.402  -5.108  1.00  0.00     0.010 A 
ATOM     39  C   UNL     1       6.410  -4.230  -6.448  1.00  0.00    -0.014 A 
BRANCH  39  40
ATOM     40  C   UNL     1       7.725  -4.750  -6.743  1.00  0.00     0.031 A 
ATOM     41  C   UNL     1       8.705  -3.671  -7.005  1.00  0.00     0.074 A 
ATOM     42  C   UNL     1       8.040  -5.999  -6.308  1.00  0.00     0.049 A 
ATOM     43  N   UNL     1       9.020  -3.178  -8.156  1.00  0.00    -0.248 NA
ATOM     44  C   UNL     1       9.147  -2.824  -5.875  1.00  0.00     0.031 C 
ATOM     45  C   UNL     1       7.194  -6.989  -5.602  1.00  0.00     0.029 A 
ATOM     46  N   UNL     1       9.244  -6.611  -6.290  1.00  0.00    -0.354 N 
ATOM     47  C   UNL     1      10.002  -2.236  -7.876  1.00  0.00     0.074 A 
ATOM     48  C   UNL     1       9.741  -1.822  -6.530  1.00  0.00     0.031 C 
ATOM     49  C   UNL     1       7.959  -7.968  -5.065  1.00  0.00     0.029 A 
ATOM     50  C   UNL     1       9.307  -7.802  -5.567  1.00  0.00     0.049 A 
ATOM     51  H   UNL     1      10.027  -6.240  -6.758  1.00  0.00     0.167 HD
ATOM     52  C   UNL     1      11.159  -2.212  -8.600  1.00  0.00     0.034 A 
ATOM     53  C   UNL     1      10.387  -8.620  -5.450  1.00  0.00     0.034 A 
ATOM     54  C   UNL     1      11.046  -3.141  -9.713  1.00  0.00     0.049 A 
ATOM     55  C   UNL     1      11.259  -8.271  -6.604  1.00  0.00     0.074 A 
ATOM     56  C   UNL     1      10.233  -3.245 -10.823  1.00  0.00     0.029 A 
ATOM     57  N   UNL     1      11.553  -4.405  -9.482  1.00  0.00    -0.354 N 
ATOM     58  N   UNL     1      10.884  -8.410  -7.850  1.00  0.00    -0.248 NA
ATOM     59  C   UNL     1      12.315  -7.293  -6.389  1.00  0.00     0.031 C 
ATOM     60  C   UNL     1       9.967  -4.642 -10.961  1.00  0.00     0.029 A 
ATOM     61  C   UNL     1      10.715  -5.353 -10.017  1.00  0.00     0.049 A 
ATOM     62  H   UNL     1      12.391  -4.598  -9.004  1.00  0.00     0.167 HD
ATOM     63  C   UNL     1      11.329  -7.264  -8.498  1.00  0.00     0.074 A 
ATOM     64  C   UNL     1      12.311  -6.683  -7.580  1.00  0.00     0.031 C 
ATOM     65  C   UNL     1      10.632  -6.736  -9.552  1.00  0.00     0.034 A 
BRANCH  52  66
ATOM     66  C   UNL     1      12.524  -1.754  -8.107  1.00  0.00     0.023 A 
ATOM     67  C   UNL     1      13.594  -1.881  -9.017  1.00  0.00     0.031 A 
ATOM     68  C   UNL     1      12.898  -1.428  -6.784  1.00  0.00     0.131 A 
ATOM     69  C   UNL     1      14.932  -1.798  -8.593  1.00  0.00     0.055 A 
ATOM     70  C   UNL     1      14.230  -1.302  -6.374  1.00  0.00     0.041 A 
ATOM     71  F   UNL     1      12.021  -1.277  -5.788  1.00  0.00    -0.206 F 
ATOM     72  C   UNL     1      15.258  -1.516  -7.272  1.00  0.00     0.022 A 
BRANCH  69  73
ATOM     73  S   UNL     1      16.237  -2.214  -9.775  1.00  0.00     0.124 S 
ATOM     74  O   UNL     1      15.838  -3.552 -10.195  1.00  0.00    -0.237 OA
ATOM     75  O   UNL     1      16.092  -1.153 -10.766  1.00  0.00    -0.237 OA
ATOM     76  O   UNL     1      17.454  -2.150  -8.969  1.00  0.00    -0.744 OA
ENDBRANCH  69  73
ENDBRANCH  52  66
BRANCH  53  77
ATOM     77  C   UNL     1      10.867  -9.338  -4.232  1.00  0.00     0.023 A 
ATOM     78  C   UNL     1      11.761 -10.431  -4.285  1.00  0.00     0.031 A 
ATOM     79  C   UNL     1      10.647  -8.764  -2.959  1.00  0.00     0.131 A 
ATOM     80  C   UNL     1      12.404 -10.889  -3.107  1.00  0.00     0.055 A 
ATOM     81  C   UNL     1      11.295  -9.212  -1.803  1.00  0.00     0.041 A 
ATOM     82  F   UNL     1       9.859  -7.687  -2.814  1.00  0.00    -0.206 F 
ATOM     83  C   UNL     1      12.188 -10.269  -1.874  1.00  0.00     0.022 A 
BRANCH  80  84
ATOM     84  S   UNL     1      13.606 -12.262  -3.176  1.00  0.00     0.124 S 
ATOM     85  O   UNL     1      12.761 -13.392  -3.545  1.00  0.00    -0.237 OA
ATOM     86  O   UNL     1      14.550 -11.800  -4.186  1.00  0.00    -0.237 OA
ATOM     87  O   UNL     1      14.143 -12.316  -1.815  1.00  0.00    -0.744 OA
ENDBRANCH  80  84
ENDBRANCH  53  77
BRANCH  65  88
ATOM     88  C   UNL     1       9.605  -7.623 -10.248  1.00  0.00     0.023 A 
ATOM     89  C   UNL     1       8.390  -8.104  -9.699  1.00  0.00     0.031 A 
ATOM     90  C   UNL     1       9.848  -7.883 -11.608  1.00  0.00     0.131 A 
ATOM     91  C   UNL     1       7.475  -8.806 -10.520  1.00  0.00     0.055 A 
ATOM     92  C   UNL     1       8.933  -8.552 -12.418  1.00  0.00     0.041 A 
ATOM     93  F   UNL     1      10.974  -7.439 -12.190  1.00  0.00    -0.206 F 
ATOM     94  C   UNL     1       7.743  -9.018 -11.876  1.00  0.00     0.022 A 
BRANCH  91  95
ATOM     95  S   UNL     1       5.913  -9.479  -9.848  1.00  0.00     0.124 S 
ATOM     96  O   UNL     1       6.342 -10.215  -8.665  1.00  0.00    -0.237 OA
ATOM     97  O   UNL     1       5.126  -8.274  -9.601  1.00  0.00    -0.237 OA
ATOM     98  O   UNL     1       5.407 -10.320 -10.935  1.00  0.00    -0.744 OA
ENDBRANCH  91  95
ENDBRANCH  65  88
ENDBRANCH  39  40
ENDBRANCH  31  34
ENDBRANCH  29  30
ENDBRANCH  28  29
ENDBRANCH   1  28
TORSDOF 18
