REMARK SMILES COc1ccc(-c2nc3ccc(C)cc3[nH]2)c(C(=O)NCCCNC(=O)c2ccc(-c3c4nc(c(-c5cc(S(=O)(=O)[O-])ccc5F)c5ccc([nH]5)c(-c5cc(S(=O)(=O)[O-])ccc5F)c5nc(c(-c6cc(S(=O)(=O)[O-])ccc6F)c6ccc3[nH]6)C=C5)C=C4)cc2)c1OC
REMARK SMILES IDX 23 1 22 2 21 3 20 4 18 5 19 6 17 8 3 9 4 10 90 11 5 12 6 13
REMARK SMILES IDX 2 14 1 15 91 16 92 17 7 18 8 19 16 20 9 21 15 22 10 24 14 25
REMARK SMILES IDX 11 26 12 27 13 28 24 29 25 30 26 32 27 33 28 34 89 35 29 36
REMARK SMILES IDX 88 37 30 38 31 39 32 40 82 41 33 42 87 43 81 44 83 45 34 46
REMARK SMILES IDX 86 47 80 48 79 49 35 51 67 52 47 53 66 54 48 55 51 56 65 57
REMARK SMILES IDX 84 58 49 59 50 60 64 62 85 63 52 64 36 65 37 66 45 67 38 68
REMARK SMILES IDX 44 69 46 70 43 71 39 72 40 73 41 74 42 75 68 76 69 77 77 78
REMARK SMILES IDX 70 79 76 80 78 81 75 82 71 83 72 84 73 85 74 86 53 87 54 88
REMARK SMILES IDX 62 89 55 90 61 91 63 92 60 93 56 94 57 95 58 96 59 97
REMARK H PARENT 20 7 16 23 24 31 83 50 51 61
REMARK Flexibility Score: inf
ROOT
ATOM      1  C   UNL     1       7.206   1.172   1.470  1.00  0.00     0.118 C 
ENDROOT
BRANCH   1   2
ATOM      2  C   UNL     1       5.839   1.823   1.338  1.00  0.00     0.042 C 
BRANCH   2   3
ATOM      3  C   UNL     1       4.685   0.981   1.841  1.00  0.00     0.118 C 
BRANCH   3   4
ATOM      4  N   UNL     1       4.718   0.545   3.219  1.00  0.00    -0.352 N 
ATOM      5  C   UNL     1       3.635   0.097   3.954  1.00  0.00     0.255 C 
ATOM      6  O   UNL     1       3.797  -0.687   4.887  1.00  0.00    -0.269 OA
ATOM      7  H   UNL     1       5.590   0.569   3.676  1.00  0.00     0.163 HD
BRANCH   5   8
ATOM      8  C   UNL     1       2.279   0.646   3.688  1.00  0.00     0.096 A 
ATOM      9  C   UNL     1       0.357   1.020   2.251  1.00  0.00     0.161 A 
ATOM     10  C   UNL     1      -0.170   1.865   3.243  1.00  0.00     0.051 A 
ATOM     11  C   UNL     1       1.575   0.360   2.482  1.00  0.00     0.174 A 
ATOM     12  C   UNL     1       0.478   2.062   4.462  1.00  0.00     0.017 A 
ATOM     13  C   UNL     1       1.721   1.473   4.696  1.00  0.00     0.034 A 
BRANCH   9  14
ATOM     14  O   UNL     1      -0.391   1.071   1.108  1.00  0.00    -0.493 OA
ATOM     15  C   UNL     1      -0.691  -0.123   0.411  1.00  0.00     0.278 C 
ENDBRANCH   9  14
BRANCH  11  16
ATOM     16  O   UNL     1       2.096  -0.639   1.699  1.00  0.00    -0.492 OA
ATOM     17  C   UNL     1       2.271  -0.386   0.308  1.00  0.00     0.278 C 
ENDBRANCH  11  16
BRANCH  13  18
ATOM     18  C   UNL     1       2.401   1.741   5.969  1.00  0.00     0.139 A 
ATOM     19  N   UNL     1       3.588   2.294   6.130  1.00  0.00    -0.228 NA
ATOM     20  N   UNL     1       1.870   1.394   7.194  1.00  0.00    -0.338 N 
ATOM     21  C   UNL     1       3.869   2.201   7.473  1.00  0.00     0.089 A 
ATOM     22  C   UNL     1       2.801   1.651   8.169  1.00  0.00     0.066 A 
ATOM     23  H   UNL     1       0.970   1.023   7.343  1.00  0.00     0.168 HD
ATOM     24  C   UNL     1       5.031   2.550   8.174  1.00  0.00     0.031 A 
ATOM     25  C   UNL     1       2.814   1.429   9.551  1.00  0.00     0.031 A 
ATOM     26  C   UNL     1       5.083   2.317   9.556  1.00  0.00     0.006 A 
ATOM     27  C   UNL     1       3.992   1.762  10.243  1.00  0.00    -0.049 A 
ATOM     28  C   UNL     1       4.109   1.510  11.721  1.00  0.00     0.044 C 
ENDBRANCH  13  18
ENDBRANCH   5   8
ENDBRANCH   3   4
ENDBRANCH   2   3
ENDBRANCH   1   2
BRANCH   1  29
ATOM     29  N   UNL     1       7.353  -0.080   0.730  1.00  0.00    -0.352 N 
ATOM     30  C   UNL     1       7.952  -0.392  -0.473  1.00  0.00     0.251 C 
ATOM     31  H   UNL     1       6.943  -0.854   1.179  1.00  0.00     0.163 HD
ATOM     32  O   UNL     1       7.837  -1.526  -0.917  1.00  0.00    -0.269 OA
BRANCH  30  33
ATOM     33  C   UNL     1       8.678   0.636  -1.260  1.00  0.00     0.039 A 
ATOM     34  C   UNL     1       8.572   0.631  -2.656  1.00  0.00     0.014 A 
ATOM     35  C   UNL     1       9.462   1.603  -0.642  1.00  0.00     0.014 A 
ATOM     36  C   UNL     1       9.144   1.666  -3.408  1.00  0.00     0.010 A 
ATOM     37  C   UNL     1       9.914   2.697  -1.369  1.00  0.00     0.010 A 
ATOM     38  C   UNL     1       9.761   2.748  -2.763  1.00  0.00    -0.014 A 
BRANCH  38  39
ATOM     39  C   UNL     1      10.286   3.940  -3.488  1.00  0.00     0.031 A 
ATOM     40  C   UNL     1      11.721   4.353  -3.279  1.00  0.00     0.074 A 
ATOM     41  C   UNL     1       9.459   4.726  -4.208  1.00  0.00     0.049 A 
ATOM     42  N   UNL     1      12.311   5.487  -3.552  1.00  0.00    -0.248 NA
ATOM     43  C   UNL     1      12.588   3.371  -2.609  1.00  0.00     0.031 C 
ATOM     44  C   UNL     1       8.043   4.460  -4.468  1.00  0.00     0.029 A 
ATOM     45  N   UNL     1       9.687   5.929  -4.832  1.00  0.00    -0.354 N 
ATOM     46  C   UNL     1      13.599   5.377  -3.034  1.00  0.00     0.074 A 
ATOM     47  C   UNL     1      13.676   4.088  -2.380  1.00  0.00     0.031 C 
ATOM     48  C   UNL     1       7.535   5.458  -5.209  1.00  0.00     0.029 A 
ATOM     49  C   UNL     1       8.566   6.468  -5.422  1.00  0.00     0.049 A 
ATOM     50  H   UNL     1      10.569   6.365  -4.854  1.00  0.00     0.167 HD
ATOM     51  C   UNL     1      14.626   6.260  -3.113  1.00  0.00     0.034 A 
ATOM     52  C   UNL     1       8.381   7.654  -6.038  1.00  0.00     0.034 A 
ATOM     53  C   UNL     1      14.544   7.514  -3.819  1.00  0.00     0.049 A 
ATOM     54  C   UNL     1       9.541   8.613  -6.136  1.00  0.00     0.074 A 
ATOM     55  C   UNL     1      15.536   8.459  -4.019  1.00  0.00     0.029 A 
ATOM     56  N   UNL     1      13.406   7.993  -4.455  1.00  0.00    -0.354 N 
ATOM     57  N   UNL     1      10.754   8.494  -5.647  1.00  0.00    -0.248 NA
ATOM     58  C   UNL     1       9.309   9.863  -6.872  1.00  0.00     0.031 C 
ATOM     59  C   UNL     1      14.985   9.529  -4.732  1.00  0.00     0.029 A 
ATOM     60  C   UNL     1      13.668   9.222  -5.039  1.00  0.00     0.049 A 
ATOM     61  H   UNL     1      12.539   7.527  -4.487  1.00  0.00     0.167 HD
ATOM     62  C   UNL     1      11.440   9.635  -6.054  1.00  0.00     0.074 A 
ATOM     63  C   UNL     1      10.507  10.429  -6.826  1.00  0.00     0.031 C 
ATOM     64  C   UNL     1      12.729   9.990  -5.819  1.00  0.00     0.034 A 
BRANCH  51  65
ATOM     65  C   UNL     1      15.909   5.899  -2.400  1.00  0.00     0.023 A 
ATOM     66  C   UNL     1      16.643   4.749  -2.737  1.00  0.00     0.031 A 
ATOM     67  C   UNL     1      16.379   6.687  -1.335  1.00  0.00     0.131 A 
ATOM     68  C   UNL     1      17.743   4.364  -1.956  1.00  0.00     0.055 A 
ATOM     69  C   UNL     1      17.532   6.351  -0.622  1.00  0.00     0.041 A 
ATOM     70  F   UNL     1      15.714   7.789  -0.952  1.00  0.00    -0.206 F 
ATOM     71  C   UNL     1      18.210   5.172  -0.917  1.00  0.00     0.022 A 
BRANCH  68  72
ATOM     72  S   UNL     1      18.444   2.712  -2.212  1.00  0.00     0.124 S 
ATOM     73  O   UNL     1      17.291   1.858  -1.933  1.00  0.00    -0.237 OA
ATOM     74  O   UNL     1      18.878   2.764  -3.603  1.00  0.00    -0.237 OA
ATOM     75  O   UNL     1      19.519   2.638  -1.224  1.00  0.00    -0.744 OA
ENDBRANCH  68  72
ENDBRANCH  51  65
BRANCH  52  76
ATOM     76  C   UNL     1       7.049   8.014  -6.604  1.00  0.00     0.023 A 
ATOM     77  C   UNL     1       6.876   8.167  -7.989  1.00  0.00     0.031 A 
ATOM     78  C   UNL     1       5.940   8.246  -5.772  1.00  0.00     0.131 A 
ATOM     79  C   UNL     1       5.638   8.588  -8.498  1.00  0.00     0.055 A 
ATOM     80  C   UNL     1       4.696   8.615  -6.287  1.00  0.00     0.041 A 
ATOM     81  F   UNL     1       6.048   8.105  -4.441  1.00  0.00    -0.206 F 
ATOM     82  C   UNL     1       4.543   8.801  -7.658  1.00  0.00     0.022 A 
BRANCH  79  83
ATOM     83  S   UNL     1       5.502   8.932 -10.274  1.00  0.00     0.124 S 
ATOM     84  O   UNL     1       6.519   9.962 -10.455  1.00  0.00    -0.237 OA
ATOM     85  O   UNL     1       5.796   7.628 -10.858  1.00  0.00    -0.237 OA
ATOM     86  O   UNL     1       4.120   9.384 -10.427  1.00  0.00    -0.744 OA
ENDBRANCH  79  83
ENDBRANCH  52  76
BRANCH  64  87
ATOM     87  C   UNL     1      13.228  11.252  -6.476  1.00  0.00     0.023 A 
ATOM     88  C   UNL     1      12.794  12.526  -6.073  1.00  0.00     0.031 A 
ATOM     89  C   UNL     1      14.174  11.168  -7.513  1.00  0.00     0.131 A 
ATOM     90  C   UNL     1      13.278  13.666  -6.732  1.00  0.00     0.055 A 
ATOM     91  C   UNL     1      14.690  12.308  -8.130  1.00  0.00     0.041 A 
ATOM     92  F   UNL     1      14.621   9.974  -7.935  1.00  0.00    -0.206 F 
ATOM     93  C   UNL     1      14.236  13.566  -7.746  1.00  0.00     0.022 A 
BRANCH  90  94
ATOM     94  S   UNL     1      12.596  15.287  -6.289  1.00  0.00     0.124 S 
ATOM     95  O   UNL     1      11.181  15.117  -6.601  1.00  0.00    -0.237 OA
ATOM     96  O   UNL     1      12.929  15.390  -4.872  1.00  0.00    -0.237 OA
ATOM     97  O   UNL     1      13.317  16.213  -7.162  1.00  0.00    -0.744 OA
ENDBRANCH  90  94
ENDBRANCH  64  87
ENDBRANCH  38  39
ENDBRANCH  30  33
ENDBRANCH   1  29
TORSDOF 16
