REMARK SMILES O=C(CCCc1nc(-c2ccc(Cl)c(Cl)c2)c(-c2ccccc2)o1)NCCCNC(=O)c1ccc(-c2c3nc(c(-c4cc(S(=O)(=O)[O-])ccc4F)c4ccc([nH]4)c(-c4cc(S(=O)(=O)[O-])ccc4F)c4nc(c(-c5cc(S(=O)(=O)[O-])ccc5F)c5ccc2[nH]5)C=C4)C=C3)cc1
REMARK SMILES IDX 26 1 25 2 1 3 2 4 3 6 4 7 5 8 6 9 7 10 24 11 8 12 17 13 9 14
REMARK SMILES IDX 10 15 16 16 11 17 14 18 12 19 15 20 13 21 18 22 19 23 23 24
REMARK SMILES IDX 20 25 22 26 21 27 27 28 28 29 29 30 30 31 31 33 32 34 33 35
REMARK SMILES IDX 94 36 34 37 93 38 35 39 36 40 37 41 87 42 38 43 92 44 86 45
REMARK SMILES IDX 88 46 39 47 91 48 85 49 84 50 40 52 72 53 52 54 71 55 53 56
REMARK SMILES IDX 56 57 70 58 89 59 54 60 55 61 69 63 90 64 57 65 41 66 42 67
REMARK SMILES IDX 50 68 43 69 49 70 51 71 48 72 44 73 45 74 46 75 47 76 73 77
REMARK SMILES IDX 74 78 82 79 75 80 81 81 83 82 80 83 76 84 77 85 78 86 79 87
REMARK SMILES IDX 58 88 59 89 67 90 60 91 66 92 68 93 65 94 61 95 62 96 63 97
REMARK SMILES IDX 64 98
REMARK H PARENT 25 5 29 32 88 51 56 62
REMARK Flexibility Score: inf
ROOT
ATOM      1  C   UNL     1       1.960  -0.408  -2.325  1.00  0.00     0.117 C 
ENDROOT
BRANCH   1   2
ATOM      2  N   UNL     1       2.484   0.112  -1.078  1.00  0.00    -0.356 N 
ATOM      3  O   UNL     1       1.027  -1.054   0.265  1.00  0.00    -0.275 OA
ATOM      4  C   UNL     1       1.982  -0.295   0.136  1.00  0.00     0.220 C 
ATOM      5  H   UNL     1       3.215   0.771  -1.101  1.00  0.00     0.163 HD
BRANCH   4   6
ATOM      6  C   UNL     1       2.764   0.221   1.323  1.00  0.00     0.100 C 
BRANCH   6   7
ATOM      7  C   UNL     1       3.886  -0.742   1.725  1.00  0.00     0.020 C 
BRANCH   7   8
ATOM      8  C   UNL     1       4.971  -1.018   0.675  1.00  0.00     0.098 C 
BRANCH   8   9
ATOM      9  C   UNL     1       5.907   0.112   0.415  1.00  0.00     0.195 A 
ATOM     10  N   UNL     1       7.187   0.048   0.102  1.00  0.00    -0.213 NA
ATOM     11  O   UNL     1       5.401   1.382   0.464  1.00  0.00    -0.440 OA
ATOM     12  C   UNL     1       7.561   1.365  -0.018  1.00  0.00     0.117 A 
ATOM     13  C   UNL     1       6.473   2.187   0.190  1.00  0.00     0.162 A 
BRANCH  12  14
ATOM     14  C   UNL     1       8.911   1.808  -0.284  1.00  0.00     0.006 A 
ATOM     15  C   UNL     1       9.560   1.425  -1.461  1.00  0.00     0.012 A 
ATOM     16  C   UNL     1       9.565   2.652   0.624  1.00  0.00     0.032 A 
ATOM     17  C   UNL     1      10.843   1.907  -1.742  1.00  0.00     0.023 A 
ATOM     18  C   UNL     1      10.852   3.124   0.350  1.00  0.00     0.060 A 
ATOM     19  C   UNL     1      11.491   2.757  -0.839  1.00  0.00     0.059 A 
ATOM     20  Cl  UNL     1      11.590   4.155   1.525  1.00  0.00    -0.083 Cl
ATOM     21  Cl  UNL     1      13.075   3.312  -1.242  1.00  0.00    -0.083 Cl
ENDBRANCH  12  14
BRANCH  13  22
ATOM     22  C   UNL     1       6.235   3.616   0.177  1.00  0.00     0.020 A 
ATOM     23  C   UNL     1       5.647   4.248   1.280  1.00  0.00     0.012 A 
ATOM     24  C   UNL     1       6.644   4.392  -0.916  1.00  0.00     0.012 A 
ATOM     25  C   UNL     1       5.488   5.636   1.296  1.00  0.00     0.001 A 
ATOM     26  C   UNL     1       6.475   5.778  -0.903  1.00  0.00     0.001 A 
ATOM     27  C   UNL     1       5.903   6.399   0.206  1.00  0.00     0.000 A 
ENDBRANCH  13  22
ENDBRANCH   8   9
ENDBRANCH   7   8
ENDBRANCH   6   7
ENDBRANCH   4   6
ENDBRANCH   1   2
BRANCH   1  28
ATOM     28  C   UNL     1       2.272   0.485  -3.517  1.00  0.00     0.042 C 
BRANCH  28  29
ATOM     29  C   UNL     1       3.754   0.579  -3.868  1.00  0.00     0.118 C 
BRANCH  29  30
ATOM     30  N   UNL     1       4.295  -0.649  -4.433  1.00  0.00    -0.352 N 
ATOM     31  C   UNL     1       5.010  -0.827  -5.596  1.00  0.00     0.251 C 
ATOM     32  H   UNL     1       4.127  -1.466  -3.909  1.00  0.00     0.163 HD
ATOM     33  O   UNL     1       5.281  -1.962  -5.979  1.00  0.00    -0.269 OA
BRANCH  31  34
ATOM     34  C   UNL     1       5.415   0.348  -6.401  1.00  0.00     0.039 A 
ATOM     35  C   UNL     1       5.164   0.349  -7.776  1.00  0.00     0.014 A 
ATOM     36  C   UNL     1       6.011   1.458  -5.796  1.00  0.00     0.014 A 
ATOM     37  C   UNL     1       5.424   1.498  -8.529  1.00  0.00     0.010 A 
ATOM     38  C   UNL     1       6.206   2.623  -6.534  1.00  0.00     0.010 A 
ATOM     39  C   UNL     1       5.902   2.661  -7.905  1.00  0.00    -0.014 A 
BRANCH  39  40
ATOM     40  C   UNL     1       6.085   3.937  -8.649  1.00  0.00     0.031 A 
ATOM     41  C   UNL     1       7.456   4.545  -8.763  1.00  0.00     0.074 A 
ATOM     42  C   UNL     1       5.012   4.600  -9.126  1.00  0.00     0.049 A 
ATOM     43  N   UNL     1       7.806   5.730  -9.191  1.00  0.00    -0.248 NA
ATOM     44  C   UNL     1       8.577   3.716  -8.298  1.00  0.00     0.031 C 
ATOM     45  C   UNL     1       3.627   4.128  -9.062  1.00  0.00     0.029 A 
ATOM     46  N   UNL     1       4.915   5.826  -9.737  1.00  0.00    -0.354 N 
ATOM     47  C   UNL     1       9.185   5.801  -9.024  1.00  0.00     0.074 A 
ATOM     48  C   UNL     1       9.595   4.555  -8.410  1.00  0.00     0.031 C 
ATOM     49  C   UNL     1       2.822   5.049  -9.615  1.00  0.00     0.029 A 
ATOM     50  C   UNL     1       3.621   6.201 -10.023  1.00  0.00     0.049 A 
ATOM     51  H   UNL     1       5.697   6.385  -9.951  1.00  0.00     0.167 HD
ATOM     52  C   UNL     1      10.030   6.806  -9.365  1.00  0.00     0.034 A 
ATOM     53  C   UNL     1       3.130   7.350 -10.529  1.00  0.00     0.034 A 
ATOM     54  C   UNL     1       9.608   8.033  -9.996  1.00  0.00     0.049 A 
ATOM     55  C   UNL     1       4.085   8.464 -10.879  1.00  0.00     0.074 A 
ATOM     56  C   UNL     1      10.386   9.096 -10.422  1.00  0.00     0.029 A 
ATOM     57  N   UNL     1       8.292   8.363 -10.294  1.00  0.00    -0.354 N 
ATOM     58  N   UNL     1       5.388   8.511 -10.728  1.00  0.00    -0.248 NA
ATOM     59  C   UNL     1       3.504   9.677 -11.472  1.00  0.00     0.031 C 
ATOM     60  C   UNL     1       9.538  10.091 -10.922  1.00  0.00     0.029 A 
ATOM     61  C   UNL     1       8.236   9.620 -10.876  1.00  0.00     0.049 A 
ATOM     62  H   UNL     1       7.513   7.788 -10.117  1.00  0.00     0.167 HD
ATOM     63  C   UNL     1       5.785   9.741 -11.247  1.00  0.00     0.074 A 
ATOM     64  C   UNL     1       4.585  10.405 -11.710  1.00  0.00     0.031 C 
ATOM     65  C   UNL     1       7.032  10.268 -11.340  1.00  0.00     0.034 A 
BRANCH  52  66
ATOM     66  C   UNL     1      11.491   6.625  -9.030  1.00  0.00     0.023 A 
ATOM     67  C   UNL     1      12.258   5.596  -9.605  1.00  0.00     0.031 A 
ATOM     68  C   UNL     1      12.119   7.471  -8.099  1.00  0.00     0.131 A 
ATOM     69  C   UNL     1      13.578   5.387  -9.181  1.00  0.00     0.055 A 
ATOM     70  C   UNL     1      13.460   7.311  -7.746  1.00  0.00     0.041 A 
ATOM     71  F   UNL     1      11.433   8.458  -7.501  1.00  0.00    -0.206 F 
ATOM     72  C   UNL     1      14.194   6.253  -8.275  1.00  0.00     0.022 A 
BRANCH  69  73
ATOM     73  S   UNL     1      14.426   3.876  -9.716  1.00  0.00     0.124 S 
ATOM     74  O   UNL     1      13.541   2.841  -9.186  1.00  0.00    -0.237 OA
ATOM     75  O   UNL     1      14.442   4.020 -11.167  1.00  0.00    -0.237 OA
ATOM     76  O   UNL     1      15.730   3.965  -9.064  1.00  0.00    -0.744 OA
ENDBRANCH  69  73
ENDBRANCH  52  66
BRANCH  53  77
ATOM     77  C   UNL     1       1.662   7.524 -10.717  1.00  0.00     0.023 A 
ATOM     78  C   UNL     1       1.110   7.660 -12.001  1.00  0.00     0.031 A 
ATOM     79  C   UNL     1       0.793   7.598  -9.614  1.00  0.00     0.131 A 
ATOM     80  C   UNL     1      -0.264   7.907 -12.149  1.00  0.00     0.055 A 
ATOM     81  C   UNL     1      -0.581   7.793  -9.769  1.00  0.00     0.041 A 
ATOM     82  F   UNL     1       1.268   7.468  -8.365  1.00  0.00    -0.206 F 
ATOM     83  C   UNL     1      -1.115   7.962 -11.043  1.00  0.00     0.022 A 
BRANCH  80  84
ATOM     84  S   UNL     1      -0.911   8.238 -13.811  1.00  0.00     0.124 S 
ATOM     85  O   UNL     1      -0.124   9.399 -14.209  1.00  0.00    -0.237 OA
ATOM     86  O   UNL     1      -0.612   6.990 -14.505  1.00  0.00    -0.237 OA
ATOM     87  O   UNL     1      -2.330   8.495 -13.578  1.00  0.00    -0.744 OA
ENDBRANCH  80  84
ENDBRANCH  53  77
BRANCH  65  88
ATOM     88  C   UNL     1       7.169  11.598 -12.037  1.00  0.00     0.023 A 
ATOM     89  C   UNL     1       6.696  12.791 -11.466  1.00  0.00     0.031 A 
ATOM     90  C   UNL     1       7.799  11.666 -13.293  1.00  0.00     0.131 A 
ATOM     91  C   UNL     1       6.825  13.999 -12.169  1.00  0.00     0.055 A 
ATOM     92  C   UNL     1       7.968  12.877 -13.964  1.00  0.00     0.041 A 
ATOM     93  F   UNL     1       8.268  10.555 -13.882  1.00  0.00    -0.206 F 
ATOM     94  C   UNL     1       7.472  14.051 -13.407  1.00  0.00     0.022 A 
BRANCH  91  95
ATOM     95  S   UNL     1       6.083  15.501 -11.472  1.00  0.00     0.124 S 
ATOM     96  O   UNL     1       4.671  15.140 -11.409  1.00  0.00    -0.237 OA
ATOM     97  O   UNL     1       6.768  15.621 -10.188  1.00  0.00    -0.237 OA
ATOM     98  O   UNL     1       6.417  16.535 -12.449  1.00  0.00    -0.744 OA
ENDBRANCH  91  95
ENDBRANCH  65  88
ENDBRANCH  39  40
ENDBRANCH  31  34
ENDBRANCH  29  30
ENDBRANCH  28  29
ENDBRANCH   1  28
TORSDOF 18
