REMARK SMILES [NH3+][C@@H](Cc1cn(-c2nc(Cl)nc(N3CCOCC3)n2)c2ccccc12)C(=O)NCCCNC(=O)c1ccc(-c2c3nc(c(-c4cc(S(=O)(=O)[O-])ccc4F)c4ccc([nH]4)c(-c4cc(S(=O)(=O)[O-])ccc4F)c4nc(c(-c5cc(S(=O)(=O)[O-])ccc5F)c5ccc2[nH]5)C=C4)C=C3)cc1
REMARK SMILES IDX 29 1 28 2 26 3 27 4 2 6 1 7 3 11 4 12 5 13 25 14 6 15 20 16
REMARK SMILES IDX 24 17 21 18 23 19 22 20 7 21 8 22 19 23 9 24 12 25 10 26
REMARK SMILES IDX 11 27 13 28 14 29 18 30 15 31 17 32 16 33 30 34 31 35 32 36
REMARK SMILES IDX 33 37 34 39 35 40 36 41 97 42 37 43 96 44 38 45 39 46 40 47
REMARK SMILES IDX 90 48 41 49 95 50 89 51 91 52 42 53 94 54 88 55 87 56 43 58
REMARK SMILES IDX 75 59 55 60 74 61 56 62 59 63 73 64 92 65 57 66 58 67 72 69
REMARK SMILES IDX 93 70 60 71 44 72 45 73 53 74 46 75 52 76 54 77 51 78 47 79
REMARK SMILES IDX 48 80 49 81 50 82 76 83 77 84 85 85 78 86 84 87 86 88 83 89
REMARK SMILES IDX 79 90 80 91 81 92 82 93 61 94 62 95 70 96 63 97 69 98 71 99
REMARK SMILES IDX 68 100 64 101 65 102 66 103 67 104
REMARK H PARENT 28 5 1 8 1 9 1 10 32 38 91 57 59 68
REMARK Flexibility Score: inf
ROOT
ATOM      1  C   UNL     1      -2.122  -1.853   0.144  1.00  0.00     0.118 C 
ENDROOT
BRANCH   1   2
ATOM      2  N   UNL     1      -1.960  -0.826  -0.869  1.00  0.00    -0.351 N 
ATOM      3  C   UNL     1      -0.903  -0.359  -1.575  1.00  0.00     0.278 C 
ATOM      4  O   UNL     1      -1.205   0.422  -2.496  1.00  0.00    -0.268 OA
ATOM      5  H   UNL     1      -2.803  -0.369  -1.091  1.00  0.00     0.163 HD
BRANCH   3   6
ATOM      6  C   UNL     1       0.608  -0.617  -1.310  1.00  0.00     0.275 C 
BRANCH   6   7
ATOM      7  N   UNL     1       1.174   0.439  -0.447  1.00  0.00    -0.347 N 
ATOM      8  H   UNL     1       2.163   0.252  -0.284  1.00  0.00     0.345 HD
ATOM      9  H   UNL     1       0.679   0.450   0.446  1.00  0.00     0.345 HD
ATOM     10  H   UNL     1       1.069   1.345  -0.904  1.00  0.00     0.345 HD
ENDBRANCH   6   7
BRANCH   6  11
ATOM     11  C   UNL     1       1.210  -2.013  -1.134  1.00  0.00     0.113 C 
BRANCH  11  12
ATOM     12  C   UNL     1       1.131  -2.800   0.141  1.00  0.00    -0.015 A 
ATOM     13  C   UNL     1       1.228  -4.183   0.127  1.00  0.00     0.099 A 
ATOM     14  C   UNL     1       0.973  -2.436   1.526  1.00  0.00     0.004 A 
ATOM     15  N   UNL     1       0.888  -4.671   1.363  1.00  0.00    -0.285 N 
ATOM     16  C   UNL     1       0.718  -3.620   2.239  1.00  0.00     0.056 A 
ATOM     17  C   UNL     1       0.945  -1.229   2.260  1.00  0.00     0.010 A 
ATOM     18  C   UNL     1       0.410  -3.630   3.610  1.00  0.00     0.027 A 
ATOM     19  C   UNL     1       0.671  -1.230   3.634  1.00  0.00     0.001 A 
ATOM     20  C   UNL     1       0.406  -2.417   4.295  1.00  0.00     0.002 A 
BRANCH  15  21
ATOM     21  C   UNL     1       0.809  -6.044   1.683  1.00  0.00     0.240 A 
ATOM     22  N   UNL     1      -0.382  -6.545   1.983  1.00  0.00    -0.181 NA
ATOM     23  N   UNL     1       1.945  -6.735   1.599  1.00  0.00    -0.176 NA
ATOM     24  C   UNL     1      -0.344  -7.861   2.132  1.00  0.00     0.228 A 
ATOM     25  C   UNL     1       1.859  -8.027   1.883  1.00  0.00     0.231 A 
ATOM     26  Cl  UNL     1      -1.848  -8.619   2.412  1.00  0.00    -0.041 Cl
ATOM     27  N   UNL     1       0.712  -8.661   2.057  1.00  0.00    -0.182 NA
BRANCH  25  28
ATOM     28  N   UNL     1       3.022  -8.709   2.067  1.00  0.00    -0.336 N 
ATOM     29  C   UNL     1       4.091  -8.127   2.869  1.00  0.00     0.148 C 
ATOM     30  C   UNL     1       3.345  -9.890   1.292  1.00  0.00     0.148 C 
ATOM     31  C   UNL     1       5.342  -7.936   2.005  1.00  0.00     0.181 C 
ATOM     32  C   UNL     1       4.631  -9.612   0.488  1.00  0.00     0.181 C 
ATOM     33  O   UNL     1       5.709  -9.154   1.325  1.00  0.00    -0.378 OA
ENDBRANCH  25  28
ENDBRANCH  15  21
ENDBRANCH  11  12
ENDBRANCH   6  11
ENDBRANCH   3   6
ENDBRANCH   1   2
BRANCH   1  34
ATOM     34  C   UNL     1      -2.362  -1.313   1.560  1.00  0.00     0.042 C 
BRANCH  34  35
ATOM     35  C   UNL     1      -3.784  -1.482   2.097  1.00  0.00     0.118 C 
BRANCH  35  36
ATOM     36  N   UNL     1      -4.290  -2.836   1.978  1.00  0.00    -0.352 N 
ATOM     37  C   UNL     1      -4.354  -3.960   2.748  1.00  0.00     0.251 C 
ATOM     38  H   UNL     1      -4.703  -2.985   1.096  1.00  0.00     0.163 HD
ATOM     39  O   UNL     1      -4.951  -4.901   2.212  1.00  0.00    -0.269 OA
BRANCH  37  40
ATOM     40  C   UNL     1      -3.768  -4.168   4.102  1.00  0.00     0.039 A 
ATOM     41  C   UNL     1      -3.012  -3.255   4.839  1.00  0.00     0.014 A 
ATOM     42  C   UNL     1      -3.971  -5.452   4.645  1.00  0.00     0.014 A 
ATOM     43  C   UNL     1      -2.393  -3.656   6.033  1.00  0.00     0.010 A 
ATOM     44  C   UNL     1      -3.356  -5.852   5.825  1.00  0.00     0.010 A 
ATOM     45  C   UNL     1      -2.500  -4.976   6.483  1.00  0.00    -0.014 A 
BRANCH  45  46
ATOM     46  C   UNL     1      -1.748  -5.418   7.667  1.00  0.00     0.031 A 
ATOM     47  C   UNL     1      -2.155  -4.804   8.969  1.00  0.00     0.074 A 
ATOM     48  C   UNL     1      -0.899  -6.471   7.627  1.00  0.00     0.049 A 
ATOM     49  N   UNL     1      -1.431  -4.196   9.855  1.00  0.00    -0.248 NA
ATOM     50  C   UNL     1      -3.594  -4.803   9.275  1.00  0.00     0.031 C 
ATOM     51  C   UNL     1      -0.675  -7.383   6.496  1.00  0.00     0.029 A 
ATOM     52  N   UNL     1      -0.167  -7.049   8.626  1.00  0.00    -0.354 N 
ATOM     53  C   UNL     1      -2.292  -3.898  10.918  1.00  0.00     0.074 A 
ATOM     54  C   UNL     1      -3.624  -4.145  10.432  1.00  0.00     0.031 C 
ATOM     55  C   UNL     1      -0.091  -8.516   6.943  1.00  0.00     0.029 A 
ATOM     56  C   UNL     1       0.234  -8.352   8.350  1.00  0.00     0.049 A 
ATOM     57  H   UNL     1       0.056  -6.585   9.465  1.00  0.00     0.167 HD
ATOM     58  C   UNL     1      -1.846  -3.665  12.189  1.00  0.00     0.034 A 
ATOM     59  C   UNL     1       0.706  -9.274   9.227  1.00  0.00     0.034 A 
ATOM     60  C   UNL     1      -0.444  -3.358  12.208  1.00  0.00     0.049 A 
ATOM     61  C   UNL     1       1.119  -8.578  10.465  1.00  0.00     0.074 A 
ATOM     62  C   UNL     1       0.344  -2.351  11.690  1.00  0.00     0.029 A 
ATOM     63  N   UNL     1       0.421  -4.349  12.595  1.00  0.00    -0.354 N 
ATOM     64  N   UNL     1       2.146  -7.784  10.563  1.00  0.00    -0.248 NA
ATOM     65  C   UNL     1       0.129  -8.458  11.524  1.00  0.00     0.031 C 
ATOM     66  C   UNL     1       1.577  -2.981  11.360  1.00  0.00     0.029 A 
ATOM     67  C   UNL     1       1.487  -4.323  11.737  1.00  0.00     0.049 A 
ATOM     68  H   UNL     1       0.298  -4.966  13.352  1.00  0.00     0.167 HD
ATOM     69  C   UNL     1       1.718  -6.773  11.408  1.00  0.00     0.074 A 
ATOM     70  C   UNL     1       0.521  -7.301  12.058  1.00  0.00     0.031 C 
ATOM     71  C   UNL     1       2.202  -5.502  11.293  1.00  0.00     0.034 A 
BRANCH  58  72
ATOM     72  C   UNL     1      -2.609  -4.050  13.445  1.00  0.00     0.023 A 
ATOM     73  C   UNL     1      -3.779  -4.832  13.423  1.00  0.00     0.031 A 
ATOM     74  C   UNL     1      -2.046  -3.841  14.724  1.00  0.00     0.131 A 
ATOM     75  C   UNL     1      -4.338  -5.367  14.593  1.00  0.00     0.055 A 
ATOM     76  C   UNL     1      -2.564  -4.432  15.886  1.00  0.00     0.041 A 
ATOM     77  F   UNL     1      -0.931  -3.110  14.880  1.00  0.00    -0.206 F 
ATOM     78  C   UNL     1      -3.716  -5.204  15.824  1.00  0.00     0.022 A 
BRANCH  75  79
ATOM     79  S   UNL     1      -5.890  -6.302  14.508  1.00  0.00     0.124 S 
ATOM     80  O   UNL     1      -5.462  -7.627  14.962  1.00  0.00    -0.237 OA
ATOM     81  O   UNL     1      -6.733  -5.559  15.448  1.00  0.00    -0.237 OA
ATOM     82  O   UNL     1      -6.279  -6.198  13.115  1.00  0.00    -0.744 OA
ENDBRANCH  75  79
ENDBRANCH  58  72
BRANCH  59  83
ATOM     83  C   UNL     1       0.393 -10.725   9.238  1.00  0.00     0.023 A 
ATOM     84  C   UNL     1      -0.856 -11.168   8.762  1.00  0.00     0.031 A 
ATOM     85  C   UNL     1       1.155 -11.634   9.992  1.00  0.00     0.131 A 
ATOM     86  C   UNL     1      -1.327 -12.448   9.079  1.00  0.00     0.055 A 
ATOM     87  C   UNL     1       0.689 -12.921  10.294  1.00  0.00     0.041 A 
ATOM     88  F   UNL     1       2.337 -11.267  10.509  1.00  0.00    -0.206 F 
ATOM     89  C   UNL     1      -0.566 -13.328   9.848  1.00  0.00     0.022 A 
BRANCH  86  90
ATOM     90  S   UNL     1      -2.989 -12.963   8.566  1.00  0.00     0.124 S 
ATOM     91  O   UNL     1      -2.740 -14.285   7.997  1.00  0.00    -0.237 OA
ATOM     92  O   UNL     1      -3.708 -12.950   9.835  1.00  0.00    -0.237 OA
ATOM     93  O   UNL     1      -3.381 -11.940   7.602  1.00  0.00    -0.744 OA
ENDBRANCH  86  90
ENDBRANCH  59  83
BRANCH  71  94
ATOM     94  C   UNL     1       3.410  -5.248  10.420  1.00  0.00     0.023 A 
ATOM     95  C   UNL     1       4.437  -4.458  10.965  1.00  0.00     0.031 A 
ATOM     96  C   UNL     1       3.470  -5.533   9.042  1.00  0.00     0.131 A 
ATOM     97  C   UNL     1       5.441  -3.936  10.143  1.00  0.00     0.055 A 
ATOM     98  C   UNL     1       4.518  -5.072   8.238  1.00  0.00     0.041 A 
ATOM     99  F   UNL     1       2.482  -6.181   8.413  1.00  0.00    -0.206 F 
ATOM    100  C   UNL     1       5.499  -4.252   8.783  1.00  0.00     0.022 A 
BRANCH  97 101
ATOM    101  S   UNL     1       6.589  -2.691  10.784  1.00  0.00     0.124 S 
ATOM    102  O   UNL     1       7.873  -3.380  10.695  1.00  0.00    -0.237 OA
ATOM    103  O   UNL     1       6.404  -1.586   9.845  1.00  0.00    -0.237 OA
ATOM    104  O   UNL     1       6.111  -2.432  12.139  1.00  0.00    -0.744 OA
ENDBRANCH  97 101
ENDBRANCH  71  94
ENDBRANCH  45  46
ENDBRANCH  37  40
ENDBRANCH  35  36
ENDBRANCH  34  35
ENDBRANCH   1  34
TORSDOF 18
