REMARK SMILES NC(=O)c1ccc(C[N@H+]2CCC[C@@H](C(=O)NCCCNC(=O)c3ccc(-c4c5nc(c(-c6cc(S(=O)(=O)[O-])ccc6F)c6ccc([nH]6)c(-c6cc(S(=O)(=O)[O-])ccc6F)c6nc(c(-c7cc(S(=O)(=O)[O-])ccc7F)c7ccc4[nH]7)C=C6)C=C5)cc3)C2)cc1
REMARK SMILES IDX 18 1 17 2 16 3 14 4 15 5 13 7 9 8 10 9 86 10 11 12 12 13
REMARK SMILES IDX 8 14 7 15 4 16 5 17 88 18 6 19 87 20 2 21 1 22 3 25 19 26
REMARK SMILES IDX 20 27 21 28 22 30 23 31 24 32 85 33 25 34 84 35 26 36 27 37
REMARK SMILES IDX 28 38 78 39 29 40 83 41 77 42 79 43 30 44 82 45 76 46 75 47
REMARK SMILES IDX 31 49 63 50 43 51 62 52 44 53 47 54 61 55 80 56 45 57 46 58
REMARK SMILES IDX 60 60 81 61 48 62 32 63 33 64 41 65 34 66 40 67 42 68 39 69
REMARK SMILES IDX 35 70 36 71 37 72 38 73 64 74 65 75 73 76 66 77 72 78 74 79
REMARK SMILES IDX 71 80 67 81 68 82 69 83 70 84 49 85 50 86 58 87 51 88 57 89
REMARK SMILES IDX 59 90 56 91 52 92 53 93 54 94 55 95
REMARK H PARENT 16 6 9 11 1 23 1 24 20 29 79 48 47 59
REMARK Flexibility Score: inf
ROOT
ATOM      1  C   UNL     1      -2.796  -9.909   6.740  1.00  0.00     0.042 C 
ENDROOT
BRANCH   1   2
ATOM      2  C   UNL     1      -1.674  -9.843   5.716  1.00  0.00     0.117 C 
BRANCH   2   3
ATOM      3  N   UNL     1      -2.023  -8.983   4.603  1.00  0.00    -0.356 N 
ATOM      4  C   UNL     1      -1.477  -7.801   4.216  1.00  0.00     0.228 C 
ATOM      5  O   UNL     1      -1.977  -7.228   3.246  1.00  0.00    -0.275 OA
ATOM      6  H   UNL     1      -2.767  -9.303   4.044  1.00  0.00     0.163 HD
BRANCH   4   7
ATOM      7  C   UNL     1      -0.287  -7.240   4.974  1.00  0.00     0.133 C 
ATOM      8  N   UNL     1       1.750  -5.867   4.617  1.00  0.00    -0.331 N 
ATOM      9  C   UNL     1       1.353  -4.926   5.672  1.00  0.00     0.262 C 
ATOM     10  C   UNL     1       0.568  -6.459   3.979  1.00  0.00     0.276 C 
ATOM     11  H   UNL     1       2.276  -6.612   5.076  1.00  0.00     0.348 HD
ATOM     12  C   UNL     1       0.479  -5.619   6.729  1.00  0.00     0.062 C 
ATOM     13  C   UNL     1      -0.732  -6.322   6.113  1.00  0.00     0.025 C 
BRANCH   8  14
ATOM     14  C   UNL     1       2.688  -5.296   3.631  1.00  0.00     0.299 C 
BRANCH  14  15
ATOM     15  C   UNL     1       2.163  -4.163   2.765  1.00  0.00     0.006 A 
ATOM     16  C   UNL     1       1.018  -2.054   1.308  1.00  0.00     0.039 A 
ATOM     17  C   UNL     1       0.653  -3.370   1.027  1.00  0.00     0.014 A 
ATOM     18  C   UNL     1       1.981  -1.786   2.287  1.00  0.00     0.014 A 
ATOM     19  C   UNL     1       1.256  -4.416   1.722  1.00  0.00     0.010 A 
ATOM     20  C   UNL     1       2.541  -2.837   3.021  1.00  0.00     0.010 A 
BRANCH  16  21
ATOM     21  C   UNL     1       0.338  -0.969   0.570  1.00  0.00     0.248 C 
ATOM     22  N   UNL     1       1.115   0.075   0.164  1.00  0.00    -0.366 N 
ATOM     23  H   UNL     1       0.713   0.825  -0.332  1.00  0.00     0.159 HD
ATOM     24  H   UNL     1       2.079   0.079   0.366  1.00  0.00     0.159 HD
ATOM     25  O   UNL     1      -0.857  -1.020   0.297  1.00  0.00    -0.270 OA
ENDBRANCH  16  21
ENDBRANCH  14  15
ENDBRANCH   8  14
ENDBRANCH   4   7
ENDBRANCH   2   3
ENDBRANCH   1   2
BRANCH   1  26
ATOM     26  C   UNL     1      -4.104 -10.462   6.186  1.00  0.00     0.118 C 
BRANCH  26  27
ATOM     27  N   UNL     1      -3.966 -11.819   5.676  1.00  0.00    -0.352 N 
ATOM     28  C   UNL     1      -4.585 -12.979   6.071  1.00  0.00     0.251 C 
ATOM     29  H   UNL     1      -3.330 -11.920   4.931  1.00  0.00     0.163 HD
ATOM     30  O   UNL     1      -4.167 -14.054   5.649  1.00  0.00    -0.269 OA
BRANCH  28  31
ATOM     31  C   UNL     1      -5.726 -12.935   7.012  1.00  0.00     0.039 A 
ATOM     32  C   UNL     1      -5.813 -13.908   8.011  1.00  0.00     0.014 A 
ATOM     33  C   UNL     1      -6.714 -11.953   6.907  1.00  0.00     0.014 A 
ATOM     34  C   UNL     1      -6.854 -13.855   8.940  1.00  0.00     0.010 A 
ATOM     35  C   UNL     1      -7.695 -11.846   7.889  1.00  0.00     0.010 A 
ATOM     36  C   UNL     1      -7.782 -12.801   8.912  1.00  0.00    -0.014 A 
BRANCH  36  37
ATOM     37  C   UNL     1      -8.854 -12.693   9.937  1.00  0.00     0.031 A 
ATOM     38  C   UNL     1     -10.302 -12.763   9.531  1.00  0.00     0.074 A 
ATOM     39  C   UNL     1      -8.522 -12.489  11.227  1.00  0.00     0.049 A 
ATOM     40  N   UNL     1     -11.376 -12.650  10.270  1.00  0.00    -0.248 NA
ATOM     41  C   UNL     1     -10.577 -12.956   8.099  1.00  0.00     0.031 C 
ATOM     42  C   UNL     1      -7.155 -12.365  11.739  1.00  0.00     0.029 A 
ATOM     43  N   UNL     1      -9.305 -12.353  12.346  1.00  0.00    -0.354 N 
ATOM     44  C   UNL     1     -12.452 -12.753   9.395  1.00  0.00     0.074 A 
ATOM     45  C   UNL     1     -11.896 -12.858   8.062  1.00  0.00     0.031 C 
ATOM     46  C   UNL     1      -7.195 -12.214  13.072  1.00  0.00     0.029 A 
ATOM     47  C   UNL     1      -8.588 -12.176  13.506  1.00  0.00     0.049 A 
ATOM     48  H   UNL     1     -10.289 -12.379  12.320  1.00  0.00     0.167 HD
ATOM     49  C   UNL     1     -13.778 -12.786   9.677  1.00  0.00     0.034 A 
ATOM     50  C   UNL     1      -9.004 -11.997  14.776  1.00  0.00     0.034 A 
ATOM     51  C   UNL     1     -14.315 -12.679  11.013  1.00  0.00     0.049 A 
ATOM     52  C   UNL     1     -10.485 -11.990  15.060  1.00  0.00     0.074 A 
ATOM     53  C   UNL     1     -15.637 -12.739  11.419  1.00  0.00     0.029 A 
ATOM     54  N   UNL     1     -13.558 -12.479  12.162  1.00  0.00    -0.354 N 
ATOM     55  N   UNL     1     -11.489 -12.137  14.227  1.00  0.00    -0.248 NA
ATOM     56  C   UNL     1     -10.886 -11.805  16.460  1.00  0.00     0.031 C 
ATOM     57  C   UNL     1     -15.685 -12.498  12.797  1.00  0.00     0.029 A 
ATOM     58  C   UNL     1     -14.388 -12.380  13.270  1.00  0.00     0.049 A 
ATOM     59  H   UNL     1     -12.576 -12.418  12.187  1.00  0.00     0.167 HD
ATOM     60  C   UNL     1     -12.640 -12.102  15.010  1.00  0.00     0.074 A 
ATOM     61  C   UNL     1     -12.201 -11.936  16.381  1.00  0.00     0.031 C 
ATOM     62  C   UNL     1     -13.941 -12.203  14.632  1.00  0.00     0.034 A 
BRANCH  49  63
ATOM     63  C   UNL     1     -14.733 -12.916   8.511  1.00  0.00     0.023 A 
ATOM     64  C   UNL     1     -14.706 -14.033   7.657  1.00  0.00     0.031 A 
ATOM     65  C   UNL     1     -15.657 -11.896   8.225  1.00  0.00     0.131 A 
ATOM     66  C   UNL     1     -15.518 -14.063   6.513  1.00  0.00     0.055 A 
ATOM     67  C   UNL     1     -16.530 -11.975   7.137  1.00  0.00     0.041 A 
ATOM     68  F   UNL     1     -15.719 -10.794   8.989  1.00  0.00    -0.206 F 
ATOM     69  C   UNL     1     -16.451 -13.055   6.262  1.00  0.00     0.022 A 
BRANCH  66  70
ATOM     70  S   UNL     1     -15.217 -15.352   5.273  1.00  0.00     0.124 S 
ATOM     71  O   UNL     1     -13.812 -15.123   4.944  1.00  0.00    -0.237 OA
ATOM     72  O   UNL     1     -15.509 -16.575   6.012  1.00  0.00    -0.237 OA
ATOM     73  O   UNL     1     -16.160 -15.027   4.205  1.00  0.00    -0.744 OA
ENDBRANCH  66  70
ENDBRANCH  49  63
BRANCH  50  74
ATOM     74  C   UNL     1      -8.016 -11.810  15.879  1.00  0.00     0.023 A 
ATOM     75  C   UNL     1      -7.926 -12.735  16.931  1.00  0.00     0.031 A 
ATOM     76  C   UNL     1      -7.181 -10.680  15.924  1.00  0.00     0.131 A 
ATOM     77  C   UNL     1      -7.063 -12.488  18.009  1.00  0.00     0.055 A 
ATOM     78  C   UNL     1      -6.279 -10.469  16.968  1.00  0.00     0.041 A 
ATOM     79  F   UNL     1      -7.223  -9.764  14.943  1.00  0.00    -0.206 F 
ATOM     80  C   UNL     1      -6.228 -11.369  18.028  1.00  0.00     0.022 A 
BRANCH  77  81
ATOM     81  S   UNL     1      -7.119 -13.604  19.439  1.00  0.00     0.124 S 
ATOM     82  O   UNL     1      -8.517 -13.500  19.840  1.00  0.00    -0.237 OA
ATOM     83  O   UNL     1      -6.712 -14.874  18.848  1.00  0.00    -0.237 OA
ATOM     84  O   UNL     1      -6.157 -13.014  20.367  1.00  0.00    -0.744 OA
ENDBRANCH  77  81
ENDBRANCH  50  74
BRANCH  62  85
ATOM     85  C   UNL     1     -14.977 -12.190  15.732  1.00  0.00     0.023 A 
ATOM     86  C   UNL     1     -15.179 -11.066  16.552  1.00  0.00     0.031 A 
ATOM     87  C   UNL     1     -15.757 -13.335  15.980  1.00  0.00     0.131 A 
ATOM     88  C   UNL     1     -16.083 -11.135  17.624  1.00  0.00     0.055 A 
ATOM     89  C   UNL     1     -16.708 -13.371  17.001  1.00  0.00     0.041 A 
ATOM     90  F   UNL     1     -15.606 -14.440  15.233  1.00  0.00    -0.206 F 
ATOM     91  C   UNL     1     -16.863 -12.273  17.841  1.00  0.00     0.022 A 
BRANCH  88  92
ATOM     92  S   UNL     1     -16.138  -9.759  18.805  1.00  0.00     0.124 S 
ATOM     93  O   UNL     1     -14.752  -9.690  19.255  1.00  0.00    -0.237 OA
ATOM     94  O   UNL     1     -16.593  -8.650  17.972  1.00  0.00    -0.237 OA
ATOM     95  O   UNL     1     -17.096 -10.210  19.813  1.00  0.00    -0.744 OA
ENDBRANCH  88  92
ENDBRANCH  62  85
ENDBRANCH  36  37
ENDBRANCH  28  31
ENDBRANCH  26  27
ENDBRANCH   1  26
TORSDOF 16
