REMARK SMILES O=C(NCCCNC(=O)[C@H](CO)NC(=O)[C@H](CS)NC(=O)[C@H](Cc1ccccc1)NC(=O)c1ccc(F)cc1)c1ccc(-c2c3nc(c(-c4cc(S(=O)(=O)[O-])ccc4F)c4ccc([nH]4)c(-c4cc(S(=O)(=O)[O-])ccc4F)c4nc(c(-c5cc(S(=O)(=O)[O-])ccc5F)c5ccc2[nH]5)C=C4)C=C3)cc1
REMARK SMILES IDX 7 1 8 2 9 3 6 5 5 6 4 7 3 8 1 9 2 10 40 12 41 13 102 14
REMARK SMILES IDX 42 15 101 16 43 17 44 18 45 19 95 20 46 21 100 22 94 23
REMARK SMILES IDX 96 24 47 25 99 26 93 27 92 28 48 30 80 31 60 32 79 33 61 34
REMARK SMILES IDX 64 35 78 36 97 37 62 38 63 39 77 41 98 42 65 43 49 44 50 45
REMARK SMILES IDX 58 46 51 47 57 48 59 49 56 50 52 51 53 52 54 53 55 54 81 55
REMARK SMILES IDX 82 56 90 57 83 58 89 59 91 60 88 61 84 62 85 63 86 64 87 65
REMARK SMILES IDX 66 66 67 67 75 68 68 69 74 70 76 71 73 72 69 73 70 74 71 75
REMARK SMILES IDX 72 76 10 77 13 78 14 79 15 81 16 82 19 83 20 84 21 86 22 87
REMARK SMILES IDX 30 88 31 89 32 91 33 92 34 93 39 94 35 95 38 96 36 97 37 98
REMARK SMILES IDX 23 99 24 100 25 101 29 102 26 103 28 104 27 105 17 106
REMARK SMILES IDX 18 107 11 109 12 110
REMARK H PARENT 7 4 3 11 96 29 64 40 13 80 19 85 30 90 18 108 12 111
REMARK Flexibility Score: inf
ROOT
ATOM      1  N   UNL     1       1.405   9.687   2.337  1.00  0.00    -0.354 N 
ATOM      2  C   UNL     1       2.273  10.108   1.382  1.00  0.00     0.244 C 
ATOM      3  O   UNL     1       1.919  10.056   0.202  1.00  0.00    -0.273 OA
ATOM      4  H   UNL     1       0.600   9.234   1.995  1.00  0.00     0.163 HD
ENDROOT
BRANCH   1   5
ATOM      5  C   UNL     1       1.476   9.801   3.784  1.00  0.00     0.117 C 
BRANCH   5   6
ATOM      6  C   UNL     1       0.448  10.777   4.314  1.00  0.00     0.042 C 
BRANCH   6   7
ATOM      7  C   UNL     1      -0.969  10.397   3.926  1.00  0.00     0.118 C 
BRANCH   7   8
ATOM      8  N   UNL     1      -1.336   9.077   4.425  1.00  0.00    -0.352 N 
ATOM      9  O   UNL     1      -2.239   7.619   5.890  1.00  0.00    -0.269 OA
ATOM     10  C   UNL     1      -2.230   8.751   5.415  1.00  0.00     0.251 C 
ATOM     11  H   UNL     1      -0.882   8.317   3.994  1.00  0.00     0.163 HD
BRANCH  10  12
ATOM     12  C   UNL     1      -3.169   9.783   5.890  1.00  0.00     0.039 A 
ATOM     13  C   UNL     1      -3.790  10.620   4.962  1.00  0.00     0.014 A 
ATOM     14  C   UNL     1      -3.420   9.926   7.256  1.00  0.00     0.014 A 
ATOM     15  C   UNL     1      -4.528  11.704   5.402  1.00  0.00     0.010 A 
ATOM     16  C   UNL     1      -4.274  10.942   7.691  1.00  0.00     0.010 A 
ATOM     17  C   UNL     1      -4.821  11.845   6.766  1.00  0.00    -0.014 A 
BRANCH  17  18
ATOM     18  C   UNL     1      -5.815  12.870   7.162  1.00  0.00     0.031 A 
ATOM     19  C   UNL     1      -5.444  14.021   8.048  1.00  0.00     0.074 A 
ATOM     20  C   UNL     1      -7.063  12.747   6.664  1.00  0.00     0.049 A 
ATOM     21  N   UNL     1      -6.201  14.995   8.481  1.00  0.00    -0.248 NA
ATOM     22  C   UNL     1      -4.051  14.089   8.515  1.00  0.00     0.031 C 
ATOM     23  C   UNL     1      -7.516  11.653   5.794  1.00  0.00     0.029 A 
ATOM     24  N   UNL     1      -8.168  13.544   6.786  1.00  0.00    -0.354 N 
ATOM     25  C   UNL     1      -5.390  15.778   9.294  1.00  0.00     0.074 A 
ATOM     26  C   UNL     1      -4.081  15.157   9.303  1.00  0.00     0.031 C 
ATOM     27  C   UNL     1      -8.780  11.881   5.417  1.00  0.00     0.029 A 
ATOM     28  C   UNL     1      -9.261  13.076   6.092  1.00  0.00     0.049 A 
ATOM     29  H   UNL     1      -8.181  14.373   7.318  1.00  0.00     0.167 HD
ATOM     30  C   UNL     1      -5.720  16.907   9.967  1.00  0.00     0.034 A 
ATOM     31  C   UNL     1     -10.524  13.536   6.036  1.00  0.00     0.034 A 
ATOM     32  C   UNL     1      -7.032  17.509   9.925  1.00  0.00     0.049 A 
ATOM     33  C   UNL     1     -10.860  14.772   6.820  1.00  0.00     0.074 A 
ATOM     34  C   UNL     1      -7.461  18.679  10.527  1.00  0.00     0.029 A 
ATOM     35  N   UNL     1      -8.129  16.985   9.251  1.00  0.00    -0.354 N 
ATOM     36  N   UNL     1     -10.072  15.513   7.565  1.00  0.00    -0.248 NA
ATOM     37  C   UNL     1     -12.250  15.233   6.761  1.00  0.00     0.031 C 
ATOM     38  C   UNL     1      -8.830  18.824  10.276  1.00  0.00     0.029 A 
ATOM     39  C   UNL     1      -9.242  17.786   9.457  1.00  0.00     0.049 A 
ATOM     40  H   UNL     1      -8.117  16.164   8.707  1.00  0.00     0.167 HD
ATOM     41  C   UNL     1     -10.873  16.536   8.057  1.00  0.00     0.074 A 
ATOM     42  C   UNL     1     -12.194  16.334   7.494  1.00  0.00     0.031 C 
ATOM     43  C   UNL     1     -10.553  17.548   8.902  1.00  0.00     0.034 A 
BRANCH  30  44
ATOM     44  C   UNL     1      -4.670  17.537  10.849  1.00  0.00     0.023 A 
ATOM     45  C   UNL     1      -3.518  18.145  10.323  1.00  0.00     0.031 A 
ATOM     46  C   UNL     1      -4.846  17.552  12.245  1.00  0.00     0.131 A 
ATOM     47  C   UNL     1      -2.567  18.707  11.191  1.00  0.00     0.055 A 
ATOM     48  C   UNL     1      -3.928  18.167  13.098  1.00  0.00     0.041 A 
ATOM     49  F   UNL     1      -5.918  16.968  12.804  1.00  0.00    -0.206 F 
ATOM     50  C   UNL     1      -2.776  18.744  12.572  1.00  0.00     0.022 A 
BRANCH  47  51
ATOM     51  S   UNL     1      -1.005  19.315  10.497  1.00  0.00     0.124 S 
ATOM     52  O   UNL     1      -0.452  18.098   9.907  1.00  0.00    -0.237 OA
ATOM     53  O   UNL     1      -1.453  20.334   9.556  1.00  0.00    -0.237 OA
ATOM     54  O   UNL     1      -0.283  19.817  11.664  1.00  0.00    -0.744 OA
ENDBRANCH  47  51
ENDBRANCH  30  44
BRANCH  31  55
ATOM     55  C   UNL     1     -11.564  12.794   5.270  1.00  0.00     0.023 A 
ATOM     56  C   UNL     1     -12.239  13.392   4.196  1.00  0.00     0.031 A 
ATOM     57  C   UNL     1     -11.929  11.482   5.629  1.00  0.00     0.131 A 
ATOM     58  C   UNL     1     -13.276  12.701   3.552  1.00  0.00     0.055 A 
ATOM     59  C   UNL     1     -12.917  10.775   4.943  1.00  0.00     0.041 A 
ATOM     60  F   UNL     1     -11.314  10.860   6.648  1.00  0.00    -0.206 F 
ATOM     61  C   UNL     1     -13.609  11.392   3.908  1.00  0.00     0.022 A 
BRANCH  58  62
ATOM     62  S   UNL     1     -14.263  13.582   2.312  1.00  0.00     0.124 S 
ATOM     63  O   UNL     1     -14.682  14.767   3.051  1.00  0.00    -0.237 OA
ATOM     64  O   UNL     1     -13.286  13.801   1.250  1.00  0.00    -0.237 OA
ATOM     65  O   UNL     1     -15.329  12.636   1.991  1.00  0.00    -0.744 OA
ENDBRANCH  58  62
ENDBRANCH  31  55
BRANCH  43  66
ATOM     66  C   UNL     1     -11.660  18.514   9.236  1.00  0.00     0.023 A 
ATOM     67  C   UNL     1     -12.775  18.114   9.993  1.00  0.00     0.031 A 
ATOM     68  C   UNL     1     -11.618  19.835   8.758  1.00  0.00     0.131 A 
ATOM     69  C   UNL     1     -13.835  19.008  10.195  1.00  0.00     0.055 A 
ATOM     70  C   UNL     1     -12.648  20.739   9.018  1.00  0.00     0.041 A 
ATOM     71  F   UNL     1     -10.578  20.265   8.027  1.00  0.00    -0.206 F 
ATOM     72  C   UNL     1     -13.772  20.323   9.727  1.00  0.00     0.022 A 
BRANCH  69  73
ATOM     73  S   UNL     1     -15.345  18.397  10.994  1.00  0.00     0.124 S 
ATOM     74  O   UNL     1     -15.756  17.330  10.087  1.00  0.00    -0.237 OA
ATOM     75  O   UNL     1     -14.856  17.969  12.301  1.00  0.00    -0.237 OA
ATOM     76  O   UNL     1     -16.220  19.567  11.012  1.00  0.00    -0.744 OA
ENDBRANCH  69  73
ENDBRANCH  43  66
ENDBRANCH  17  18
ENDBRANCH  10  12
ENDBRANCH   7   8
ENDBRANCH   6   7
ENDBRANCH   5   6
ENDBRANCH   1   5
BRANCH   2  77
ATOM     77  C   UNL     1       3.634  10.682   1.767  1.00  0.00     0.197 C 
BRANCH  77  78
ATOM     78  N   UNL     1       3.463  12.037   2.269  1.00  0.00    -0.340 N 
ATOM     79  C   UNL     1       3.687  13.241   1.679  1.00  0.00     0.244 C 
ATOM     80  H   UNL     1       3.128  12.091   3.193  1.00  0.00     0.164 HD
ATOM     81  O   UNL     1       3.139  14.199   2.237  1.00  0.00    -0.273 OA
BRANCH  79  82
ATOM     82  C   UNL     1       4.740  13.476   0.559  1.00  0.00     0.181 C 
BRANCH  82  83
ATOM     83  N   UNL     1       4.964  12.391  -0.420  1.00  0.00    -0.342 N 
ATOM     84  C   UNL     1       5.968  11.481  -0.623  1.00  0.00     0.243 C 
ATOM     85  H   UNL     1       4.230  12.304  -1.070  1.00  0.00     0.164 HD
ATOM     86  O   UNL     1       5.801  10.716  -1.582  1.00  0.00    -0.273 OA
BRANCH  84  87
ATOM     87  C   UNL     1       7.315  11.463   0.154  1.00  0.00     0.176 C 
BRANCH  87  88
ATOM     88  N   UNL     1       7.229  12.027   1.498  1.00  0.00    -0.340 N 
ATOM     89  C   UNL     1       7.899  13.097   2.042  1.00  0.00     0.251 C 
ATOM     90  H   UNL     1       6.599  11.575   2.104  1.00  0.00     0.164 HD
ATOM     91  O   UNL     1       7.848  13.285   3.255  1.00  0.00    -0.269 OA
BRANCH  89  92
ATOM     92  C   UNL     1       8.693  14.030   1.196  1.00  0.00     0.040 A 
ATOM     93  C   UNL     1       9.911  14.497   1.707  1.00  0.00     0.017 A 
ATOM     94  C   UNL     1       8.247  14.501  -0.047  1.00  0.00     0.017 A 
ATOM     95  C   UNL     1      10.689  15.387   0.962  1.00  0.00     0.040 A 
ATOM     96  C   UNL     1       9.027  15.386  -0.793  1.00  0.00     0.040 A 
ATOM     97  C   UNL     1      10.243  15.817  -0.283  1.00  0.00     0.123 A 
ATOM     98  F   UNL     1      10.992  16.665  -0.999  1.00  0.00    -0.207 F 
ENDBRANCH  89  92
ENDBRANCH  87  88
BRANCH  87  99
ATOM     99  C   UNL     1       7.936  10.025   0.152  1.00  0.00     0.070 C 
BRANCH  99 100
ATOM    100  C   UNL     1       8.835   9.711   1.335  1.00  0.00    -0.045 A 
ATOM    101  C   UNL     1       8.480   8.707   2.249  1.00  0.00     0.004 A 
ATOM    102  C   UNL     1       9.967  10.489   1.605  1.00  0.00     0.004 A 
ATOM    103  C   UNL     1       9.160   8.566   3.459  1.00  0.00     0.000 A 
ATOM    104  C   UNL     1      10.649  10.347   2.815  1.00  0.00     0.000 A 
ATOM    105  C   UNL     1      10.231   9.403   3.752  1.00  0.00     0.000 A 
ENDBRANCH  99 100
ENDBRANCH  87  99
ENDBRANCH  84  87
ENDBRANCH  82  83
BRANCH  82 106
ATOM    106  C   UNL     1       4.396  14.782  -0.197  1.00  0.00     0.101 C 
BRANCH 106 107
ATOM    107  S   UNL     1       4.961  16.296   0.658  1.00  0.00    -0.177 SA
ATOM    108  H   UNL     1       4.340  16.393   1.864  1.00  0.00     0.102 HD
ENDBRANCH 106 107
ENDBRANCH  82 106
ENDBRANCH  79  82
ENDBRANCH  77  78
BRANCH  77 109
ATOM    109  C   UNL     1       4.426   9.758   2.695  1.00  0.00     0.191 C 
BRANCH 109 110
ATOM    110  O   UNL     1       5.538   9.222   1.991  1.00  0.00    -0.394 OA
ATOM    111  H   UNL     1       5.224   8.719   1.223  1.00  0.00     0.210 HD
ENDBRANCH 109 110
ENDBRANCH  77 109
ENDBRANCH   2  77
TORSDOF 25
