REMARK SMILES COc1ccc(Br)cc1CNc1ccc(N2CCOCC2)c(C(=O)NCCCNC(=O)c2ccc(-c3c4nc(c(-c5cc(S(=O)(=O)[O-])ccc5F)c5ccc([nH]5)c(-c5cc(S(=O)(=O)[O-])ccc5F)c5nc(c(-c6cc(S(=O)(=O)[O-])ccc6F)c6ccc3[nH]6)C=C5)C=C4)cc2)c1
REMARK SMILES IDX 26 1 25 2 23 3 24 4 22 6 12 7 13 8 95 9 14 10 15 11 11 12
REMARK SMILES IDX 10 14 9 15 3 16 4 17 5 18 8 19 6 20 7 21 2 22 1 23 16 24
REMARK SMILES IDX 17 25 21 26 18 27 20 28 19 29 27 30 28 31 29 32 30 33 31 35
REMARK SMILES IDX 32 36 33 37 94 38 34 39 93 40 35 41 36 42 37 43 87 44 38 45
REMARK SMILES IDX 92 46 86 47 88 48 39 49 91 50 85 51 84 52 40 54 72 55 52 56
REMARK SMILES IDX 71 57 53 58 56 59 70 60 89 61 54 62 55 63 69 65 90 66 57 67
REMARK SMILES IDX 41 68 42 69 50 70 43 71 49 72 51 73 48 74 44 75 45 76 46 77
REMARK SMILES IDX 47 78 73 79 74 80 82 81 75 82 81 83 83 84 80 85 76 86 77 87
REMARK SMILES IDX 78 88 79 89 58 90 59 91 67 92 60 93 66 94 68 95 65 96 61 97
REMARK SMILES IDX 62 98 63 99 64 100
REMARK H PARENT 25 5 11 13 29 34 88 53 56 64
REMARK Flexibility Score: inf
ROOT
ATOM      1  C   UNL     1      -4.475   0.382   4.234  1.00  0.00     0.118 C 
ENDROOT
BRANCH   1   2
ATOM      2  N   UNL     1      -5.438  -0.342   5.064  1.00  0.00    -0.352 N 
ATOM      3  C   UNL     1      -5.776  -1.663   5.284  1.00  0.00     0.253 C 
ATOM      4  O   UNL     1      -6.642  -1.834   6.141  1.00  0.00    -0.269 OA
ATOM      5  H   UNL     1      -5.985   0.270   5.606  1.00  0.00     0.163 HD
BRANCH   3   6
ATOM      6  C   UNL     1      -5.181  -2.817   4.532  1.00  0.00     0.065 A 
ATOM      7  C   UNL     1      -3.347  -3.519   3.054  1.00  0.00     0.035 A 
ATOM      8  C   UNL     1      -4.012  -4.720   2.840  1.00  0.00     0.028 A 
ATOM      9  C   UNL     1      -3.903  -2.655   3.990  1.00  0.00     0.041 A 
ATOM     10  C   UNL     1      -5.184  -5.016   3.542  1.00  0.00     0.029 A 
ATOM     11  C   UNL     1      -5.790  -4.084   4.409  1.00  0.00     0.050 A 
BRANCH   7  12
ATOM     12  N   UNL     1      -2.146  -3.272   2.429  1.00  0.00    -0.381 N 
ATOM     13  H   UNL     1      -1.782  -3.983   1.853  1.00  0.00     0.160 HD
BRANCH  12  14
ATOM     14  C   UNL     1      -1.369  -2.043   2.550  1.00  0.00     0.152 C 
BRANCH  14  15
ATOM     15  C   UNL     1       0.100  -2.387   2.507  1.00  0.00     0.014 A 
ATOM     16  C   UNL     1       1.019  -1.603   1.794  1.00  0.00     0.123 A 
ATOM     17  C   UNL     1       2.370  -1.962   1.784  1.00  0.00     0.048 A 
ATOM     18  C   UNL     1       2.809  -3.091   2.486  1.00  0.00     0.019 A 
ATOM     19  C   UNL     1       0.563  -3.493   3.248  1.00  0.00     0.025 A 
ATOM     20  C   UNL     1       1.905  -3.845   3.224  1.00  0.00     0.018 A 
ATOM     21  Br  UNL     1       2.493  -5.348   4.205  1.00  0.00    -0.051 Br
BRANCH  16  22
ATOM     22  O   UNL     1       0.533  -0.462   1.215  1.00  0.00    -0.496 OA
ATOM     23  C   UNL     1       1.138  -0.079  -0.017  1.00  0.00     0.278 C 
ENDBRANCH  16  22
ENDBRANCH  14  15
ENDBRANCH  12  14
ENDBRANCH   7  12
BRANCH  11  24
ATOM     24  N   UNL     1      -6.837  -4.529   5.189  1.00  0.00    -0.366 N 
ATOM     25  C   UNL     1      -8.226  -4.104   5.021  1.00  0.00     0.145 C 
ATOM     26  C   UNL     1      -6.588  -5.569   6.188  1.00  0.00     0.145 C 
ATOM     27  C   UNL     1      -8.910  -3.900   6.392  1.00  0.00     0.181 C 
ATOM     28  C   UNL     1      -7.269  -5.171   7.502  1.00  0.00     0.181 C 
ATOM     29  O   UNL     1      -8.683  -4.998   7.300  1.00  0.00    -0.378 OA
ENDBRANCH  11  24
ENDBRANCH   3   6
ENDBRANCH   1   2
BRANCH   1  30
ATOM     30  C   UNL     1      -5.107   1.365   3.263  1.00  0.00     0.042 C 
BRANCH  30  31
ATOM     31  C   UNL     1      -5.913   2.467   3.927  1.00  0.00     0.118 C 
BRANCH  31  32
ATOM     32  N   UNL     1      -5.104   3.303   4.807  1.00  0.00    -0.352 N 
ATOM     33  C   UNL     1      -4.548   4.545   4.600  1.00  0.00     0.251 C 
ATOM     34  H   UNL     1      -4.928   2.916   5.695  1.00  0.00     0.163 HD
ATOM     35  O   UNL     1      -3.704   4.966   5.383  1.00  0.00    -0.269 OA
BRANCH  33  36
ATOM     36  C   UNL     1      -4.942   5.348   3.423  1.00  0.00     0.039 A 
ATOM     37  C   UNL     1      -3.961   6.032   2.698  1.00  0.00     0.014 A 
ATOM     38  C   UNL     1      -6.278   5.421   3.028  1.00  0.00     0.014 A 
ATOM     39  C   UNL     1      -4.310   6.695   1.518  1.00  0.00     0.010 A 
ATOM     40  C   UNL     1      -6.606   5.990   1.804  1.00  0.00     0.010 A 
ATOM     41  C   UNL     1      -5.624   6.625   1.030  1.00  0.00    -0.014 A 
BRANCH  41  42
ATOM     42  C   UNL     1      -6.005   7.184  -0.294  1.00  0.00     0.031 A 
ATOM     43  C   UNL     1      -7.053   8.257  -0.383  1.00  0.00     0.074 A 
ATOM     44  C   UNL     1      -5.479   6.653  -1.416  1.00  0.00     0.049 A 
ATOM     45  N   UNL     1      -7.624   8.773  -1.441  1.00  0.00    -0.248 NA
ATOM     46  C   UNL     1      -7.548   8.796   0.892  1.00  0.00     0.031 C 
ATOM     47  C   UNL     1      -4.474   5.588  -1.458  1.00  0.00     0.029 A 
ATOM     48  N   UNL     1      -5.725   6.926  -2.738  1.00  0.00    -0.354 N 
ATOM     49  C   UNL     1      -8.552   9.690  -0.960  1.00  0.00     0.074 A 
ATOM     50  C   UNL     1      -8.517   9.601   0.485  1.00  0.00     0.031 C 
ATOM     51  C   UNL     1      -4.168   5.321  -2.737  1.00  0.00     0.029 A 
ATOM     52  C   UNL     1      -4.999   6.145  -3.608  1.00  0.00     0.049 A 
ATOM     53  H   UNL     1      -6.361   7.615  -3.036  1.00  0.00     0.167 HD
ATOM     54  C   UNL     1      -9.340  10.546  -1.658  1.00  0.00     0.034 A 
ATOM     55  C   UNL     1      -5.016   6.083  -4.955  1.00  0.00     0.034 A 
ATOM     56  C   UNL     1      -9.363  10.614  -3.099  1.00  0.00     0.049 A 
ATOM     57  C   UNL     1      -5.961   6.984  -5.710  1.00  0.00     0.074 A 
ATOM     58  C   UNL     1     -10.089  11.468  -3.910  1.00  0.00     0.029 A 
ATOM     59  N   UNL     1      -8.637   9.784  -3.946  1.00  0.00    -0.354 N 
ATOM     60  N   UNL     1      -6.803   7.876  -5.242  1.00  0.00    -0.248 NA
ATOM     61  C   UNL     1      -5.959   6.866  -7.174  1.00  0.00     0.031 C 
ATOM     62  C   UNL     1      -9.865  11.102  -5.242  1.00  0.00     0.029 A 
ATOM     63  C   UNL     1      -8.933  10.078  -5.269  1.00  0.00     0.049 A 
ATOM     64  H   UNL     1      -8.006   9.090  -3.650  1.00  0.00     0.167 HD
ATOM     65  C   UNL     1      -7.408   8.448  -6.358  1.00  0.00     0.074 A 
ATOM     66  C   UNL     1      -6.826   7.807  -7.520  1.00  0.00     0.031 C 
ATOM     67  C   UNL     1      -8.355   9.419  -6.418  1.00  0.00     0.034 A 
BRANCH  54  68
ATOM     68  C   UNL     1     -10.254  11.448  -0.862  1.00  0.00     0.023 A 
ATOM     69  C   UNL     1      -9.746  12.374   0.067  1.00  0.00     0.031 A 
ATOM     70  C   UNL     1     -11.651  11.353  -0.994  1.00  0.00     0.131 A 
ATOM     71  C   UNL     1     -10.622  13.092   0.894  1.00  0.00     0.055 A 
ATOM     72  C   UNL     1     -12.518  12.142  -0.235  1.00  0.00     0.041 A 
ATOM     73  F   UNL     1     -12.199  10.474  -1.848  1.00  0.00    -0.206 F 
ATOM     74  C   UNL     1     -12.006  13.003   0.730  1.00  0.00     0.022 A 
BRANCH  71  75
ATOM     75  S   UNL     1      -9.927  13.999   2.302  1.00  0.00     0.124 S 
ATOM     76  O   UNL     1      -9.220  12.938   3.016  1.00  0.00    -0.237 OA
ATOM     77  O   UNL     1      -9.089  14.999   1.650  1.00  0.00    -0.237 OA
ATOM     78  O   UNL     1     -11.106  14.522   2.988  1.00  0.00    -0.744 OA
ENDBRANCH  71  75
ENDBRANCH  54  68
BRANCH  55  79
ATOM     79  C   UNL     1      -4.125   5.133  -5.679  1.00  0.00     0.023 A 
ATOM     80  C   UNL     1      -3.121   5.606  -6.538  1.00  0.00     0.031 A 
ATOM     81  C   UNL     1      -4.281   3.741  -5.551  1.00  0.00     0.131 A 
ATOM     82  C   UNL     1      -2.340   4.698  -7.269  1.00  0.00     0.055 A 
ATOM     83  C   UNL     1      -3.463   2.841  -6.237  1.00  0.00     0.041 A 
ATOM     84  F   UNL     1      -5.224   3.233  -4.741  1.00  0.00    -0.206 F 
ATOM     85  C   UNL     1      -2.493   3.318  -7.112  1.00  0.00     0.022 A 
BRANCH  82  86
ATOM     86  S   UNL     1      -1.170   5.349  -8.492  1.00  0.00     0.124 S 
ATOM     87  O   UNL     1      -2.055   6.094  -9.380  1.00  0.00    -0.237 OA
ATOM     88  O   UNL     1      -0.274   6.145  -7.660  1.00  0.00    -0.237 OA
ATOM     89  O   UNL     1      -0.576   4.144  -9.068  1.00  0.00    -0.744 OA
ENDBRANCH  82  86
ENDBRANCH  55  79
BRANCH  67  90
ATOM     90  C   UNL     1      -8.791   9.873  -7.789  1.00  0.00     0.023 A 
ATOM     91  C   UNL     1      -9.507   9.029  -8.656  1.00  0.00     0.031 A 
ATOM     92  C   UNL     1      -8.495  11.175  -8.230  1.00  0.00     0.131 A 
ATOM     93  C   UNL     1      -9.864   9.482  -9.935  1.00  0.00     0.055 A 
ATOM     94  C   UNL     1      -8.907  11.642  -9.478  1.00  0.00     0.041 A 
ATOM     95  F   UNL     1      -7.808  12.022  -7.445  1.00  0.00    -0.206 F 
ATOM     96  C   UNL     1      -9.588  10.790 -10.343  1.00  0.00     0.022 A 
BRANCH  93  97
ATOM     97  S   UNL     1     -10.630   8.314 -11.091  1.00  0.00     0.124 S 
ATOM     98  O   UNL     1      -9.598   7.289 -11.213  1.00  0.00    -0.237 OA
ATOM     99  O   UNL     1     -11.841   7.917 -10.381  1.00  0.00    -0.237 OA
ATOM    100  O   UNL     1     -10.851   9.116 -12.293  1.00  0.00    -0.744 OA
ENDBRANCH  93  97
ENDBRANCH  67  90
ENDBRANCH  41  42
ENDBRANCH  33  36
ENDBRANCH  31  32
ENDBRANCH  30  31
ENDBRANCH   1  30
TORSDOF 18
