REMARK SMILES O=C(NCCCNC(=O)c1cc2c(c(S(=O)(=O)Nc3cc(C(F)(F)F)ccc3-n3cccn3)c1)CCC2)c1ccc(-c2c3nc(c(-c4cc(S(=O)(=O)[O-])ccc4F)c4ccc([nH]4)c(-c4cc(S(=O)(=O)[O-])ccc4F)c4nc(c(-c5cc(S(=O)(=O)[O-])ccc5F)c5ccc2[nH]5)C=C4)C=C3)cc1
REMARK SMILES IDX 5 1 4 2 3 3 1 4 2 5 38 7 39 8 100 9 40 10 99 11 41 12 42 13
REMARK SMILES IDX 43 14 93 15 44 16 98 17 92 18 94 19 45 20 97 21 91 22 90 23
REMARK SMILES IDX 46 25 78 26 58 27 77 28 59 29 62 30 76 31 95 32 60 33 61 34
REMARK SMILES IDX 75 36 96 37 63 38 47 39 48 40 56 41 49 42 55 43 57 44 54 45
REMARK SMILES IDX 50 46 51 47 52 48 53 49 79 50 80 51 88 52 81 53 87 54 89 55
REMARK SMILES IDX 86 56 82 57 83 58 84 59 85 60 64 61 65 62 73 63 66 64 72 65
REMARK SMILES IDX 74 66 71 67 67 68 68 69 69 70 70 71 6 72 7 73 8 74 9 76
REMARK SMILES IDX 10 77 11 78 34 79 12 80 14 81 13 82 37 83 35 84 36 85 15 86
REMARK SMILES IDX 16 87 17 88 18 89 19 91 20 92 28 93 21 94 27 95 26 96 29 97
REMARK SMILES IDX 30 98 33 99 31 100 32 101 22 102 23 103 24 104 25 105
REMARK H PARENT 3 6 94 24 62 35 7 75 18 90
REMARK Flexibility Score: inf
ROOT
ATOM      1  C   UNL     1       4.938  -0.163   2.129  1.00  0.00     0.042 C 
ENDROOT
BRANCH   1   2
ATOM      2  C   UNL     1       4.616  -0.688   0.736  1.00  0.00     0.118 C 
BRANCH   2   3
ATOM      3  N   UNL     1       3.206  -0.887   0.460  1.00  0.00    -0.352 N 
ATOM      4  O   UNL     1       1.123  -0.673  -0.220  1.00  0.00    -0.269 OA
ATOM      5  C   UNL     1       2.163  -0.083   0.089  1.00  0.00     0.251 C 
ATOM      6  H   UNL     1       2.934  -1.828   0.566  1.00  0.00     0.163 HD
BRANCH   5   7
ATOM      7  C   UNL     1       2.167   1.407   0.092  1.00  0.00     0.039 A 
ATOM      8  C   UNL     1       3.293   2.229   0.145  1.00  0.00     0.014 A 
ATOM      9  C   UNL     1       0.897   2.017   0.041  1.00  0.00     0.014 A 
ATOM     10  C   UNL     1       3.150   3.619   0.213  1.00  0.00     0.010 A 
ATOM     11  C   UNL     1       0.749   3.401   0.101  1.00  0.00     0.010 A 
ATOM     12  C   UNL     1       1.878   4.206   0.211  1.00  0.00    -0.014 A 
BRANCH  12  13
ATOM     13  C   UNL     1       1.766   5.665   0.114  1.00  0.00     0.031 A 
ATOM     14  C   UNL     1       2.231   6.231  -1.186  1.00  0.00     0.074 A 
ATOM     15  C   UNL     1       1.141   6.459   1.010  1.00  0.00     0.049 A 
ATOM     16  N   UNL     1       3.222   7.033  -1.396  1.00  0.00    -0.248 NA
ATOM     17  C   UNL     1       1.583   5.755  -2.418  1.00  0.00     0.031 C 
ATOM     18  C   UNL     1       0.376   6.049   2.188  1.00  0.00     0.029 A 
ATOM     19  N   UNL     1       0.973   7.817   0.993  1.00  0.00    -0.354 N 
ATOM     20  C   UNL     1       3.200   7.333  -2.757  1.00  0.00     0.074 A 
ATOM     21  C   UNL     1       2.286   6.395  -3.354  1.00  0.00     0.031 C 
ATOM     22  C   UNL     1      -0.344   7.102   2.642  1.00  0.00     0.029 A 
ATOM     23  C   UNL     1      -0.002   8.288   1.871  1.00  0.00     0.049 A 
ATOM     24  H   UNL     1       1.496   8.412   0.409  1.00  0.00     0.167 HD
ATOM     25  C   UNL     1       3.783   8.462  -3.251  1.00  0.00     0.034 A 
ATOM     26  C   UNL     1      -0.534   9.541   1.930  1.00  0.00     0.034 A 
ATOM     27  C   UNL     1       4.697   9.038  -2.295  1.00  0.00     0.049 A 
ATOM     28  C   UNL     1       0.441  10.461   1.295  1.00  0.00     0.074 A 
ATOM     29  C   UNL     1       5.832   8.593  -1.644  1.00  0.00     0.029 A 
ATOM     30  N   UNL     1       4.294  10.157  -1.602  1.00  0.00    -0.354 N 
ATOM     31  N   UNL     1       1.616  10.719   1.796  1.00  0.00    -0.248 NA
ATOM     32  C   UNL     1       0.301  10.738  -0.127  1.00  0.00     0.031 C 
ATOM     33  C   UNL     1       5.736   9.137  -0.330  1.00  0.00     0.029 A 
ATOM     34  C   UNL     1       4.594   9.940  -0.281  1.00  0.00     0.049 A 
ATOM     35  H   UNL     1       3.870  10.960  -1.982  1.00  0.00     0.167 HD
ATOM     36  C   UNL     1       2.469  10.755   0.705  1.00  0.00     0.074 A 
ATOM     37  C   UNL     1       1.590  10.864  -0.457  1.00  0.00     0.031 C 
ATOM     38  C   UNL     1       3.786  10.416   0.824  1.00  0.00     0.034 A 
BRANCH  25  39
ATOM     39  C   UNL     1       3.293   9.250  -4.448  1.00  0.00     0.023 A 
ATOM     40  C   UNL     1       4.037  10.389  -4.821  1.00  0.00     0.031 A 
ATOM     41  C   UNL     1       2.014   9.136  -5.035  1.00  0.00     0.131 A 
ATOM     42  C   UNL     1       3.473  11.391  -5.628  1.00  0.00     0.055 A 
ATOM     43  C   UNL     1       1.486  10.101  -5.899  1.00  0.00     0.041 A 
ATOM     44  F   UNL     1       1.166   8.145  -4.734  1.00  0.00    -0.206 F 
ATOM     45  C   UNL     1       2.200  11.254  -6.171  1.00  0.00     0.022 A 
BRANCH  42  46
ATOM     46  S   UNL     1       4.359  12.964  -5.789  1.00  0.00     0.124 S 
ATOM     47  O   UNL     1       4.531  13.347  -4.391  1.00  0.00    -0.237 OA
ATOM     48  O   UNL     1       5.566  12.559  -6.500  1.00  0.00    -0.237 OA
ATOM     49  O   UNL     1       3.434  13.796  -6.555  1.00  0.00    -0.744 OA
ENDBRANCH  42  46
ENDBRANCH  25  39
BRANCH  26  50
ATOM     50  C   UNL     1      -1.946   9.928   2.224  1.00  0.00     0.023 A 
ATOM     51  C   UNL     1      -2.334  11.236   2.595  1.00  0.00     0.031 A 
ATOM     52  C   UNL     1      -2.989   9.035   1.890  1.00  0.00     0.131 A 
ATOM     53  C   UNL     1      -3.706  11.596   2.623  1.00  0.00     0.055 A 
ATOM     54  C   UNL     1      -4.338   9.393   1.923  1.00  0.00     0.041 A 
ATOM     55  F   UNL     1      -2.727   7.801   1.432  1.00  0.00    -0.206 F 
ATOM     56  C   UNL     1      -4.703  10.680   2.281  1.00  0.00     0.022 A 
BRANCH  53  57
ATOM     57  S   UNL     1      -4.220  13.303   3.014  1.00  0.00     0.124 S 
ATOM     58  O   UNL     1      -3.893  13.410   4.431  1.00  0.00    -0.237 OA
ATOM     59  O   UNL     1      -3.408  14.095   2.098  1.00  0.00    -0.237 OA
ATOM     60  O   UNL     1      -5.653  13.306   2.715  1.00  0.00    -0.744 OA
ENDBRANCH  53  57
ENDBRANCH  26  50
BRANCH  38  61
ATOM     61  C   UNL     1       4.391  10.309   2.209  1.00  0.00     0.023 A 
ATOM     62  C   UNL     1       3.917   9.464   3.238  1.00  0.00     0.031 A 
ATOM     63  C   UNL     1       5.585  11.015   2.441  1.00  0.00     0.131 A 
ATOM     64  C   UNL     1       4.632   9.360   4.448  1.00  0.00     0.055 A 
ATOM     65  C   UNL     1       6.301  10.893   3.630  1.00  0.00     0.041 A 
ATOM     66  F   UNL     1       6.101  11.813   1.492  1.00  0.00    -0.206 F 
ATOM     67  C   UNL     1       5.823  10.068   4.642  1.00  0.00     0.022 A 
BRANCH  64  68
ATOM     68  S   UNL     1       4.019   8.309   5.805  1.00  0.00     0.124 S 
ATOM     69  O   UNL     1       2.612   8.673   5.914  1.00  0.00    -0.237 OA
ATOM     70  O   UNL     1       4.294   6.961   5.312  1.00  0.00    -0.237 OA
ATOM     71  O   UNL     1       4.842   8.713   6.947  1.00  0.00    -0.744 OA
ENDBRANCH  64  68
ENDBRANCH  38  61
ENDBRANCH  12  13
ENDBRANCH   5   7
ENDBRANCH   2   3
ENDBRANCH   1   2
BRANCH   1  72
ATOM     72  C   UNL     1       4.410  -1.017   3.280  1.00  0.00     0.118 C 
BRANCH  72  73
ATOM     73  N   UNL     1       5.039  -2.337   3.388  1.00  0.00    -0.352 N 
ATOM     74  C   UNL     1       5.829  -2.875   4.386  1.00  0.00     0.251 C 
ATOM     75  H   UNL     1       4.871  -2.938   2.627  1.00  0.00     0.163 HD
ATOM     76  O   UNL     1       6.333  -3.988   4.250  1.00  0.00    -0.269 OA
BRANCH  74  77
ATOM     77  C   UNL     1       6.096  -2.093   5.614  1.00  0.00     0.041 A 
ATOM     78  C   UNL     1       5.028  -1.511   6.286  1.00  0.00     0.018 A 
ATOM     79  C   UNL     1       7.425  -1.834   6.012  1.00  0.00     0.036 A 
ATOM     80  C   UNL     1       5.317  -0.459   7.126  1.00  0.00    -0.043 A 
ATOM     81  C   UNL     1       7.717  -0.816   6.949  1.00  0.00     0.092 A 
ATOM     82  C   UNL     1       6.644  -0.048   7.384  1.00  0.00    -0.024 A 
ATOM     83  C   UNL     1       4.310   0.498   7.694  1.00  0.00     0.036 C 
ATOM     84  C   UNL     1       6.569   1.334   7.955  1.00  0.00     0.037 C 
ATOM     85  C   UNL     1       5.199   1.295   8.641  1.00  0.00     0.010 C 
BRANCH  81  86
ATOM     86  S   UNL     1       9.434  -0.459   7.261  1.00  0.00     0.262 S 
ATOM     87  O   UNL     1      10.186  -1.617   6.806  1.00  0.00    -0.201 OA
ATOM     88  O   UNL     1       9.722   0.838   6.691  1.00  0.00    -0.201 OA
BRANCH  86  89
ATOM     89  N   UNL     1       9.877  -0.353   8.910  1.00  0.00    -0.277 N 
ATOM     90  H   UNL     1      10.764  -0.689   9.175  1.00  0.00     0.180 HD
BRANCH  89  91
ATOM     91  C   UNL     1       9.033   0.198   9.930  1.00  0.00     0.075 A 
ATOM     92  C   UNL     1       9.185   1.556  10.264  1.00  0.00     0.042 A 
ATOM     93  C   UNL     1       8.007  -0.545  10.534  1.00  0.00     0.089 A 
ATOM     94  C   UNL     1       8.280   2.195  11.138  1.00  0.00     0.058 A 
ATOM     95  C   UNL     1       7.117   0.080  11.422  1.00  0.00     0.031 A 
ATOM     96  C   UNL     1       7.254   1.439  11.722  1.00  0.00     0.015 A 
BRANCH  93  97
ATOM     97  N   UNL     1       7.800  -1.909  10.218  1.00  0.00    -0.239 N 
ATOM     98  C   UNL     1       8.739  -2.855   9.869  1.00  0.00     0.115 A 
ATOM     99  N   UNL     1       6.543  -2.415  10.130  1.00  0.00    -0.177 NA
ATOM    100  C   UNL     1       8.056  -3.902   9.304  1.00  0.00     0.042 A 
ATOM    101  C   UNL     1       6.705  -3.554   9.451  1.00  0.00     0.135 A 
ENDBRANCH  93  97
BRANCH  94 102
ATOM    102  C   UNL     1       8.379   3.687  11.380  1.00  0.00     0.416 C 
ATOM    103  F   UNL     1       9.454   4.006  12.152  1.00  0.00    -0.166 F 
ATOM    104  F   UNL     1       8.521   4.390  10.227  1.00  0.00    -0.166 F 
ATOM    105  F   UNL     1       7.293   4.205  12.016  1.00  0.00    -0.166 F 
ENDBRANCH  94 102
ENDBRANCH  89  91
ENDBRANCH  86  89
ENDBRANCH  81  86
ENDBRANCH  74  77
ENDBRANCH  72  73
ENDBRANCH   1  72
TORSDOF 18
