REMARK SMILES O=C(NCCCNC(=O)[C@H]1CC(=O)N(Cc2ccc3cc[nH]c3c2)C1)c1ccc(-c2c3nc(c(-c4cc(S(=O)(=O)[O-])ccc4F)c4ccc([nH]4)c(-c4cc(S(=O)(=O)[O-])ccc4F)c4nc(c(-c5cc(S(=O)(=O)[O-])ccc5F)c5ccc2[nH]5)C=C4)C=C3)cc1
REMARK SMILES IDX 4 1 3 2 1 3 2 4 26 6 27 7 88 8 28 9 87 10 29 11 30 12 31 13
REMARK SMILES IDX 81 14 32 15 86 16 80 17 82 18 33 19 85 20 79 21 78 22 34 24
REMARK SMILES IDX 66 25 46 26 65 27 47 28 50 29 64 30 83 31 48 32 49 33 63 35
REMARK SMILES IDX 84 36 51 37 35 38 36 39 44 40 37 41 43 42 45 43 42 44 38 45
REMARK SMILES IDX 39 46 40 47 41 48 67 49 68 50 76 51 69 52 75 53 77 54 74 55
REMARK SMILES IDX 70 56 71 57 72 58 73 59 52 60 53 61 61 62 54 63 60 64 62 65
REMARK SMILES IDX 59 66 55 67 56 68 57 69 58 70 5 71 6 72 7 73 8 74 9 76 10 77
REMARK SMILES IDX 11 78 25 79 12 80 14 81 13 82 15 83 16 84 17 85 24 86 18 87
REMARK SMILES IDX 23 88 19 89 22 90 20 91 21 92
REMARK H PARENT 3 5 82 23 50 34 7 75 22 93
REMARK Flexibility Score: inf
ROOT
ATOM      1  C   UNL     1       7.654  -6.592   1.829  1.00  0.00     0.118 C 
ENDROOT
BRANCH   1   2
ATOM      2  N   UNL     1       7.559  -7.954   2.341  1.00  0.00    -0.352 N 
ATOM      3  O   UNL     1       8.129  -9.761   3.559  1.00  0.00    -0.269 OA
ATOM      4  C   UNL     1       8.225  -8.548   3.388  1.00  0.00     0.251 C 
ATOM      5  H   UNL     1       6.924  -8.536   1.865  1.00  0.00     0.163 HD
BRANCH   4   6
ATOM      6  C   UNL     1       9.067  -7.733   4.291  1.00  0.00     0.039 A 
ATOM      7  C   UNL     1       8.624  -6.490   4.745  1.00  0.00     0.014 A 
ATOM      8  C   UNL     1      10.319  -8.213   4.683  1.00  0.00     0.014 A 
ATOM      9  C   UNL     1       9.498  -5.654   5.428  1.00  0.00     0.010 A 
ATOM     10  C   UNL     1      11.157  -7.411   5.467  1.00  0.00     0.010 A 
ATOM     11  C   UNL     1      10.773  -6.105   5.807  1.00  0.00    -0.014 A 
BRANCH  11  12
ATOM     12  C   UNL     1      11.665  -5.191   6.573  1.00  0.00     0.031 A 
ATOM     13  C   UNL     1      12.985  -4.738   6.006  1.00  0.00     0.074 A 
ATOM     14  C   UNL     1      11.248  -4.727   7.768  1.00  0.00     0.049 A 
ATOM     15  N   UNL     1      13.862  -3.910   6.517  1.00  0.00    -0.248 NA
ATOM     16  C   UNL     1      13.378  -5.295   4.703  1.00  0.00     0.031 C 
ATOM     17  C   UNL     1       9.989  -5.097   8.420  1.00  0.00     0.029 A 
ATOM     18  N   UNL     1      11.815  -3.828   8.635  1.00  0.00    -0.354 N 
ATOM     19  C   UNL     1      14.918  -3.861   5.612  1.00  0.00     0.074 A 
ATOM     20  C   UNL     1      14.586  -4.776   4.539  1.00  0.00     0.031 C 
ATOM     21  C   UNL     1       9.849  -4.385   9.546  1.00  0.00     0.029 A 
ATOM     22  C   UNL     1      11.040  -3.567   9.742  1.00  0.00     0.049 A 
ATOM     23  H   UNL     1      12.692  -3.409   8.479  1.00  0.00     0.167 HD
ATOM     24  C   UNL     1      16.052  -3.117   5.668  1.00  0.00     0.034 A 
ATOM     25  C   UNL     1      11.267  -2.773  10.806  1.00  0.00     0.034 A 
ATOM     26  C   UNL     1      16.361  -2.204   6.745  1.00  0.00     0.049 A 
ATOM     27  C   UNL     1      12.550  -1.988  10.861  1.00  0.00     0.074 A 
ATOM     28  C   UNL     1      17.463  -1.377   6.884  1.00  0.00     0.029 A 
ATOM     29  N   UNL     1      15.576  -2.005   7.875  1.00  0.00    -0.354 N 
ATOM     30  N   UNL     1      13.527  -1.938   9.985  1.00  0.00    -0.248 NA
ATOM     31  C   UNL     1      12.757  -1.148  12.046  1.00  0.00     0.031 C 
ATOM     32  C   UNL     1      17.385  -0.742   8.128  1.00  0.00     0.029 A 
ATOM     33  C   UNL     1      16.187  -1.096   8.728  1.00  0.00     0.049 A 
ATOM     34  H   UNL     1      14.712  -2.444   8.045  1.00  0.00     0.167 HD
ATOM     35  C   UNL     1      14.449  -1.030  10.499  1.00  0.00     0.074 A 
ATOM     36  C   UNL     1      13.899  -0.548  11.750  1.00  0.00     0.031 C 
ATOM     37  C   UNL     1      15.638  -0.628   9.980  1.00  0.00     0.034 A 
BRANCH  24  38
ATOM     38  C   UNL     1      17.065  -3.298   4.559  1.00  0.00     0.023 A 
ATOM     39  C   UNL     1      16.769  -2.990   3.219  1.00  0.00     0.031 A 
ATOM     40  C   UNL     1      18.345  -3.809   4.845  1.00  0.00     0.131 A 
ATOM     41  C   UNL     1      17.708  -3.265   2.212  1.00  0.00     0.055 A 
ATOM     42  C   UNL     1      19.305  -3.999   3.849  1.00  0.00     0.041 A 
ATOM     43  F   UNL     1      18.682  -4.143   6.101  1.00  0.00    -0.206 F 
ATOM     44  C   UNL     1      18.984  -3.742   2.520  1.00  0.00     0.022 A 
BRANCH  41  45
ATOM     45  S   UNL     1      17.184  -3.137   0.479  1.00  0.00     0.124 S 
ATOM     46  O   UNL     1      16.044  -4.050   0.448  1.00  0.00    -0.237 OA
ATOM     47  O   UNL     1      16.870  -1.719   0.349  1.00  0.00    -0.237 OA
ATOM     48  O   UNL     1      18.355  -3.589  -0.268  1.00  0.00    -0.744 OA
ENDBRANCH  41  45
ENDBRANCH  24  38
BRANCH  25  49
ATOM     49  C   UNL     1      10.271  -2.693  11.912  1.00  0.00     0.023 A 
ATOM     50  C   UNL     1       9.635  -1.482  12.230  1.00  0.00     0.031 A 
ATOM     51  C   UNL     1       9.970  -3.820  12.698  1.00  0.00     0.131 A 
ATOM     52  C   UNL     1       8.771  -1.415  13.333  1.00  0.00     0.055 A 
ATOM     53  C   UNL     1       9.061  -3.763  13.755  1.00  0.00     0.041 A 
ATOM     54  F   UNL     1      10.547  -5.004  12.438  1.00  0.00    -0.206 F 
ATOM     55  C   UNL     1       8.467  -2.551  14.088  1.00  0.00     0.022 A 
BRANCH  52  56
ATOM     56  S   UNL     1       8.123   0.204  13.830  1.00  0.00     0.124 S 
ATOM     57  O   UNL     1       9.350   0.957  14.058  1.00  0.00    -0.237 OA
ATOM     58  O   UNL     1       7.341   0.589  12.659  1.00  0.00    -0.237 OA
ATOM     59  O   UNL     1       7.341  -0.096  15.028  1.00  0.00    -0.744 OA
ENDBRANCH  52  56
ENDBRANCH  25  49
BRANCH  37  60
ATOM     60  C   UNL     1      16.392   0.434  10.746  1.00  0.00     0.023 A 
ATOM     61  C   UNL     1      16.895   0.207  12.040  1.00  0.00     0.031 A 
ATOM     62  C   UNL     1      16.578   1.710  10.183  1.00  0.00     0.131 A 
ATOM     63  C   UNL     1      17.489   1.258  12.754  1.00  0.00     0.055 A 
ATOM     64  C   UNL     1      17.236   2.730  10.870  1.00  0.00     0.041 A 
ATOM     65  F   UNL     1      16.115   1.989   8.953  1.00  0.00    -0.206 F 
ATOM     66  C   UNL     1      17.680   2.513  12.170  1.00  0.00     0.022 A 
BRANCH  63  67
ATOM     67  S   UNL     1      17.896   1.001  14.504  1.00  0.00     0.124 S 
ATOM     68  O   UNL     1      16.607   0.600  15.059  1.00  0.00    -0.237 OA
ATOM     69  O   UNL     1      18.914  -0.042  14.437  1.00  0.00    -0.237 OA
ATOM     70  O   UNL     1      18.378   2.310  14.940  1.00  0.00    -0.744 OA
ENDBRANCH  63  67
ENDBRANCH  37  60
ENDBRANCH  11  12
ENDBRANCH   4   6
ENDBRANCH   1   2
BRANCH   1  71
ATOM     71  C   UNL     1       8.151  -6.532   0.390  1.00  0.00     0.042 C 
BRANCH  71  72
ATOM     72  C   UNL     1       7.158  -7.093  -0.620  1.00  0.00     0.117 C 
BRANCH  72  73
ATOM     73  N   UNL     1       5.949  -6.284  -0.669  1.00  0.00    -0.356 N 
ATOM     74  C   UNL     1       5.506  -5.371  -1.568  1.00  0.00     0.225 C 
ATOM     75  H   UNL     1       5.341  -6.425   0.092  1.00  0.00     0.163 HD
ATOM     76  O   UNL     1       4.458  -4.777  -1.294  1.00  0.00    -0.275 OA
BRANCH  74  77
ATOM     77  C   UNL     1       6.160  -5.148  -2.914  1.00  0.00     0.107 C 
ATOM     78  C   UNL     1       7.642  -4.797  -2.964  1.00  0.00     0.115 C 
ATOM     79  C   UNL     1       5.998  -6.389  -3.768  1.00  0.00     0.133 C 
ATOM     80  C   UNL     1       8.148  -5.542  -4.177  1.00  0.00     0.223 C 
ATOM     81  N   UNL     1       7.172  -6.426  -4.594  1.00  0.00    -0.338 N 
ATOM     82  O   UNL     1       9.241  -5.378  -4.695  1.00  0.00    -0.275 OA
BRANCH  81  83
ATOM     83  C   UNL     1       7.295  -7.301  -5.750  1.00  0.00     0.155 C 
BRANCH  83  84
ATOM     84  C   UNL     1       7.274  -8.775  -5.405  1.00  0.00    -0.026 A 
ATOM     85  C   UNL     1       6.092  -9.392  -4.969  1.00  0.00     0.006 A 
ATOM     86  C   UNL     1       8.447  -9.540  -5.532  1.00  0.00     0.032 A 
ATOM     87  C   UNL     1       6.059 -10.743  -4.606  1.00  0.00     0.010 A 
ATOM     88  C   UNL     1       8.386 -10.902  -5.204  1.00  0.00     0.046 A 
ATOM     89  C   UNL     1       7.227 -11.514  -4.731  1.00  0.00    -0.001 A 
ATOM     90  N   UNL     1       9.361 -11.874  -5.257  1.00  0.00    -0.361 N 
ATOM     91  C   UNL     1       7.544 -12.876  -4.471  1.00  0.00     0.028 A 
ATOM     92  C   UNL     1       8.861 -13.072  -4.817  1.00  0.00     0.083 A 
ATOM     93  H   UNL     1      10.285 -11.729  -5.566  1.00  0.00     0.166 HD
ENDBRANCH  83  84
ENDBRANCH  81  83
ENDBRANCH  74  77
ENDBRANCH  72  73
ENDBRANCH  71  72
ENDBRANCH   1  71
TORSDOF 15
