REMARK SMILES Cc1ccc(C)c([C@H]2[NH2+][C@@H](C(=O)NCCCNC(=O)c3ccc(-c4c5nc(c(-c6cc(S(=O)(=O)[O-])ccc6F)c6ccc([nH]6)c(-c6cc(S(=O)(=O)[O-])ccc6F)c6nc(c(-c7cc(S(=O)(=O)[O-])ccc7F)c7ccc4[nH]7)C=C6)C=C5)cc3)Cc3c2[nH]c2ccccc32)c1
REMARK SMILES IDX 16 1 15 2 14 3 13 4 11 5 12 6 10 8 8 9 9 10 85 11 84 14
REMARK SMILES IDX 86 15 83 16 92 17 87 18 91 20 88 21 90 22 89 23 7 24 1 25
REMARK SMILES IDX 2 26 3 27 93 28 4 29 5 30 6 31 17 32 18 33 19 35 20 36 21 37
REMARK SMILES IDX 82 38 22 39 81 40 23 41 24 42 25 43 75 44 26 45 80 46 74 47
REMARK SMILES IDX 76 48 27 49 79 50 73 51 72 52 28 54 60 55 40 56 59 57 41 58
REMARK SMILES IDX 44 59 58 60 77 61 42 62 43 63 57 65 78 66 45 67 29 68 30 69
REMARK SMILES IDX 38 70 31 71 37 72 39 73 36 74 32 75 33 76 34 77 35 78 61 79
REMARK SMILES IDX 62 80 70 81 63 82 69 83 71 84 68 85 64 86 65 87 66 88 67 89
REMARK SMILES IDX 46 90 47 91 55 92 48 93 54 94 56 95 53 96 49 97 50 98 51 99
REMARK SMILES IDX 52 100
REMARK H PARENT 13 7 9 12 9 13 86 19 17 34 76 53 44 64
REMARK Flexibility Score: inf
ROOT
ATOM      1  C   UNL     1      -3.188   9.849   0.755  1.00  0.00     0.118 C 
ENDROOT
BRANCH   1   2
ATOM      2  C   UNL     1      -3.046   8.339   0.994  1.00  0.00     0.042 C 
BRANCH   2   3
ATOM      3  C   UNL     1      -3.457   7.426  -0.176  1.00  0.00     0.118 C 
BRANCH   3   4
ATOM      4  N   UNL     1      -2.371   7.190  -1.123  1.00  0.00    -0.351 N 
ATOM      5  C   UNL     1      -1.339   6.310  -1.186  1.00  0.00     0.278 C 
ATOM      6  O   UNL     1      -0.620   6.398  -2.191  1.00  0.00    -0.268 OA
ATOM      7  H   UNL     1      -2.392   7.809  -1.888  1.00  0.00     0.163 HD
BRANCH   5   8
ATOM      8  C   UNL     1      -1.072   5.160  -0.197  1.00  0.00     0.277 C 
ATOM      9  C   UNL     1      -1.397   2.661  -0.115  1.00  0.00     0.262 C 
ATOM     10  N   UNL     1      -1.632   3.943  -0.811  1.00  0.00    -0.325 N 
ATOM     11  C   UNL     1      -1.473   2.884   1.388  1.00  0.00     0.083 A 
ATOM     12  H   UNL     1      -2.642   4.073  -0.882  1.00  0.00     0.347 HD
ATOM     13  H   UNL     1      -1.143   3.851  -1.701  1.00  0.00     0.347 HD
ATOM     14  C   UNL     1      -1.483   4.122   1.998  1.00  0.00    -0.006 A 
ATOM     15  N   UNL     1      -1.419   1.957   2.407  1.00  0.00    -0.353 N 
ATOM     16  C   UNL     1      -1.554   5.377   1.228  1.00  0.00     0.114 C 
ATOM     17  C   UNL     1      -1.500   3.970   3.393  1.00  0.00     0.003 A 
ATOM     18  C   UNL     1      -1.463   2.600   3.641  1.00  0.00     0.046 A 
ATOM     19  H   UNL     1      -1.359   0.982   2.280  1.00  0.00     0.166 HD
ATOM     20  C   UNL     1      -1.555   4.889   4.457  1.00  0.00     0.010 A 
ATOM     21  C   UNL     1      -1.476   2.109   4.955  1.00  0.00     0.026 A 
ATOM     22  C   UNL     1      -1.576   4.414   5.764  1.00  0.00     0.001 A 
ATOM     23  C   UNL     1      -1.537   3.043   6.006  1.00  0.00     0.002 A 
BRANCH   9  24
ATOM     24  C   UNL     1      -2.392   1.692  -0.779  1.00  0.00     0.019 A 
ATOM     25  C   UNL     1      -6.009   0.521  -0.256  1.00  0.00     0.044 C 
ATOM     26  C   UNL     1      -4.670   0.770  -0.884  1.00  0.00    -0.051 A 
ATOM     27  C   UNL     1      -4.480   0.437  -2.226  1.00  0.00     0.004 A 
ATOM     28  C   UNL     1      -3.634   1.403  -0.175  1.00  0.00     0.014 A 
ATOM     29  C   UNL     1      -3.259   0.686  -2.841  1.00  0.00     0.004 A 
ATOM     30  C   UNL     1      -2.200   1.284  -2.134  1.00  0.00    -0.042 A 
ATOM     31  C   UNL     1      -0.964   1.598  -2.945  1.00  0.00     0.045 C 
ENDBRANCH   9  24
ENDBRANCH   5   8
ENDBRANCH   3   4
ENDBRANCH   2   3
ENDBRANCH   1   2
BRANCH   1  32
ATOM     32  N   UNL     1      -4.577  10.264   0.526  1.00  0.00    -0.352 N 
ATOM     33  C   UNL     1      -5.155  11.074  -0.445  1.00  0.00     0.251 C 
ATOM     34  H   UNL     1      -5.218   9.903   1.180  1.00  0.00     0.163 HD
ATOM     35  O   UNL     1      -6.261  11.551  -0.243  1.00  0.00    -0.269 OA
BRANCH  33  36
ATOM     36  C   UNL     1      -4.438  11.345  -1.714  1.00  0.00     0.039 A 
ATOM     37  C   UNL     1      -4.672  12.471  -2.504  1.00  0.00     0.014 A 
ATOM     38  C   UNL     1      -3.473  10.437  -2.111  1.00  0.00     0.014 A 
ATOM     39  C   UNL     1      -3.902  12.647  -3.660  1.00  0.00     0.010 A 
ATOM     40  C   UNL     1      -2.537  10.755  -3.045  1.00  0.00     0.010 A 
ATOM     41  C   UNL     1      -2.827  11.774  -3.918  1.00  0.00    -0.014 A 
BRANCH  41  42
ATOM     42  C   UNL     1      -1.848  11.991  -4.971  1.00  0.00     0.031 A 
ATOM     43  C   UNL     1      -1.183  13.297  -4.819  1.00  0.00     0.074 A 
ATOM     44  C   UNL     1      -1.388  11.046  -5.823  1.00  0.00     0.049 A 
ATOM     45  N   UNL     1      -1.547  14.397  -5.383  1.00  0.00    -0.248 NA
ATOM     46  C   UNL     1      -0.222  13.483  -3.718  1.00  0.00     0.031 C 
ATOM     47  C   UNL     1      -1.696   9.613  -5.865  1.00  0.00     0.029 A 
ATOM     48  N   UNL     1      -0.458  11.172  -6.811  1.00  0.00    -0.354 N 
ATOM     49  C   UNL     1      -0.618  15.334  -4.967  1.00  0.00     0.074 A 
ATOM     50  C   UNL     1      -0.081  14.812  -3.742  1.00  0.00     0.031 C 
ATOM     51  C   UNL     1      -0.821   8.982  -6.687  1.00  0.00     0.029 A 
ATOM     52  C   UNL     1       0.024   9.972  -7.338  1.00  0.00     0.049 A 
ATOM     53  H   UNL     1      -0.148  12.049  -7.132  1.00  0.00     0.167 HD
ATOM     54  C   UNL     1      -0.136  16.251  -5.851  1.00  0.00     0.034 A 
ATOM     55  C   UNL     1       1.055   9.811  -8.221  1.00  0.00     0.034 A 
ATOM     56  C   UNL     1      -0.930  16.240  -7.073  1.00  0.00     0.049 A 
ATOM     57  C   UNL     1       1.210  11.114  -8.925  1.00  0.00     0.074 A 
ATOM     58  C   UNL     1      -2.285  16.343  -7.340  1.00  0.00     0.029 A 
ATOM     59  N   UNL     1      -0.382  15.654  -8.198  1.00  0.00    -0.354 N 
ATOM     60  N   UNL     1       0.302  11.600  -9.729  1.00  0.00    -0.248 NA
ATOM     61  C   UNL     1       2.092  12.107  -8.326  1.00  0.00     0.031 C 
ATOM     62  C   UNL     1      -2.538  15.357  -8.341  1.00  0.00     0.029 A 
ATOM     63  C   UNL     1      -1.319  14.803  -8.735  1.00  0.00     0.049 A 
ATOM     64  H   UNL     1       0.522  15.817  -8.553  1.00  0.00     0.167 HD
ATOM     65  C   UNL     1       0.192  12.938  -9.380  1.00  0.00     0.074 A 
ATOM     66  C   UNL     1       1.384  13.214  -8.574  1.00  0.00     0.031 C 
ATOM     67  C   UNL     1      -0.990  13.614  -9.507  1.00  0.00     0.034 A 
BRANCH  54  68
ATOM     68  C   UNL     1       1.261  16.833  -5.815  1.00  0.00     0.023 A 
ATOM     69  C   UNL     1       1.582  17.727  -6.851  1.00  0.00     0.031 A 
ATOM     70  C   UNL     1       2.353  16.383  -5.038  1.00  0.00     0.131 A 
ATOM     71  C   UNL     1       2.917  18.008  -7.176  1.00  0.00     0.055 A 
ATOM     72  C   UNL     1       3.679  16.724  -5.321  1.00  0.00     0.041 A 
ATOM     73  F   UNL     1       2.230  15.534  -4.014  1.00  0.00    -0.206 F 
ATOM     74  C   UNL     1       3.972  17.508  -6.421  1.00  0.00     0.022 A 
BRANCH  71  75
ATOM     75  S   UNL     1       3.240  18.881  -8.724  1.00  0.00     0.124 S 
ATOM     76  O   UNL     1       2.584  18.003  -9.687  1.00  0.00    -0.237 OA
ATOM     77  O   UNL     1       2.595  20.168  -8.480  1.00  0.00    -0.237 OA
ATOM     78  O   UNL     1       4.698  18.916  -8.794  1.00  0.00    -0.744 OA
ENDBRANCH  71  75
ENDBRANCH  54  68
BRANCH  55  79
ATOM     79  C   UNL     1       2.078   8.716  -8.284  1.00  0.00     0.023 A 
ATOM     80  C   UNL     1       2.945   8.504  -9.387  1.00  0.00     0.031 A 
ATOM     81  C   UNL     1       2.389   7.996  -7.108  1.00  0.00     0.131 A 
ATOM     82  C   UNL     1       4.050   7.617  -9.279  1.00  0.00     0.055 A 
ATOM     83  C   UNL     1       3.478   7.124  -7.008  1.00  0.00     0.041 A 
ATOM     84  F   UNL     1       1.695   8.183  -5.976  1.00  0.00    -0.206 F 
ATOM     85  C   UNL     1       4.320   6.939  -8.089  1.00  0.00     0.022 A 
BRANCH  82  86
ATOM     86  S   UNL     1       5.231   7.390 -10.659  1.00  0.00     0.124 S 
ATOM     87  O   UNL     1       4.434   6.662 -11.638  1.00  0.00    -0.237 OA
ATOM     88  O   UNL     1       5.589   8.762 -11.000  1.00  0.00    -0.237 OA
ATOM     89  O   UNL     1       6.317   6.612 -10.056  1.00  0.00    -0.744 OA
ENDBRANCH  82  86
ENDBRANCH  55  79
BRANCH  67  90
ATOM     90  C   UNL     1      -2.102  13.014 -10.353  1.00  0.00     0.023 A 
ATOM     91  C   UNL     1      -2.631  11.708 -10.223  1.00  0.00     0.031 A 
ATOM     92  C   UNL     1      -2.724  13.870 -11.282  1.00  0.00     0.131 A 
ATOM     93  C   UNL     1      -3.727  11.307 -11.017  1.00  0.00     0.055 A 
ATOM     94  C   UNL     1      -3.824  13.480 -12.043  1.00  0.00     0.041 A 
ATOM     95  F   UNL     1      -2.286  15.130 -11.449  1.00  0.00    -0.206 F 
ATOM     96  C   UNL     1      -4.325  12.192 -11.919  1.00  0.00     0.022 A 
BRANCH  93  97
ATOM     97  S   UNL     1      -4.381   9.606 -10.932  1.00  0.00     0.124 S 
ATOM     98  O   UNL     1      -3.182   8.778 -10.883  1.00  0.00    -0.237 OA
ATOM     99  O   UNL     1      -5.186   9.640  -9.714  1.00  0.00    -0.237 OA
ATOM    100  O   UNL     1      -5.156   9.481 -12.169  1.00  0.00    -0.744 OA
ENDBRANCH  93  97
ENDBRANCH  67  90
ENDBRANCH  41  42
ENDBRANCH  33  36
ENDBRANCH   1  32
TORSDOF 14
