REMARK SMILES O=C(CC[C@@H]1CN(c2ccncc2)CC[C@@H]1[NH+]1CCOCC1)NCCCNC(=O)c1ccc(-c2c3nc(c(-c4cc(S(=O)(=O)[O-])ccc4F)c4ccc([nH]4)c(-c4cc(S(=O)(=O)[O-])ccc4F)c4nc(c(-c5cc(S(=O)(=O)[O-])ccc5F)c5ccc2[nH]5)C=C4)C=C3)cc1
REMARK SMILES IDX 25 1 24 2 23 3 1 4 2 5 3 7 4 8 5 9 6 10 16 11 7 12 15 13
REMARK SMILES IDX 14 14 17 15 18 16 22 17 19 19 21 20 20 21 8 22 9 23 13 24
REMARK SMILES IDX 10 25 12 26 11 27 26 28 27 29 28 30 29 32 30 33 31 34 92 35
REMARK SMILES IDX 32 36 91 37 33 38 34 39 35 40 85 41 36 42 90 43 84 44 86 45
REMARK SMILES IDX 37 46 89 47 83 48 82 49 38 51 70 52 50 53 69 54 51 55 54 56
REMARK SMILES IDX 68 57 87 58 52 59 53 60 67 62 88 63 55 64 39 65 40 66 48 67
REMARK SMILES IDX 41 68 47 69 49 70 46 71 42 72 43 73 44 74 45 75 71 76 72 77
REMARK SMILES IDX 80 78 73 79 79 80 81 81 78 82 74 83 75 84 76 85 77 86 56 87
REMARK SMILES IDX 57 88 65 89 58 90 64 91 66 92 63 93 59 94 60 95 61 96 62 97
REMARK H PARENT 23 6 17 18 27 31 86 50 54 61
REMARK Flexibility Score: inf
ROOT
ATOM      1  C   UNL     1       1.902  -1.673   3.030  1.00  0.00     0.042 C 
ENDROOT
BRANCH   1   2
ATOM      2  C   UNL     1       2.790  -2.209   1.905  1.00  0.00     0.117 C 
BRANCH   2   3
ATOM      3  N   UNL     1       4.056  -1.516   1.793  1.00  0.00    -0.356 N 
ATOM      4  O   UNL     1       4.994  -2.890   0.212  1.00  0.00    -0.275 OA
ATOM      5  C   UNL     1       5.036  -1.878   0.898  1.00  0.00     0.220 C 
ATOM      6  H   UNL     1       4.224  -0.749   2.386  1.00  0.00     0.163 HD
BRANCH   5   7
ATOM      7  C   UNL     1       6.181  -0.886   0.825  1.00  0.00     0.100 C 
BRANCH   7   8
ATOM      8  C   UNL     1       6.086   0.101  -0.344  1.00  0.00     0.021 C 
BRANCH   8   9
ATOM      9  C   UNL     1       4.926   1.140  -0.439  1.00  0.00     0.067 C 
ATOM     10  C   UNL     1       5.350   2.291  -1.391  1.00  0.00     0.126 C 
ATOM     11  C   UNL     1       4.253   1.640   0.883  1.00  0.00     0.190 C 
ATOM     12  N   UNL     1       4.292   3.296  -1.525  1.00  0.00    -0.371 N 
ATOM     13  C   UNL     1       3.209   2.722   0.569  1.00  0.00     0.087 C 
ATOM     14  C   UNL     1       3.731   3.846  -0.300  1.00  0.00     0.122 C 
BRANCH  11  15
ATOM     15  N   UNL     1       5.150   1.850   2.034  1.00  0.00    -0.328 N 
ATOM     16  C   UNL     1       4.564   1.658   3.380  1.00  0.00     0.291 C 
ATOM     17  C   UNL     1       6.020   3.032   2.056  1.00  0.00     0.291 C 
ATOM     18  H   UNL     1       5.759   1.060   1.821  1.00  0.00     0.348 HD
ATOM     19  C   UNL     1       4.010   2.911   4.063  1.00  0.00     0.221 C 
ATOM     20  C   UNL     1       5.451   4.256   2.801  1.00  0.00     0.221 C 
ATOM     21  O   UNL     1       5.016   3.922   4.122  1.00  0.00    -0.370 OA
ENDBRANCH  11  15
BRANCH  12  22
ATOM     22  C   UNL     1       4.299   4.138  -2.637  1.00  0.00     0.040 A 
ATOM     23  C   UNL     1       4.492   5.521  -2.534  1.00  0.00     0.046 A 
ATOM     24  C   UNL     1       4.010   3.627  -3.901  1.00  0.00     0.046 A 
ATOM     25  C   UNL     1       4.355   6.316  -3.662  1.00  0.00     0.113 A 
ATOM     26  C   UNL     1       3.882   4.502  -4.972  1.00  0.00     0.113 A 
ATOM     27  N   UNL     1       4.056   5.837  -4.885  1.00  0.00    -0.265 NA
ENDBRANCH  12  22
ENDBRANCH   8   9
ENDBRANCH   7   8
ENDBRANCH   5   7
ENDBRANCH   2   3
ENDBRANCH   1   2
BRANCH   1  28
ATOM     28  C   UNL     1       1.263  -0.300   2.813  1.00  0.00     0.118 C 
BRANCH  28  29
ATOM     29  N   UNL     1       0.263  -0.246   1.770  1.00  0.00    -0.352 N 
ATOM     30  C   UNL     1      -0.946   0.414   1.742  1.00  0.00     0.251 C 
ATOM     31  H   UNL     1       0.478  -0.759   0.957  1.00  0.00     0.163 HD
ATOM     32  O   UNL     1      -1.658   0.296   0.751  1.00  0.00    -0.269 OA
BRANCH  30  33
ATOM     33  C   UNL     1      -1.424   1.217   2.901  1.00  0.00     0.039 A 
ATOM     34  C   UNL     1      -2.765   1.080   3.274  1.00  0.00     0.014 A 
ATOM     35  C   UNL     1      -0.609   2.112   3.602  1.00  0.00     0.014 A 
ATOM     36  C   UNL     1      -3.267   1.783   4.374  1.00  0.00     0.010 A 
ATOM     37  C   UNL     1      -1.096   2.766   4.744  1.00  0.00     0.010 A 
ATOM     38  C   UNL     1      -2.430   2.604   5.150  1.00  0.00    -0.014 A 
BRANCH  38  39
ATOM     39  C   UNL     1      -2.961   3.246   6.391  1.00  0.00     0.031 A 
ATOM     40  C   UNL     1      -3.063   4.744   6.521  1.00  0.00     0.074 A 
ATOM     41  C   UNL     1      -3.365   2.465   7.416  1.00  0.00     0.049 A 
ATOM     42  N   UNL     1      -3.559   5.457   7.502  1.00  0.00    -0.248 NA
ATOM     43  C   UNL     1      -2.516   5.545   5.418  1.00  0.00     0.031 C 
ATOM     44  C   UNL     1      -3.276   1.003   7.443  1.00  0.00     0.029 A 
ATOM     45  N   UNL     1      -3.942   2.781   8.622  1.00  0.00    -0.354 N 
ATOM     46  C   UNL     1      -3.390   6.789   7.135  1.00  0.00     0.074 A 
ATOM     47  C   UNL     1      -2.683   6.779   5.870  1.00  0.00     0.031 C 
ATOM     48  C   UNL     1      -3.825   0.549   8.581  1.00  0.00     0.029 A 
ATOM     49  C   UNL     1      -4.265   1.682   9.387  1.00  0.00     0.049 A 
ATOM     50  H   UNL     1      -4.110   3.706   8.912  1.00  0.00     0.167 HD
ATOM     51  C   UNL     1      -3.806   7.913   7.776  1.00  0.00     0.034 A 
ATOM     52  C   UNL     1      -4.850   1.590  10.599  1.00  0.00     0.034 A 
ATOM     53  C   UNL     1      -4.507   7.912   9.040  1.00  0.00     0.049 A 
ATOM     54  C   UNL     1      -5.287   2.853  11.298  1.00  0.00     0.074 A 
ATOM     55  C   UNL     1      -5.009   8.992   9.749  1.00  0.00     0.029 A 
ATOM     56  N   UNL     1      -4.797   6.782   9.795  1.00  0.00    -0.354 N 
ATOM     57  N   UNL     1      -5.175   4.100  10.902  1.00  0.00    -0.248 NA
ATOM     58  C   UNL     1      -5.949   2.690  12.598  1.00  0.00     0.031 C 
ATOM     59  C   UNL     1      -5.526   8.524  10.963  1.00  0.00     0.029 A 
ATOM     60  C   UNL     1      -5.438   7.142  10.974  1.00  0.00     0.049 A 
ATOM     61  H   UNL     1      -4.580   5.858   9.532  1.00  0.00     0.167 HD
ATOM     62  C   UNL     1      -5.784   4.867  11.893  1.00  0.00     0.074 A 
ATOM     63  C   UNL     1      -6.285   3.937  12.885  1.00  0.00     0.031 C 
ATOM     64  C   UNL     1      -5.917   6.216  11.975  1.00  0.00     0.034 A 
BRANCH  51  65
ATOM     65  C   UNL     1      -3.487   9.244   7.129  1.00  0.00     0.023 A 
ATOM     66  C   UNL     1      -3.991   9.591   5.862  1.00  0.00     0.031 A 
ATOM     67  C   UNL     1      -2.659  10.177   7.781  1.00  0.00     0.131 A 
ATOM     68  C   UNL     1      -3.603  10.797   5.258  1.00  0.00     0.055 A 
ATOM     69  C   UNL     1      -2.349  11.414   7.211  1.00  0.00     0.041 A 
ATOM     70  F   UNL     1      -2.130   9.899   8.982  1.00  0.00    -0.206 F 
ATOM     71  C   UNL     1      -2.808  11.724   5.935  1.00  0.00     0.022 A 
BRANCH  68  72
ATOM     72  S   UNL     1      -4.024  11.066   3.514  1.00  0.00     0.124 S 
ATOM     73  O   UNL     1      -3.400   9.908   2.878  1.00  0.00    -0.237 OA
ATOM     74  O   UNL     1      -5.482  11.074   3.539  1.00  0.00    -0.237 OA
ATOM     75  O   UNL     1      -3.397  12.350   3.204  1.00  0.00    -0.744 OA
ENDBRANCH  68  72
ENDBRANCH  51  65
BRANCH  52  76
ATOM     76  C   UNL     1      -5.062   0.257  11.239  1.00  0.00     0.023 A 
ATOM     77  C   UNL     1      -6.353  -0.217  11.525  1.00  0.00     0.031 A 
ATOM     78  C   UNL     1      -3.970  -0.540  11.624  1.00  0.00     0.131 A 
ATOM     79  C   UNL     1      -6.518  -1.424  12.224  1.00  0.00     0.055 A 
ATOM     80  C   UNL     1      -4.140  -1.769  12.263  1.00  0.00     0.041 A 
ATOM     81  F   UNL     1      -2.713  -0.137  11.374  1.00  0.00    -0.206 F 
ATOM     82  C   UNL     1      -5.420  -2.211  12.580  1.00  0.00     0.022 A 
BRANCH  79  83
ATOM     83  S   UNL     1      -8.186  -1.905  12.750  1.00  0.00     0.124 S 
ATOM     84  O   UNL     1      -8.584  -0.759  13.560  1.00  0.00    -0.237 OA
ATOM     85  O   UNL     1      -8.874  -2.058  11.472  1.00  0.00    -0.237 OA
ATOM     86  O   UNL     1      -7.965  -3.146  13.489  1.00  0.00    -0.744 OA
ENDBRANCH  79  83
ENDBRANCH  52  76
BRANCH  64  87
ATOM     87  C   UNL     1      -6.677   6.757  13.167  1.00  0.00     0.023 A 
ATOM     88  C   UNL     1      -6.230   6.557  14.486  1.00  0.00     0.031 A 
ATOM     89  C   UNL     1      -7.899   7.430  12.986  1.00  0.00     0.131 A 
ATOM     90  C   UNL     1      -7.041   6.934  15.568  1.00  0.00     0.055 A 
ATOM     91  C   UNL     1      -8.662   7.878  14.066  1.00  0.00     0.041 A 
ATOM     92  F   UNL     1      -8.383   7.650  11.753  1.00  0.00    -0.206 F 
ATOM     93  C   UNL     1      -8.245   7.611  15.366  1.00  0.00     0.022 A 
BRANCH  90  94
ATOM     94  S   UNL     1      -6.574   6.388  17.234  1.00  0.00     0.124 S 
ATOM     95  O   UNL     1      -6.451   4.945  17.056  1.00  0.00    -0.237 OA
ATOM     96  O   UNL     1      -5.327   7.111  17.461  1.00  0.00    -0.237 OA
ATOM     97  O   UNL     1      -7.699   6.817  18.063  1.00  0.00    -0.744 OA
ENDBRANCH  90  94
ENDBRANCH  64  87
ENDBRANCH  38  39
ENDBRANCH  30  33
ENDBRANCH  28  29
ENDBRANCH   1  28
TORSDOF 17
