REMARK SMILES Cc1[nH]cnc1C[NH+]1CCC(Oc2cccc(F)c2)(C(=O)NCCCNC(=O)c2ccc(-c3c4nc(c(-c5cc(S(=O)(=O)[O-])ccc5F)c5ccc([nH]5)c(-c5cc(S(=O)(=O)[O-])ccc5F)c5nc(c(-c6cc(S(=O)(=O)[O-])ccc6F)c6ccc3[nH]6)C=C5)C=C4)cc2)CC1
REMARK SMILES IDX 24 1 23 2 22 3 20 4 21 5 11 7 8 8 9 9 93 10 10 12 92 13 7 14
REMARK SMILES IDX 6 15 1 16 2 17 3 18 4 19 5 21 12 22 13 23 14 24 19 25 15 26
REMARK SMILES IDX 17 27 16 28 18 29 25 30 26 31 27 32 28 34 29 35 30 36 91 37
REMARK SMILES IDX 31 38 90 39 32 40 33 41 34 42 84 43 35 44 89 45 83 46 85 47
REMARK SMILES IDX 36 48 88 49 82 50 81 51 37 53 69 54 49 55 68 56 50 57 53 58
REMARK SMILES IDX 67 59 86 60 51 61 52 62 66 64 87 65 54 66 38 67 39 68 47 69
REMARK SMILES IDX 40 70 46 71 48 72 45 73 41 74 42 75 43 76 44 77 70 78 71 79
REMARK SMILES IDX 79 80 72 81 78 82 80 83 77 84 73 85 74 86 75 87 76 88 55 89
REMARK SMILES IDX 56 90 64 91 57 92 63 93 65 94 62 95 58 96 59 97 60 98 61 99
REMARK H PARENT 22 6 8 11 3 20 26 33 85 52 53 63
REMARK Flexibility Score: inf
ROOT
ATOM      1  C   UNL     1       0.067  -1.421   6.575  1.00  0.00     0.042 C 
ENDROOT
BRANCH   1   2
ATOM      2  C   UNL     1      -1.238  -2.183   6.373  1.00  0.00     0.118 C 
BRANCH   2   3
ATOM      3  N   UNL     1      -2.019  -1.653   5.269  1.00  0.00    -0.353 N 
ATOM      4  C   UNL     1      -2.388  -2.219   4.080  1.00  0.00     0.264 C 
ATOM      5  O   UNL     1      -3.211  -1.576   3.420  1.00  0.00    -0.270 OA
ATOM      6  H   UNL     1      -2.337  -0.731   5.399  1.00  0.00     0.163 HD
BRANCH   4   7
ATOM      7  C   UNL     1      -1.816  -3.589   3.607  1.00  0.00     0.197 C 
ATOM      8  N   UNL     1      -0.483  -3.130   1.037  1.00  0.00    -0.330 N 
ATOM      9  C   UNL     1       0.109  -2.611   2.270  1.00  0.00     0.267 C 
ATOM     10  C   UNL     1      -1.950  -3.117   1.094  1.00  0.00     0.267 C 
ATOM     11  H   UNL     1      -0.196  -4.106   0.964  1.00  0.00     0.348 HD
ATOM     12  C   UNL     1      -0.289  -3.516   3.432  1.00  0.00     0.120 C 
ATOM     13  C   UNL     1      -2.460  -3.979   2.257  1.00  0.00     0.120 C 
BRANCH   8  14
ATOM     14  C   UNL     1       0.042  -2.468  -0.176  1.00  0.00     0.321 C 
BRANCH  14  15
ATOM     15  C   UNL     1      -0.119  -0.974  -0.192  1.00  0.00     0.115 A 
ATOM     16  C   UNL     1       2.314  -0.014   0.085  1.00  0.00     0.066 C 
ATOM     17  C   UNL     1       0.842   0.017  -0.066  1.00  0.00     0.040 A 
ATOM     18  N   UNL     1       0.139   1.197  -0.099  1.00  0.00    -0.348 N 
ATOM     19  C   UNL     1      -1.178   0.893  -0.275  1.00  0.00     0.197 A 
ATOM     20  H   UNL     1       0.519   2.101  -0.010  1.00  0.00     0.167 HD
ATOM     21  N   UNL     1      -1.363  -0.401  -0.368  1.00  0.00    -0.236 NA
ENDBRANCH  14  15
ENDBRANCH   8  14
BRANCH   7  22
ATOM     22  O   UNL     1      -2.262  -4.453   4.688  1.00  0.00    -0.477 OA
BRANCH  22  23
ATOM     23  C   UNL     1      -2.035  -5.791   4.586  1.00  0.00     0.123 A 
ATOM     24  C   UNL     1      -0.783  -6.340   4.861  1.00  0.00     0.046 A 
ATOM     25  C   UNL     1      -3.127  -6.622   4.355  1.00  0.00     0.085 A 
ATOM     26  C   UNL     1      -0.596  -7.722   4.801  1.00  0.00     0.007 A 
ATOM     27  C   UNL     1      -2.937  -7.997   4.316  1.00  0.00     0.126 A 
ATOM     28  C   UNL     1      -1.679  -8.554   4.521  1.00  0.00     0.039 A 
ATOM     29  F   UNL     1      -3.983  -8.802   4.088  1.00  0.00    -0.207 F 
ENDBRANCH  22  23
ENDBRANCH   7  22
ENDBRANCH   4   7
ENDBRANCH   2   3
ENDBRANCH   1   2
BRANCH   1  30
ATOM     30  C   UNL     1      -0.117   0.039   6.968  1.00  0.00     0.118 C 
BRANCH  30  31
ATOM     31  N   UNL     1      -0.751   0.194   8.269  1.00  0.00    -0.352 N 
ATOM     32  C   UNL     1      -0.268   0.751   9.425  1.00  0.00     0.251 C 
ATOM     33  H   UNL     1      -1.669  -0.155   8.328  1.00  0.00     0.163 HD
ATOM     34  O   UNL     1      -0.899   0.595  10.473  1.00  0.00    -0.269 OA
BRANCH  32  35
ATOM     35  C   UNL     1       1.002   1.510   9.432  1.00  0.00     0.039 A 
ATOM     36  C   UNL     1       1.886   1.337  10.501  1.00  0.00     0.014 A 
ATOM     37  C   UNL     1       1.316   2.410   8.410  1.00  0.00     0.014 A 
ATOM     38  C   UNL     1       3.110   2.011  10.508  1.00  0.00     0.010 A 
ATOM     39  C   UNL     1       2.569   3.019   8.378  1.00  0.00     0.010 A 
ATOM     40  C   UNL     1       3.480   2.827   9.427  1.00  0.00    -0.014 A 
BRANCH  40  41
ATOM     41  C   UNL     1       4.812   3.484   9.376  1.00  0.00     0.031 A 
ATOM     42  C   UNL     1       4.917   4.986   9.376  1.00  0.00     0.074 A 
ATOM     43  C   UNL     1       5.925   2.729   9.282  1.00  0.00     0.049 A 
ATOM     44  N   UNL     1       5.980   5.738   9.249  1.00  0.00    -0.248 NA
ATOM     45  C   UNL     1       3.661   5.740   9.514  1.00  0.00     0.031 C 
ATOM     46  C   UNL     1       5.953   1.265   9.251  1.00  0.00     0.029 A 
ATOM     47  N   UNL     1       7.248   3.086   9.196  1.00  0.00    -0.354 N 
ATOM     48  C   UNL     1       5.523   7.050   9.282  1.00  0.00     0.074 A 
ATOM     49  C   UNL     1       4.081   6.991   9.389  1.00  0.00     0.031 C 
ATOM     50  C   UNL     1       7.228   0.850   9.191  1.00  0.00     0.029 A 
ATOM     51  C   UNL     1       8.107   2.013   9.125  1.00  0.00     0.049 A 
ATOM     52  H   UNL     1       7.554   4.021   9.185  1.00  0.00     0.167 HD
ATOM     53  C   UNL     1       6.242   8.198   9.249  1.00  0.00     0.034 A 
ATOM     54  C   UNL     1       9.449   1.967   9.009  1.00  0.00     0.034 A 
ATOM     55  C   UNL     1       7.680   8.246   9.170  1.00  0.00     0.049 A 
ATOM     56  C   UNL     1      10.224   3.256   8.941  1.00  0.00     0.074 A 
ATOM     57  C   UNL     1       8.502   9.359   9.179  1.00  0.00     0.029 A 
ATOM     58  N   UNL     1       8.509   7.138   9.072  1.00  0.00    -0.354 N 
ATOM     59  N   UNL     1       9.773   4.488   8.972  1.00  0.00    -0.248 NA
ATOM     60  C   UNL     1      11.684   3.151   8.818  1.00  0.00     0.031 C 
ATOM     61  C   UNL     1       9.823   8.929   9.023  1.00  0.00     0.029 A 
ATOM     62  C   UNL     1       9.832   7.543   8.989  1.00  0.00     0.049 A 
ATOM     63  H   UNL     1       8.204   6.203   9.062  1.00  0.00     0.167 HD
ATOM     64  C   UNL     1      10.896   5.305   8.895  1.00  0.00     0.074 A 
ATOM     65  C   UNL     1      12.046   4.427   8.818  1.00  0.00     0.031 C 
ATOM     66  C   UNL     1      10.968   6.659   8.897  1.00  0.00     0.034 A 
BRANCH  53  67
ATOM     67  C   UNL     1       5.486   9.501   9.287  1.00  0.00     0.023 A 
ATOM     68  C   UNL     1       4.785   9.910  10.433  1.00  0.00     0.031 A 
ATOM     69  C   UNL     1       5.495  10.359   8.173  1.00  0.00     0.131 A 
ATOM     70  C   UNL     1       4.085  11.126  10.426  1.00  0.00     0.055 A 
ATOM     71  C   UNL     1       4.851  11.597   8.195  1.00  0.00     0.041 A 
ATOM     72  F   UNL     1       6.134  10.008   7.046  1.00  0.00    -0.206 F 
ATOM     73  C   UNL     1       4.135  11.984   9.325  1.00  0.00     0.022 A 
BRANCH  70  74
ATOM     74  S   UNL     1       3.045  11.539  11.852  1.00  0.00     0.124 S 
ATOM     75  O   UNL     1       2.031  10.488  11.789  1.00  0.00    -0.237 OA
ATOM     76  O   UNL     1       3.983  11.454  12.965  1.00  0.00    -0.237 OA
ATOM     77  O   UNL     1       2.561  12.883  11.546  1.00  0.00    -0.744 OA
ENDBRANCH  70  74
ENDBRANCH  53  67
BRANCH  54  78
ATOM     78  C   UNL     1      10.144   0.652   8.942  1.00  0.00     0.023 A 
ATOM     79  C   UNL     1      10.951   0.208  10.001  1.00  0.00     0.031 A 
ATOM     80  C   UNL     1       9.999  -0.185   7.822  1.00  0.00     0.131 A 
ATOM     81  C   UNL     1      11.600  -1.033   9.909  1.00  0.00     0.055 A 
ATOM     82  C   UNL     1      10.616  -1.435   7.752  1.00  0.00     0.041 A 
ATOM     83  F   UNL     1       9.229   0.192   6.788  1.00  0.00    -0.206 F 
ATOM     84  C   UNL     1      11.427  -1.863   8.798  1.00  0.00     0.022 A 
BRANCH  81  85
ATOM     85  S   UNL     1      12.699  -1.544  11.259  1.00  0.00     0.124 S 
ATOM     86  O   UNL     1      13.752  -0.538  11.180  1.00  0.00    -0.237 OA
ATOM     87  O   UNL     1      11.816  -1.462  12.418  1.00  0.00    -0.237 OA
ATOM     88  O   UNL     1      13.097  -2.897  10.878  1.00  0.00    -0.744 OA
ENDBRANCH  81  85
ENDBRANCH  54  78
BRANCH  66  89
ATOM     89  C   UNL     1      12.336   7.284   8.841  1.00  0.00     0.023 A 
ATOM     90  C   UNL     1      13.105   7.265   7.667  1.00  0.00     0.031 A 
ATOM     91  C   UNL     1      12.850   7.956   9.965  1.00  0.00     0.131 A 
ATOM     92  C   UNL     1      14.362   7.888   7.648  1.00  0.00     0.055 A 
ATOM     93  C   UNL     1      14.079   8.613   9.927  1.00  0.00     0.041 A 
ATOM     94  F   UNL     1      12.150   8.005  11.110  1.00  0.00    -0.206 F 
ATOM     95  C   UNL     1      14.845   8.577   8.765  1.00  0.00     0.022 A 
BRANCH  92  96
ATOM     96  S   UNL     1      15.376   7.764   6.150  1.00  0.00     0.124 S 
ATOM     97  O   UNL     1      15.648   6.332   6.088  1.00  0.00    -0.237 OA
ATOM     98  O   UNL     1      14.483   8.287   5.120  1.00  0.00    -0.237 OA
ATOM     99  O   UNL     1      16.534   8.604   6.448  1.00  0.00    -0.744 OA
ENDBRANCH  92  96
ENDBRANCH  66  89
ENDBRANCH  40  41
ENDBRANCH  32  35
ENDBRANCH  30  31
ENDBRANCH   1  30
TORSDOF 17
