REMARK SMILES COc1cc(Br)c(OC)c(C(=O)NCCC(=O)NCCCNC(=O)c2ccc(-c3c4nc(c(-c5cc(S(=O)(=O)[O-])ccc5F)c5ccc([nH]5)c(-c5cc(S(=O)(=O)[O-])ccc5F)c5nc(c(-c6cc(S(=O)(=O)[O-])ccc6F)c6ccc3[nH]6)C=C5)C=C4)cc2)c1
REMARK SMILES IDX 19 1 18 2 16 3 17 4 15 6 14 7 13 8 11 9 12 10 10 12 3 13
REMARK SMILES IDX 4 14 88 15 5 16 6 17 7 18 2 19 1 20 8 21 9 22 20 23 21 24
REMARK SMILES IDX 22 25 23 26 24 28 25 29 26 30 87 31 27 32 86 33 28 34 29 35
REMARK SMILES IDX 30 36 80 37 31 38 85 39 79 40 81 41 32 42 84 43 78 44 77 45
REMARK SMILES IDX 33 47 65 48 45 49 64 50 46 51 49 52 63 53 82 54 47 55 48 56
REMARK SMILES IDX 62 58 83 59 50 60 34 61 35 62 43 63 36 64 42 65 44 66 41 67
REMARK SMILES IDX 37 68 38 69 39 70 40 71 66 72 67 73 75 74 68 75 74 76 76 77
REMARK SMILES IDX 73 78 69 79 70 80 71 81 72 82 51 83 52 84 60 85 53 86 59 87
REMARK SMILES IDX 61 88 58 89 54 90 55 91 56 92 57 93
REMARK H PARENT 18 5 13 11 22 27 81 46 49 57
REMARK Flexibility Score: inf
ROOT
ATOM      1  C   UNL     1      -3.857  -6.016   2.831  1.00  0.00     0.117 C 
ENDROOT
BRANCH   1   2
ATOM      2  N   UNL     1      -4.876  -4.981   2.758  1.00  0.00    -0.356 N 
ATOM      3  C   UNL     1      -4.758  -3.670   2.421  1.00  0.00     0.221 C 
ATOM      4  O   UNL     1      -5.760  -2.955   2.474  1.00  0.00    -0.275 OA
ATOM      5  H   UNL     1      -5.787  -5.275   2.986  1.00  0.00     0.163 HD
BRANCH   3   6
ATOM      6  C   UNL     1      -3.422  -3.098   2.000  1.00  0.00     0.121 C 
BRANCH   6   7
ATOM      7  C   UNL     1      -2.677  -2.498   3.183  1.00  0.00     0.126 C 
BRANCH   7   8
ATOM      8  N   UNL     1      -1.771  -3.427   3.854  1.00  0.00    -0.351 N 
ATOM      9  C   UNL     1      -0.500  -3.916   3.672  1.00  0.00     0.255 C 
ATOM     10  O   UNL     1      -0.191  -4.864   4.396  1.00  0.00    -0.269 OA
ATOM     11  H   UNL     1      -2.188  -3.810   4.660  1.00  0.00     0.163 HD
BRANCH   9  12
ATOM     12  C   UNL     1       0.520  -3.335   2.748  1.00  0.00     0.086 A 
ATOM     13  C   UNL     1       1.468  -1.391   1.643  1.00  0.00     0.121 A 
ATOM     14  C   UNL     1       2.587  -2.120   1.269  1.00  0.00     0.066 A 
ATOM     15  C   UNL     1       0.485  -1.971   2.438  1.00  0.00     0.064 A 
ATOM     16  C   UNL     1       2.667  -3.477   1.586  1.00  0.00     0.064 A 
ATOM     17  Br  UNL     1       4.207  -4.376   0.921  1.00  0.00    -0.047 Br
ATOM     18  C   UNL     1       1.631  -4.105   2.307  1.00  0.00     0.146 A 
BRANCH  13  19
ATOM     19  O   UNL     1       1.292  -0.079   1.299  1.00  0.00    -0.497 OA
ATOM     20  C   UNL     1       1.411   0.121  -0.112  1.00  0.00     0.278 C 
ENDBRANCH  13  19
BRANCH  18  21
ATOM     21  O   UNL     1       1.587  -5.471   2.457  1.00  0.00    -0.495 OA
ATOM     22  C   UNL     1       2.635  -6.026   3.256  1.00  0.00     0.278 C 
ENDBRANCH  18  21
ENDBRANCH   9  12
ENDBRANCH   7   8
ENDBRANCH   6   7
ENDBRANCH   3   6
ENDBRANCH   1   2
BRANCH   1  23
ATOM     23  C   UNL     1      -3.510  -6.373   4.271  1.00  0.00     0.042 C 
BRANCH  23  24
ATOM     24  C   UNL     1      -4.629  -7.069   5.032  1.00  0.00     0.118 C 
BRANCH  24  25
ATOM     25  N   UNL     1      -4.844  -8.433   4.583  1.00  0.00    -0.352 N 
ATOM     26  C   UNL     1      -4.571  -9.627   5.208  1.00  0.00     0.251 C 
ATOM     27  H   UNL     1      -5.251  -8.516   3.691  1.00  0.00     0.163 HD
ATOM     28  O   UNL     1      -4.631 -10.663   4.551  1.00  0.00    -0.269 OA
BRANCH  26  29
ATOM     29  C   UNL     1      -4.189  -9.676   6.641  1.00  0.00     0.039 A 
ATOM     30  C   UNL     1      -3.220 -10.599   7.046  1.00  0.00     0.014 A 
ATOM     31  C   UNL     1      -4.806  -8.864   7.596  1.00  0.00     0.014 A 
ATOM     32  C   UNL     1      -2.836 -10.668   8.389  1.00  0.00     0.010 A 
ATOM     33  C   UNL     1      -4.357  -8.868   8.916  1.00  0.00     0.010 A 
ATOM     34  C   UNL     1      -3.378  -9.782   9.333  1.00  0.00    -0.014 A 
BRANCH  34  35
ATOM     35  C   UNL     1      -2.962  -9.821  10.763  1.00  0.00     0.031 A 
ATOM     36  C   UNL     1      -3.974 -10.138  11.834  1.00  0.00     0.074 A 
ATOM     37  C   UNL     1      -1.693  -9.520  11.104  1.00  0.00     0.049 A 
ATOM     38  N   UNL     1      -3.834 -10.139  13.136  1.00  0.00    -0.248 NA
ATOM     39  C   UNL     1      -5.335 -10.464  11.380  1.00  0.00     0.031 C 
ATOM     40  C   UNL     1      -0.629  -9.158  10.166  1.00  0.00     0.029 A 
ATOM     41  N   UNL     1      -1.083  -9.462  12.333  1.00  0.00    -0.354 N 
ATOM     42  C   UNL     1      -5.089 -10.444  13.654  1.00  0.00     0.074 A 
ATOM     43  C   UNL     1      -5.989 -10.557  12.526  1.00  0.00     0.031 C 
ATOM     44  C   UNL     1       0.506  -8.942  10.849  1.00  0.00     0.029 A 
ATOM     45  C   UNL     1       0.244  -9.101  12.276  1.00  0.00     0.049 A 
ATOM     46  H   UNL     1      -1.551  -9.660  13.176  1.00  0.00     0.167 HD
ATOM     47  C   UNL     1      -5.453 -10.635  14.947  1.00  0.00     0.034 A 
ATOM     48  C   UNL     1       1.144  -8.908  13.261  1.00  0.00     0.034 A 
ATOM     49  C   UNL     1      -4.539 -10.541  16.059  1.00  0.00     0.049 A 
ATOM     50  C   UNL     1       0.715  -9.115  14.692  1.00  0.00     0.074 A 
ATOM     51  C   UNL     1      -4.785 -10.774  17.401  1.00  0.00     0.029 A 
ATOM     52  N   UNL     1      -3.200 -10.181  15.961  1.00  0.00    -0.354 N 
ATOM     53  N   UNL     1      -0.465  -9.448  15.161  1.00  0.00    -0.248 NA
ATOM     54  C   UNL     1       1.743  -8.930  15.724  1.00  0.00     0.031 C 
ATOM     55  C   UNL     1      -3.618 -10.492  18.119  1.00  0.00     0.029 A 
ATOM     56  C   UNL     1      -2.619 -10.158  17.220  1.00  0.00     0.049 A 
ATOM     57  H   UNL     1      -2.733  -9.973  15.120  1.00  0.00     0.167 HD
ATOM     58  C   UNL     1      -0.311  -9.541  16.542  1.00  0.00     0.074 A 
ATOM     59  C   UNL     1       1.078  -9.245  16.826  1.00  0.00     0.031 C 
ATOM     60  C   UNL     1      -1.234  -9.849  17.490  1.00  0.00     0.034 A 
BRANCH  47  61
ATOM     61  C   UNL     1      -6.908 -10.940  15.223  1.00  0.00     0.023 A 
ATOM     62  C   UNL     1      -7.530 -12.097  14.719  1.00  0.00     0.031 A 
ATOM     63  C   UNL     1      -7.694 -10.048  15.974  1.00  0.00     0.131 A 
ATOM     64  C   UNL     1      -8.909 -12.288  14.900  1.00  0.00     0.055 A 
ATOM     65  C   UNL     1      -9.047 -10.288  16.225  1.00  0.00     0.041 A 
ATOM     66  F   UNL     1      -7.163  -8.918  16.466  1.00  0.00    -0.206 F 
ATOM     67  C   UNL     1      -9.666 -11.405  15.672  1.00  0.00     0.022 A 
BRANCH  64  68
ATOM     68  S   UNL     1      -9.724 -13.627  13.987  1.00  0.00     0.124 S 
ATOM     69  O   UNL     1      -9.422 -13.266  12.604  1.00  0.00    -0.237 OA
ATOM     70  O   UNL     1      -9.052 -14.814  14.499  1.00  0.00    -0.237 OA
ATOM     71  O   UNL     1     -11.130 -13.492  14.365  1.00  0.00    -0.744 OA
ENDBRANCH  64  68
ENDBRANCH  47  61
BRANCH  48  72
ATOM     72  C   UNL     1       2.538  -8.486  12.938  1.00  0.00     0.023 A 
ATOM     73  C   UNL     1       3.630  -9.324  13.214  1.00  0.00     0.031 A 
ATOM     74  C   UNL     1       2.801  -7.220  12.386  1.00  0.00     0.131 A 
ATOM     75  C   UNL     1       4.938  -8.870  12.979  1.00  0.00     0.055 A 
ATOM     76  C   UNL     1       4.100  -6.793  12.104  1.00  0.00     0.041 A 
ATOM     77  F   UNL     1       1.792  -6.381  12.100  1.00  0.00    -0.206 F 
ATOM     78  C   UNL     1       5.179  -7.615  12.413  1.00  0.00     0.022 A 
BRANCH  75  79
ATOM     79  S   UNL     1       6.327  -9.912  13.502  1.00  0.00     0.124 S 
ATOM     80  O   UNL     1       6.067 -10.059  14.930  1.00  0.00    -0.237 OA
ATOM     81  O   UNL     1       6.133 -11.107  12.688  1.00  0.00    -0.237 OA
ATOM     82  O   UNL     1       7.501  -9.111  13.161  1.00  0.00    -0.744 OA
ENDBRANCH  75  79
ENDBRANCH  48  72
BRANCH  60  83
ATOM     83  C   UNL     1      -0.750  -9.924  18.918  1.00  0.00     0.023 A 
ATOM     84  C   UNL     1      -0.310  -8.784  19.612  1.00  0.00     0.031 A 
ATOM     85  C   UNL     1      -0.719 -11.160  19.587  1.00  0.00     0.131 A 
ATOM     86  C   UNL     1       0.195  -8.911  20.915  1.00  0.00     0.055 A 
ATOM     87  C   UNL     1      -0.272 -11.272  20.904  1.00  0.00     0.041 A 
ATOM     88  F   UNL     1      -1.125 -12.282  18.971  1.00  0.00    -0.206 F 
ATOM     89  C   UNL     1       0.201 -10.145  21.571  1.00  0.00     0.022 A 
BRANCH  86  90
ATOM     90  S   UNL     1       0.929  -7.457  21.712  1.00  0.00     0.124 S 
ATOM     91  O   UNL     1       1.993  -7.103  20.779  1.00  0.00    -0.237 OA
ATOM     92  O   UNL     1      -0.199  -6.532  21.774  1.00  0.00    -0.237 OA
ATOM     93  O   UNL     1       1.383  -7.966  23.006  1.00  0.00    -0.744 OA
ENDBRANCH  86  90
ENDBRANCH  60  83
ENDBRANCH  34  35
ENDBRANCH  26  29
ENDBRANCH  24  25
ENDBRANCH  23  24
ENDBRANCH   1  23
TORSDOF 18
