REMARK SMILES O=C(NCCCNC(=O)[C@H]1CC=CC[C@@H]1C(=O)N[C@@H]1CCCN(c2ccccc2F)C1=O)c1ccc(-c2c3nc(c(-c4cc(S(=O)(=O)[O-])ccc4F)c4ccc([nH]4)c(-c4cc(S(=O)(=O)[O-])ccc4F)c4nc(c(-c5cc(S(=O)(=O)[O-])ccc5F)c5ccc2[nH]5)C=C4)C=C3)cc1
REMARK SMILES IDX 5 1 4 2 3 3 1 4 2 5 33 7 34 8 95 9 35 10 94 11 36 12 37 13
REMARK SMILES IDX 38 14 88 15 39 16 93 17 87 18 89 19 40 20 92 21 86 22 85 23
REMARK SMILES IDX 41 25 73 26 53 27 72 28 54 29 57 30 71 31 90 32 55 33 56 34
REMARK SMILES IDX 70 36 91 37 58 38 42 39 43 40 51 41 44 42 50 43 52 44 49 45
REMARK SMILES IDX 45 46 46 47 47 48 48 49 74 50 75 51 83 52 76 53 82 54 84 55
REMARK SMILES IDX 81 56 77 57 78 58 79 59 80 60 59 61 60 62 68 63 61 64 67 65
REMARK SMILES IDX 69 66 66 67 62 68 63 69 64 70 65 71 6 72 7 73 8 74 9 76
REMARK SMILES IDX 10 77 11 78 15 79 12 80 14 81 13 82 16 83 17 84 18 85 19 87
REMARK SMILES IDX 20 88 31 89 21 90 23 91 32 92 22 93 24 94 25 95 29 96 26 97
REMARK SMILES IDX 28 98 30 99 27 100
REMARK H PARENT 3 6 89 24 57 35 7 75 18 86
REMARK Flexibility Score: inf
ROOT
ATOM      1  C   UNL     1       3.821  13.339   4.876  1.00  0.00     0.042 C 
ENDROOT
BRANCH   1   2
ATOM      2  C   UNL     1       3.971  14.769   5.372  1.00  0.00     0.118 C 
BRANCH   2   3
ATOM      3  N   UNL     1       3.722  15.748   4.327  1.00  0.00    -0.352 N 
ATOM      4  O   UNL     1       2.536  17.044   2.937  1.00  0.00    -0.269 OA
ATOM      5  C   UNL     1       2.580  16.444   4.008  1.00  0.00     0.251 C 
ATOM      6  H   UNL     1       4.498  15.945   3.753  1.00  0.00     0.163 HD
BRANCH   5   7
ATOM      7  C   UNL     1       1.411  16.476   4.922  1.00  0.00     0.039 A 
ATOM      8  C   UNL     1       1.567  16.582   6.305  1.00  0.00     0.014 A 
ATOM      9  C   UNL     1       0.123  16.505   4.372  1.00  0.00     0.014 A 
ATOM     10  C   UNL     1       0.454  16.601   7.140  1.00  0.00     0.010 A 
ATOM     11  C   UNL     1      -0.995  16.630   5.205  1.00  0.00     0.010 A 
ATOM     12  C   UNL     1      -0.837  16.682   6.597  1.00  0.00    -0.014 A 
BRANCH  12  13
ATOM     13  C   UNL     1      -1.986  16.985   7.489  1.00  0.00     0.031 A 
ATOM     14  C   UNL     1      -3.111  16.014   7.686  1.00  0.00     0.074 A 
ATOM     15  C   UNL     1      -1.990  18.167   8.138  1.00  0.00     0.049 A 
ATOM     16  N   UNL     1      -4.205  16.156   8.389  1.00  0.00    -0.248 NA
ATOM     17  C   UNL     1      -2.996  14.719   7.002  1.00  0.00     0.031 C 
ATOM     18  C   UNL     1      -0.937  19.183   8.042  1.00  0.00     0.029 A 
ATOM     19  N   UNL     1      -2.887  18.707   9.022  1.00  0.00    -0.354 N 
ATOM     20  C   UNL     1      -4.915  14.971   8.237  1.00  0.00     0.074 A 
ATOM     21  C   UNL     1      -4.139  14.135   7.342  1.00  0.00     0.031 C 
ATOM     22  C   UNL     1      -1.214  20.186   8.884  1.00  0.00     0.029 A 
ATOM     23  C   UNL     1      -2.503  19.932   9.512  1.00  0.00     0.049 A 
ATOM     24  H   UNL     1      -3.726  18.261   9.281  1.00  0.00     0.167 HD
ATOM     25  C   UNL     1      -6.099  14.617   8.797  1.00  0.00     0.034 A 
ATOM     26  C   UNL     1      -3.124  20.776  10.357  1.00  0.00     0.034 A 
ATOM     27  C   UNL     1      -6.868  15.475   9.670  1.00  0.00     0.049 A 
ATOM     28  C   UNL     1      -4.471  20.401  10.895  1.00  0.00     0.074 A 
ATOM     29  C   UNL     1      -8.095  15.228  10.263  1.00  0.00     0.029 A 
ATOM     30  N   UNL     1      -6.486  16.748  10.079  1.00  0.00    -0.354 N 
ATOM     31  N   UNL     1      -5.168  19.310  10.678  1.00  0.00    -0.248 NA
ATOM     32  C   UNL     1      -5.121  21.373  11.780  1.00  0.00     0.031 C 
ATOM     33  C   UNL     1      -8.480  16.368  10.978  1.00  0.00     0.029 A 
ATOM     34  C   UNL     1      -7.459  17.302  10.899  1.00  0.00     0.049 A 
ATOM     35  H   UNL     1      -5.645  17.192   9.823  1.00  0.00     0.167 HD
ATOM     36  C   UNL     1      -6.334  19.454  11.419  1.00  0.00     0.074 A 
ATOM     37  C   UNL     1      -6.244  20.738  12.089  1.00  0.00     0.031 C 
ATOM     38  C   UNL     1      -7.375  18.593  11.542  1.00  0.00     0.034 A 
BRANCH  25  39
ATOM     39  C   UNL     1      -6.654  13.258   8.443  1.00  0.00     0.023 A 
ATOM     40  C   UNL     1      -6.006  12.073   8.835  1.00  0.00     0.031 A 
ATOM     41  C   UNL     1      -7.838  13.143   7.693  1.00  0.00     0.131 A 
ATOM     42  C   UNL     1      -6.513  10.829   8.427  1.00  0.00     0.055 A 
ATOM     43  C   UNL     1      -8.377  11.901   7.351  1.00  0.00     0.041 A 
ATOM     44  F   UNL     1      -8.489  14.239   7.272  1.00  0.00    -0.206 F 
ATOM     45  C   UNL     1      -7.707  10.734   7.708  1.00  0.00     0.022 A 
BRANCH  42  46
ATOM     46  S   UNL     1      -5.526   9.342   8.746  1.00  0.00     0.124 S 
ATOM     47  O   UNL     1      -4.306   9.634   7.997  1.00  0.00    -0.237 OA
ATOM     48  O   UNL     1      -5.403   9.350  10.199  1.00  0.00    -0.237 OA
ATOM     49  O   UNL     1      -6.344   8.263   8.195  1.00  0.00    -0.744 OA
ENDBRANCH  42  46
ENDBRANCH  25  39
BRANCH  26  50
ATOM     50  C   UNL     1      -2.462  22.055  10.724  1.00  0.00     0.023 A 
ATOM     51  C   UNL     1      -1.922  22.239  12.005  1.00  0.00     0.031 A 
ATOM     52  C   UNL     1      -2.299  23.081   9.777  1.00  0.00     0.131 A 
ATOM     53  C   UNL     1      -1.240  23.427  12.306  1.00  0.00     0.055 A 
ATOM     54  C   UNL     1      -1.591  24.246  10.071  1.00  0.00     0.041 A 
ATOM     55  F   UNL     1      -2.784  22.938   8.533  1.00  0.00    -0.206 F 
ATOM     56  C   UNL     1      -1.057  24.424  11.344  1.00  0.00     0.022 A 
BRANCH  53  57
ATOM     57  S   UNL     1      -0.576  23.649  13.979  1.00  0.00     0.124 S 
ATOM     58  O   UNL     1      -1.796  23.736  14.773  1.00  0.00    -0.237 OA
ATOM     59  O   UNL     1       0.222  22.440  14.156  1.00  0.00    -0.237 OA
ATOM     60  O   UNL     1       0.193  24.888  13.876  1.00  0.00    -0.744 OA
ENDBRANCH  53  57
ENDBRANCH  26  50
BRANCH  38  61
ATOM     61  C   UNL     1      -8.487  18.999  12.474  1.00  0.00     0.023 A 
ATOM     62  C   UNL     1      -9.356  20.062  12.175  1.00  0.00     0.031 A 
ATOM     63  C   UNL     1      -8.672  18.311  13.687  1.00  0.00     0.131 A 
ATOM     64  C   UNL     1     -10.342  20.438  13.100  1.00  0.00     0.055 A 
ATOM     65  C   UNL     1      -9.688  18.655  14.578  1.00  0.00     0.041 A 
ATOM     66  F   UNL     1      -7.866  17.291  14.022  1.00  0.00    -0.206 F 
ATOM     67  C   UNL     1     -10.524  19.730  14.291  1.00  0.00     0.022 A 
BRANCH  64  68
ATOM     68  S   UNL     1     -11.343  21.911  12.759  1.00  0.00     0.124 S 
ATOM     69  O   UNL     1     -10.331  22.963  12.727  1.00  0.00    -0.237 OA
ATOM     70  O   UNL     1     -11.962  21.583  11.479  1.00  0.00    -0.237 OA
ATOM     71  O   UNL     1     -12.264  21.971  13.893  1.00  0.00    -0.744 OA
ENDBRANCH  64  68
ENDBRANCH  38  61
ENDBRANCH  12  13
ENDBRANCH   5   7
ENDBRANCH   2   3
ENDBRANCH   1   2
BRANCH   1  72
ATOM     72  C   UNL     1       4.970  12.861   4.003  1.00  0.00     0.117 C 
BRANCH  72  73
ATOM     73  N   UNL     1       6.242  12.833   4.693  1.00  0.00    -0.356 N 
ATOM     74  C   UNL     1       6.977  11.937   5.377  1.00  0.00     0.224 C 
ATOM     75  H   UNL     1       6.693  13.707   4.649  1.00  0.00     0.163 HD
ATOM     76  O   UNL     1       8.087  12.388   5.711  1.00  0.00    -0.275 OA
BRANCH  74  77
ATOM     77  C   UNL     1       6.657  10.468   5.699  1.00  0.00     0.095 C 
ATOM     78  C   UNL     1       7.088  10.219   7.168  1.00  0.00     0.041 C 
ATOM     79  C   UNL     1       5.285   9.815   5.432  1.00  0.00     0.095 C 
ATOM     80  C   UNL     1       6.040  10.683   8.130  1.00  0.00    -0.030 C 
ATOM     81  C   UNL     1       4.226  10.066   6.535  1.00  0.00     0.041 C 
ATOM     82  C   UNL     1       4.739  10.630   7.826  1.00  0.00    -0.030 C 
BRANCH  79  83
ATOM     83  C   UNL     1       5.500   8.309   5.259  1.00  0.00     0.224 C 
ATOM     84  O   UNL     1       5.410   7.538   6.220  1.00  0.00    -0.275 OA
ATOM     85  N   UNL     1       5.906   7.744   4.097  1.00  0.00    -0.344 N 
ATOM     86  H   UNL     1       6.236   6.829   4.253  1.00  0.00     0.164 HD
BRANCH  85  87
ATOM     87  C   UNL     1       6.002   8.093   2.671  1.00  0.00     0.172 C 
ATOM     88  C   UNL     1       6.148   9.553   2.301  1.00  0.00     0.037 C 
ATOM     89  C   UNL     1       4.914   7.325   1.872  1.00  0.00     0.249 C 
ATOM     90  C   UNL     1       6.201   9.688   0.791  1.00  0.00     0.025 C 
ATOM     91  N   UNL     1       4.476   7.889   0.666  1.00  0.00    -0.308 N 
ATOM     92  O   UNL     1       4.624   6.177   2.230  1.00  0.00    -0.272 OA
ATOM     93  C   UNL     1       4.864   9.234   0.232  1.00  0.00     0.126 C 
BRANCH  91  94
ATOM     94  C   UNL     1       3.424   7.258  -0.080  1.00  0.00     0.080 A 
ATOM     95  C   UNL     1       3.486   7.208  -1.481  1.00  0.00     0.029 A 
ATOM     96  C   UNL     1       2.296   6.706   0.548  1.00  0.00     0.146 A 
ATOM     97  C   UNL     1       2.462   6.609  -2.224  1.00  0.00     0.002 A 
ATOM     98  C   UNL     1       1.272   6.113  -0.190  1.00  0.00     0.041 A 
ATOM     99  F   UNL     1       2.118   6.830   1.872  1.00  0.00    -0.205 F 
ATOM    100  C   UNL     1       1.356   6.061  -1.579  1.00  0.00     0.003 A 
ENDBRANCH  91  94
ENDBRANCH  85  87
ENDBRANCH  79  83
ENDBRANCH  74  77
ENDBRANCH  72  73
ENDBRANCH   1  72
TORSDOF 16
