REMARK SMILES O=C(NCCCNC(=O)c1[nH]ncc1C[NH+]1CCC([N@H+]2CCC[C@@H](C(=O)N3CCCC3)C2)CC1)c1ccc(-c2c3nc(c(-c4cc(S(=O)(=O)[O-])ccc4F)c4ccc([nH]4)c(-c4cc(S(=O)(=O)[O-])ccc4F)c4nc(c(-c5cc(S(=O)(=O)[O-])ccc5F)c5ccc2[nH]5)C=C4)C=C3)cc1
REMARK SMILES IDX 5 1 4 2 3 3 1 4 2 5 35 7 36 8 97 9 37 10 96 11 38 12 39 13
REMARK SMILES IDX 40 14 90 15 41 16 95 17 89 18 91 19 42 20 94 21 88 22 87 23
REMARK SMILES IDX 43 25 75 26 55 27 74 28 56 29 59 30 73 31 92 32 57 33 58 34
REMARK SMILES IDX 72 36 93 37 60 38 44 39 45 40 53 41 46 42 52 43 54 44 51 45
REMARK SMILES IDX 47 46 48 47 49 48 50 49 76 50 77 51 85 52 78 53 84 54 86 55
REMARK SMILES IDX 83 56 79 57 80 58 81 59 82 60 61 61 62 62 70 63 63 64 69 65
REMARK SMILES IDX 71 66 68 67 64 68 65 69 66 70 67 71 6 72 7 73 8 74 9 76
REMARK SMILES IDX 10 77 11 78 14 79 12 80 13 82 15 83 16 84 17 85 34 86 18 88
REMARK SMILES IDX 33 89 19 90 20 91 21 92 32 93 22 95 24 96 23 97 25 98 26 99
REMARK SMILES IDX 27 100 28 101 31 102 29 103 30 104
REMARK H PARENT 3 6 91 24 59 35 7 75 11 81 16 87 20 94
REMARK Flexibility Score: inf
ROOT
ATOM      1  C   UNL     1       5.212  -0.140  -2.022  1.00  0.00     0.042 C 
ENDROOT
BRANCH   1   2
ATOM      2  C   UNL     1       4.642   0.844  -1.012  1.00  0.00     0.118 C 
BRANCH   2   3
ATOM      3  N   UNL     1       3.205   0.699  -0.807  1.00  0.00    -0.352 N 
ATOM      4  O   UNL     1       1.269  -0.083   0.024  1.00  0.00    -0.269 OA
ATOM      5  C   UNL     1       2.485   0.030   0.158  1.00  0.00     0.251 C 
ATOM      6  H   UNL     1       2.651   1.160  -1.478  1.00  0.00     0.163 HD
BRANCH   5   7
ATOM      7  C   UNL     1       3.158  -0.575   1.329  1.00  0.00     0.039 A 
ATOM      8  C   UNL     1       4.211   0.075   1.964  1.00  0.00     0.014 A 
ATOM      9  C   UNL     1       2.714  -1.807   1.824  1.00  0.00     0.014 A 
ATOM     10  C   UNL     1       4.956  -0.590   2.927  1.00  0.00     0.010 A 
ATOM     11  C   UNL     1       3.382  -2.417   2.895  1.00  0.00     0.010 A 
ATOM     12  C   UNL     1       4.543  -1.836   3.425  1.00  0.00    -0.014 A 
BRANCH  12  13
ATOM     13  C   UNL     1       5.340  -2.457   4.518  1.00  0.00     0.031 A 
ATOM     14  C   UNL     1       6.024  -3.785   4.335  1.00  0.00     0.074 A 
ATOM     15  C   UNL     1       5.526  -1.751   5.653  1.00  0.00     0.049 A 
ATOM     16  N   UNL     1       6.827  -4.417   5.154  1.00  0.00    -0.248 NA
ATOM     17  C   UNL     1       5.761  -4.507   3.081  1.00  0.00     0.031 C 
ATOM     18  C   UNL     1       4.892  -0.463   5.954  1.00  0.00     0.029 A 
ATOM     19  N   UNL     1       6.339  -1.975   6.734  1.00  0.00    -0.354 N 
ATOM     20  C   UNL     1       7.142  -5.621   4.532  1.00  0.00     0.074 A 
ATOM     21  C   UNL     1       6.423  -5.640   3.275  1.00  0.00     0.031 C 
ATOM     22  C   UNL     1       5.414   0.034   7.084  1.00  0.00     0.029 A 
ATOM     23  C   UNL     1       6.360  -0.931   7.630  1.00  0.00     0.049 A 
ATOM     24  H   UNL     1       6.858  -2.803   6.857  1.00  0.00     0.167 HD
ATOM     25  C   UNL     1       7.957  -6.614   4.968  1.00  0.00     0.034 A 
ATOM     26  C   UNL     1       7.060  -0.763   8.768  1.00  0.00     0.034 A 
ATOM     27  C   UNL     1       8.681  -6.572   6.217  1.00  0.00     0.049 A 
ATOM     28  C   UNL     1       7.997  -1.854   9.201  1.00  0.00     0.074 A 
ATOM     29  C   UNL     1       9.518  -7.529   6.767  1.00  0.00     0.029 A 
ATOM     30  N   UNL     1       8.663  -5.506   7.108  1.00  0.00    -0.354 N 
ATOM     31  N   UNL     1       8.253  -2.999   8.611  1.00  0.00    -0.248 NA
ATOM     32  C   UNL     1       8.733  -1.634  10.450  1.00  0.00     0.031 C 
ATOM     33  C   UNL     1       9.974  -7.058   8.005  1.00  0.00     0.029 A 
ATOM     34  C   UNL     1       9.466  -5.785   8.205  1.00  0.00     0.049 A 
ATOM     35  H   UNL     1       8.155  -4.673   6.980  1.00  0.00     0.167 HD
ATOM     36  C   UNL     1       9.169  -3.645   9.431  1.00  0.00     0.074 A 
ATOM     37  C   UNL     1       9.457  -2.741  10.528  1.00  0.00     0.031 C 
ATOM     38  C   UNL     1       9.711  -4.882   9.302  1.00  0.00     0.034 A 
BRANCH  25  39
ATOM     39  C   UNL     1       8.065  -7.849   4.106  1.00  0.00     0.023 A 
ATOM     40  C   UNL     1       8.669  -7.817   2.838  1.00  0.00     0.031 A 
ATOM     41  C   UNL     1       7.527  -9.071   4.549  1.00  0.00     0.131 A 
ATOM     42  C   UNL     1       8.667  -8.966   2.032  1.00  0.00     0.055 A 
ATOM     43  C   UNL     1       7.589 -10.229   3.771  1.00  0.00     0.041 A 
ATOM     44  F   UNL     1       6.919  -9.156   5.743  1.00  0.00    -0.206 F 
ATOM     45  C   UNL     1       8.151 -10.178   2.499  1.00  0.00     0.022 A 
BRANCH  42  46
ATOM     46  S   UNL     1       9.239  -8.826   0.316  1.00  0.00     0.124 S 
ATOM     47  O   UNL     1       8.301  -7.847  -0.229  1.00  0.00    -0.237 OA
ATOM     48  O   UNL     1      10.615  -8.371   0.478  1.00  0.00    -0.237 OA
ATOM     49  O   UNL     1       9.088 -10.182  -0.208  1.00  0.00    -0.744 OA
ENDBRANCH  42  46
ENDBRANCH  25  39
BRANCH  26  50
ATOM     50  C   UNL     1       6.873   0.467   9.587  1.00  0.00     0.023 A 
ATOM     51  C   UNL     1       7.911   1.396   9.755  1.00  0.00     0.031 A 
ATOM     52  C   UNL     1       5.643   0.726  10.219  1.00  0.00     0.131 A 
ATOM     53  C   UNL     1       7.708   2.530  10.558  1.00  0.00     0.055 A 
ATOM     54  C   UNL     1       5.432   1.876  10.978  1.00  0.00     0.041 A 
ATOM     55  F   UNL     1       4.617  -0.129  10.081  1.00  0.00    -0.206 F 
ATOM     56  C   UNL     1       6.472   2.782  11.160  1.00  0.00     0.022 A 
BRANCH  53  57
ATOM     57  S   UNL     1       9.105   3.646  10.858  1.00  0.00     0.124 S 
ATOM     58  O   UNL     1      10.108   2.735  11.397  1.00  0.00    -0.237 OA
ATOM     59  O   UNL     1       9.366   4.169   9.521  1.00  0.00    -0.237 OA
ATOM     60  O   UNL     1       8.568   4.616  11.810  1.00  0.00    -0.744 OA
ENDBRANCH  53  57
ENDBRANCH  26  50
BRANCH  38  61
ATOM     61  C   UNL     1      10.661  -5.308  10.390  1.00  0.00     0.023 A 
ATOM     62  C   UNL     1      10.199  -5.581  11.689  1.00  0.00     0.031 A 
ATOM     63  C   UNL     1      12.040  -5.390  10.140  1.00  0.00     0.131 A 
ATOM     64  C   UNL     1      11.117  -5.866  12.709  1.00  0.00     0.055 A 
ATOM     65  C   UNL     1      12.946  -5.721  11.148  1.00  0.00     0.041 A 
ATOM     66  F   UNL     1      12.528  -5.135   8.915  1.00  0.00    -0.206 F 
ATOM     67  C   UNL     1      12.487  -5.947  12.444  1.00  0.00     0.022 A 
BRANCH  64  68
ATOM     68  S   UNL     1      10.505  -6.032  14.408  1.00  0.00     0.124 S 
ATOM     69  O   UNL     1       9.841  -4.750  14.620  1.00  0.00    -0.237 OA
ATOM     70  O   UNL     1       9.629  -7.195  14.310  1.00  0.00    -0.237 OA
ATOM     71  O   UNL     1      11.722  -6.237  15.192  1.00  0.00    -0.744 OA
ENDBRANCH  64  68
ENDBRANCH  38  61
ENDBRANCH  12  13
ENDBRANCH   5   7
ENDBRANCH   2   3
ENDBRANCH   1   2
BRANCH   1  72
ATOM     72  C   UNL     1       4.715   0.082  -3.441  1.00  0.00     0.118 C 
BRANCH  72  73
ATOM     73  N   UNL     1       5.042   1.403  -3.957  1.00  0.00    -0.351 N 
ATOM     74  C   UNL     1       5.763   1.771  -5.057  1.00  0.00     0.269 C 
ATOM     75  H   UNL     1       4.685   2.153  -3.427  1.00  0.00     0.163 HD
ATOM     76  O   UNL     1       6.101   2.954  -5.149  1.00  0.00    -0.268 OA
BRANCH  74  77
ATOM     77  C   UNL     1       6.140   0.804  -6.045  1.00  0.00     0.131 A 
ATOM     78  N   UNL     1       7.386   0.841  -6.613  1.00  0.00    -0.272 N 
ATOM     79  C   UNL     1       5.460  -0.210  -6.715  1.00  0.00     0.057 A 
ATOM     80  N   UNL     1       7.604  -0.117  -7.525  1.00  0.00    -0.183 NA
ATOM     81  H   UNL     1       8.064   1.513  -6.372  1.00  0.00     0.190 HD
ATOM     82  C   UNL     1       6.440  -0.764  -7.574  1.00  0.00     0.145 A 
BRANCH  79  83
ATOM     83  C   UNL     1       4.037  -0.646  -6.591  1.00  0.00     0.303 C 
BRANCH  83  84
ATOM     84  N   UNL     1       3.154  -0.145  -7.645  1.00  0.00    -0.331 N 
ATOM     85  C   UNL     1       3.180   1.307  -7.795  1.00  0.00     0.268 C 
ATOM     86  C   UNL     1       3.275  -0.851  -8.917  1.00  0.00     0.268 C 
ATOM     87  H   UNL     1       2.218  -0.369  -7.307  1.00  0.00     0.348 HD
ATOM     88  C   UNL     1       2.034   1.770  -8.689  1.00  0.00     0.126 C 
ATOM     89  C   UNL     1       2.112  -0.468  -9.837  1.00  0.00     0.126 C 
ATOM     90  C   UNL     1       2.074   1.054 -10.056  1.00  0.00     0.195 C 
BRANCH  90  91
ATOM     91  N   UNL     1       1.030   1.470 -11.033  1.00  0.00    -0.331 N 
ATOM     92  C   UNL     1      -0.344   1.171 -10.612  1.00  0.00     0.262 C 
ATOM     93  C   UNL     1       1.177   2.903 -11.347  1.00  0.00     0.275 C 
ATOM     94  H   UNL     1       1.186   0.909 -11.870  1.00  0.00     0.348 HD
ATOM     95  C   UNL     1      -1.337   1.576 -11.702  1.00  0.00     0.062 C 
ATOM     96  C   UNL     1       0.220   3.454 -12.397  1.00  0.00     0.134 C 
ATOM     97  C   UNL     1      -1.223   3.057 -12.039  1.00  0.00     0.025 C 
BRANCH  96  98
ATOM     98  C   UNL     1       0.230   4.984 -12.578  1.00  0.00     0.231 C 
ATOM     99  O   UNL     1      -0.407   5.479 -13.515  1.00  0.00    -0.274 OA
ATOM    100  N   UNL     1       0.708   5.790 -11.568  1.00  0.00    -0.342 N 
ATOM    101  C   UNL     1       2.053   5.844 -11.016  1.00  0.00     0.119 C 
ATOM    102  C   UNL     1       0.004   7.011 -11.218  1.00  0.00     0.119 C 
ATOM    103  C   UNL     1       1.833   6.554  -9.695  1.00  0.00     0.023 C 
ATOM    104  C   UNL     1       0.791   7.611 -10.052  1.00  0.00     0.023 C 
ENDBRANCH  96  98
ENDBRANCH  90  91
ENDBRANCH  83  84
ENDBRANCH  79  83
ENDBRANCH  74  77
ENDBRANCH  72  73
ENDBRANCH   1  72
TORSDOF 17
