REMARK SMILES Cc1n[nH]c2c1[C@@]1(C(=O)N([C@@H](C)C(=O)NCCCNC(=O)c3ccc(-c4c5nc(c(-c6cc(S(=O)(=O)[O-])ccc6F)c6ccc([nH]6)c(-c6cc(S(=O)(=O)[O-])ccc6F)c6nc(c(-c7cc(S(=O)(=O)[O-])ccc7F)c7ccc4[nH]7)C=C6)C=C5)cc3)c3ccccc31)C(C#N)=C(N)O2
REMARK SMILES IDX 17 1 16 2 15 3 13 4 14 5 11 7 12 8 10 9 1 10 2 11 3 12 6 13
REMARK SMILES IDX 4 14 5 15 7 16 96 18 8 19 90 20 91 21 94 22 9 23 85 24 89 25
REMARK SMILES IDX 86 26 88 27 87 28 92 29 93 30 95 31 18 34 19 35 20 36 21 38
REMARK SMILES IDX 22 39 23 40 84 41 24 42 83 43 25 44 26 45 27 46 77 47 28 48
REMARK SMILES IDX 82 49 76 50 78 51 29 52 81 53 75 54 74 55 30 57 62 58 42 59
REMARK SMILES IDX 61 60 43 61 46 62 60 63 79 64 44 65 45 66 59 68 80 69 47 70
REMARK SMILES IDX 31 71 32 72 40 73 33 74 39 75 41 76 38 77 34 78 35 79 36 80
REMARK SMILES IDX 37 81 63 82 64 83 72 84 65 85 71 86 73 87 70 88 66 89 67 90
REMARK SMILES IDX 68 91 69 92 48 93 49 94 57 95 50 96 56 97 58 98 55 99 51 100
REMARK SMILES IDX 52 101 53 102 54 103
REMARK H PARENT 15 6 4 17 95 32 95 33 19 37 78 56 46 67
REMARK Flexibility Score: inf
ROOT
ATOM      1  C   UNL     1       4.556   3.768  -2.510  1.00  0.00     0.042 C 
ENDROOT
BRANCH   1   2
ATOM      2  C   UNL     1       5.325   2.448  -2.654  1.00  0.00     0.117 C 
BRANCH   2   3
ATOM      3  N   UNL     1       6.306   2.234  -1.598  1.00  0.00    -0.354 N 
ATOM      4  C   UNL     1       6.351   1.433  -0.500  1.00  0.00     0.242 C 
ATOM      5  O   UNL     1       7.417   1.462   0.136  1.00  0.00    -0.273 OA
ATOM      6  H   UNL     1       7.112   2.790  -1.702  1.00  0.00     0.163 HD
BRANCH   4   7
ATOM      7  C   UNL     1       5.197   0.545   0.032  1.00  0.00     0.176 C 
ATOM      8  C   UNL     1       4.686  -0.530  -0.920  1.00  0.00     0.042 C 
BRANCH   7   9
ATOM      9  N   UNL     1       4.152   1.321   0.689  1.00  0.00    -0.298 N 
ATOM     10  C   UNL     1       0.522  -0.019   0.454  1.00  0.00     0.069 C 
ATOM     11  C   UNL     1       0.122   1.402   0.596  1.00  0.00     0.068 A 
ATOM     12  N   UNL     1      -1.166   1.725   0.410  1.00  0.00    -0.177 NA
ATOM     13  C   UNL     1       0.910   2.553   0.853  1.00  0.00     0.063 A 
ATOM     14  N   UNL     1      -1.192   3.075   0.452  1.00  0.00    -0.246 N 
ATOM     15  C   UNL     1       0.038   3.601   0.702  1.00  0.00     0.222 A 
ATOM     16  C   UNL     1       2.362   2.830   1.046  1.00  0.00     0.149 C 
ATOM     17  H   UNL     1      -2.005   3.614   0.317  1.00  0.00     0.193 HD
ATOM     18  O   UNL     1       0.320   4.897   0.709  1.00  0.00    -0.422 OA
ATOM     19  C   UNL     1       3.167   2.037   0.011  1.00  0.00     0.248 C 
ATOM     20  C   UNL     1       2.800   2.189   2.335  1.00  0.00     0.002 A 
ATOM     21  C   UNL     1       2.670   4.330   0.975  1.00  0.00     0.114 C 
ATOM     22  C   UNL     1       1.676   5.254   0.823  1.00  0.00     0.208 C 
ATOM     23  O   UNL     1       2.925   1.983  -1.191  1.00  0.00    -0.273 OA
ATOM     24  C   UNL     1       3.896   1.352   2.077  1.00  0.00     0.050 A 
ATOM     25  C   UNL     1       2.292   2.347   3.619  1.00  0.00     0.008 A 
ATOM     26  C   UNL     1       4.508   0.656   3.104  1.00  0.00     0.027 A 
ATOM     27  C   UNL     1       2.891   1.632   4.654  1.00  0.00     0.001 A 
ATOM     28  C   UNL     1       3.991   0.797   4.399  1.00  0.00     0.002 A 
BRANCH  21  29
ATOM     29  C   UNL     1       4.088   4.858   1.114  1.00  0.00     0.102 C 
ATOM     30  N   UNL     1       5.265   5.296   1.229  1.00  0.00    -0.193 NA
ENDBRANCH  21  29
BRANCH  22  31
ATOM     31  N   UNL     1       1.853   6.606   0.773  1.00  0.00    -0.369 N 
ATOM     32  H   UNL     1       2.758   6.987   0.842  1.00  0.00     0.159 HD
ATOM     33  H   UNL     1       1.075   7.200   0.667  1.00  0.00     0.159 HD
ENDBRANCH  22  31
ENDBRANCH   7   9
ENDBRANCH   4   7
ENDBRANCH   2   3
ENDBRANCH   1   2
BRANCH   1  34
ATOM     34  C   UNL     1       5.323   5.021  -2.904  1.00  0.00     0.118 C 
BRANCH  34  35
ATOM     35  N   UNL     1       5.674   5.058  -4.304  1.00  0.00    -0.352 N 
ATOM     36  C   UNL     1       5.011   5.356  -5.462  1.00  0.00     0.251 C 
ATOM     37  H   UNL     1       6.614   4.809  -4.462  1.00  0.00     0.163 HD
ATOM     38  O   UNL     1       5.699   5.277  -6.485  1.00  0.00    -0.269 OA
BRANCH  36  39
ATOM     39  C   UNL     1       3.569   5.728  -5.589  1.00  0.00     0.039 A 
ATOM     40  C   UNL     1       2.665   5.946  -4.546  1.00  0.00     0.014 A 
ATOM     41  C   UNL     1       3.095   5.863  -6.910  1.00  0.00     0.014 A 
ATOM     42  C   UNL     1       1.321   6.236  -4.818  1.00  0.00     0.010 A 
ATOM     43  C   UNL     1       1.762   6.167  -7.184  1.00  0.00     0.010 A 
ATOM     44  C   UNL     1       0.861   6.325  -6.136  1.00  0.00    -0.014 A 
BRANCH  44  45
ATOM     45  C   UNL     1      -0.554   6.634  -6.376  1.00  0.00     0.031 A 
ATOM     46  C   UNL     1      -1.025   7.999  -5.988  1.00  0.00     0.074 A 
ATOM     47  C   UNL     1      -1.388   5.831  -7.069  1.00  0.00     0.049 A 
ATOM     48  N   UNL     1      -1.956   8.331  -5.150  1.00  0.00    -0.248 NA
ATOM     49  C   UNL     1      -0.331   9.147  -6.587  1.00  0.00     0.031 C 
ATOM     50  C   UNL     1      -1.043   4.650  -7.865  1.00  0.00     0.029 A 
ATOM     51  N   UNL     1      -2.725   5.985  -7.306  1.00  0.00    -0.354 N 
ATOM     52  C   UNL     1      -2.073   9.725  -5.215  1.00  0.00     0.074 A 
ATOM     53  C   UNL     1      -0.978  10.176  -6.037  1.00  0.00     0.031 C 
ATOM     54  C   UNL     1      -2.082   4.340  -8.672  1.00  0.00     0.029 A 
ATOM     55  C   UNL     1      -3.209   5.196  -8.338  1.00  0.00     0.049 A 
ATOM     56  H   UNL     1      -3.293   6.601  -6.790  1.00  0.00     0.167 HD
ATOM     57  C   UNL     1      -3.140  10.404  -4.697  1.00  0.00     0.034 A 
ATOM     58  C   UNL     1      -4.421   5.287  -8.935  1.00  0.00     0.034 A 
ATOM     59  C   UNL     1      -3.937   9.565  -3.849  1.00  0.00     0.049 A 
ATOM     60  C   UNL     1      -5.332   6.064  -8.065  1.00  0.00     0.074 A 
ATOM     61  C   UNL     1      -3.742   8.918  -2.647  1.00  0.00     0.029 A 
ATOM     62  N   UNL     1      -5.100   9.055  -4.369  1.00  0.00    -0.354 N 
ATOM     63  N   UNL     1      -5.833   5.640  -6.940  1.00  0.00    -0.248 NA
ATOM     64  C   UNL     1      -5.416   7.499  -8.285  1.00  0.00     0.031 C 
ATOM     65  C   UNL     1      -4.533   7.739  -2.730  1.00  0.00     0.029 A 
ATOM     66  C   UNL     1      -5.189   7.750  -3.965  1.00  0.00     0.049 A 
ATOM     67  H   UNL     1      -5.750   9.538  -4.929  1.00  0.00     0.167 HD
ATOM     68  C   UNL     1      -5.876   6.766  -6.134  1.00  0.00     0.074 A 
ATOM     69  C   UNL     1      -5.745   7.893  -7.053  1.00  0.00     0.031 C 
ATOM     70  C   UNL     1      -5.727   6.678  -4.780  1.00  0.00     0.034 A 
BRANCH  57  71
ATOM     71  C   UNL     1      -3.631  11.766  -5.141  1.00  0.00     0.023 A 
ATOM     72  C   UNL     1      -3.208  12.384  -6.330  1.00  0.00     0.031 A 
ATOM     73  C   UNL     1      -4.713  12.392  -4.478  1.00  0.00     0.131 A 
ATOM     74  C   UNL     1      -3.819  13.553  -6.808  1.00  0.00     0.055 A 
ATOM     75  C   UNL     1      -5.367  13.520  -4.991  1.00  0.00     0.041 A 
ATOM     76  F   UNL     1      -5.208  11.895  -3.334  1.00  0.00    -0.206 F 
ATOM     77  C   UNL     1      -4.920  14.109  -6.163  1.00  0.00     0.022 A 
BRANCH  74  78
ATOM     78  S   UNL     1      -3.188  14.377  -8.295  1.00  0.00     0.124 S 
ATOM     79  O   UNL     1      -4.318  14.255  -9.208  1.00  0.00    -0.237 OA
ATOM     80  O   UNL     1      -2.918  15.724  -7.797  1.00  0.00    -0.237 OA
ATOM     81  O   UNL     1      -2.002  13.597  -8.637  1.00  0.00    -0.744 OA
ENDBRANCH  74  78
ENDBRANCH  57  71
BRANCH  58  82
ATOM     82  C   UNL     1      -4.718   5.089 -10.371  1.00  0.00     0.023 A 
ATOM     83  C   UNL     1      -3.755   5.449 -11.332  1.00  0.00     0.031 A 
ATOM     84  C   UNL     1      -6.026   4.848 -10.820  1.00  0.00     0.131 A 
ATOM     85  C   UNL     1      -4.117   5.607 -12.676  1.00  0.00     0.055 A 
ATOM     86  C   UNL     1      -6.383   4.990 -12.166  1.00  0.00     0.041 A 
ATOM     87  F   UNL     1      -6.997   4.532  -9.950  1.00  0.00    -0.206 F 
ATOM     88  C   UNL     1      -5.428   5.385 -13.099  1.00  0.00     0.022 A 
BRANCH  85  89
ATOM     89  S   UNL     1      -2.898   6.180 -13.889  1.00  0.00     0.124 S 
ATOM     90  O   UNL     1      -3.129   5.276 -15.013  1.00  0.00    -0.237 OA
ATOM     91  O   UNL     1      -3.315   7.562 -14.098  1.00  0.00    -0.237 OA
ATOM     92  O   UNL     1      -1.622   5.997 -13.203  1.00  0.00    -0.744 OA
ENDBRANCH  85  89
ENDBRANCH  58  82
BRANCH  70  93
ATOM     93  C   UNL     1      -5.834   5.329  -4.103  1.00  0.00     0.023 A 
ATOM     94  C   UNL     1      -6.597   5.269  -2.921  1.00  0.00     0.031 A 
ATOM     95  C   UNL     1      -5.047   4.207  -4.425  1.00  0.00     0.131 A 
ATOM     96  C   UNL     1      -6.519   4.151  -2.082  1.00  0.00     0.055 A 
ATOM     97  C   UNL     1      -5.043   3.057  -3.629  1.00  0.00     0.041 A 
ATOM     98  F   UNL     1      -4.188   4.221  -5.453  1.00  0.00    -0.206 F 
ATOM     99  C   UNL     1      -5.765   3.032  -2.441  1.00  0.00     0.022 A 
BRANCH  96 100
ATOM    100  S   UNL     1      -7.223   4.213  -0.413  1.00  0.00     0.124 S 
ATOM    101  O   UNL     1      -8.295   3.225  -0.491  1.00  0.00    -0.237 OA
ATOM    102  O   UNL     1      -6.078   3.838   0.417  1.00  0.00    -0.237 OA
ATOM    103  O   UNL     1      -7.657   5.599  -0.263  1.00  0.00    -0.744 OA
ENDBRANCH  96 100
ENDBRANCH  70  93
ENDBRANCH  44  45
ENDBRANCH  36  39
ENDBRANCH  34  35
ENDBRANCH   1  34
TORSDOF 16
