REMARK SMILES O=C(NCCCNC(=O)c1ccccc1-c1ccccc1C(=O)N1CC[NH+](Cc2ccc3c(c2)OCO3)CC1)c1ccc(-c2c3nc(c(-c4cc(S(=O)(=O)[O-])ccc4F)c4ccc([nH]4)c(-c4cc(S(=O)(=O)[O-])ccc4F)c4nc(c(-c5cc(S(=O)(=O)[O-])ccc5F)c5ccc2[nH]5)C=C4)C=C3)cc1
REMARK SMILES IDX 5 1 4 2 3 3 1 4 2 5 40 7 41 8 102 9 42 10 101 11 43 12 44 13
REMARK SMILES IDX 45 14 95 15 46 16 100 17 94 18 96 19 47 20 99 21 93 22 92 23
REMARK SMILES IDX 48 25 80 26 60 27 79 28 61 29 64 30 78 31 97 32 62 33 63 34
REMARK SMILES IDX 77 36 98 37 65 38 49 39 50 40 58 41 51 42 57 43 59 44 56 45
REMARK SMILES IDX 52 46 53 47 54 48 55 49 81 50 82 51 90 52 83 53 89 54 91 55
REMARK SMILES IDX 88 56 84 57 85 58 86 59 87 60 66 61 67 62 75 63 68 64 74 65
REMARK SMILES IDX 76 66 73 67 69 68 70 69 71 70 72 71 6 72 7 73 8 74 9 76
REMARK SMILES IDX 10 77 11 78 15 79 12 80 14 81 13 82 16 83 17 84 21 85 18 86
REMARK SMILES IDX 20 87 19 88 22 89 23 90 24 91 25 92 39 93 26 94 38 95 27 96
REMARK SMILES IDX 28 98 29 99 30 100 34 101 31 102 33 103 32 104 35 105 37 106
REMARK SMILES IDX 36 107
REMARK H PARENT 3 6 96 24 64 35 7 75 27 97
REMARK Flexibility Score: inf
ROOT
ATOM      1  C   UNL     1       4.748   1.606   0.878  1.00  0.00     0.042 C 
ENDROOT
BRANCH   1   2
ATOM      2  C   UNL     1       4.455   0.125   1.064  1.00  0.00     0.118 C 
BRANCH   2   3
ATOM      3  N   UNL     1       3.015  -0.133   1.032  1.00  0.00    -0.352 N 
ATOM      4  O   UNL     1       0.998  -0.132   0.003  1.00  0.00    -0.269 OA
ATOM      5  C   UNL     1       2.208  -0.286  -0.073  1.00  0.00     0.251 C 
ATOM      6  H   UNL     1       2.569  -0.207   1.907  1.00  0.00     0.163 HD
BRANCH   5   7
ATOM      7  C   UNL     1       2.861  -0.623  -1.352  1.00  0.00     0.039 A 
ATOM      8  C   UNL     1       3.900  -1.551  -1.339  1.00  0.00     0.014 A 
ATOM      9  C   UNL     1       2.483   0.004  -2.539  1.00  0.00     0.014 A 
ATOM     10  C   UNL     1       4.705  -1.691  -2.448  1.00  0.00     0.010 A 
ATOM     11  C   UNL     1       3.188  -0.283  -3.710  1.00  0.00     0.010 A 
ATOM     12  C   UNL     1       4.314  -1.122  -3.666  1.00  0.00    -0.014 A 
BRANCH  12  13
ATOM     13  C   UNL     1       5.029  -1.556  -4.887  1.00  0.00     0.031 A 
ATOM     14  C   UNL     1       5.753  -0.578  -5.760  1.00  0.00     0.074 A 
ATOM     15  C   UNL     1       5.030  -2.877  -5.167  1.00  0.00     0.049 A 
ATOM     16  N   UNL     1       6.387  -0.798  -6.881  1.00  0.00    -0.248 NA
ATOM     17  C   UNL     1       5.759   0.829  -5.330  1.00  0.00     0.031 C 
ATOM     18  C   UNL     1       4.359  -3.908  -4.362  1.00  0.00     0.029 A 
ATOM     19  N   UNL     1       5.621  -3.588  -6.175  1.00  0.00    -0.354 N 
ATOM     20  C   UNL     1       6.842   0.442  -7.312  1.00  0.00     0.074 A 
ATOM     21  C   UNL     1       6.395   1.414  -6.336  1.00  0.00     0.031 C 
ATOM     22  C   UNL     1       4.630  -5.115  -4.870  1.00  0.00     0.029 A 
ATOM     23  C   UNL     1       5.379  -4.941  -6.103  1.00  0.00     0.049 A 
ATOM     24  H   UNL     1       6.167  -3.173  -6.882  1.00  0.00     0.167 HD
ATOM     25  C   UNL     1       7.561   0.727  -8.426  1.00  0.00     0.034 A 
ATOM     26  C   UNL     1       5.673  -5.931  -6.964  1.00  0.00     0.034 A 
ATOM     27  C   UNL     1       7.992  -0.277  -9.372  1.00  0.00     0.049 A 
ATOM     28  C   UNL     1       6.411  -5.571  -8.221  1.00  0.00     0.074 A 
ATOM     29  C   UNL     1       8.761  -0.111 -10.510  1.00  0.00     0.029 A 
ATOM     30  N   UNL     1       7.678  -1.630  -9.300  1.00  0.00    -0.354 N 
ATOM     31  N   UNL     1       6.849  -4.394  -8.608  1.00  0.00    -0.248 NA
ATOM     32  C   UNL     1       6.688  -6.662  -9.159  1.00  0.00     0.031 C 
ATOM     33  C   UNL     1       8.835  -1.341 -11.172  1.00  0.00     0.029 A 
ATOM     34  C   UNL     1       8.194  -2.298 -10.401  1.00  0.00     0.049 A 
ATOM     35  H   UNL     1       7.164  -2.052  -8.575  1.00  0.00     0.167 HD
ATOM     36  C   UNL     1       7.472  -4.609  -9.831  1.00  0.00     0.074 A 
ATOM     37  C   UNL     1       7.373  -6.031 -10.100  1.00  0.00     0.031 C 
ATOM     38  C   UNL     1       8.069  -3.715 -10.657  1.00  0.00     0.034 A 
BRANCH  25  39
ATOM     39  C   UNL     1       7.867   2.176  -8.717  1.00  0.00     0.023 A 
ATOM     40  C   UNL     1       8.678   2.957  -7.876  1.00  0.00     0.031 A 
ATOM     41  C   UNL     1       7.334   2.788  -9.867  1.00  0.00     0.131 A 
ATOM     42  C   UNL     1       8.885   4.316  -8.166  1.00  0.00     0.055 A 
ATOM     43  C   UNL     1       7.607   4.118 -10.192  1.00  0.00     0.041 A 
ATOM     44  F   UNL     1       6.530   2.102 -10.696  1.00  0.00    -0.206 F 
ATOM     45  C   UNL     1       8.378   4.894  -9.332  1.00  0.00     0.022 A 
BRANCH  42  46
ATOM     46  S   UNL     1       9.717   5.352  -6.931  1.00  0.00     0.124 S 
ATOM     47  O   UNL     1       8.856   5.171  -5.764  1.00  0.00    -0.237 OA
ATOM     48  O   UNL     1      11.040   4.745  -6.848  1.00  0.00    -0.237 OA
ATOM     49  O   UNL     1       9.679   6.688  -7.521  1.00  0.00    -0.744 OA
ENDBRANCH  42  46
ENDBRANCH  25  39
BRANCH  26  50
ATOM     50  C   UNL     1       5.204  -7.320  -6.701  1.00  0.00     0.023 A 
ATOM     51  C   UNL     1       6.113  -8.377  -6.564  1.00  0.00     0.031 A 
ATOM     52  C   UNL     1       3.830  -7.617  -6.613  1.00  0.00     0.131 A 
ATOM     53  C   UNL     1       5.639  -9.687  -6.398  1.00  0.00     0.055 A 
ATOM     54  C   UNL     1       3.365  -8.910  -6.375  1.00  0.00     0.041 A 
ATOM     55  F   UNL     1       2.913  -6.643  -6.736  1.00  0.00    -0.206 F 
ATOM     56  C   UNL     1       4.273  -9.959  -6.284  1.00  0.00     0.022 A 
BRANCH  53  57
ATOM     57  S   UNL     1       6.834 -11.049  -6.452  1.00  0.00     0.124 S 
ATOM     58  O   UNL     1       7.484 -10.822  -7.737  1.00  0.00    -0.237 OA
ATOM     59  O   UNL     1       7.644 -10.786  -5.267  1.00  0.00    -0.237 OA
ATOM     60  O   UNL     1       5.992 -12.241  -6.379  1.00  0.00    -0.744 OA
ENDBRANCH  53  57
ENDBRANCH  26  50
BRANCH  38  61
ATOM     61  C   UNL     1       8.694  -4.268 -11.912  1.00  0.00     0.023 A 
ATOM     62  C   UNL     1       7.915  -4.829 -12.938  1.00  0.00     0.031 A 
ATOM     63  C   UNL     1      10.090  -4.242 -12.076  1.00  0.00     0.131 A 
ATOM     64  C   UNL     1       8.542  -5.389 -14.061  1.00  0.00     0.055 A 
ATOM     65  C   UNL     1      10.703  -4.739 -13.225  1.00  0.00     0.041 A 
ATOM     66  F   UNL     1      10.881  -3.725 -11.121  1.00  0.00    -0.206 F 
ATOM     67  C   UNL     1       9.928  -5.328 -14.220  1.00  0.00     0.022 A 
BRANCH  64  68
ATOM     68  S   UNL     1       7.526  -6.281 -15.269  1.00  0.00     0.124 S 
ATOM     69  O   UNL     1       6.946  -7.342 -14.451  1.00  0.00    -0.237 OA
ATOM     70  O   UNL     1       6.600  -5.249 -15.723  1.00  0.00    -0.237 OA
ATOM     71  O   UNL     1       8.495  -6.727 -16.268  1.00  0.00    -0.744 OA
ENDBRANCH  64  68
ENDBRANCH  38  61
ENDBRANCH  12  13
ENDBRANCH   5   7
ENDBRANCH   2   3
ENDBRANCH   1   2
BRANCH   1  72
ATOM     72  C   UNL     1       4.159   2.409   2.019  1.00  0.00     0.118 C 
BRANCH  72  73
ATOM     73  N   UNL     1       4.694   1.915   3.269  1.00  0.00    -0.352 N 
ATOM     74  C   UNL     1       5.914   2.307   3.734  1.00  0.00     0.251 C 
ATOM     75  H   UNL     1       4.162   1.279   3.799  1.00  0.00     0.163 HD
ATOM     76  O   UNL     1       6.749   1.454   4.016  1.00  0.00    -0.269 OA
BRANCH  74  77
ATOM     77  C   UNL     1       6.168   3.763   3.912  1.00  0.00     0.047 A 
ATOM     78  C   UNL     1       7.503   4.169   3.748  1.00  0.00     0.014 A 
ATOM     79  C   UNL     1       5.170   4.695   4.303  1.00  0.00    -0.005 A 
ATOM     80  C   UNL     1       7.867   5.500   3.929  1.00  0.00     0.001 A 
ATOM     81  C   UNL     1       5.572   6.041   4.458  1.00  0.00     0.009 A 
ATOM     82  C   UNL     1       6.900   6.438   4.272  1.00  0.00     0.001 A 
BRANCH  79  83
ATOM     83  C   UNL     1       3.729   4.375   4.489  1.00  0.00    -0.005 A 
ATOM     84  C   UNL     1       2.843   4.992   3.561  1.00  0.00     0.009 A 
ATOM     85  C   UNL     1       3.181   3.421   5.383  1.00  0.00     0.047 A 
ATOM     86  C   UNL     1       1.502   4.624   3.444  1.00  0.00     0.001 A 
ATOM     87  C   UNL     1       1.810   3.079   5.257  1.00  0.00     0.014 A 
ATOM     88  C   UNL     1       0.987   3.655   4.287  1.00  0.00     0.001 A 
BRANCH  85  89
ATOM     89  C   UNL     1       3.953   2.541   6.331  1.00  0.00     0.254 C 
ATOM     90  O   UNL     1       3.461   1.454   6.650  1.00  0.00    -0.269 OA
ATOM     91  N   UNL     1       5.232   2.889   6.751  1.00  0.00    -0.327 N 
ATOM     92  C   UNL     1       6.153   1.798   7.040  1.00  0.00     0.181 C 
ATOM     93  C   UNL     1       5.496   4.098   7.516  1.00  0.00     0.181 C 
ATOM     94  C   UNL     1       7.632   2.217   6.913  1.00  0.00     0.284 C 
ATOM     95  C   UNL     1       6.989   4.515   7.518  1.00  0.00     0.284 C 
ATOM     96  N   UNL     1       8.026   3.474   7.571  1.00  0.00    -0.328 N 
ATOM     97  H   UNL     1       8.763   3.858   6.979  1.00  0.00     0.348 HD
BRANCH  96  98
ATOM     98  C   UNL     1       8.767   3.331   8.827  1.00  0.00     0.299 C 
BRANCH  98  99
ATOM     99  C   UNL     1       7.940   2.687   9.916  1.00  0.00     0.010 A 
ATOM    100  C   UNL     1       7.007   3.476  10.627  1.00  0.00     0.013 A 
ATOM    101  C   UNL     1       7.867   1.286   9.959  1.00  0.00     0.060 A 
ATOM    102  C   UNL     1       5.867   2.890  11.175  1.00  0.00     0.051 A 
ATOM    103  C   UNL     1       6.699   0.750  10.441  1.00  0.00     0.166 A 
ATOM    104  C   UNL     1       5.708   1.535  10.988  1.00  0.00     0.165 A 
ATOM    105  O   UNL     1       6.279  -0.527  10.212  1.00  0.00    -0.454 OA
ATOM    106  O   UNL     1       4.547   0.840  11.151  1.00  0.00    -0.454 OA
ATOM    107  C   UNL     1       4.857  -0.333  10.365  1.00  0.00     0.468 C 
ENDBRANCH  98  99
ENDBRANCH  96  98
ENDBRANCH  85  89
ENDBRANCH  79  83
ENDBRANCH  74  77
ENDBRANCH  72  73
ENDBRANCH   1  72
TORSDOF 17
