REMARK SMILES CC(C)(C[N@@H+]1C[C@@H]2C[NH2+]C[C@H]2C1(C)C)C(=O)NCCCNC(=O)c1ccc(-c2c3nc(c(-c4cc(S(=O)(=O)[O-])ccc4F)c4ccc([nH]4)c(-c4cc(S(=O)(=O)[O-])ccc4F)c4nc(c(-c5cc(S(=O)(=O)[O-])ccc5F)c5ccc2[nH]5)C=C4)C=C3)cc1
REMARK SMILES IDX 19 1 18 2 17 3 15 4 16 5 2 7 1 8 3 9 4 10 5 11 6 12 12 13
REMARK SMILES IDX 7 15 11 16 13 17 14 18 8 19 10 20 9 21 20 24 21 25 22 26
REMARK SMILES IDX 23 28 24 29 25 30 86 31 26 32 85 33 27 34 28 35 29 36 79 37
REMARK SMILES IDX 30 38 84 39 78 40 80 41 31 42 83 43 77 44 76 45 32 47 64 48
REMARK SMILES IDX 44 49 63 50 45 51 48 52 62 53 81 54 46 55 47 56 61 58 82 59
REMARK SMILES IDX 49 60 33 61 34 62 42 63 35 64 41 65 43 66 40 67 36 68 37 69
REMARK SMILES IDX 38 70 39 71 65 72 66 73 74 74 67 75 73 76 75 77 72 78 68 79
REMARK SMILES IDX 69 80 70 81 71 82 50 83 51 84 59 85 52 86 58 87 60 88 57 89
REMARK SMILES IDX 53 90 54 91 55 92 56 93
REMARK H PARENT 17 6 5 14 9 22 9 23 21 27 80 46 48 57
REMARK Flexibility Score: inf
ROOT
ATOM      1  C   UNL     1      -1.323  -4.699  -1.678  1.00  0.00     0.042 C 
ENDROOT
BRANCH   1   2
ATOM      2  C   UNL     1      -0.204  -4.554  -0.651  1.00  0.00     0.117 C 
BRANCH   2   3
ATOM      3  N   UNL     1       0.927  -3.739  -1.076  1.00  0.00    -0.355 N 
ATOM      4  C   UNL     1       1.438  -2.554  -0.628  1.00  0.00     0.231 C 
ATOM      5  O   UNL     1       2.579  -2.280  -1.020  1.00  0.00    -0.274 OA
ATOM      6  H   UNL     1       1.421  -4.119  -1.838  1.00  0.00     0.163 HD
BRANCH   4   7
ATOM      7  C   UNL     1       0.679  -1.619   0.328  1.00  0.00     0.092 C 
ATOM      8  C   UNL     1       1.465  -0.302   0.568  1.00  0.00     0.027 C 
ATOM      9  C   UNL     1       0.667  -2.289   1.724  1.00  0.00     0.027 C 
BRANCH   7  10
ATOM     10  C   UNL     1      -0.759  -1.306  -0.188  1.00  0.00     0.279 C 
BRANCH  10  11
ATOM     11  N   UNL     1      -0.947  -0.222  -1.132  1.00  0.00    -0.329 N 
ATOM     12  C   UNL     1      -1.832   0.885  -0.742  1.00  0.00     0.272 C 
ATOM     13  C   UNL     1      -0.514  -0.084  -2.541  1.00  0.00     0.101 C 
ATOM     14  H   UNL     1      -0.066  -0.706  -0.959  1.00  0.00     0.348 HD
ATOM     15  C   UNL     1      -0.992   1.958  -1.354  1.00  0.00     0.114 C 
ATOM     16  C   UNL     1      -0.769   1.425  -2.757  1.00  0.00     0.119 C 
ATOM     17  C   UNL     1       0.911  -0.466  -2.940  1.00  0.00     0.079 C 
ATOM     18  C   UNL     1      -1.455  -0.892  -3.463  1.00  0.00     0.079 C 
ATOM     19  C   UNL     1      -1.386   3.372  -1.648  1.00  0.00     0.270 C 
ATOM     20  C   UNL     1       0.213   2.477  -3.218  1.00  0.00     0.271 C 
ATOM     21  N   UNL     1      -0.377   3.747  -2.684  1.00  0.00    -0.345 N 
ATOM     22  H   UNL     1       0.355   4.322  -2.267  1.00  0.00     0.346 HD
ATOM     23  H   UNL     1      -0.814   4.283  -3.434  1.00  0.00     0.346 HD
ENDBRANCH  10  11
ENDBRANCH   7  10
ENDBRANCH   4   7
ENDBRANCH   2   3
ENDBRANCH   1   2
BRANCH   1  24
ATOM     24  C   UNL     1      -0.908  -5.290  -3.017  1.00  0.00     0.118 C 
BRANCH  24  25
ATOM     25  N   UNL     1      -0.343  -6.623  -2.885  1.00  0.00    -0.352 N 
ATOM     26  C   UNL     1      -0.874  -7.861  -3.144  1.00  0.00     0.251 C 
ATOM     27  H   UNL     1       0.583  -6.641  -2.552  1.00  0.00     0.163 HD
ATOM     28  O   UNL     1      -0.275  -8.853  -2.718  1.00  0.00    -0.269 OA
BRANCH  26  29
ATOM     29  C   UNL     1      -2.140  -8.033  -3.893  1.00  0.00     0.039 A 
ATOM     30  C   UNL     1      -3.001  -9.073  -3.524  1.00  0.00     0.014 A 
ATOM     31  C   UNL     1      -2.463  -7.237  -4.995  1.00  0.00     0.014 A 
ATOM     32  C   UNL     1      -4.203  -9.271  -4.212  1.00  0.00     0.010 A 
ATOM     33  C   UNL     1      -3.699  -7.382  -5.628  1.00  0.00     0.010 A 
ATOM     34  C   UNL     1      -4.582  -8.403  -5.247  1.00  0.00    -0.014 A 
BRANCH  34  35
ATOM     35  C   UNL     1      -5.889  -8.551  -5.945  1.00  0.00     0.031 A 
ATOM     36  C   UNL     1      -5.932  -8.859  -7.419  1.00  0.00     0.074 A 
ATOM     37  C   UNL     1      -7.036  -8.347  -5.266  1.00  0.00     0.049 A 
ATOM     38  N   UNL     1      -6.964  -8.927  -8.222  1.00  0.00    -0.248 NA
ATOM     39  C   UNL     1      -4.641  -9.095  -8.082  1.00  0.00     0.031 C 
ATOM     40  C   UNL     1      -7.127  -8.015  -3.842  1.00  0.00     0.029 A 
ATOM     41  N   UNL     1      -8.345  -8.378  -5.681  1.00  0.00    -0.354 N 
ATOM     42  C   UNL     1      -6.447  -9.198  -9.485  1.00  0.00     0.074 A 
ATOM     43  C   UNL     1      -5.006  -9.224  -9.348  1.00  0.00     0.031 C 
ATOM     44  C   UNL     1      -8.419  -7.893  -3.500  1.00  0.00     0.029 A 
ATOM     45  C   UNL     1      -9.248  -8.085  -4.685  1.00  0.00     0.049 A 
ATOM     46  H   UNL     1      -8.611  -8.589  -6.604  1.00  0.00     0.167 HD
ATOM     47  C   UNL     1      -7.113  -9.424 -10.646  1.00  0.00     0.034 A 
ATOM     48  C   UNL     1     -10.591  -7.968  -4.723  1.00  0.00     0.034 A 
ATOM     49  C   UNL     1      -8.551  -9.409 -10.764  1.00  0.00     0.049 A 
ATOM     50  C   UNL     1     -11.306  -8.194  -6.031  1.00  0.00     0.074 A 
ATOM     51  C   UNL     1      -9.327  -9.672 -11.880  1.00  0.00     0.029 A 
ATOM     52  N   UNL     1      -9.432  -9.111  -9.733  1.00  0.00    -0.354 N 
ATOM     53  N   UNL     1     -10.803  -8.486  -7.208  1.00  0.00    -0.248 NA
ATOM     54  C   UNL     1     -12.771  -8.085  -6.014  1.00  0.00     0.031 C 
ATOM     55  C   UNL     1     -10.669  -9.468 -11.542  1.00  0.00     0.029 A 
ATOM     56  C   UNL     1     -10.740  -9.155 -10.194  1.00  0.00     0.049 A 
ATOM     57  H   UNL     1      -9.168  -8.899  -8.808  1.00  0.00     0.167 HD
ATOM     58  C   UNL     1     -11.893  -8.629  -8.062  1.00  0.00     0.074 A 
ATOM     59  C   UNL     1     -13.079  -8.405  -7.261  1.00  0.00     0.031 C 
ATOM     60  C   UNL     1     -11.914  -8.923  -9.387  1.00  0.00     0.034 A 
BRANCH  47  61
ATOM     61  C   UNL     1      -6.287  -9.683 -11.884  1.00  0.00     0.023 A 
ATOM     62  C   UNL     1      -5.448 -10.806 -11.991  1.00  0.00     0.031 A 
ATOM     63  C   UNL     1      -6.326  -8.788 -12.969  1.00  0.00     0.131 A 
ATOM     64  C   UNL     1      -4.631 -10.967 -13.121  1.00  0.00     0.055 A 
ATOM     65  C   UNL     1      -5.572  -8.997 -14.126  1.00  0.00     0.041 A 
ATOM     66  F   UNL     1      -7.093  -7.687 -12.919  1.00  0.00    -0.206 F 
ATOM     67  C   UNL     1      -4.707 -10.085 -14.201  1.00  0.00     0.022 A 
BRANCH  64  68
ATOM     68  S   UNL     1      -3.370 -12.270 -13.100  1.00  0.00     0.124 S 
ATOM     69  O   UNL     1      -2.570 -11.886 -11.939  1.00  0.00    -0.237 OA
ATOM     70  O   UNL     1      -4.170 -13.482 -12.951  1.00  0.00    -0.237 OA
ATOM     71  O   UNL     1      -2.699 -12.119 -14.388  1.00  0.00    -0.744 OA
ENDBRANCH  64  68
ENDBRANCH  47  61
BRANCH  48  72
ATOM     72  C   UNL     1     -11.355  -7.603  -3.495  1.00  0.00     0.023 A 
ATOM     73  C   UNL     1     -12.285  -8.492  -2.932  1.00  0.00     0.031 A 
ATOM     74  C   UNL     1     -11.206  -6.339  -2.896  1.00  0.00     0.131 A 
ATOM     75  C   UNL     1     -13.069  -8.086  -1.841  1.00  0.00     0.055 A 
ATOM     76  C   UNL     1     -11.947  -5.962  -1.774  1.00  0.00     0.041 A 
ATOM     77  F   UNL     1     -10.328  -5.452  -3.390  1.00  0.00    -0.206 F 
ATOM     78  C   UNL     1     -12.897  -6.833  -1.250  1.00  0.00     0.022 A 
BRANCH  75  79
ATOM     79  S   UNL     1     -14.390  -9.189  -1.265  1.00  0.00     0.124 S 
ATOM     80  O   UNL     1     -15.182  -9.360  -2.477  1.00  0.00    -0.237 OA
ATOM     81  O   UNL     1     -13.636 -10.356  -0.819  1.00  0.00    -0.237 OA
ATOM     82  O   UNL     1     -15.033  -8.421  -0.201  1.00  0.00    -0.744 OA
ENDBRANCH  75  79
ENDBRANCH  48  72
BRANCH  60  83
ATOM     83  C   UNL     1     -13.269  -9.069 -10.036  1.00  0.00     0.023 A 
ATOM     84  C   UNL     1     -14.141  -7.977 -10.188  1.00  0.00     0.031 A 
ATOM     85  C   UNL     1     -13.697 -10.327 -10.498  1.00  0.00     0.131 A 
ATOM     86  C   UNL     1     -15.418  -8.174 -10.734  1.00  0.00     0.055 A 
ATOM     87  C   UNL     1     -14.946 -10.504 -11.096  1.00  0.00     0.041 A 
ATOM     88  F   UNL     1     -12.907 -11.405 -10.376  1.00  0.00    -0.206 F 
ATOM     89  C   UNL     1     -15.819  -9.427 -11.205  1.00  0.00     0.022 A 
BRANCH  86  90
ATOM     90  S   UNL     1     -16.587  -6.786 -10.739  1.00  0.00     0.124 S 
ATOM     91  O   UNL     1     -16.677  -6.460  -9.320  1.00  0.00    -0.237 OA
ATOM     92  O   UNL     1     -15.903  -5.805 -11.576  1.00  0.00    -0.237 OA
ATOM     93  O   UNL     1     -17.798  -7.359 -11.323  1.00  0.00    -0.744 OA
ENDBRANCH  86  90
ENDBRANCH  60  83
ENDBRANCH  34  35
ENDBRANCH  26  29
ENDBRANCH  24  25
ENDBRANCH   1  24
TORSDOF 15
