REMARK SMILES C[C@H](c1ccc(Br)s1)[NH+]1CCC(CC(=O)NCCCNC(=O)c2ccc(-c3c4nc(c(-c5cc(S(=O)(=O)[O-])ccc5F)c5ccc([nH]5)c(-c5cc(S(=O)(=O)[O-])ccc5F)c5nc(c(-c6cc(S(=O)(=O)[O-])ccc6F)c6ccc3[nH]6)C=C5)C=C4)cc2)CC1
REMARK SMILES IDX 18 1 17 2 16 3 14 4 15 5 13 7 12 8 9 9 10 10 87 11 11 13
REMARK SMILES IDX 86 14 2 15 1 16 3 17 4 18 8 19 5 20 6 21 7 22 19 23 20 24
REMARK SMILES IDX 21 25 22 27 23 28 24 29 85 30 25 31 84 32 26 33 27 34 28 35
REMARK SMILES IDX 78 36 29 37 83 38 77 39 79 40 30 41 82 42 76 43 75 44 31 46
REMARK SMILES IDX 63 47 43 48 62 49 44 50 47 51 61 52 80 53 45 54 46 55 60 57
REMARK SMILES IDX 81 58 48 59 32 60 33 61 41 62 34 63 40 64 42 65 39 66 35 67
REMARK SMILES IDX 36 68 37 69 38 70 64 71 65 72 73 73 66 74 72 75 74 76 71 77
REMARK SMILES IDX 67 78 68 79 69 80 70 81 49 82 50 83 58 84 51 85 57 86 59 87
REMARK SMILES IDX 56 88 52 89 53 90 54 91 55 92
REMARK H PARENT 16 6 9 12 20 26 79 45 47 56
REMARK Flexibility Score: inf
ROOT
ATOM      1  C   UNL     1      -3.904   4.619  -1.391  1.00  0.00     0.042 C 
ENDROOT
BRANCH   1   2
ATOM      2  C   UNL     1      -5.136   3.726  -1.212  1.00  0.00     0.117 C 
BRANCH   2   3
ATOM      3  N   UNL     1      -5.619   3.138  -2.458  1.00  0.00    -0.356 N 
ATOM      4  C   UNL     1      -5.643   1.847  -2.898  1.00  0.00     0.220 C 
ATOM      5  O   UNL     1      -6.173   1.616  -3.988  1.00  0.00    -0.275 OA
ATOM      6  H   UNL     1      -5.993   3.789  -3.094  1.00  0.00     0.163 HD
BRANCH   4   7
ATOM      7  C   UNL     1      -5.017   0.720  -2.092  1.00  0.00     0.104 C 
BRANCH   7   8
ATOM      8  C   UNL     1      -3.572   0.403  -2.527  1.00  0.00     0.009 C 
ATOM      9  N   UNL     1      -0.825   0.260  -1.483  1.00  0.00    -0.328 N 
ATOM     10  C   UNL     1      -1.185   1.345  -2.402  1.00  0.00     0.263 C 
ATOM     11  C   UNL     1      -1.500  -0.969  -1.914  1.00  0.00     0.263 C 
ATOM     12  H   UNL     1      -1.160   0.433  -0.535  1.00  0.00     0.348 HD
ATOM     13  C   UNL     1      -2.675   1.616  -2.305  1.00  0.00     0.066 C 
ATOM     14  C   UNL     1      -3.021  -0.812  -1.763  1.00  0.00     0.066 C 
BRANCH   9  15
ATOM     15  C   UNL     1       0.645   0.186  -1.324  1.00  0.00     0.222 C 
ATOM     16  C   UNL     1       1.402  -0.475  -2.480  1.00  0.00     0.082 C 
BRANCH  15  17
ATOM     17  C   UNL     1       1.038  -0.424   0.014  1.00  0.00     0.063 A 
ATOM     18  C   UNL     1       0.923  -1.726   0.473  1.00  0.00     0.023 A 
ATOM     19  S   UNL     1       1.800   0.570   1.203  1.00  0.00    -0.127 S 
ATOM     20  C   UNL     1       1.455  -1.902   1.785  1.00  0.00     0.028 A 
ATOM     21  C   UNL     1       1.972  -0.730   2.270  1.00  0.00     0.070 A 
ATOM     22  Br  UNL     1       2.795  -0.579   3.946  1.00  0.00    -0.039 Br
ENDBRANCH  15  17
ENDBRANCH   9  15
ENDBRANCH   7   8
ENDBRANCH   4   7
ENDBRANCH   2   3
ENDBRANCH   1   2
BRANCH   1  23
ATOM     23  C   UNL     1      -4.148   5.893  -2.190  1.00  0.00     0.118 C 
BRANCH  23  24
ATOM     24  N   UNL     1      -4.488   7.005  -1.323  1.00  0.00    -0.352 N 
ATOM     25  C   UNL     1      -3.732   8.092  -0.947  1.00  0.00     0.251 C 
ATOM     26  H   UNL     1      -5.397   6.978  -0.946  1.00  0.00     0.163 HD
ATOM     27  O   UNL     1      -4.097   8.750   0.025  1.00  0.00    -0.269 OA
BRANCH  25  28
ATOM     28  C   UNL     1      -2.495   8.475  -1.677  1.00  0.00     0.039 A 
ATOM     29  C   UNL     1      -1.426   9.015  -0.953  1.00  0.00     0.014 A 
ATOM     30  C   UNL     1      -2.402   8.394  -3.070  1.00  0.00     0.014 A 
ATOM     31  C   UNL     1      -0.265   9.438  -1.613  1.00  0.00     0.010 A 
ATOM     32  C   UNL     1      -1.216   8.746  -3.720  1.00  0.00     0.010 A 
ATOM     33  C   UNL     1      -0.139   9.291  -3.003  1.00  0.00    -0.014 A 
BRANCH  33  34
ATOM     34  C   UNL     1       1.077   9.755  -3.730  1.00  0.00     0.031 A 
ATOM     35  C   UNL     1       0.969  10.873  -4.737  1.00  0.00     0.074 A 
ATOM     36  C   UNL     1       2.267   9.155  -3.523  1.00  0.00     0.049 A 
ATOM     37  N   UNL     1       1.876  11.349  -5.553  1.00  0.00    -0.248 NA
ATOM     38  C   UNL     1      -0.345  11.523  -4.858  1.00  0.00     0.031 C 
ATOM     39  C   UNL     1       2.510   8.060  -2.583  1.00  0.00     0.029 A 
ATOM     40  N   UNL     1       3.496   9.377  -4.095  1.00  0.00    -0.354 N 
ATOM     41  C   UNL     1       1.241  12.344  -6.291  1.00  0.00     0.074 A 
ATOM     42  C   UNL     1      -0.143  12.357  -5.867  1.00  0.00     0.031 C 
ATOM     43  C   UNL     1       3.809   7.721  -2.628  1.00  0.00     0.029 A 
ATOM     44  C   UNL     1       4.484   8.538  -3.633  1.00  0.00     0.049 A 
ATOM     45  H   UNL     1       3.656  10.073  -4.774  1.00  0.00     0.167 HD
ATOM     46  C   UNL     1       1.764  13.186  -7.218  1.00  0.00     0.034 A 
ATOM     47  C   UNL     1       5.781   8.427  -3.988  1.00  0.00     0.034 A 
ATOM     48  C   UNL     1       3.149  13.179  -7.623  1.00  0.00     0.049 A 
ATOM     49  C   UNL     1       6.330   9.344  -5.055  1.00  0.00     0.074 A 
ATOM     50  C   UNL     1       3.786  13.999  -8.538  1.00  0.00     0.029 A 
ATOM     51  N   UNL     1       4.115  12.309  -7.134  1.00  0.00    -0.354 N 
ATOM     52  N   UNL     1       5.715  10.283  -5.736  1.00  0.00    -0.248 NA
ATOM     53  C   UNL     1       7.752   9.189  -5.395  1.00  0.00     0.031 C 
ATOM     54  C   UNL     1       5.122  13.593  -8.641  1.00  0.00     0.029 A 
ATOM     55  C   UNL     1       5.336  12.563  -7.740  1.00  0.00     0.049 A 
ATOM     56  H   UNL     1       3.956  11.614  -6.455  1.00  0.00     0.167 HD
ATOM     57  C   UNL     1       6.686  10.856  -6.553  1.00  0.00     0.074 A 
ATOM     58  C   UNL     1       7.927  10.164  -6.275  1.00  0.00     0.031 C 
ATOM     59  C   UNL     1       6.566  11.868  -7.449  1.00  0.00     0.034 A 
BRANCH  46  60
ATOM     60  C   UNL     1       0.823  14.172  -7.868  1.00  0.00     0.023 A 
ATOM     61  C   UNL     1       0.186  15.180  -7.123  1.00  0.00     0.031 A 
ATOM     62  C   UNL     1       0.540  14.092  -9.243  1.00  0.00     0.131 A 
ATOM     63  C   UNL     1      -0.757  16.016  -7.738  1.00  0.00     0.055 A 
ATOM     64  C   UNL     1      -0.339  14.981  -9.867  1.00  0.00     0.041 A 
ATOM     65  F   UNL     1       1.103  13.140 -10.003  1.00  0.00    -0.206 F 
ATOM     66  C   UNL     1      -1.005  15.941  -9.111  1.00  0.00     0.022 A 
BRANCH  63  67
ATOM     67  S   UNL     1      -1.755  17.111  -6.692  1.00  0.00     0.124 S 
ATOM     68  O   UNL     1      -2.440  16.149  -5.831  1.00  0.00    -0.237 OA
ATOM     69  O   UNL     1      -0.745  17.940  -6.047  1.00  0.00    -0.237 OA
ATOM     70  O   UNL     1      -2.617  17.805  -7.647  1.00  0.00    -0.744 OA
ENDBRANCH  63  67
ENDBRANCH  46  60
BRANCH  47  71
ATOM     71  C   UNL     1       6.662   7.407  -3.349  1.00  0.00     0.023 A 
ATOM     72  C   UNL     1       7.777   7.794  -2.589  1.00  0.00     0.031 A 
ATOM     73  C   UNL     1       6.445   6.032  -3.546  1.00  0.00     0.131 A 
ATOM     74  C   UNL     1       8.665   6.822  -2.102  1.00  0.00     0.055 A 
ATOM     75  C   UNL     1       7.300   5.066  -3.011  1.00  0.00     0.041 A 
ATOM     76  F   UNL     1       5.393   5.605  -4.263  1.00  0.00    -0.206 F 
ATOM     77  C   UNL     1       8.428   5.460  -2.298  1.00  0.00     0.022 A 
BRANCH  74  78
ATOM     78  S   UNL     1      10.198   7.372  -1.303  1.00  0.00     0.124 S 
ATOM     79  O   UNL     1      10.786   8.216  -2.337  1.00  0.00    -0.237 OA
ATOM     80  O   UNL     1       9.692   8.062  -0.121  1.00  0.00    -0.237 OA
ATOM     81  O   UNL     1      10.909   6.123  -1.038  1.00  0.00    -0.744 OA
ENDBRANCH  74  78
ENDBRANCH  47  71
BRANCH  59  82
ATOM     82  C   UNL     1       7.825  12.326  -8.142  1.00  0.00     0.023 A 
ATOM     83  C   UNL     1       8.491  11.519  -9.081  1.00  0.00     0.031 A 
ATOM     84  C   UNL     1       8.369  13.589  -7.848  1.00  0.00     0.131 A 
ATOM     85  C   UNL     1       9.691  11.964  -9.656  1.00  0.00     0.055 A 
ATOM     86  C   UNL     1       9.534  14.048  -8.463  1.00  0.00     0.041 A 
ATOM     87  F   UNL     1       7.772  14.399  -6.958  1.00  0.00    -0.206 F 
ATOM     88  C   UNL     1      10.209  13.229  -9.364  1.00  0.00     0.022 A 
BRANCH  85  89
ATOM     89  S   UNL     1      10.610  10.836 -10.739  1.00  0.00     0.124 S 
ATOM     90  O   UNL     1      10.880   9.712  -9.849  1.00  0.00    -0.237 OA
ATOM     91  O   UNL     1       9.653  10.584 -11.812  1.00  0.00    -0.237 OA
ATOM     92  O   UNL     1      11.785  11.614 -11.129  1.00  0.00    -0.744 OA
ENDBRANCH  85  89
ENDBRANCH  59  82
ENDBRANCH  33  34
ENDBRANCH  25  28
ENDBRANCH  23  24
ENDBRANCH   1  23
TORSDOF 16
