REMARK SMILES CC(C)N(CC(N)=O)C(=O)c1cccn1CC(=O)NCCCNC(=O)c1ccc(-c2c3nc(c(-c4cc(S(=O)(=O)[O-])ccc4F)c4ccc([nH]4)c(-c4cc(S(=O)(=O)[O-])ccc4F)c4nc(c(-c5cc(S(=O)(=O)[O-])ccc5F)c5ccc2[nH]5)C=C4)C=C3)cc1
REMARK SMILES IDX 20 1 19 2 17 3 18 4 16 6 15 7 11 8 12 9 13 10 14 11 9 12
REMARK SMILES IDX 10 13 4 14 2 15 1 16 3 17 5 18 6 19 7 20 8 21 21 24 22 25
REMARK SMILES IDX 23 26 24 27 25 29 26 30 27 31 88 32 28 33 87 34 29 35 30 36
REMARK SMILES IDX 31 37 81 38 32 39 86 40 80 41 82 42 33 43 85 44 79 45 78 46
REMARK SMILES IDX 34 48 66 49 46 50 65 51 47 52 50 53 64 54 83 55 48 56 49 57
REMARK SMILES IDX 63 59 84 60 51 61 35 62 36 63 44 64 37 65 43 66 45 67 42 68
REMARK SMILES IDX 38 69 39 70 40 71 41 72 67 73 68 74 76 75 69 76 75 77 77 78
REMARK SMILES IDX 74 79 70 80 71 81 72 82 73 83 52 84 53 85 61 86 54 87 60 88
REMARK SMILES IDX 62 89 59 90 55 91 56 92 57 93 58 94
REMARK H PARENT 19 5 7 22 7 23 23 28 82 47 50 58
REMARK Flexibility Score: inf
ROOT
ATOM      1  C   UNL     1      -2.591   0.574   1.877  1.00  0.00     0.117 C 
ENDROOT
BRANCH   1   2
ATOM      2  N   UNL     1      -3.509  -0.315   2.559  1.00  0.00    -0.354 N 
ATOM      3  C   UNL     1      -3.980  -1.532   2.154  1.00  0.00     0.239 C 
ATOM      4  O   UNL     1      -4.810  -2.103   2.864  1.00  0.00    -0.273 OA
ATOM      5  H   UNL     1      -3.839   0.000   3.432  1.00  0.00     0.163 HD
BRANCH   3   6
ATOM      6  C   UNL     1      -3.444  -2.172   0.891  1.00  0.00     0.222 C 
BRANCH   6   7
ATOM      7  N   UNL     1      -3.946  -1.566  -0.338  1.00  0.00    -0.334 N 
ATOM      8  C   UNL     1      -3.188  -1.157  -1.425  1.00  0.00     0.107 A 
ATOM      9  C   UNL     1      -4.091  -0.877  -2.441  1.00  0.00     0.033 A 
ATOM     10  C   UNL     1      -5.399  -0.966  -1.917  1.00  0.00     0.020 A 
ATOM     11  C   UNL     1      -5.281  -1.391  -0.616  1.00  0.00     0.087 A 
BRANCH   8  12
ATOM     12  C   UNL     1      -1.731  -1.140  -1.466  1.00  0.00     0.271 C 
ATOM     13  O   UNL     1      -1.095  -2.140  -1.157  1.00  0.00    -0.267 OA
BRANCH  12  14
ATOM     14  N   UNL     1      -1.097   0.078  -1.769  1.00  0.00    -0.326 N 
BRANCH  14  15
ATOM     15  C   UNL     1       0.376   0.178  -1.724  1.00  0.00     0.079 C 
ATOM     16  C   UNL     1       0.913   0.002  -0.298  1.00  0.00     0.031 C 
ATOM     17  C   UNL     1       1.082  -0.750  -2.711  1.00  0.00     0.031 C 
ENDBRANCH  14  15
BRANCH  14  18
ATOM     18  C   UNL     1      -1.831   1.333  -1.968  1.00  0.00     0.219 C 
BRANCH  18  19
ATOM     19  C   UNL     1      -2.319   1.621  -3.387  1.00  0.00     0.237 C 
ATOM     20  N   UNL     1      -3.546   2.234  -3.444  1.00  0.00    -0.368 N 
ATOM     21  O   UNL     1      -1.687   1.374  -4.406  1.00  0.00    -0.273 OA
ATOM     22  H   UNL     1      -4.040   2.425  -2.614  1.00  0.00     0.159 HD
ATOM     23  H   UNL     1      -3.932   2.483  -4.314  1.00  0.00     0.159 HD
ENDBRANCH  18  19
ENDBRANCH  14  18
ENDBRANCH  12  14
ENDBRANCH   8  12
ENDBRANCH   6   7
ENDBRANCH   3   6
ENDBRANCH   1   2
BRANCH   1  24
ATOM     24  C   UNL     1      -3.324   1.730   1.196  1.00  0.00     0.042 C 
BRANCH  24  25
ATOM     25  C   UNL     1      -3.790   2.789   2.179  1.00  0.00     0.118 C 
BRANCH  25  26
ATOM     26  N   UNL     1      -2.646   3.550   2.657  1.00  0.00    -0.352 N 
ATOM     27  C   UNL     1      -2.603   4.738   3.334  1.00  0.00     0.251 C 
ATOM     28  H   UNL     1      -1.768   3.148   2.465  1.00  0.00     0.163 HD
ATOM     29  O   UNL     1      -1.550   5.371   3.332  1.00  0.00    -0.269 OA
BRANCH  27  30
ATOM     30  C   UNL     1      -3.789   5.264   4.037  1.00  0.00     0.039 A 
ATOM     31  C   UNL     1      -3.931   6.654   4.118  1.00  0.00     0.014 A 
ATOM     32  C   UNL     1      -4.707   4.420   4.672  1.00  0.00     0.014 A 
ATOM     33  C   UNL     1      -5.017   7.195   4.792  1.00  0.00     0.010 A 
ATOM     34  C   UNL     1      -5.814   4.954   5.312  1.00  0.00     0.010 A 
ATOM     35  C   UNL     1      -5.967   6.341   5.365  1.00  0.00    -0.014 A 
BRANCH  35  36
ATOM     36  C   UNL     1      -7.225   6.920   5.874  1.00  0.00     0.031 A 
ATOM     37  C   UNL     1      -8.144   7.348   4.685  1.00  0.00     0.074 A 
ATOM     38  C   UNL     1      -7.325   6.989   7.238  1.00  0.00     0.049 A 
ATOM     39  N   UNL     1      -8.956   8.356   4.529  1.00  0.00    -0.248 NA
ATOM     40  C   UNL     1      -8.028   6.571   3.412  1.00  0.00     0.031 C 
ATOM     41  C   UNL     1      -6.330   6.486   8.225  1.00  0.00     0.029 A 
ATOM     42  N   UNL     1      -8.274   7.497   8.085  1.00  0.00    -0.354 N 
ATOM     43  C   UNL     1      -9.597   8.199   3.268  1.00  0.00     0.074 A 
ATOM     44  C   UNL     1      -8.868   7.182   2.575  1.00  0.00     0.031 C 
ATOM     45  C   UNL     1      -6.681   6.809   9.494  1.00  0.00     0.029 A 
ATOM     46  C   UNL     1      -7.916   7.560   9.467  1.00  0.00     0.049 A 
ATOM     47  H   UNL     1      -9.153   7.801   7.761  1.00  0.00     0.167 HD
ATOM     48  C   UNL     1     -10.793   8.775   2.935  1.00  0.00     0.034 A 
ATOM     49  C   UNL     1      -8.537   8.265  10.470  1.00  0.00     0.034 A 
ATOM     50  C   UNL     1     -11.293   9.540   4.027  1.00  0.00     0.049 A 
ATOM     51  C   UNL     1      -9.632   8.926   9.745  1.00  0.00     0.074 A 
ATOM     52  C   UNL     1     -11.285  10.841   4.460  1.00  0.00     0.029 A 
ATOM     53  N   UNL     1     -12.037   8.811   4.920  1.00  0.00    -0.354 N 
ATOM     54  N   UNL     1     -10.719   8.353   9.345  1.00  0.00    -0.248 NA
ATOM     55  C   UNL     1      -9.341  10.252   9.202  1.00  0.00     0.031 C 
ATOM     56  C   UNL     1     -11.860  10.806   5.759  1.00  0.00     0.029 A 
ATOM     57  C   UNL     1     -11.977   9.464   6.114  1.00  0.00     0.049 A 
ATOM     58  H   UNL     1     -12.522   7.975   4.733  1.00  0.00     0.167 HD
ATOM     59  C   UNL     1     -11.158   9.147   8.315  1.00  0.00     0.074 A 
ATOM     60  C   UNL     1     -10.334  10.351   8.328  1.00  0.00     0.031 C 
ATOM     61  C   UNL     1     -11.910   8.657   7.298  1.00  0.00     0.034 A 
BRANCH  48  62
ATOM     62  C   UNL     1     -11.834   8.492   1.845  1.00  0.00     0.023 A 
ATOM     63  C   UNL     1     -12.945   9.383   1.805  1.00  0.00     0.031 A 
ATOM     64  C   UNL     1     -12.007   7.288   1.148  1.00  0.00     0.131 A 
ATOM     65  C   UNL     1     -14.189   9.006   1.281  1.00  0.00     0.055 A 
ATOM     66  C   UNL     1     -13.233   6.948   0.540  1.00  0.00     0.041 A 
ATOM     67  F   UNL     1     -11.045   6.359   1.091  1.00  0.00    -0.206 F 
ATOM     68  C   UNL     1     -14.344   7.783   0.646  1.00  0.00     0.022 A 
BRANCH  65  69
ATOM     69  S   UNL     1     -15.627  10.065   1.635  1.00  0.00     0.124 S 
ATOM     70  O   UNL     1     -15.610  10.134   3.091  1.00  0.00    -0.237 OA
ATOM     71  O   UNL     1     -15.276  11.297   0.934  1.00  0.00    -0.237 OA
ATOM     72  O   UNL     1     -16.745   9.322   1.059  1.00  0.00    -0.744 OA
ENDBRANCH  65  69
ENDBRANCH  48  62
BRANCH  49  73
ATOM     73  C   UNL     1      -8.337   8.709  11.911  1.00  0.00     0.023 A 
ATOM     74  C   UNL     1      -7.449   8.165  12.857  1.00  0.00     0.031 A 
ATOM     75  C   UNL     1      -9.102   9.825  12.390  1.00  0.00     0.131 A 
ATOM     76  C   UNL     1      -7.314   8.769  14.146  1.00  0.00     0.055 A 
ATOM     77  C   UNL     1      -8.913  10.451  13.621  1.00  0.00     0.041 A 
ATOM     78  F   UNL     1     -10.082  10.382  11.665  1.00  0.00    -0.206 F 
ATOM     79  C   UNL     1      -8.000   9.933  14.505  1.00  0.00     0.022 A 
BRANCH  76  80
ATOM     80  S   UNL     1      -6.216   8.064  15.418  1.00  0.00     0.124 S 
ATOM     81  O   UNL     1      -7.070   7.053  16.030  1.00  0.00    -0.237 OA
ATOM     82  O   UNL     1      -5.089   7.569  14.634  1.00  0.00    -0.237 OA
ATOM     83  O   UNL     1      -5.908   9.212  16.272  1.00  0.00    -0.744 OA
ENDBRANCH  76  80
ENDBRANCH  49  73
BRANCH  61  84
ATOM     84  C   UNL     1     -12.155   7.147   7.366  1.00  0.00     0.023 A 
ATOM     85  C   UNL     1     -13.046   6.577   8.283  1.00  0.00     0.031 A 
ATOM     86  C   UNL     1     -11.392   6.233   6.601  1.00  0.00     0.131 A 
ATOM     87  C   UNL     1     -13.147   5.172   8.403  1.00  0.00     0.055 A 
ATOM     88  C   UNL     1     -11.496   4.844   6.707  1.00  0.00     0.041 A 
ATOM     89  F   UNL     1     -10.508   6.669   5.705  1.00  0.00    -0.206 F 
ATOM     90  C   UNL     1     -12.381   4.304   7.618  1.00  0.00     0.022 A 
BRANCH  87  91
ATOM     91  S   UNL     1     -14.312   4.462   9.596  1.00  0.00     0.124 S 
ATOM     92  O   UNL     1     -13.706   4.808  10.875  1.00  0.00    -0.237 OA
ATOM     93  O   UNL     1     -15.556   5.150   9.267  1.00  0.00    -0.237 OA
ATOM     94  O   UNL     1     -14.302   3.034   9.274  1.00  0.00    -0.744 OA
ENDBRANCH  87  91
ENDBRANCH  61  84
ENDBRANCH  35  36
ENDBRANCH  27  30
ENDBRANCH  25  26
ENDBRANCH  24  25
ENDBRANCH   1  24
TORSDOF 19
