REMARK SMILES CC(C)=CC[N@H+]1CCCC[C@H]1C(=O)NCCCNC(=O)c1ccc(-c2c3nc(c(-c4cc(S(=O)(=O)[O-])ccc4F)c4ccc([nH]4)c(-c4cc(S(=O)(=O)[O-])ccc4F)c4nc(c(-c5cc(S(=O)(=O)[O-])ccc5F)c5ccc2[nH]5)C=C4)C=C3)cc1
REMARK SMILES IDX 16 1 15 2 14 3 12 4 13 5 11 7 6 8 7 9 8 11 10 12 9 13 5 14
REMARK SMILES IDX 4 15 1 16 2 17 3 18 17 19 18 20 19 21 20 23 21 24 22 25
REMARK SMILES IDX 83 26 23 27 82 28 24 29 25 30 26 31 76 32 27 33 81 34 75 35
REMARK SMILES IDX 77 36 28 37 80 38 74 39 73 40 29 42 61 43 41 44 60 45 42 46
REMARK SMILES IDX 45 47 59 48 78 49 43 50 44 51 58 53 79 54 46 55 30 56 31 57
REMARK SMILES IDX 39 58 32 59 38 60 40 61 37 62 33 63 34 64 35 65 36 66 62 67
REMARK SMILES IDX 63 68 71 69 64 70 70 71 72 72 69 73 65 74 66 75 67 76 68 77
REMARK SMILES IDX 47 78 48 79 56 80 49 81 55 82 57 83 54 84 50 85 51 86 52 87
REMARK SMILES IDX 53 88
REMARK H PARENT 14 6 6 10 18 22 77 41 45 52
REMARK Flexibility Score: inf
ROOT
ATOM      1  C   UNL     1       0.847  -0.076  -4.158  1.00  0.00     0.042 C 
ENDROOT
BRANCH   1   2
ATOM      2  C   UNL     1       1.443  -1.276  -3.458  1.00  0.00     0.118 C 
BRANCH   2   3
ATOM      3  N   UNL     1       2.549  -1.936  -4.106  1.00  0.00    -0.351 N 
ATOM      4  C   UNL     1       3.584  -2.662  -3.588  1.00  0.00     0.278 C 
ATOM      5  O   UNL     1       4.269  -3.237  -4.445  1.00  0.00    -0.268 OA
ATOM      6  H   UNL     1       2.560  -1.849  -5.086  1.00  0.00     0.163 HD
BRANCH   4   7
ATOM      7  C   UNL     1       3.986  -2.690  -2.068  1.00  0.00     0.274 C 
ATOM      8  N   UNL     1       3.069  -3.379  -1.099  1.00  0.00    -0.321 N 
ATOM      9  C   UNL     1       2.816  -4.761  -1.501  1.00  0.00     0.263 C 
ATOM     10  H   UNL     1       3.551  -3.435  -0.202  1.00  0.00     0.349 HD
ATOM     11  C   UNL     1       4.117  -5.562  -1.418  1.00  0.00     0.062 C 
ATOM     12  C   UNL     1       5.353  -3.394  -1.902  1.00  0.00     0.076 C 
ATOM     13  C   UNL     1       5.279  -4.905  -2.159  1.00  0.00     0.012 C 
BRANCH   8  14
ATOM     14  C   UNL     1       1.879  -2.610  -0.804  1.00  0.00     0.291 C 
BRANCH  14  15
ATOM     15  C   UNL     1       1.188  -2.680   0.527  1.00  0.00     0.032 C 
ATOM     16  C   UNL     1       0.676  -0.202   0.496  1.00  0.00     0.039 C 
ATOM     17  C   UNL     1       0.569  -1.601   1.067  1.00  0.00    -0.075 C 
ATOM     18  C   UNL     1      -0.365  -1.724   2.237  1.00  0.00     0.039 C 
ENDBRANCH  14  15
ENDBRANCH   8  14
ENDBRANCH   4   7
ENDBRANCH   2   3
ENDBRANCH   1   2
BRANCH   1  19
ATOM     19  C   UNL     1       0.198  -0.376  -5.493  1.00  0.00     0.118 C 
BRANCH  19  20
ATOM     20  N   UNL     1      -1.004  -1.196  -5.398  1.00  0.00    -0.352 N 
ATOM     21  C   UNL     1      -2.345  -0.879  -5.457  1.00  0.00     0.251 C 
ATOM     22  H   UNL     1      -0.825  -2.156  -5.267  1.00  0.00     0.163 HD
ATOM     23  O   UNL     1      -3.171  -1.763  -5.227  1.00  0.00    -0.269 OA
BRANCH  21  24
ATOM     24  C   UNL     1      -2.801   0.503  -5.734  1.00  0.00     0.039 A 
ATOM     25  C   UNL     1      -3.937   0.996  -5.083  1.00  0.00     0.014 A 
ATOM     26  C   UNL     1      -2.123   1.325  -6.628  1.00  0.00     0.014 A 
ATOM     27  C   UNL     1      -4.314   2.334  -5.251  1.00  0.00     0.010 A 
ATOM     28  C   UNL     1      -2.401   2.685  -6.674  1.00  0.00     0.010 A 
ATOM     29  C   UNL     1      -3.511   3.209  -5.999  1.00  0.00    -0.014 A 
BRANCH  29  30
ATOM     30  C   UNL     1      -3.817   4.661  -6.132  1.00  0.00     0.031 A 
ATOM     31  C   UNL     1      -3.981   5.268  -7.504  1.00  0.00     0.074 A 
ATOM     32  C   UNL     1      -3.849   5.448  -5.037  1.00  0.00     0.049 A 
ATOM     33  N   UNL     1      -4.095   6.525  -7.848  1.00  0.00    -0.248 NA
ATOM     34  C   UNL     1      -3.960   4.338  -8.644  1.00  0.00     0.031 C 
ATOM     35  C   UNL     1      -3.649   4.994  -3.658  1.00  0.00     0.029 A 
ATOM     36  N   UNL     1      -4.051   6.800  -4.909  1.00  0.00    -0.354 N 
ATOM     37  C   UNL     1      -4.120   6.536  -9.240  1.00  0.00     0.074 A 
ATOM     38  C   UNL     1      -3.929   5.169  -9.673  1.00  0.00     0.031 C 
ATOM     39  C   UNL     1      -3.775   6.040  -2.825  1.00  0.00     0.029 A 
ATOM     40  C   UNL     1      -4.009   7.248  -3.608  1.00  0.00     0.049 A 
ATOM     41  H   UNL     1      -4.211   7.394  -5.677  1.00  0.00     0.167 HD
ATOM     42  C   UNL     1      -4.318   7.581 -10.081  1.00  0.00     0.034 A 
ATOM     43  C   UNL     1      -4.132   8.492  -3.104  1.00  0.00     0.034 A 
ATOM     44  C   UNL     1      -4.554   8.930  -9.630  1.00  0.00     0.049 A 
ATOM     45  C   UNL     1      -4.363   9.639  -4.056  1.00  0.00     0.074 A 
ATOM     46  C   UNL     1      -4.841  10.054 -10.385  1.00  0.00     0.029 A 
ATOM     47  N   UNL     1      -4.533   9.338  -8.302  1.00  0.00    -0.354 N 
ATOM     48  N   UNL     1      -4.434   9.624  -5.367  1.00  0.00    -0.248 NA
ATOM     49  C   UNL     1      -4.540  10.969  -3.458  1.00  0.00     0.031 C 
ATOM     50  C   UNL     1      -4.931  11.150  -9.520  1.00  0.00     0.029 A 
ATOM     51  C   UNL     1      -4.776  10.700  -8.219  1.00  0.00     0.049 A 
ATOM     52  H   UNL     1      -4.369   8.746  -7.533  1.00  0.00     0.167 HD
ATOM     53  C   UNL     1      -4.698  10.937  -5.747  1.00  0.00     0.074 A 
ATOM     54  C   UNL     1      -4.787  11.712  -4.527  1.00  0.00     0.031 C 
ATOM     55  C   UNL     1      -4.856  11.457  -6.992  1.00  0.00     0.034 A 
BRANCH  42  56
ATOM     56  C   UNL     1      -4.276   7.300 -11.566  1.00  0.00     0.023 A 
ATOM     57  C   UNL     1      -5.182   6.415 -12.178  1.00  0.00     0.031 A 
ATOM     58  C   UNL     1      -3.292   7.892 -12.377  1.00  0.00     0.131 A 
ATOM     59  C   UNL     1      -5.030   6.077 -13.531  1.00  0.00     0.055 A 
ATOM     60  C   UNL     1      -3.204   7.623 -13.745  1.00  0.00     0.041 A 
ATOM     61  F   UNL     1      -2.385   8.730 -11.851  1.00  0.00    -0.206 F 
ATOM     62  C   UNL     1      -4.065   6.697 -14.326  1.00  0.00     0.022 A 
BRANCH  59  63
ATOM     63  S   UNL     1      -6.009   4.701 -14.192  1.00  0.00     0.124 S 
ATOM     64  O   UNL     1      -5.584   3.599 -13.331  1.00  0.00    -0.237 OA
ATOM     65  O   UNL     1      -7.377   5.167 -14.005  1.00  0.00    -0.237 OA
ATOM     66  O   UNL     1      -5.566   4.602 -15.582  1.00  0.00    -0.744 OA
ENDBRANCH  59  63
ENDBRANCH  42  56
BRANCH  43  67
ATOM     67  C   UNL     1      -4.044   8.728  -1.633  1.00  0.00     0.023 A 
ATOM     68  C   UNL     1      -5.151   9.205  -0.912  1.00  0.00     0.031 A 
ATOM     69  C   UNL     1      -2.843   8.519  -0.933  1.00  0.00     0.131 A 
ATOM     70  C   UNL     1      -5.022   9.504   0.453  1.00  0.00     0.055 A 
ATOM     71  C   UNL     1      -2.735   8.767   0.437  1.00  0.00     0.041 A 
ATOM     72  F   UNL     1      -1.756   8.057  -1.571  1.00  0.00    -0.206 F 
ATOM     73  C   UNL     1      -3.826   9.276   1.135  1.00  0.00     0.022 A 
BRANCH  70  74
ATOM     74  S   UNL     1      -6.422  10.280   1.307  1.00  0.00     0.124 S 
ATOM     75  O   UNL     1      -6.624  11.485   0.512  1.00  0.00    -0.237 OA
ATOM     76  O   UNL     1      -7.452   9.253   1.192  1.00  0.00    -0.237 OA
ATOM     77  O   UNL     1      -5.914  10.501   2.659  1.00  0.00    -0.744 OA
ENDBRANCH  70  74
ENDBRANCH  43  67
BRANCH  55  78
ATOM     78  C   UNL     1      -5.191  12.924  -7.084  1.00  0.00     0.023 A 
ATOM     79  C   UNL     1      -4.273  13.919  -6.705  1.00  0.00     0.031 A 
ATOM     80  C   UNL     1      -6.453  13.331  -7.553  1.00  0.00     0.131 A 
ATOM     81  C   UNL     1      -4.650  15.269  -6.748  1.00  0.00     0.055 A 
ATOM     82  C   UNL     1      -6.800  14.678  -7.653  1.00  0.00     0.041 A 
ATOM     83  F   UNL     1      -7.369  12.422  -7.927  1.00  0.00    -0.206 F 
ATOM     84  C   UNL     1      -5.901  15.656  -7.236  1.00  0.00     0.022 A 
BRANCH  81  85
ATOM     85  S   UNL     1      -3.516  16.511  -6.070  1.00  0.00     0.124 S 
ATOM     86  O   UNL     1      -3.361  16.059  -4.691  1.00  0.00    -0.237 OA
ATOM     87  O   UNL     1      -2.343  16.362  -6.925  1.00  0.00    -0.237 OA
ATOM     88  O   UNL     1      -4.246  17.767  -6.233  1.00  0.00    -0.744 OA
ENDBRANCH  81  85
ENDBRANCH  55  78
ENDBRANCH  29  30
ENDBRANCH  21  24
ENDBRANCH  19  20
ENDBRANCH   1  19
TORSDOF 15
