REMARK SMILES C[C@@H]1[C@@H](C(=O)NCCCNC(=O)c2ccc(-c3c4nc(c(-c5cc(S(=O)(=O)[O-])ccc5F)c5ccc([nH]5)c(-c5cc(S(=O)(=O)[O-])ccc5F)c5nc(c(-c6cc(S(=O)(=O)[O-])ccc6F)c6ccc3[nH]6)C=C5)C=C4)cc2)CCN1C(=O)N(C)Cc1ccsc1
REMARK SMILES IDX 7 1 6 2 4 3 5 4 3 6 1 7 2 8 78 9 76 10 77 11 79 12 80 13
REMARK SMILES IDX 81 14 82 15 83 16 84 17 85 18 88 19 86 20 87 21 8 22 9 23
REMARK SMILES IDX 10 24 11 25 12 27 13 28 14 29 75 30 15 31 74 32 16 33 17 34
REMARK SMILES IDX 18 35 68 36 19 37 73 38 67 39 69 40 20 41 72 42 66 43 65 44
REMARK SMILES IDX 21 46 53 47 33 48 52 49 34 50 37 51 51 52 70 53 35 54 36 55
REMARK SMILES IDX 50 57 71 58 38 59 22 60 23 61 31 62 24 63 30 64 32 65 29 66
REMARK SMILES IDX 25 67 26 68 27 69 28 70 54 71 55 72 63 73 56 74 62 75 64 76
REMARK SMILES IDX 61 77 57 78 58 79 59 80 60 81 39 82 40 83 48 84 41 85 47 86
REMARK SMILES IDX 49 87 46 88 42 89 43 90 44 91 45 92
REMARK H PARENT 6 5 10 26 69 45 37 56
REMARK Flexibility Score: inf
ROOT
ATOM      1  C   UNL     1      -2.668   2.790  -0.763  1.00  0.00     0.117 C 
ENDROOT
BRANCH   1   2
ATOM      2  N   UNL     1      -1.881   2.110  -1.774  1.00  0.00    -0.356 N 
ATOM      3  C   UNL     1      -0.799   1.299  -1.645  1.00  0.00     0.225 C 
ATOM      4  O   UNL     1      -0.285   0.884  -2.684  1.00  0.00    -0.275 OA
ATOM      5  H   UNL     1      -2.178   2.261  -2.700  1.00  0.00     0.163 HD
BRANCH   3   6
ATOM      6  C   UNL     1      -0.226   1.002  -0.261  1.00  0.00     0.102 C 
ATOM      7  C   UNL     1       1.876   0.057   0.787  1.00  0.00     0.032 C 
ATOM      8  C   UNL     1       0.861  -0.099  -0.353  1.00  0.00     0.096 C 
ATOM      9  N   UNL     1       0.104  -1.356  -0.244  1.00  0.00    -0.321 N 
ATOM     10  C   UNL     1      -1.229   0.365   0.700  1.00  0.00     0.037 C 
ATOM     11  C   UNL     1      -1.232  -1.083   0.269  1.00  0.00     0.122 C 
BRANCH   9  12
ATOM     12  C   UNL     1       0.322  -2.643  -0.652  1.00  0.00     0.320 C 
ATOM     13  O   UNL     1      -0.632  -3.435  -0.597  1.00  0.00    -0.248 OA
BRANCH  12  14
ATOM     14  N   UNL     1       1.552  -3.112  -1.048  1.00  0.00    -0.323 N 
ATOM     15  C   UNL     1       2.789  -2.419  -1.362  1.00  0.00     0.149 C 
BRANCH  14  16
ATOM     16  C   UNL     1       1.634  -4.565  -1.208  1.00  0.00     0.157 C 
BRANCH  16  17
ATOM     17  C   UNL     1       1.716  -5.285   0.121  1.00  0.00    -0.018 A 
ATOM     18  C   UNL     1       1.715  -6.718   0.232  1.00  0.00     0.017 A 
ATOM     19  C   UNL     1       1.752  -4.713   1.383  1.00  0.00     0.070 A 
ATOM     20  C   UNL     1       1.732  -7.158   1.537  1.00  0.00     0.065 A 
ATOM     21  S   UNL     1       1.769  -5.863   2.647  1.00  0.00    -0.152 S 
ENDBRANCH  16  17
ENDBRANCH  14  16
ENDBRANCH  12  14
ENDBRANCH   9  12
ENDBRANCH   3   6
ENDBRANCH   1   2
BRANCH   1  22
ATOM     22  C   UNL     1      -3.003   4.221  -1.140  1.00  0.00     0.042 C 
BRANCH  22  23
ATOM     23  C   UNL     1      -3.730   4.371  -2.468  1.00  0.00     0.118 C 
BRANCH  23  24
ATOM     24  N   UNL     1      -5.043   3.744  -2.483  1.00  0.00    -0.352 N 
ATOM     25  C   UNL     1      -6.299   4.309  -2.524  1.00  0.00     0.251 C 
ATOM     26  H   UNL     1      -5.033   2.760  -2.461  1.00  0.00     0.163 HD
ATOM     27  O   UNL     1      -7.285   3.599  -2.368  1.00  0.00    -0.269 OA
BRANCH  25  28
ATOM     28  C   UNL     1      -6.451   5.771  -2.707  1.00  0.00     0.039 A 
ATOM     29  C   UNL     1      -7.381   6.460  -1.925  1.00  0.00     0.014 A 
ATOM     30  C   UNL     1      -5.667   6.466  -3.628  1.00  0.00     0.014 A 
ATOM     31  C   UNL     1      -7.450   7.854  -2.000  1.00  0.00     0.010 A 
ATOM     32  C   UNL     1      -5.655   7.856  -3.617  1.00  0.00     0.010 A 
ATOM     33  C   UNL     1      -6.549   8.569  -2.806  1.00  0.00    -0.014 A 
BRANCH  33  34
ATOM     34  C   UNL     1      -6.530  10.057  -2.832  1.00  0.00     0.031 A 
ATOM     35  C   UNL     1      -6.766  10.787  -4.128  1.00  0.00     0.074 A 
ATOM     36  C   UNL     1      -6.225  10.746  -1.713  1.00  0.00     0.049 A 
ATOM     37  N   UNL     1      -6.678  12.067  -4.387  1.00  0.00    -0.248 NA
ATOM     38  C   UNL     1      -7.107   9.962  -5.297  1.00  0.00     0.031 C 
ATOM     39  C   UNL     1      -5.929  10.153  -0.406  1.00  0.00     0.029 A 
ATOM     40  N   UNL     1      -6.103  12.096  -1.496  1.00  0.00    -0.354 N 
ATOM     41  C   UNL     1      -6.929  12.195  -5.750  1.00  0.00     0.074 A 
ATOM     42  C   UNL     1      -7.099  10.857  -6.272  1.00  0.00     0.031 C 
ATOM     43  C   UNL     1      -5.694  11.134   0.480  1.00  0.00     0.029 A 
ATOM     44  C   UNL     1      -5.769  12.422  -0.201  1.00  0.00     0.049 A 
ATOM     45  H   UNL     1      -6.241  12.769  -2.201  1.00  0.00     0.167 HD
ATOM     46  C   UNL     1      -7.038  13.325  -6.492  1.00  0.00     0.034 A 
ATOM     47  C   UNL     1      -5.538  13.621   0.371  1.00  0.00     0.034 A 
ATOM     48  C   UNL     1      -6.892  14.654  -5.951  1.00  0.00     0.049 A 
ATOM     49  C   UNL     1      -5.653  14.863  -0.476  1.00  0.00     0.074 A 
ATOM     50  C   UNL     1      -7.038  15.869  -6.597  1.00  0.00     0.029 A 
ATOM     51  N   UNL     1      -6.566  14.943  -4.632  1.00  0.00    -0.354 N 
ATOM     52  N   UNL     1      -5.934  14.969  -1.755  1.00  0.00    -0.248 NA
ATOM     53  C   UNL     1      -5.428  16.148   0.200  1.00  0.00     0.031 C 
ATOM     54  C   UNL     1      -6.738  16.889  -5.687  1.00  0.00     0.029 A 
ATOM     55  C   UNL     1      -6.480  16.316  -4.452  1.00  0.00     0.049 A 
ATOM     56  H   UNL     1      -6.417  14.272  -3.927  1.00  0.00     0.167 HD
ATOM     57  C   UNL     1      -5.952  16.335  -2.026  1.00  0.00     0.074 A 
ATOM     58  C   UNL     1      -5.668  17.010  -0.777  1.00  0.00     0.031 C 
ATOM     59  C   UNL     1      -6.188  16.974  -3.201  1.00  0.00     0.034 A 
BRANCH  46  60
ATOM     60  C   UNL     1      -7.311  13.161  -7.969  1.00  0.00     0.023 A 
ATOM     61  C   UNL     1      -8.486  12.547  -8.438  1.00  0.00     0.031 A 
ATOM     62  C   UNL     1      -6.371  13.591  -8.922  1.00  0.00     0.131 A 
ATOM     63  C   UNL     1      -8.652  12.303  -9.810  1.00  0.00     0.055 A 
ATOM     64  C   UNL     1      -6.582  13.426 -10.293  1.00  0.00     0.041 A 
ATOM     65  F   UNL     1      -5.221  14.166  -8.537  1.00  0.00    -0.206 F 
ATOM     66  C   UNL     1      -7.720  12.762 -10.743  1.00  0.00     0.022 A 
BRANCH  63  67
ATOM     67  S   UNL     1     -10.024  11.242 -10.339  1.00  0.00     0.124 S 
ATOM     68  O   UNL     1      -9.730  10.003  -9.623  1.00  0.00    -0.237 OA
ATOM     69  O   UNL     1     -11.192  11.984  -9.880  1.00  0.00    -0.237 OA
ATOM     70  O   UNL     1      -9.860  11.168 -11.790  1.00  0.00    -0.744 OA
ENDBRANCH  63  67
ENDBRANCH  46  60
BRANCH  47  71
ATOM     71  C   UNL     1      -5.174  13.715   1.814  1.00  0.00     0.023 A 
ATOM     72  C   UNL     1      -6.022  14.356   2.731  1.00  0.00     0.031 A 
ATOM     73  C   UNL     1      -3.953  13.206   2.290  1.00  0.00     0.131 A 
ATOM     74  C   UNL     1      -5.618  14.514   4.066  1.00  0.00     0.055 A 
ATOM     75  C   UNL     1      -3.579  13.319   3.631  1.00  0.00     0.041 A 
ATOM     76  F   UNL     1      -3.107  12.578   1.458  1.00  0.00    -0.206 F 
ATOM     77  C   UNL     1      -4.408  13.989   4.525  1.00  0.00     0.022 A 
BRANCH  74  78
ATOM     78  S   UNL     1      -6.662  15.496   5.178  1.00  0.00     0.124 S 
ATOM     79  O   UNL     1      -6.713  16.777   4.483  1.00  0.00    -0.237 OA
ATOM     80  O   UNL     1      -7.899  14.723   5.192  1.00  0.00    -0.237 OA
ATOM     81  O   UNL     1      -5.915  15.496   6.434  1.00  0.00    -0.744 OA
ENDBRANCH  74  78
ENDBRANCH  47  71
BRANCH  59  82
ATOM     82  C   UNL     1      -6.196  18.482  -3.170  1.00  0.00     0.023 A 
ATOM     83  C   UNL     1      -5.030  19.225  -2.917  1.00  0.00     0.031 A 
ATOM     84  C   UNL     1      -7.395  19.184  -3.390  1.00  0.00     0.131 A 
ATOM     85  C   UNL     1      -5.098  20.624  -2.834  1.00  0.00     0.055 A 
ATOM     86  C   UNL     1      -7.444  20.579  -3.367  1.00  0.00     0.041 A 
ATOM     87  F   UNL     1      -8.539  18.525  -3.635  1.00  0.00    -0.206 F 
ATOM     88  C   UNL     1      -6.294  21.306  -3.075  1.00  0.00     0.022 A 
BRANCH  85  89
ATOM     89  S   UNL     1      -3.620  21.538  -2.318  1.00  0.00     0.124 S 
ATOM     90  O   UNL     1      -3.344  20.956  -1.009  1.00  0.00    -0.237 OA
ATOM     91  O   UNL     1      -2.666  21.212  -3.374  1.00  0.00    -0.237 OA
ATOM     92  O   UNL     1      -4.067  22.930  -2.296  1.00  0.00    -0.744 OA
ENDBRANCH  85  89
ENDBRANCH  59  82
ENDBRANCH  33  34
ENDBRANCH  25  28
ENDBRANCH  23  24
ENDBRANCH  22  23
ENDBRANCH   1  22
TORSDOF 17
