REMARK SMILES Cn1c(C(=O)N2CCC[C@@H](C(=O)NCCCNC(=O)c3ccc(-c4c5nc(c(-c6cc(S(=O)(=O)[O-])ccc6F)c6ccc([nH]6)c(-c6cc(S(=O)(=O)[O-])ccc6F)c6nc(c(-c7cc(S(=O)(=O)[O-])ccc7F)c7ccc4[nH]7)C=C6)C=C5)cc3)C2)cc2sccc21
REMARK SMILES IDX 15 1 14 2 13 3 11 4 12 5 10 7 6 8 7 9 83 10 8 11 9 12 4 13
REMARK SMILES IDX 5 14 3 15 1 16 2 17 89 18 84 19 85 20 88 21 86 22 87 23
REMARK SMILES IDX 16 24 17 25 18 26 19 28 20 29 21 30 82 31 22 32 81 33 23 34
REMARK SMILES IDX 24 35 25 36 75 37 26 38 80 39 74 40 76 41 27 42 79 43 73 44
REMARK SMILES IDX 72 45 28 47 60 48 40 49 59 50 41 51 44 52 58 53 77 54 42 55
REMARK SMILES IDX 43 56 57 58 78 59 45 60 29 61 30 62 38 63 31 64 37 65 39 66
REMARK SMILES IDX 36 67 32 68 33 69 34 70 35 71 61 72 62 73 70 74 63 75 69 76
REMARK SMILES IDX 71 77 68 78 64 79 65 80 66 81 67 82 46 83 47 84 55 85 48 86
REMARK SMILES IDX 54 87 56 88 53 89 49 90 50 91 51 92 52 93
REMARK H PARENT 13 6 17 27 76 46 44 57
REMARK Flexibility Score: inf
ROOT
ATOM      1  C   UNL     1       4.794   5.065   4.159  1.00  0.00     0.042 C 
ENDROOT
BRANCH   1   2
ATOM      2  C   UNL     1       3.794   4.020   4.658  1.00  0.00     0.117 C 
BRANCH   2   3
ATOM      3  N   UNL     1       2.900   4.543   5.681  1.00  0.00    -0.356 N 
ATOM      4  C   UNL     1       1.610   4.976   5.567  1.00  0.00     0.224 C 
ATOM      5  O   UNL     1       1.034   5.405   6.565  1.00  0.00    -0.275 OA
ATOM      6  H   UNL     1       3.281   4.592   6.588  1.00  0.00     0.163 HD
BRANCH   4   7
ATOM      7  C   UNL     1       0.914   4.843   4.229  1.00  0.00     0.098 C 
ATOM      8  N   UNL     1      -0.423   3.273   2.881  1.00  0.00    -0.337 N 
ATOM      9  C   UNL     1      -1.437   4.280   2.595  1.00  0.00     0.120 C 
ATOM     10  C   UNL     1       0.316   3.432   4.134  1.00  0.00     0.133 C 
ATOM     11  C   UNL     1      -0.886   5.695   2.706  1.00  0.00     0.022 C 
ATOM     12  C   UNL     1      -0.186   5.899   4.049  1.00  0.00     0.017 C 
BRANCH   8  13
ATOM     13  C   UNL     1      -0.096   2.345   1.898  1.00  0.00     0.270 C 
ATOM     14  O   UNL     1      -0.096   2.684   0.715  1.00  0.00    -0.267 OA
BRANCH  13  15
ATOM     15  C   UNL     1       0.105   0.956   2.320  1.00  0.00     0.108 A 
ATOM     16  C   UNL     1       1.065   0.014   0.147  1.00  0.00     0.150 C 
ATOM     17  N   UNL     1       0.570  -0.064   1.501  1.00  0.00    -0.339 N 
ATOM     18  C   UNL     1       0.475  -1.265   2.175  1.00  0.00     0.059 A 
ATOM     19  C   UNL     1      -0.245   0.375   3.538  1.00  0.00     0.053 A 
ATOM     20  C   UNL     1      -0.008  -1.019   3.421  1.00  0.00     0.053 A 
ATOM     21  C   UNL     1       0.719  -2.645   1.924  1.00  0.00     0.038 A 
ATOM     22  S   UNL     1      -0.184  -2.461   4.363  1.00  0.00    -0.142 S 
ATOM     23  C   UNL     1       0.384  -3.392   3.034  1.00  0.00     0.068 A 
ENDBRANCH  13  15
ENDBRANCH   8  13
ENDBRANCH   4   7
ENDBRANCH   2   3
ENDBRANCH   1   2
BRANCH   1  24
ATOM     24  C   UNL     1       5.855   5.391   5.200  1.00  0.00     0.118 C 
BRANCH  24  25
ATOM     25  N   UNL     1       6.755   4.269   5.466  1.00  0.00    -0.352 N 
ATOM     26  C   UNL     1       7.858   4.232   6.304  1.00  0.00     0.251 C 
ATOM     27  H   UNL     1       6.552   3.433   4.987  1.00  0.00     0.163 HD
ATOM     28  O   UNL     1       8.686   3.345   6.189  1.00  0.00    -0.269 OA
BRANCH  26  29
ATOM     29  C   UNL     1       8.014   5.299   7.315  1.00  0.00     0.039 A 
ATOM     30  C   UNL     1       9.260   5.882   7.563  1.00  0.00     0.014 A 
ATOM     31  C   UNL     1       6.879   5.745   7.983  1.00  0.00     0.014 A 
ATOM     32  C   UNL     1       9.330   6.983   8.418  1.00  0.00     0.010 A 
ATOM     33  C   UNL     1       6.925   6.918   8.697  1.00  0.00     0.010 A 
ATOM     34  C   UNL     1       8.151   7.518   8.961  1.00  0.00    -0.014 A 
BRANCH  34  35
ATOM     35  C   UNL     1       8.166   8.777   9.708  1.00  0.00     0.031 A 
ATOM     36  C   UNL     1       8.817   9.918   9.006  1.00  0.00     0.074 A 
ATOM     37  C   UNL     1       7.444   8.979  10.833  1.00  0.00     0.049 A 
ATOM     38  N   UNL     1       9.904  10.533   9.332  1.00  0.00    -0.248 NA
ATOM     39  C   UNL     1       8.270  10.341   7.706  1.00  0.00     0.031 C 
ATOM     40  C   UNL     1       6.519   8.049  11.494  1.00  0.00     0.029 A 
ATOM     41  N   UNL     1       7.289  10.118  11.565  1.00  0.00    -0.354 N 
ATOM     42  C   UNL     1      10.049  11.578   8.422  1.00  0.00     0.074 A 
ATOM     43  C   UNL     1       9.144  11.282   7.345  1.00  0.00     0.031 C 
ATOM     44  C   UNL     1       5.732   8.724  12.360  1.00  0.00     0.029 A 
ATOM     45  C   UNL     1       6.221  10.086  12.459  1.00  0.00     0.049 A 
ATOM     46  H   UNL     1       7.882  10.898  11.470  1.00  0.00     0.167 HD
ATOM     47  C   UNL     1      10.727  12.713   8.755  1.00  0.00     0.034 A 
ATOM     48  C   UNL     1       5.756  11.098  13.236  1.00  0.00     0.034 A 
ATOM     49  C   UNL     1      11.528  12.502   9.943  1.00  0.00     0.049 A 
ATOM     50  C   UNL     1       6.872  12.059  13.390  1.00  0.00     0.074 A 
ATOM     51  C   UNL     1      12.554  11.641  10.286  1.00  0.00     0.029 A 
ATOM     52  N   UNL     1      11.048  12.992  11.137  1.00  0.00    -0.354 N 
ATOM     53  N   UNL     1       7.987  11.760  14.002  1.00  0.00    -0.248 NA
ATOM     54  C   UNL     1       6.959  13.176  12.463  1.00  0.00     0.031 C 
ATOM     55  C   UNL     1      12.288  11.278  11.640  1.00  0.00     0.029 A 
ATOM     56  C   UNL     1      11.169  11.993  12.071  1.00  0.00     0.049 A 
ATOM     57  H   UNL     1      10.685  13.893  11.293  1.00  0.00     0.167 HD
ATOM     58  C   UNL     1       8.984  12.330  13.226  1.00  0.00     0.074 A 
ATOM     59  C   UNL     1       8.288  13.287  12.367  1.00  0.00     0.031 C 
ATOM     60  C   UNL     1      10.230  11.773  13.156  1.00  0.00     0.034 A 
BRANCH  47  61
ATOM     61  C   UNL     1      10.390  14.112   8.271  1.00  0.00     0.023 A 
ATOM     62  C   UNL     1      11.161  15.171   8.794  1.00  0.00     0.031 A 
ATOM     63  C   UNL     1       9.209  14.497   7.597  1.00  0.00     0.131 A 
ATOM     64  C   UNL     1      10.691  16.495   8.767  1.00  0.00     0.055 A 
ATOM     65  C   UNL     1       8.781  15.826   7.511  1.00  0.00     0.041 A 
ATOM     66  F   UNL     1       8.357  13.618   7.060  1.00  0.00    -0.206 F 
ATOM     67  C   UNL     1       9.501  16.831   8.133  1.00  0.00     0.022 A 
BRANCH  64  68
ATOM     68  S   UNL     1      11.565  17.732   9.761  1.00  0.00     0.124 S 
ATOM     69  O   UNL     1      11.603  17.083  11.067  1.00  0.00    -0.237 OA
ATOM     70  O   UNL     1      12.838  17.838   9.055  1.00  0.00    -0.237 OA
ATOM     71  O   UNL     1      10.702  18.908   9.672  1.00  0.00    -0.744 OA
ENDBRANCH  64  68
ENDBRANCH  47  61
BRANCH  48  72
ATOM     72  C   UNL     1       4.335  11.399  13.559  1.00  0.00     0.023 A 
ATOM     73  C   UNL     1       3.933  12.143  14.688  1.00  0.00     0.031 A 
ATOM     74  C   UNL     1       3.342  11.131  12.588  1.00  0.00     0.131 A 
ATOM     75  C   UNL     1       2.592  12.584  14.808  1.00  0.00     0.055 A 
ATOM     76  C   UNL     1       2.022  11.566  12.713  1.00  0.00     0.041 A 
ATOM     77  F   UNL     1       3.649  10.504  11.441  1.00  0.00    -0.206 F 
ATOM     78  C   UNL     1       1.642  12.303  13.823  1.00  0.00     0.022 A 
BRANCH  75  79
ATOM     79  S   UNL     1       2.075  13.602  16.230  1.00  0.00     0.124 S 
ATOM     80  O   UNL     1       2.285  12.699  17.356  1.00  0.00    -0.237 OA
ATOM     81  O   UNL     1       2.976  14.745  16.138  1.00  0.00    -0.237 OA
ATOM     82  O   UNL     1       0.672  13.906  15.942  1.00  0.00    -0.744 OA
ENDBRANCH  75  79
ENDBRANCH  48  72
BRANCH  60  83
ATOM     83  C   UNL     1      10.589  10.693  14.159  1.00  0.00     0.023 A 
ATOM     84  C   UNL     1       9.928   9.447  14.277  1.00  0.00     0.031 A 
ATOM     85  C   UNL     1      11.741  10.895  14.937  1.00  0.00     0.131 A 
ATOM     86  C   UNL     1      10.426   8.466  15.159  1.00  0.00     0.055 A 
ATOM     87  C   UNL     1      12.241   9.915  15.792  1.00  0.00     0.041 A 
ATOM     88  F   UNL     1      12.430  12.045  14.845  1.00  0.00    -0.206 F 
ATOM     89  C   UNL     1      11.583   8.697  15.910  1.00  0.00     0.022 A 
BRANCH  86  90
ATOM     90  S   UNL     1       9.575   6.863  15.344  1.00  0.00     0.124 S 
ATOM     91  O   UNL     1       8.195   7.241  15.626  1.00  0.00    -0.237 OA
ATOM     92  O   UNL     1       9.813   6.223  14.053  1.00  0.00    -0.237 OA
ATOM     93  O   UNL     1      10.274   6.234  16.467  1.00  0.00    -0.744 OA
ENDBRANCH  86  90
ENDBRANCH  60  83
ENDBRANCH  34  35
ENDBRANCH  26  29
ENDBRANCH  24  25
ENDBRANCH   1  24
TORSDOF 15
