REMARK SMILES CS(=O)(=O)c1ccc(/C=C(/C(=O)NCCCNC(=O)c2ccc(-c3c4nc(c(-c5cc(S(=O)(=O)[O-])ccc5F)c5ccc([nH]5)c(-c5cc(S(=O)(=O)[O-])ccc5F)c5nc(c(-c6cc(S(=O)(=O)[O-])ccc6F)c6ccc3[nH]6)C=C5)C=C4)cc2)c2cccc(-c3ccc(S(C)(=O)=O)cc3)c2)cc1
REMARK SMILES IDX 15 1 14 2 13 3 11 4 12 5 10 7 9 8 8 9 5 10 6 11 100 12 7 13
REMARK SMILES IDX 99 14 2 15 1 16 3 17 4 18 83 19 84 20 98 21 85 22 87 23
REMARK SMILES IDX 86 24 88 25 89 26 97 27 90 28 96 29 91 30 92 31 93 32 94 33
REMARK SMILES IDX 95 34 16 35 17 36 18 37 19 39 20 40 21 41 82 42 22 43 81 44
REMARK SMILES IDX 23 45 24 46 25 47 75 48 26 49 80 50 74 51 76 52 27 53 79 54
REMARK SMILES IDX 73 55 72 56 28 58 60 59 40 60 59 61 41 62 44 63 58 64 77 65
REMARK SMILES IDX 42 66 43 67 57 69 78 70 45 71 29 72 30 73 38 74 31 75 37 76
REMARK SMILES IDX 39 77 36 78 32 79 33 80 34 81 35 82 61 83 62 84 70 85 63 86
REMARK SMILES IDX 69 87 71 88 68 89 64 90 65 91 66 92 67 93 46 94 47 95 55 96
REMARK SMILES IDX 48 97 54 98 56 99 53 100 49 101 50 102 51 103 52 104
REMARK H PARENT 13 6 17 38 76 57 44 68
REMARK Flexibility Score: inf
ROOT
ATOM      1  C   UNL     1       5.556  -8.182   1.450  1.00  0.00     0.042 C 
ENDROOT
BRANCH   1   2
ATOM      2  C   UNL     1       4.579  -8.228   0.273  1.00  0.00     0.118 C 
BRANCH   2   3
ATOM      3  N   UNL     1       3.467  -9.118   0.554  1.00  0.00    -0.352 N 
ATOM      4  C   UNL     1       2.171  -8.936   0.916  1.00  0.00     0.251 C 
ATOM      5  O   UNL     1       1.510  -9.968   1.064  1.00  0.00    -0.269 OA
ATOM      6  H   UNL     1       3.707 -10.068   0.459  1.00  0.00     0.163 HD
BRANCH   4   7
ATOM      7  C   UNL     1       1.514  -7.579   1.051  1.00  0.00     0.047 C 
ATOM      8  C   UNL     1       2.194  -6.503   1.514  1.00  0.00     0.022 C 
BRANCH   8   9
ATOM      9  C   UNL     1       1.771  -5.086   1.633  1.00  0.00    -0.025 A 
ATOM     10  C   UNL     1       1.049  -2.367   1.633  1.00  0.00     0.067 A 
ATOM     11  C   UNL     1       0.152  -3.328   2.099  1.00  0.00     0.021 A 
ATOM     12  C   UNL     1       2.328  -2.741   1.223  1.00  0.00     0.021 A 
ATOM     13  C   UNL     1       0.528  -4.675   2.130  1.00  0.00     0.009 A 
ATOM     14  C   UNL     1       2.679  -4.096   1.217  1.00  0.00     0.009 A 
BRANCH  10  15
ATOM     15  S   UNL     1       0.543  -0.664   1.565  1.00  0.00     0.175 S 
ATOM     16  C   UNL     1       1.065  -0.076  -0.025  1.00  0.00     0.163 C 
ATOM     17  O   UNL     1       1.301   0.038   2.582  1.00  0.00    -0.224 OA
ATOM     18  O   UNL     1      -0.909  -0.646   1.570  1.00  0.00    -0.224 OA
ENDBRANCH  10  15
ENDBRANCH   8   9
BRANCH   7  19
ATOM     19  C   UNL     1       0.043  -7.516   0.826  1.00  0.00    -0.012 A 
ATOM     20  C   UNL     1      -0.805  -8.261   1.663  1.00  0.00     0.009 A 
ATOM     21  C   UNL     1      -0.531  -6.635  -0.100  1.00  0.00     0.017 A 
ATOM     22  C   UNL     1      -2.188  -8.114   1.595  1.00  0.00     0.001 A 
ATOM     23  C   UNL     1      -1.920  -6.411  -0.119  1.00  0.00    -0.018 A 
ATOM     24  C   UNL     1      -2.740  -7.181   0.721  1.00  0.00     0.009 A 
BRANCH  23  25
ATOM     25  C   UNL     1      -2.478  -5.292  -0.889  1.00  0.00    -0.018 A 
ATOM     26  C   UNL     1      -3.128  -4.241  -0.214  1.00  0.00     0.010 A 
ATOM     27  C   UNL     1      -2.315  -5.197  -2.279  1.00  0.00     0.010 A 
ATOM     28  C   UNL     1      -3.594  -3.121  -0.901  1.00  0.00     0.021 A 
ATOM     29  C   UNL     1      -2.789  -4.083  -2.978  1.00  0.00     0.021 A 
ATOM     30  C   UNL     1      -3.427  -3.053  -2.284  1.00  0.00     0.067 A 
BRANCH  30  31
ATOM     31  S   UNL     1      -4.010  -1.618  -3.150  1.00  0.00     0.175 S 
ATOM     32  C   UNL     1      -5.769  -1.673  -2.922  1.00  0.00     0.163 C 
ATOM     33  O   UNL     1      -3.492  -0.458  -2.454  1.00  0.00    -0.224 OA
ATOM     34  O   UNL     1      -3.749  -1.816  -4.564  1.00  0.00    -0.224 OA
ENDBRANCH  30  31
ENDBRANCH  23  25
ENDBRANCH   7  19
ENDBRANCH   4   7
ENDBRANCH   2   3
ENDBRANCH   1   2
BRANCH   1  35
ATOM     35  C   UNL     1       6.302  -9.497   1.688  1.00  0.00     0.118 C 
BRANCH  35  36
ATOM     36  N   UNL     1       7.230  -9.804   0.610  1.00  0.00    -0.352 N 
ATOM     37  C   UNL     1       8.588 -10.002   0.642  1.00  0.00     0.251 C 
ATOM     38  H   UNL     1       6.820  -9.882  -0.281  1.00  0.00     0.163 HD
ATOM     39  O   UNL     1       9.210 -10.016  -0.417  1.00  0.00    -0.269 OA
BRANCH  37  40
ATOM     40  C   UNL     1       9.305 -10.182   1.926  1.00  0.00     0.039 A 
ATOM     41  C   UNL     1      10.559  -9.582   2.085  1.00  0.00     0.014 A 
ATOM     42  C   UNL     1       8.784 -10.981   2.948  1.00  0.00     0.014 A 
ATOM     43  C   UNL     1      11.263  -9.741   3.282  1.00  0.00     0.010 A 
ATOM     44  C   UNL     1       9.459 -11.089   4.164  1.00  0.00     0.010 A 
ATOM     45  C   UNL     1      10.708 -10.473   4.343  1.00  0.00    -0.014 A 
BRANCH  45  46
ATOM     46  C   UNL     1      11.424 -10.612   5.640  1.00  0.00     0.031 A 
ATOM     47  C   UNL     1      11.907 -11.961   6.099  1.00  0.00     0.074 A 
ATOM     48  C   UNL     1      11.590  -9.531   6.428  1.00  0.00     0.049 A 
ATOM     49  N   UNL     1      12.475 -12.299   7.229  1.00  0.00    -0.248 NA
ATOM     50  C   UNL     1      11.696 -13.084   5.173  1.00  0.00     0.031 C 
ATOM     51  C   UNL     1      11.136  -8.176   6.109  1.00  0.00     0.029 A 
ATOM     52  N   UNL     1      12.173  -9.402   7.664  1.00  0.00    -0.354 N 
ATOM     53  C   UNL     1      12.680 -13.674   7.156  1.00  0.00     0.074 A 
ATOM     54  C   UNL     1      12.120 -14.111   5.894  1.00  0.00     0.031 C 
ATOM     55  C   UNL     1      11.470  -7.352   7.114  1.00  0.00     0.029 A 
ATOM     56  C   UNL     1      12.123  -8.123   8.168  1.00  0.00     0.049 A 
ATOM     57  H   UNL     1      12.588 -10.154   8.145  1.00  0.00     0.167 HD
ATOM     58  C   UNL     1      13.297 -14.490   8.047  1.00  0.00     0.034 A 
ATOM     59  C   UNL     1      12.542  -7.629   9.350  1.00  0.00     0.034 A 
ATOM     60  C   UNL     1      13.857 -14.037   9.299  1.00  0.00     0.049 A 
ATOM     61  C   UNL     1      13.207  -8.558  10.334  1.00  0.00     0.074 A 
ATOM     62  C   UNL     1      14.537 -14.770  10.257  1.00  0.00     0.029 A 
ATOM     63  N   UNL     1      13.798 -12.731   9.770  1.00  0.00    -0.354 N 
ATOM     64  N   UNL     1      13.428  -9.848  10.232  1.00  0.00    -0.248 NA
ATOM     65  C   UNL     1      13.691  -7.960  11.585  1.00  0.00     0.031 C 
ATOM     66  C   UNL     1      14.836 -13.922  11.330  1.00  0.00     0.029 A 
ATOM     67  C   UNL     1      14.407 -12.643  11.013  1.00  0.00     0.049 A 
ATOM     68  H   UNL     1      13.384 -11.977   9.290  1.00  0.00     0.167 HD
ATOM     69  C   UNL     1      14.104 -10.209  11.394  1.00  0.00     0.074 A 
ATOM     70  C   UNL     1      14.267  -8.998  12.172  1.00  0.00     0.031 C 
ATOM     71  C   UNL     1      14.552 -11.430  11.782  1.00  0.00     0.034 A 
BRANCH  58  72
ATOM     72  C   UNL     1      13.371 -15.960   7.703  1.00  0.00     0.023 A 
ATOM     73  C   UNL     1      14.075 -16.417   6.575  1.00  0.00     0.031 A 
ATOM     74  C   UNL     1      12.705 -16.914   8.492  1.00  0.00     0.131 A 
ATOM     75  C   UNL     1      14.029 -17.774   6.221  1.00  0.00     0.055 A 
ATOM     76  C   UNL     1      12.733 -18.276   8.182  1.00  0.00     0.041 A 
ATOM     77  F   UNL     1      12.001 -16.538   9.572  1.00  0.00    -0.206 F 
ATOM     78  C   UNL     1      13.384 -18.711   7.031  1.00  0.00     0.022 A 
BRANCH  75  79
ATOM     79  S   UNL     1      14.699 -18.272   4.611  1.00  0.00     0.124 S 
ATOM     80  O   UNL     1      13.890 -17.471   3.696  1.00  0.00    -0.237 OA
ATOM     81  O   UNL     1      16.103 -17.892   4.722  1.00  0.00    -0.237 OA
ATOM     82  O   UNL     1      14.443 -19.710   4.562  1.00  0.00    -0.744 OA
ENDBRANCH  75  79
ENDBRANCH  58  72
BRANCH  59  83
ATOM     83  C   UNL     1      12.337  -6.190   9.682  1.00  0.00     0.023 A 
ATOM     84  C   UNL     1      13.429  -5.325   9.851  1.00  0.00     0.031 A 
ATOM     85  C   UNL     1      11.046  -5.669   9.875  1.00  0.00     0.131 A 
ATOM     86  C   UNL     1      13.214  -3.996  10.249  1.00  0.00     0.055 A 
ATOM     87  C   UNL     1      10.834  -4.333  10.221  1.00  0.00     0.041 A 
ATOM     88  F   UNL     1       9.967  -6.452   9.718  1.00  0.00    -0.206 F 
ATOM     89  C   UNL     1      11.924  -3.492  10.424  1.00  0.00     0.022 A 
BRANCH  86  90
ATOM     90  S   UNL     1      14.654  -2.957  10.617  1.00  0.00     0.124 S 
ATOM     91  O   UNL     1      15.325  -3.735  11.652  1.00  0.00    -0.237 OA
ATOM     92  O   UNL     1      15.323  -2.900   9.322  1.00  0.00    -0.237 OA
ATOM     93  O   UNL     1      14.060  -1.700  11.066  1.00  0.00    -0.744 OA
ENDBRANCH  86  90
ENDBRANCH  59  83
BRANCH  71  94
ATOM     94  C   UNL     1      15.303 -11.496  13.090  1.00  0.00     0.023 A 
ATOM     95  C   UNL     1      14.666 -11.263  14.321  1.00  0.00     0.031 A 
ATOM     96  C   UNL     1      16.680 -11.777  13.099  1.00  0.00     0.131 A 
ATOM     97  C   UNL     1      15.417 -11.258  15.506  1.00  0.00     0.055 A 
ATOM     98  C   UNL     1      17.412 -11.827  14.286  1.00  0.00     0.041 A 
ATOM     99  F   UNL     1      17.339 -12.006  11.951  1.00  0.00    -0.206 F 
ATOM    100  C   UNL     1      16.783 -11.553  15.498  1.00  0.00     0.022 A 
BRANCH  97 101
ATOM    101  S   UNL     1      14.604 -10.770  17.052  1.00  0.00     0.124 S 
ATOM    102  O   UNL     1      14.129  -9.427  16.734  1.00  0.00    -0.237 OA
ATOM    103  O   UNL     1      13.573 -11.792  17.198  1.00  0.00    -0.237 OA
ATOM    104  O   UNL     1      15.679 -10.829  18.040  1.00  0.00    -0.744 OA
ENDBRANCH  97 101
ENDBRANCH  71  94
ENDBRANCH  45  46
ENDBRANCH  37  40
ENDBRANCH  35  36
ENDBRANCH   1  35
TORSDOF 18
