REMARK SMILES COc1cccc(-c2ccc(C#N)c(SCC(=O)NCCCNC(=O)c3ccc(-c4c5nc(c(-c6cc(S(=O)(=O)[O-])ccc6F)c6ccc([nH]6)c(-c6cc(S(=O)(=O)[O-])ccc6F)c6nc(c(-c7cc(S(=O)(=O)[O-])ccc7F)c7ccc4[nH]7)C=C6)C=C5)cc3)n2)c1
REMARK SMILES IDX 20 1 19 2 17 3 18 4 16 6 15 7 14 8 8 9 9 10 89 11 10 12
REMARK SMILES IDX 11 13 7 14 3 15 4 16 90 17 5 18 6 19 2 20 1 21 12 22 13 23
REMARK SMILES IDX 21 24 22 25 23 26 24 27 25 29 26 30 27 31 88 32 28 33 87 34
REMARK SMILES IDX 29 35 30 36 31 37 81 38 32 39 86 40 80 41 82 42 33 43 85 44
REMARK SMILES IDX 79 45 78 46 34 48 66 49 46 50 65 51 47 52 50 53 64 54 83 55
REMARK SMILES IDX 48 56 49 57 63 59 84 60 51 61 35 62 36 63 44 64 37 65 43 66
REMARK SMILES IDX 45 67 42 68 38 69 39 70 40 71 41 72 67 73 68 74 76 75 69 76
REMARK SMILES IDX 75 77 77 78 74 79 70 80 71 81 72 82 73 83 52 84 53 85 61 86
REMARK SMILES IDX 54 87 60 88 62 89 59 90 55 91 56 92 57 93 58 94
REMARK H PARENT 19 5 23 28 82 47 50 58
REMARK Flexibility Score: inf
ROOT
ATOM      1  C   UNL     1       7.284  -3.451   6.572  1.00  0.00     0.117 C 
ENDROOT
BRANCH   1   2
ATOM      2  N   UNL     1       8.258  -2.629   5.883  1.00  0.00    -0.355 N 
ATOM      3  C   UNL     1       8.537  -1.307   6.019  1.00  0.00     0.230 C 
ATOM      4  O   UNL     1       9.340  -0.822   5.221  1.00  0.00    -0.274 OA
ATOM      5  H   UNL     1       8.803  -3.102   5.213  1.00  0.00     0.163 HD
BRANCH   3   6
ATOM      6  C   UNL     1       7.950  -0.492   7.152  1.00  0.00     0.176 C 
BRANCH   6   7
ATOM      7  S   UNL     1       6.187  -0.083   6.988  1.00  0.00    -0.095 SA
BRANCH   7   8
ATOM      8  C   UNL     1       5.937   0.797   5.455  1.00  0.00     0.115 A 
ATOM      9  C   UNL     1       4.186   1.365   3.974  1.00  0.00     0.072 A 
ATOM     10  C   UNL     1       5.064   2.056   3.152  1.00  0.00     0.030 A 
ATOM     11  N   UNL     1       4.616   0.731   5.093  1.00  0.00    -0.240 NA
ATOM     12  C   UNL     1       6.397   2.146   3.523  1.00  0.00     0.024 A 
ATOM     13  C   UNL     1       6.843   1.550   4.711  1.00  0.00     0.084 A 
BRANCH   9  14
ATOM     14  C   UNL     1       2.740   1.380   3.692  1.00  0.00     0.004 A 
ATOM     15  C   UNL     1       0.921   1.223   2.065  1.00  0.00     0.119 A 
ATOM     16  C   UNL     1       0.039   1.766   2.997  1.00  0.00     0.046 A 
ATOM     17  C   UNL     1       2.259   1.030   2.414  1.00  0.00     0.056 A 
ATOM     18  C   UNL     1       0.478   2.073   4.284  1.00  0.00     0.005 A 
ATOM     19  C   UNL     1       1.819   1.875   4.631  1.00  0.00     0.010 A 
BRANCH  15  20
ATOM     20  O   UNL     1       0.405   1.006   0.817  1.00  0.00    -0.497 OA
ATOM     21  C   UNL     1       0.958  -0.099   0.107  1.00  0.00     0.278 C 
ENDBRANCH  15  20
ENDBRANCH   9  14
BRANCH  13  22
ATOM     22  C   UNL     1       8.165   1.888   5.126  1.00  0.00     0.102 C 
ATOM     23  N   UNL     1       9.221   2.260   5.443  1.00  0.00    -0.192 NA
ENDBRANCH  13  22
ENDBRANCH   7   8
ENDBRANCH   6   7
ENDBRANCH   3   6
ENDBRANCH   1   2
BRANCH   1  24
ATOM     24  C   UNL     1       6.112  -3.799   5.661  1.00  0.00     0.042 C 
BRANCH  24  25
ATOM     25  C   UNL     1       6.512  -4.541   4.388  1.00  0.00     0.118 C 
BRANCH  25  26
ATOM     26  N   UNL     1       7.189  -5.802   4.658  1.00  0.00    -0.352 N 
ATOM     27  C   UNL     1       6.823  -7.086   4.336  1.00  0.00     0.251 C 
ATOM     28  H   UNL     1       8.040  -5.721   5.147  1.00  0.00     0.163 HD
ATOM     29  O   UNL     1       7.425  -8.028   4.843  1.00  0.00    -0.269 OA
BRANCH  27  30
ATOM     30  C   UNL     1       5.700  -7.329   3.406  1.00  0.00     0.039 A 
ATOM     31  C   UNL     1       4.781  -8.338   3.703  1.00  0.00     0.014 A 
ATOM     32  C   UNL     1       5.553  -6.570   2.242  1.00  0.00     0.014 A 
ATOM     33  C   UNL     1       3.677  -8.534   2.871  1.00  0.00     0.010 A 
ATOM     34  C   UNL     1       4.405  -6.706   1.465  1.00  0.00     0.010 A 
ATOM     35  C   UNL     1       3.454  -7.690   1.770  1.00  0.00    -0.014 A 
BRANCH  35  36
ATOM     36  C   UNL     1       2.229  -7.822   0.935  1.00  0.00     0.031 A 
ATOM     37  C   UNL     1       2.342  -8.155  -0.528  1.00  0.00     0.074 A 
ATOM     38  C   UNL     1       1.019  -7.596   1.486  1.00  0.00     0.049 A 
ATOM     39  N   UNL     1       1.397  -8.249  -1.429  1.00  0.00    -0.248 NA
ATOM     40  C   UNL     1       3.696  -8.387  -1.054  1.00  0.00     0.031 C 
ATOM     41  C   UNL     1       0.784  -7.237   2.887  1.00  0.00     0.029 A 
ATOM     42  N   UNL     1      -0.240  -7.631   0.941  1.00  0.00    -0.354 N 
ATOM     43  C   UNL     1       2.040  -8.550  -2.624  1.00  0.00     0.074 A 
ATOM     44  C   UNL     1       3.461  -8.552  -2.347  1.00  0.00     0.031 C 
ATOM     45  C   UNL     1      -0.537  -7.124   3.097  1.00  0.00     0.029 A 
ATOM     46  C   UNL     1      -1.242  -7.336   1.837  1.00  0.00     0.049 A 
ATOM     47  H   UNL     1      -0.411  -7.847  -0.005  1.00  0.00     0.167 HD
ATOM     48  C   UNL     1       1.495  -8.823  -3.835  1.00  0.00     0.034 A 
ATOM     49  C   UNL     1      -2.575  -7.227   1.663  1.00  0.00     0.034 A 
ATOM     50  C   UNL     1       0.076  -8.817  -4.096  1.00  0.00     0.049 A 
ATOM     51  C   UNL     1      -3.150  -7.470   0.289  1.00  0.00     0.074 A 
ATOM     52  C   UNL     1      -0.581  -9.117  -5.276  1.00  0.00     0.029 A 
ATOM     53  N   UNL     1      -0.904  -8.485  -3.170  1.00  0.00    -0.354 N 
ATOM     54  N   UNL     1      -2.528  -7.794  -0.822  1.00  0.00    -0.248 NA
ATOM     55  C   UNL     1      -4.606  -7.341   0.146  1.00  0.00     0.031 C 
ATOM     56  C   UNL     1      -1.945  -8.876  -5.092  1.00  0.00     0.029 A 
ATOM     57  C   UNL     1      -2.155  -8.530  -3.767  1.00  0.00     0.049 A 
ATOM     58  H   UNL     1      -0.736  -8.251  -2.229  1.00  0.00     0.167 HD
ATOM     59  C   UNL     1      -3.525  -7.947  -1.783  1.00  0.00     0.074 A 
ATOM     60  C   UNL     1      -4.785  -7.695  -1.117  1.00  0.00     0.031 C 
ATOM     61  C   UNL     1      -3.408  -8.272  -3.096  1.00  0.00     0.034 A 
BRANCH  48  62
ATOM     62  C   UNL     1       2.438  -9.124  -4.976  1.00  0.00     0.023 A 
ATOM     63  C   UNL     1       3.299 -10.235  -4.952  1.00  0.00     0.031 A 
ATOM     64  C   UNL     1       2.478  -8.287  -6.106  1.00  0.00     0.131 A 
ATOM     65  C   UNL     1       4.208 -10.440  -6.000  1.00  0.00     0.055 A 
ATOM     66  C   UNL     1       3.322  -8.549  -7.187  1.00  0.00     0.041 A 
ATOM     67  F   UNL     1       1.699  -7.196  -6.177  1.00  0.00    -0.206 F 
ATOM     68  C   UNL     1       4.204  -9.623  -7.132  1.00  0.00     0.022 A 
BRANCH  65  69
ATOM     69  S   UNL     1       5.497 -11.699  -5.792  1.00  0.00     0.124 S 
ATOM     70  O   UNL     1       6.165 -11.238  -4.577  1.00  0.00    -0.237 OA
ATOM     71  O   UNL     1       4.721 -12.928  -5.668  1.00  0.00    -0.237 OA
ATOM     72  O   UNL     1       6.290 -11.581  -7.013  1.00  0.00    -0.744 OA
ENDBRANCH  65  69
ENDBRANCH  48  62
BRANCH  49  73
ATOM     73  C   UNL     1      -3.465  -6.848   2.801  1.00  0.00     0.023 A 
ATOM     74  C   UNL     1      -4.490  -7.702   3.236  1.00  0.00     0.031 A 
ATOM     75  C   UNL     1      -3.348  -5.593   3.426  1.00  0.00     0.131 A 
ATOM     76  C   UNL     1      -5.398  -7.267   4.214  1.00  0.00     0.055 A 
ATOM     77  C   UNL     1      -4.207  -5.194   4.452  1.00  0.00     0.041 A 
ATOM     78  F   UNL     1      -2.390  -4.731   3.049  1.00  0.00    -0.206 F 
ATOM     79  C   UNL     1      -5.251  -6.027   4.839  1.00  0.00     0.022 A 
BRANCH  76  80
ATOM     80  S   UNL     1      -6.853  -8.293   4.564  1.00  0.00     0.124 S 
ATOM     81  O   UNL     1      -7.463  -8.397   3.243  1.00  0.00    -0.237 OA
ATOM     82  O   UNL     1      -6.246  -9.511   5.090  1.00  0.00    -0.237 OA
ATOM     83  O   UNL     1      -7.601  -7.500   5.537  1.00  0.00    -0.744 OA
ENDBRANCH  76  80
ENDBRANCH  49  73
BRANCH  61  84
ATOM     84  C   UNL     1      -4.686  -8.431  -3.887  1.00  0.00     0.023 A 
ATOM     85  C   UNL     1      -5.561  -7.356  -4.116  1.00  0.00     0.031 A 
ATOM     86  C   UNL     1      -5.034  -9.688  -4.417  1.00  0.00     0.131 A 
ATOM     87  C   UNL     1      -6.768  -7.570  -4.798  1.00  0.00     0.055 A 
ATOM     88  C   UNL     1      -6.197  -9.877  -5.162  1.00  0.00     0.041 A 
ATOM     89  F   UNL     1      -4.241 -10.755  -4.224  1.00  0.00    -0.206 F 
ATOM     90  C   UNL     1      -7.080  -8.818  -5.343  1.00  0.00     0.022 A 
BRANCH  87  91
ATOM     91  S   UNL     1      -7.980  -6.222  -4.865  1.00  0.00     0.124 S 
ATOM     92  O   UNL     1      -8.202  -5.945  -3.450  1.00  0.00    -0.237 OA
ATOM     93  O   UNL     1      -7.263  -5.193  -5.611  1.00  0.00    -0.237 OA
ATOM     94  O   UNL     1      -9.116  -6.817  -5.566  1.00  0.00    -0.744 OA
ENDBRANCH  87  91
ENDBRANCH  61  84
ENDBRANCH  35  36
ENDBRANCH  27  30
ENDBRANCH  25  26
ENDBRANCH  24  25
ENDBRANCH   1  24
TORSDOF 18
