REMARK SMILES C[C@H]1[C@H](C(=O)NCCCNC(=O)c2ccc(-c3c4nc(c(-c5cc(S(=O)(=O)[O-])ccc5F)c5ccc([nH]5)c(-c5cc(S(=O)(=O)[O-])ccc5F)c5nc(c(-c6cc(S(=O)(=O)[O-])ccc6F)c6ccc3[nH]6)C=C5)C=C4)cc2)CCN1C(=O)COc1ccc(F)cc1Br
REMARK SMILES IDX 7 1 6 2 4 3 5 4 3 6 1 7 2 8 78 9 76 10 77 11 79 12 80 13
REMARK SMILES IDX 81 14 82 15 83 16 84 17 89 18 85 19 88 20 90 21 86 22 87 23
REMARK SMILES IDX 8 24 9 25 10 26 11 27 12 29 13 30 14 31 75 32 15 33 74 34
REMARK SMILES IDX 16 35 17 36 18 37 68 38 19 39 73 40 67 41 69 42 20 43 72 44
REMARK SMILES IDX 66 45 65 46 21 48 53 49 33 50 52 51 34 52 37 53 51 54 70 55
REMARK SMILES IDX 35 56 36 57 50 59 71 60 38 61 22 62 23 63 31 64 24 65 30 66
REMARK SMILES IDX 32 67 29 68 25 69 26 70 27 71 28 72 54 73 55 74 63 75 56 76
REMARK SMILES IDX 62 77 64 78 61 79 57 80 58 81 59 82 60 83 39 84 40 85 48 86
REMARK SMILES IDX 41 87 47 88 49 89 46 90 42 91 43 92 44 93 45 94
REMARK H PARENT 6 5 10 28 69 47 37 58
REMARK Flexibility Score: inf
ROOT
ATOM      1  C   UNL     1      -1.166   0.713   2.944  1.00  0.00     0.117 C 
ENDROOT
BRANCH   1   2
ATOM      2  N   UNL     1      -0.571   1.957   2.482  1.00  0.00    -0.356 N 
ATOM      3  C   UNL     1      -0.072   2.321   1.273  1.00  0.00     0.225 C 
ATOM      4  O   UNL     1       0.393   3.459   1.169  1.00  0.00    -0.275 OA
ATOM      5  H   UNL     1      -0.520   2.661   3.169  1.00  0.00     0.163 HD
BRANCH   3   6
ATOM      6  C   UNL     1      -0.071   1.394   0.071  1.00  0.00     0.102 C 
ATOM      7  C   UNL     1       1.960   0.202  -0.768  1.00  0.00     0.032 C 
ATOM      8  C   UNL     1       0.829   0.155   0.261  1.00  0.00     0.094 C 
ATOM      9  N   UNL     1      -0.083  -0.982   0.097  1.00  0.00    -0.336 N 
ATOM     10  C   UNL     1      -1.462   0.905  -0.331  1.00  0.00     0.037 C 
ATOM     11  C   UNL     1      -1.312  -0.584  -0.562  1.00  0.00     0.121 C 
BRANCH   9  12
ATOM     12  C   UNL     1      -0.034  -2.198   0.755  1.00  0.00     0.260 C 
ATOM     13  O   UNL     1      -1.070  -2.749   1.144  1.00  0.00    -0.271 OA
BRANCH  12  14
ATOM     14  C   UNL     1       1.315  -2.892   0.987  1.00  0.00     0.329 C 
BRANCH  14  15
ATOM     15  O   UNL     1       2.382  -2.658   0.101  1.00  0.00    -0.483 OA
BRANCH  15  16
ATOM     16  C   UNL     1       2.593  -3.367  -1.045  1.00  0.00     0.134 A 
ATOM     17  C   UNL     1       3.966  -3.391  -1.365  1.00  0.00     0.050 A 
ATOM     18  C   UNL     1       1.694  -3.930  -1.960  1.00  0.00     0.062 A 
ATOM     19  C   UNL     1       4.434  -3.928  -2.565  1.00  0.00     0.043 A 
ATOM     20  C   UNL     1       2.168  -4.446  -3.179  1.00  0.00     0.058 A 
ATOM     21  Br  UNL     1      -0.185  -4.055  -1.778  1.00  0.00    -0.047 Br
ATOM     22  C   UNL     1       3.523  -4.434  -3.472  1.00  0.00     0.124 A 
ATOM     23  F   UNL     1       3.948  -4.909  -4.649  1.00  0.00    -0.207 F 
ENDBRANCH  15  16
ENDBRANCH  14  15
ENDBRANCH  12  14
ENDBRANCH   9  12
ENDBRANCH   3   6
ENDBRANCH   1   2
BRANCH   1  24
ATOM     24  C   UNL     1      -0.287  -0.005   3.958  1.00  0.00     0.042 C 
BRANCH  24  25
ATOM     25  C   UNL     1      -0.131   0.746   5.274  1.00  0.00     0.118 C 
BRANCH  25  26
ATOM     26  N   UNL     1      -1.396   0.910   5.975  1.00  0.00    -0.352 N 
ATOM     27  C   UNL     1      -1.777   0.485   7.224  1.00  0.00     0.251 C 
ATOM     28  H   UNL     1      -2.087   1.403   5.476  1.00  0.00     0.163 HD
ATOM     29  O   UNL     1      -2.962   0.547   7.540  1.00  0.00    -0.269 OA
BRANCH  27  30
ATOM     30  C   UNL     1      -0.778  -0.056   8.172  1.00  0.00     0.039 A 
ATOM     31  C   UNL     1      -1.126  -1.156   8.961  1.00  0.00     0.014 A 
ATOM     32  C   UNL     1       0.484   0.529   8.307  1.00  0.00     0.014 A 
ATOM     33  C   UNL     1      -0.188  -1.702   9.840  1.00  0.00     0.010 A 
ATOM     34  C   UNL     1       1.444  -0.069   9.119  1.00  0.00     0.010 A 
ATOM     35  C   UNL     1       1.116  -1.185   9.901  1.00  0.00    -0.014 A 
BRANCH  35  36
ATOM     36  C   UNL     1       2.142  -1.793  10.788  1.00  0.00     0.031 A 
ATOM     37  C   UNL     1       2.735  -0.994  11.917  1.00  0.00     0.074 A 
ATOM     38  C   UNL     1       2.577  -3.043  10.539  1.00  0.00     0.049 A 
ATOM     39  N   UNL     1       3.682  -1.323  12.758  1.00  0.00    -0.248 NA
ATOM     40  C   UNL     1       2.217   0.370  12.101  1.00  0.00     0.031 C 
ATOM     41  C   UNL     1       2.115  -3.896   9.441  1.00  0.00     0.029 A 
ATOM     42  N   UNL     1       3.510  -3.814  11.185  1.00  0.00    -0.354 N 
ATOM     43  C   UNL     1       3.880  -0.206  13.563  1.00  0.00     0.074 A 
ATOM     44  C   UNL     1       3.004   0.831  13.061  1.00  0.00     0.031 C 
ATOM     45  C   UNL     1       2.748  -5.078   9.505  1.00  0.00     0.029 A 
ATOM     46  C   UNL     1       3.689  -5.055  10.620  1.00  0.00     0.049 A 
ATOM     47  H   UNL     1       4.005  -3.507  11.979  1.00  0.00     0.167 HD
ATOM     48  C   UNL     1       4.695  -0.068  14.639  1.00  0.00     0.034 A 
ATOM     49  C   UNL     1       4.522  -6.059  10.957  1.00  0.00     0.034 A 
ATOM     50  C   UNL     1       5.555  -1.118  15.131  1.00  0.00     0.049 A 
ATOM     51  C   UNL     1       5.420  -5.884  12.154  1.00  0.00     0.074 A 
ATOM     52  C   UNL     1       6.387  -1.106  16.237  1.00  0.00     0.029 A 
ATOM     53  N   UNL     1       5.697  -2.369  14.544  1.00  0.00    -0.354 N 
ATOM     54  N   UNL     1       5.559  -4.839  12.937  1.00  0.00    -0.248 NA
ATOM     55  C   UNL     1       6.260  -7.030  12.521  1.00  0.00     0.031 C 
ATOM     56  C   UNL     1       7.077  -2.324  16.282  1.00  0.00     0.029 A 
ATOM     57  C   UNL     1       6.622  -3.127  15.249  1.00  0.00     0.049 A 
ATOM     58  H   UNL     1       5.212  -2.675  13.743  1.00  0.00     0.167 HD
ATOM     59  C   UNL     1       6.488  -5.212  13.905  1.00  0.00     0.074 A 
ATOM     60  C   UNL     1       6.854  -6.585  13.619  1.00  0.00     0.031 C 
ATOM     61  C   UNL     1       6.993  -4.488  14.937  1.00  0.00     0.034 A 
BRANCH  48  62
ATOM     62  C   UNL     1       4.701   1.274  15.334  1.00  0.00     0.023 A 
ATOM     63  C   UNL     1       3.542   1.798  15.937  1.00  0.00     0.031 A 
ATOM     64  C   UNL     1       5.865   2.062  15.362  1.00  0.00     0.131 A 
ATOM     65  C   UNL     1       3.549   3.099  16.461  1.00  0.00     0.055 A 
ATOM     66  C   UNL     1       5.889   3.322  15.964  1.00  0.00     0.041 A 
ATOM     67  F   UNL     1       6.998   1.628  14.787  1.00  0.00    -0.206 F 
ATOM     68  C   UNL     1       4.721   3.855  16.503  1.00  0.00     0.022 A 
BRANCH  65  69
ATOM     69  S   UNL     1       1.967   3.845  16.945  1.00  0.00     0.124 S 
ATOM     70  O   UNL     1       1.220   3.787  15.691  1.00  0.00    -0.237 OA
ATOM     71  O   UNL     1       1.509   2.953  18.004  1.00  0.00    -0.237 OA
ATOM     72  O   UNL     1       2.341   5.189  17.378  1.00  0.00    -0.744 OA
ENDBRANCH  65  69
ENDBRANCH  48  62
BRANCH  49  73
ATOM     73  C   UNL     1       4.553  -7.313  10.152  1.00  0.00     0.023 A 
ATOM     74  C   UNL     1       4.143  -8.538  10.701  1.00  0.00     0.031 A 
ATOM     75  C   UNL     1       5.023  -7.308   8.826  1.00  0.00     0.131 A 
ATOM     76  C   UNL     1       4.252  -9.715   9.944  1.00  0.00     0.055 A 
ATOM     77  C   UNL     1       5.081  -8.473   8.060  1.00  0.00     0.041 A 
ATOM     78  F   UNL     1       5.418  -6.161   8.251  1.00  0.00    -0.206 F 
ATOM     79  C   UNL     1       4.706  -9.689   8.623  1.00  0.00     0.022 A 
BRANCH  76  80
ATOM     80  S   UNL     1       3.860 -11.298  10.738  1.00  0.00     0.124 S 
ATOM     81  O   UNL     1       4.791 -11.306  11.861  1.00  0.00    -0.237 OA
ATOM     82  O   UNL     1       2.451 -11.127  11.074  1.00  0.00    -0.237 OA
ATOM     83  O   UNL     1       4.135 -12.280   9.692  1.00  0.00    -0.744 OA
ENDBRANCH  76  80
ENDBRANCH  49  73
BRANCH  61  84
ATOM     84  C   UNL     1       7.973  -5.191  15.844  1.00  0.00     0.023 A 
ATOM     85  C   UNL     1       9.236  -5.604  15.386  1.00  0.00     0.031 A 
ATOM     86  C   UNL     1       7.626  -5.477  17.176  1.00  0.00     0.131 A 
ATOM     87  C   UNL     1      10.080  -6.340  16.231  1.00  0.00     0.055 A 
ATOM     88  C   UNL     1       8.496  -6.154  18.032  1.00  0.00     0.041 A 
ATOM     89  F   UNL     1       6.432  -5.108  17.667  1.00  0.00    -0.206 F 
ATOM     90  C   UNL     1       9.724  -6.604  17.556  1.00  0.00     0.022 A 
BRANCH  87  91
ATOM     91  S   UNL     1      11.603  -7.044  15.542  1.00  0.00     0.124 S 
ATOM     92  O   UNL     1      11.091  -7.856  14.442  1.00  0.00    -0.237 OA
ATOM     93  O   UNL     1      12.352  -5.851  15.159  1.00  0.00    -0.237 OA
ATOM     94  O   UNL     1      12.168  -7.799  16.659  1.00  0.00    -0.744 OA
ENDBRANCH  87  91
ENDBRANCH  61  84
ENDBRANCH  35  36
ENDBRANCH  27  30
ENDBRANCH  25  26
ENDBRANCH  24  25
ENDBRANCH   1  24
TORSDOF 17
