REMARK SMILES O=C(NCCCNC(=O)[C@@]1(Cl)C[C@@H]2CC[C@H]1C2)c1ccc(-c2c3nc(c(-c4cc(S(=O)(=O)[O-])ccc4F)c4ccc([nH]4)c(-c4cc(S(=O)(=O)[O-])ccc4F)c4nc(c(-c5cc(S(=O)(=O)[O-])ccc5F)c5ccc2[nH]5)C=C4)C=C3)cc1
REMARK SMILES IDX 1 1 2 2 3 3 18 5 19 6 80 7 20 8 79 9 21 10 22 11 23 12 73 13
REMARK SMILES IDX 24 14 78 15 72 16 74 17 25 18 77 19 71 20 70 21 26 23 58 24
REMARK SMILES IDX 38 25 57 26 39 27 42 28 56 29 75 30 40 31 41 32 55 34 76 35
REMARK SMILES IDX 43 36 27 37 28 38 36 39 29 40 35 41 37 42 34 43 30 44 31 45
REMARK SMILES IDX 32 46 33 47 59 48 60 49 68 50 61 51 67 52 69 53 66 54 62 55
REMARK SMILES IDX 63 56 64 57 65 58 44 59 45 60 53 61 46 62 52 63 54 64 51 65
REMARK SMILES IDX 47 66 48 67 49 68 50 69 4 70 5 71 6 72 7 73 8 74 9 76 10 77
REMARK SMILES IDX 12 78 16 79 11 80 13 81 15 82 17 83 14 84
REMARK H PARENT 3 4 74 22 42 33 7 75
REMARK Flexibility Score: inf
ROOT
ATOM      1  O   UNL     1       7.573  -1.159  -4.587  1.00  0.00    -0.269 OA
ATOM      2  C   UNL     1       7.532  -0.026  -5.064  1.00  0.00     0.251 C 
ATOM      3  N   UNL     1       7.546   1.061  -4.225  1.00  0.00    -0.352 N 
ATOM      4  H   UNL     1       7.752   0.862  -3.283  1.00  0.00     0.163 HD
ENDROOT
BRANCH   2   5
ATOM      5  C   UNL     1       7.458   0.162  -6.529  1.00  0.00     0.039 A 
ATOM      6  C   UNL     1       8.225   1.141  -7.164  1.00  0.00     0.014 A 
ATOM      7  C   UNL     1       6.637  -0.681  -7.285  1.00  0.00     0.014 A 
ATOM      8  C   UNL     1       8.079   1.361  -8.530  1.00  0.00     0.010 A 
ATOM      9  C   UNL     1       6.556  -0.514  -8.671  1.00  0.00     0.010 A 
ATOM     10  C   UNL     1       7.262   0.521  -9.304  1.00  0.00    -0.014 A 
BRANCH  10  11
ATOM     11  C   UNL     1       7.223   0.700 -10.779  1.00  0.00     0.031 A 
ATOM     12  C   UNL     1       5.958   1.110 -11.480  1.00  0.00     0.074 A 
ATOM     13  C   UNL     1       8.358   0.506 -11.481  1.00  0.00     0.049 A 
ATOM     14  N   UNL     1       5.752   1.310 -12.757  1.00  0.00    -0.248 NA
ATOM     15  C   UNL     1       4.768   1.316 -10.641  1.00  0.00     0.031 C 
ATOM     16  C   UNL     1       9.644   0.102 -10.903  1.00  0.00     0.029 A 
ATOM     17  N   UNL     1       8.625   0.632 -12.820  1.00  0.00    -0.354 N 
ATOM     18  C   UNL     1       4.410   1.653 -12.880  1.00  0.00     0.074 A 
ATOM     19  C   UNL     1       3.843   1.601 -11.548  1.00  0.00     0.031 C 
ATOM     20  C   UNL     1      10.567   0.054 -11.874  1.00  0.00     0.029 A 
ATOM     21  C   UNL     1       9.930   0.348 -13.151  1.00  0.00     0.049 A 
ATOM     22  H   UNL     1       7.947   0.900 -13.482  1.00  0.00     0.167 HD
ATOM     23  C   UNL     1       3.721   1.986 -14.001  1.00  0.00     0.034 A 
ATOM     24  C   UNL     1      10.542   0.302 -14.350  1.00  0.00     0.034 A 
ATOM     25  C   UNL     1       4.307   2.030 -15.322  1.00  0.00     0.049 A 
ATOM     26  C   UNL     1       9.739   0.627 -15.582  1.00  0.00     0.074 A 
ATOM     27  C   UNL     1       3.707   2.386 -16.518  1.00  0.00     0.029 A 
ATOM     28  N   UNL     1       5.622   1.696 -15.625  1.00  0.00    -0.354 N 
ATOM     29  N   UNL     1       8.476   0.975 -15.675  1.00  0.00    -0.248 NA
ATOM     30  C   UNL     1      10.443   0.557 -16.867  1.00  0.00     0.031 C 
ATOM     31  C   UNL     1       4.633   2.197 -17.549  1.00  0.00     0.029 A 
ATOM     32  C   UNL     1       5.839   1.804 -16.991  1.00  0.00     0.049 A 
ATOM     33  H   UNL     1       6.300   1.423 -14.966  1.00  0.00     0.167 HD
ATOM     34  C   UNL     1       8.245   1.193 -17.030  1.00  0.00     0.074 A 
ATOM     35  C   UNL     1       9.503   0.958 -17.709  1.00  0.00     0.031 C 
ATOM     36  C   UNL     1       7.096   1.555 -17.657  1.00  0.00     0.034 A 
BRANCH  23  37
ATOM     37  C   UNL     1       2.248   2.286 -13.858  1.00  0.00     0.023 A 
ATOM     38  C   UNL     1       1.781   3.395 -13.132  1.00  0.00     0.031 A 
ATOM     39  C   UNL     1       1.293   1.451 -14.469  1.00  0.00     0.131 A 
ATOM     40  C   UNL     1       0.401   3.610 -12.989  1.00  0.00     0.055 A 
ATOM     41  C   UNL     1      -0.076   1.712 -14.384  1.00  0.00     0.041 A 
ATOM     42  F   UNL     1       1.677   0.365 -15.158  1.00  0.00    -0.206 F 
ATOM     43  C   UNL     1      -0.530   2.790 -13.632  1.00  0.00     0.022 A 
BRANCH  40  44
ATOM     44  S   UNL     1      -0.164   4.906 -11.853  1.00  0.00     0.124 S 
ATOM     45  O   UNL     1       0.430   4.474 -10.590  1.00  0.00    -0.237 OA
ATOM     46  O   UNL     1       0.402   6.113 -12.444  1.00  0.00    -0.237 OA
ATOM     47  O   UNL     1      -1.621   4.806 -11.914  1.00  0.00    -0.744 OA
ENDBRANCH  40  44
ENDBRANCH  23  37
BRANCH  24  48
ATOM     48  C   UNL     1      11.973  -0.104 -14.452  1.00  0.00     0.023 A 
ATOM     49  C   UNL     1      12.941   0.771 -14.968  1.00  0.00     0.031 A 
ATOM     50  C   UNL     1      12.386  -1.396 -14.078  1.00  0.00     0.131 A 
ATOM     51  C   UNL     1      14.260   0.327 -15.146  1.00  0.00     0.055 A 
ATOM     52  C   UNL     1      13.713  -1.811 -14.197  1.00  0.00     0.041 A 
ATOM     53  F   UNL     1      11.502  -2.274 -13.578  1.00  0.00    -0.206 F 
ATOM     54  C   UNL     1      14.656  -0.952 -14.749  1.00  0.00     0.022 A 
BRANCH  51  55
ATOM     55  S   UNL     1      15.430   1.413 -16.008  1.00  0.00     0.124 S 
ATOM     56  O   UNL     1      14.734   1.661 -17.265  1.00  0.00    -0.237 OA
ATOM     57  O   UNL     1      15.523   2.544 -15.091  1.00  0.00    -0.237 OA
ATOM     58  O   UNL     1      16.637   0.596 -16.112  1.00  0.00    -0.744 OA
ENDBRANCH  51  55
ENDBRANCH  24  48
BRANCH  36  59
ATOM     59  C   UNL     1       7.172   1.763 -19.150  1.00  0.00     0.023 A 
ATOM     60  C   UNL     1       7.427   0.700 -20.034  1.00  0.00     0.031 A 
ATOM     61  C   UNL     1       7.010   3.050 -19.692  1.00  0.00     0.131 A 
ATOM     62  C   UNL     1       7.575   0.952 -21.406  1.00  0.00     0.055 A 
ATOM     63  C   UNL     1       7.093   3.285 -21.065  1.00  0.00     0.041 A 
ATOM     64  F   UNL     1       6.769   4.103 -18.895  1.00  0.00    -0.206 F 
ATOM     65  C   UNL     1       7.391   2.235 -21.929  1.00  0.00     0.022 A 
BRANCH  62  66
ATOM     66  S   UNL     1       8.109  -0.402 -22.488  1.00  0.00     0.124 S 
ATOM     67  O   UNL     1       9.385  -0.781 -21.891  1.00  0.00    -0.237 OA
ATOM     68  O   UNL     1       7.024  -1.366 -22.341  1.00  0.00    -0.237 OA
ATOM     69  O   UNL     1       8.203   0.228 -23.804  1.00  0.00    -0.744 OA
ENDBRANCH  62  66
ENDBRANCH  36  59
ENDBRANCH  10  11
ENDBRANCH   2   5
BRANCH   3  70
ATOM     70  C   UNL     1       7.301   2.464  -4.525  1.00  0.00     0.118 C 
BRANCH  70  71
ATOM     71  C   UNL     1       6.148   3.043  -3.713  1.00  0.00     0.042 C 
BRANCH  71  72
ATOM     72  C   UNL     1       6.437   3.143  -2.217  1.00  0.00     0.117 C 
BRANCH  72  73
ATOM     73  N   UNL     1       7.506   4.088  -1.952  1.00  0.00    -0.354 N 
ATOM     74  C   UNL     1       7.495   5.357  -1.459  1.00  0.00     0.241 C 
ATOM     75  H   UNL     1       8.404   3.749  -2.170  1.00  0.00     0.163 HD
ATOM     76  O   UNL     1       8.602   5.902  -1.379  1.00  0.00    -0.273 OA
BRANCH  74  77
ATOM     77  C   UNL     1       6.201   6.050  -0.955  1.00  0.00     0.126 C 
ATOM     78  C   UNL     1       6.450   7.561  -0.669  1.00  0.00     0.037 C 
ATOM     79  C   UNL     1       5.034   6.120  -1.980  1.00  0.00     0.020 C 
ATOM     80  Cl  UNL     1       5.767   5.199   0.571  1.00  0.00    -0.108 Cl
ATOM     81  C   UNL     1       5.452   8.272  -1.605  1.00  0.00    -0.009 C 
ATOM     82  C   UNL     1       3.725   6.630  -1.341  1.00  0.00     0.006 C 
ATOM     83  C   UNL     1       5.431   7.343  -2.815  1.00  0.00     0.009 C 
ATOM     84  C   UNL     1       4.035   8.100  -1.038  1.00  0.00     0.004 C 
ENDBRANCH  74  77
ENDBRANCH  72  73
ENDBRANCH  71  72
ENDBRANCH  70  71
ENDBRANCH   3  70
TORSDOF 13
