REMARK SMILES Cc1ccc(NS(=O)(=O)N2CCCC[C@@H]2C(=O)NCCCNC(=O)c2ccc(-c3c4nc(c(-c5cc(S(=O)(=O)[O-])ccc5F)c5ccc([nH]5)c(-c5cc(S(=O)(=O)[O-])ccc5F)c5nc(c(-c6cc(S(=O)(=O)[O-])ccc6F)c6ccc3[nH]6)C=C5)C=C4)cc2)c(C)n1
REMARK SMILES IDX 20 1 19 2 18 3 16 4 17 5 15 7 10 8 11 9 12 10 14 11 13 12
REMARK SMILES IDX 7 13 8 14 9 15 6 16 5 18 1 19 2 20 3 21 90 22 4 23 88 24
REMARK SMILES IDX 89 25 21 26 22 27 23 28 24 30 25 31 26 32 87 33 27 34 86 35
REMARK SMILES IDX 28 36 29 37 30 38 80 39 31 40 85 41 79 42 81 43 32 44 84 45
REMARK SMILES IDX 78 46 77 47 33 49 65 50 45 51 64 52 46 53 49 54 63 55 82 56
REMARK SMILES IDX 47 57 48 58 62 60 83 61 50 62 34 63 35 64 43 65 36 66 42 67
REMARK SMILES IDX 44 68 41 69 37 70 38 71 39 72 40 73 66 74 67 75 75 76 68 77
REMARK SMILES IDX 74 78 76 79 73 80 69 81 70 82 71 83 72 84 51 85 52 86 60 87
REMARK SMILES IDX 53 88 59 89 61 90 58 91 54 92 55 93 56 94 57 95
REMARK H PARENT 18 6 6 17 22 29 81 48 49 59
REMARK Flexibility Score: inf
ROOT
ATOM      1  C   UNL     1      -1.331   1.790  -1.316  1.00  0.00     0.042 C 
ENDROOT
BRANCH   1   2
ATOM      2  C   UNL     1       0.119   1.428  -0.970  1.00  0.00     0.117 C 
BRANCH   2   3
ATOM      3  N   UNL     1       0.822   0.749  -2.050  1.00  0.00    -0.355 N 
ATOM      4  C   UNL     1       2.123   0.601  -2.403  1.00  0.00     0.238 C 
ATOM      5  O   UNL     1       2.316  -0.258  -3.277  1.00  0.00    -0.273 OA
ATOM      6  H   UNL     1       0.209   0.289  -2.669  1.00  0.00     0.163 HD
BRANCH   4   7
ATOM      7  C   UNL     1       3.313   1.393  -1.843  1.00  0.00     0.163 C 
ATOM      8  N   UNL     1       3.905   0.939  -0.528  1.00  0.00    -0.172 NA
ATOM      9  C   UNL     1       5.141   1.720  -0.196  1.00  0.00     0.105 C 
ATOM     10  C   UNL     1       4.823   3.205  -0.109  1.00  0.00     0.017 C 
ATOM     11  C   UNL     1       3.062   2.910  -1.846  1.00  0.00     0.030 C 
ATOM     12  C   UNL     1       4.298   3.709  -1.443  1.00  0.00     0.004 C 
BRANCH   8  13
ATOM     13  S   UNL     1       4.203  -0.737  -0.399  1.00  0.00     0.302 S 
ATOM     14  O   UNL     1       4.974  -1.005   0.792  1.00  0.00    -0.189 OA
ATOM     15  O   UNL     1       4.694  -1.207  -1.671  1.00  0.00    -0.189 OA
BRANCH  13  16
ATOM     16  N   UNL     1       2.694  -1.361  -0.176  1.00  0.00    -0.269 N 
ATOM     17  H   UNL     1       2.363  -1.953  -0.889  1.00  0.00     0.181 HD
BRANCH  16  18
ATOM     18  C   UNL     1       1.802  -1.148   0.932  1.00  0.00     0.071 A 
ATOM     19  C   UNL     1      -1.697   0.104   3.006  1.00  0.00     0.067 C 
ATOM     20  C   UNL     1      -0.458  -0.499   2.420  1.00  0.00     0.038 A 
ATOM     21  C   UNL     1      -0.512  -1.591   1.578  1.00  0.00     0.026 A 
ATOM     22  N   UNL     1       0.687   0.179   2.622  1.00  0.00    -0.256 NA
ATOM     23  C   UNL     1       0.618  -1.899   0.822  1.00  0.00     0.030 A 
ATOM     24  C   UNL     1       1.812  -0.155   1.923  1.00  0.00     0.062 A 
ATOM     25  C   UNL     1       2.959   0.698   2.344  1.00  0.00     0.069 C 
ENDBRANCH  16  18
ENDBRANCH  13  16
ENDBRANCH   8  13
ENDBRANCH   4   7
ENDBRANCH   2   3
ENDBRANCH   1   2
BRANCH   1  26
ATOM     26  C   UNL     1      -2.208   0.638  -1.811  1.00  0.00     0.118 C 
BRANCH  26  27
ATOM     27  N   UNL     1      -2.611  -0.312  -0.787  1.00  0.00    -0.352 N 
ATOM     28  C   UNL     1      -3.683  -0.340   0.074  1.00  0.00     0.251 C 
ATOM     29  H   UNL     1      -2.002  -1.080  -0.692  1.00  0.00     0.163 HD
ATOM     30  O   UNL     1      -3.759  -1.247   0.901  1.00  0.00    -0.269 OA
BRANCH  28  31
ATOM     31  C   UNL     1      -4.721   0.713   0.059  1.00  0.00     0.039 A 
ATOM     32  C   UNL     1      -5.215   1.203   1.278  1.00  0.00     0.014 A 
ATOM     33  C   UNL     1      -5.273   1.162  -1.136  1.00  0.00     0.014 A 
ATOM     34  C   UNL     1      -6.215   2.183   1.290  1.00  0.00     0.010 A 
ATOM     35  C   UNL     1      -6.202   2.195  -1.127  1.00  0.00     0.010 A 
ATOM     36  C   UNL     1      -6.699   2.702   0.084  1.00  0.00    -0.014 A 
BRANCH  36  37
ATOM     37  C   UNL     1      -7.789   3.708   0.006  1.00  0.00     0.031 A 
ATOM     38  C   UNL     1      -9.060   3.325  -0.705  1.00  0.00     0.074 A 
ATOM     39  C   UNL     1      -7.580   4.975   0.410  1.00  0.00     0.049 A 
ATOM     40  N   UNL     1      -9.995   4.084  -1.211  1.00  0.00    -0.248 NA
ATOM     41  C   UNL     1      -9.264   1.885  -0.932  1.00  0.00     0.031 C 
ATOM     42  C   UNL     1      -6.381   5.460   1.096  1.00  0.00     0.029 A 
ATOM     43  N   UNL     1      -8.352   6.099   0.255  1.00  0.00    -0.354 N 
ATOM     44  C   UNL     1     -10.859   3.221  -1.880  1.00  0.00     0.074 A 
ATOM     45  C   UNL     1     -10.319   1.886  -1.732  1.00  0.00     0.031 C 
ATOM     46  C   UNL     1      -6.488   6.786   1.282  1.00  0.00     0.029 A 
ATOM     47  C   UNL     1      -7.733   7.253   0.679  1.00  0.00     0.049 A 
ATOM     48  H   UNL     1      -9.260   6.082  -0.124  1.00  0.00     0.167 HD
ATOM     49  C   UNL     1     -11.996   3.523  -2.554  1.00  0.00     0.034 A 
ATOM     50  C   UNL     1      -8.109   8.541   0.555  1.00  0.00     0.034 A 
ATOM     51  C   UNL     1     -12.537   4.858  -2.627  1.00  0.00     0.049 A 
ATOM     52  C   UNL     1      -9.409   8.848  -0.147  1.00  0.00     0.074 A 
ATOM     53  C   UNL     1     -13.725   5.279  -3.198  1.00  0.00     0.029 A 
ATOM     54  N   UNL     1     -11.926   5.989  -2.100  1.00  0.00    -0.354 N 
ATOM     55  N   UNL     1     -10.233   8.024  -0.755  1.00  0.00    -0.248 NA
ATOM     56  C   UNL     1      -9.834  10.253  -0.173  1.00  0.00     0.031 C 
ATOM     57  C   UNL     1     -13.808   6.669  -3.061  1.00  0.00     0.029 A 
ATOM     58  C   UNL     1     -12.703   7.109  -2.347  1.00  0.00     0.049 A 
ATOM     59  H   UNL     1     -11.066   5.994  -1.621  1.00  0.00     0.167 HD
ATOM     60  C   UNL     1     -11.286   8.810  -1.213  1.00  0.00     0.074 A 
ATOM     61  C   UNL     1     -11.001  10.168  -0.794  1.00  0.00     0.031 C 
ATOM     62  C   UNL     1     -12.390   8.450  -1.917  1.00  0.00     0.034 A 
BRANCH  49  63
ATOM     63  C   UNL     1     -12.700   2.405  -3.286  1.00  0.00     0.023 A 
ATOM     64  C   UNL     1     -13.234   1.292  -2.615  1.00  0.00     0.031 A 
ATOM     65  C   UNL     1     -12.813   2.440  -4.689  1.00  0.00     0.131 A 
ATOM     66  C   UNL     1     -13.782   0.227  -3.347  1.00  0.00     0.055 A 
ATOM     67  C   UNL     1     -13.436   1.416  -5.406  1.00  0.00     0.041 A 
ATOM     68  F   UNL     1     -12.305   3.466  -5.390  1.00  0.00    -0.206 F 
ATOM     69  C   UNL     1     -13.911   0.292  -4.736  1.00  0.00     0.022 A 
BRANCH  66  70
ATOM     70  S   UNL     1     -14.199  -1.304  -2.469  1.00  0.00     0.124 S 
ATOM     71  O   UNL     1     -12.893  -1.712  -1.956  1.00  0.00    -0.237 OA
ATOM     72  O   UNL     1     -15.160  -0.846  -1.473  1.00  0.00    -0.237 OA
ATOM     73  O   UNL     1     -14.746  -2.163  -3.516  1.00  0.00    -0.744 OA
ENDBRANCH  66  70
ENDBRANCH  49  63
BRANCH  50  74
ATOM     74  C   UNL     1      -7.243   9.639   1.073  1.00  0.00     0.023 A 
ATOM     75  C   UNL     1      -7.670  10.456   2.132  1.00  0.00     0.031 A 
ATOM     76  C   UNL     1      -5.990   9.914   0.495  1.00  0.00     0.131 A 
ATOM     77  C   UNL     1      -6.877  11.536   2.550  1.00  0.00     0.055 A 
ATOM     78  C   UNL     1      -5.181  10.958   0.949  1.00  0.00     0.041 A 
ATOM     79  F   UNL     1      -5.528   9.160  -0.515  1.00  0.00    -0.206 F 
ATOM     80  C   UNL     1      -5.630  11.785   1.973  1.00  0.00     0.022 A 
BRANCH  77  81
ATOM     81  S   UNL     1      -7.541  12.664   3.805  1.00  0.00     0.124 S 
ATOM     82  O   UNL     1      -8.799  13.081   3.195  1.00  0.00    -0.237 OA
ATOM     83  O   UNL     1      -7.652  11.789   4.967  1.00  0.00    -0.237 OA
ATOM     84  O   UNL     1      -6.519  13.703   3.903  1.00  0.00    -0.744 OA
ENDBRANCH  77  81
ENDBRANCH  50  74
BRANCH  62  85
ATOM     85  C   UNL     1     -13.383   9.540  -2.226  1.00  0.00     0.023 A 
ATOM     86  C   UNL     1     -13.085  10.573  -3.131  1.00  0.00     0.031 A 
ATOM     87  C   UNL     1     -14.641   9.547  -1.598  1.00  0.00     0.131 A 
ATOM     88  C   UNL     1     -14.013  11.603  -3.341  1.00  0.00     0.055 A 
ATOM     89  C   UNL     1     -15.582  10.544  -1.855  1.00  0.00     0.041 A 
ATOM     90  F   UNL     1     -14.974   8.582  -0.726  1.00  0.00    -0.206 F 
ATOM     91  C   UNL     1     -15.265  11.587  -2.721  1.00  0.00     0.022 A 
BRANCH  88  92
ATOM     92  S   UNL     1     -13.526  13.013  -4.372  1.00  0.00     0.124 S 
ATOM     93  O   UNL     1     -12.359  13.522  -3.658  1.00  0.00    -0.237 OA
ATOM     94  O   UNL     1     -13.259  12.381  -5.660  1.00  0.00    -0.237 OA
ATOM     95  O   UNL     1     -14.701  13.882  -4.341  1.00  0.00    -0.744 OA
ENDBRANCH  88  92
ENDBRANCH  62  85
ENDBRANCH  36  37
ENDBRANCH  28  31
ENDBRANCH  26  27
ENDBRANCH   1  26
TORSDOF 16
