REMARK SMILES CCOc1ccc(NC(=O)CC2(CC(=O)NCCCNC(=O)c3ccc(-c4c5nc(c(-c6cc(S(=O)(=O)[O-])ccc6F)c6ccc([nH]6)c(-c6cc(S(=O)(=O)[O-])ccc6F)c6nc(c(-c7cc(S(=O)(=O)[O-])ccc7F)c7ccc4[nH]7)C=C6)C=C5)cc3)CCCCC2)cc1
REMARK SMILES IDX 14 1 15 2 16 3 13 5 12 6 86 7 90 8 87 9 89 10 88 11 11 12
REMARK SMILES IDX 9 13 8 14 10 16 7 17 4 18 5 19 92 20 6 21 91 22 3 23 2 24
REMARK SMILES IDX 1 25 17 26 18 27 19 28 20 29 21 30 22 32 23 33 24 34 85 35
REMARK SMILES IDX 25 36 84 37 26 38 27 39 28 40 78 41 29 42 83 43 77 44 79 45
REMARK SMILES IDX 30 46 82 47 76 48 75 49 31 51 63 52 43 53 62 54 44 55 47 56
REMARK SMILES IDX 61 57 80 58 45 59 46 60 60 62 81 63 48 64 32 65 33 66 41 67
REMARK SMILES IDX 34 68 40 69 42 70 39 71 35 72 36 73 37 74 38 75 64 76 65 77
REMARK SMILES IDX 73 78 66 79 72 80 74 81 71 82 67 83 68 84 69 85 70 86 49 87
REMARK SMILES IDX 50 88 58 89 51 90 57 91 59 92 56 93 52 94 53 95 54 96 55 97
REMARK H PARENT 16 4 8 15 20 31 79 50 47 61
REMARK Flexibility Score: inf
ROOT
ATOM      1  C   UNL     1       3.570  -1.282  -6.718  1.00  0.00     0.220 C 
ATOM      2  O   UNL     1       4.242  -0.464  -7.355  1.00  0.00    -0.275 OA
ATOM      3  N   UNL     1       2.385  -0.836  -6.218  1.00  0.00    -0.356 N 
ATOM      4  H   UNL     1       2.266   0.138  -6.295  1.00  0.00     0.163 HD
ENDROOT
BRANCH   1   5
ATOM      5  C   UNL     1       4.085  -2.709  -6.531  1.00  0.00     0.107 C 
BRANCH   5   6
ATOM      6  C   UNL     1       5.136  -2.925  -5.377  1.00  0.00    -0.012 C 
ATOM      7  C   UNL     1       5.851  -4.297  -5.568  1.00  0.00     0.008 C 
ATOM      8  C   UNL     1       4.402  -2.971  -4.026  1.00  0.00     0.008 C 
ATOM      9  C   UNL     1       4.947  -5.516  -5.354  1.00  0.00     0.001 C 
ATOM     10  C   UNL     1       3.480  -4.171  -3.822  1.00  0.00     0.001 C 
ATOM     11  C   UNL     1       4.240  -5.474  -4.004  1.00  0.00     0.000 C 
BRANCH   6  12
ATOM     12  C   UNL     1       6.208  -1.775  -5.435  1.00  0.00     0.108 C 
BRANCH  12  13
ATOM     13  C   UNL     1       7.403  -1.798  -4.473  1.00  0.00     0.224 C 
ATOM     14  N   UNL     1       7.378  -1.272  -3.208  1.00  0.00    -0.326 N 
ATOM     15  H   UNL     1       8.245  -1.268  -2.741  1.00  0.00     0.169 HD
ATOM     16  O   UNL     1       8.449  -2.361  -4.823  1.00  0.00    -0.275 OA
BRANCH  14  17
ATOM     17  C   UNL     1       6.309  -0.739  -2.475  1.00  0.00     0.041 A 
ATOM     18  C   UNL     1       3.811  -0.660  -1.339  1.00  0.00     0.119 A 
ATOM     19  C   UNL     1       4.080   0.140  -2.448  1.00  0.00     0.048 A 
ATOM     20  C   UNL     1       4.847  -1.254  -0.634  1.00  0.00     0.048 A 
ATOM     21  C   UNL     1       5.345   0.096  -3.026  1.00  0.00     0.030 A 
ATOM     22  C   UNL     1       6.123  -1.257  -1.189  1.00  0.00     0.030 A 
BRANCH  18  23
ATOM     23  O   UNL     1       2.575  -1.244  -1.216  1.00  0.00    -0.494 OA
BRANCH  23  24
ATOM     24  C   UNL     1       1.673  -0.539  -0.384  1.00  0.00     0.226 C 
ATOM     25  C   UNL     1       1.719  -1.062   1.032  1.00  0.00     0.049 C 
ENDBRANCH  23  24
ENDBRANCH  18  23
ENDBRANCH  14  17
ENDBRANCH  12  13
ENDBRANCH   6  12
ENDBRANCH   5   6
ENDBRANCH   1   5
BRANCH   3  26
ATOM     26  C   UNL     1       1.258  -1.514  -5.592  1.00  0.00     0.117 C 
BRANCH  26  27
ATOM     27  C   UNL     1       0.979  -1.065  -4.149  1.00  0.00     0.042 C 
BRANCH  27  28
ATOM     28  C   UNL     1       0.612   0.418  -3.950  1.00  0.00     0.118 C 
BRANCH  28  29
ATOM     29  N   UNL     1      -0.733   0.613  -3.429  1.00  0.00    -0.352 N 
ATOM     30  C   UNL     1      -1.243   1.190  -2.286  1.00  0.00     0.251 C 
ATOM     31  H   UNL     1      -1.431   0.255  -4.024  1.00  0.00     0.163 HD
ATOM     32  O   UNL     1      -2.462   1.090  -2.125  1.00  0.00    -0.269 OA
BRANCH  30  33
ATOM     33  C   UNL     1      -0.437   1.859  -1.215  1.00  0.00     0.039 A 
ATOM     34  C   UNL     1      -0.906   1.737   0.108  1.00  0.00     0.014 A 
ATOM     35  C   UNL     1       0.713   2.624  -1.428  1.00  0.00     0.014 A 
ATOM     36  C   UNL     1      -0.229   2.327   1.193  1.00  0.00     0.010 A 
ATOM     37  C   UNL     1       1.421   3.177  -0.332  1.00  0.00     0.010 A 
ATOM     38  C   UNL     1       0.950   3.056   0.993  1.00  0.00    -0.014 A 
BRANCH  38  39
ATOM     39  C   UNL     1       1.545   3.852   2.123  1.00  0.00     0.031 A 
ATOM     40  C   UNL     1       1.368   5.352   2.108  1.00  0.00     0.074 A 
ATOM     41  C   UNL     1       2.170   3.294   3.186  1.00  0.00     0.049 A 
ATOM     42  N   UNL     1       1.724   6.245   2.999  1.00  0.00    -0.248 NA
ATOM     43  C   UNL     1       0.704   5.918   0.925  1.00  0.00     0.031 C 
ATOM     44  C   UNL     1       2.413   1.867   3.373  1.00  0.00     0.029 A 
ATOM     45  N   UNL     1       2.715   3.862   4.321  1.00  0.00    -0.354 N 
ATOM     46  C   UNL     1       1.292   7.468   2.499  1.00  0.00     0.074 A 
ATOM     47  C   UNL     1       0.750   7.214   1.182  1.00  0.00     0.031 C 
ATOM     48  C   UNL     1       3.051   1.667   4.542  1.00  0.00     0.029 A 
ATOM     49  C   UNL     1       3.274   2.954   5.199  1.00  0.00     0.049 A 
ATOM     50  H   UNL     1       2.706   4.832   4.489  1.00  0.00     0.167 HD
ATOM     51  C   UNL     1       1.288   8.689   3.090  1.00  0.00     0.034 A 
ATOM     52  C   UNL     1       3.884   3.130   6.395  1.00  0.00     0.034 A 
ATOM     53  C   UNL     1       1.848   8.970   4.385  1.00  0.00     0.049 A 
ATOM     54  C   UNL     1       3.982   4.527   6.979  1.00  0.00     0.074 A 
ATOM     55  C   UNL     1       1.921  10.184   5.048  1.00  0.00     0.029 A 
ATOM     56  N   UNL     1       2.439   8.030   5.217  1.00  0.00    -0.354 N 
ATOM     57  N   UNL     1       3.519   5.661   6.505  1.00  0.00    -0.248 NA
ATOM     58  C   UNL     1       4.657   4.659   8.280  1.00  0.00     0.031 C 
ATOM     59  C   UNL     1       2.609   9.990   6.250  1.00  0.00     0.029 A 
ATOM     60  C   UNL     1       2.892   8.641   6.377  1.00  0.00     0.049 A 
ATOM     61  H   UNL     1       2.523   7.071   5.014  1.00  0.00     0.167 HD
ATOM     62  C   UNL     1       3.790   6.620   7.482  1.00  0.00     0.074 A 
ATOM     63  C   UNL     1       4.439   5.931   8.574  1.00  0.00     0.031 C 
ATOM     64  C   UNL     1       3.520   7.951   7.478  1.00  0.00     0.034 A 
BRANCH  51  65
ATOM     65  C   UNL     1       0.652   9.812   2.309  1.00  0.00     0.023 A 
ATOM     66  C   UNL     1      -0.718   9.782   1.989  1.00  0.00     0.031 A 
ATOM     67  C   UNL     1       1.419  10.887   1.833  1.00  0.00     0.131 A 
ATOM     68  C   UNL     1      -1.260  10.760   1.145  1.00  0.00     0.055 A 
ATOM     69  C   UNL     1       0.852  11.908   1.067  1.00  0.00     0.041 A 
ATOM     70  F   UNL     1       2.735  10.954   2.087  1.00  0.00    -0.206 F 
ATOM     71  C   UNL     1      -0.491  11.839   0.705  1.00  0.00     0.022 A 
BRANCH  68  72
ATOM     72  S   UNL     1      -2.938  10.514   0.503  1.00  0.00     0.124 S 
ATOM     73  O   UNL     1      -2.788   9.262  -0.235  1.00  0.00    -0.237 OA
ATOM     74  O   UNL     1      -3.736  10.442   1.725  1.00  0.00    -0.237 OA
ATOM     75  O   UNL     1      -3.165  11.695  -0.322  1.00  0.00    -0.744 OA
ENDBRANCH  68  72
ENDBRANCH  51  65
BRANCH  52  76
ATOM     76  C   UNL     1       4.476   1.982   7.161  1.00  0.00     0.023 A 
ATOM     77  C   UNL     1       4.050   1.681   8.469  1.00  0.00     0.031 A 
ATOM     78  C   UNL     1       5.582   1.274   6.660  1.00  0.00     0.131 A 
ATOM     79  C   UNL     1       4.780   0.775   9.258  1.00  0.00     0.055 A 
ATOM     80  C   UNL     1       6.263   0.323   7.426  1.00  0.00     0.041 A 
ATOM     81  F   UNL     1       6.042   1.519   5.422  1.00  0.00    -0.206 F 
ATOM     82  C   UNL     1       5.878   0.086   8.741  1.00  0.00     0.022 A 
BRANCH  79  83
ATOM     83  S   UNL     1       4.372   0.627  11.023  1.00  0.00     0.124 S 
ATOM     84  O   UNL     1       4.500   2.011  11.471  1.00  0.00    -0.237 OA
ATOM     85  O   UNL     1       3.016   0.091  10.975  1.00  0.00    -0.237 OA
ATOM     86  O   UNL     1       5.387  -0.291  11.532  1.00  0.00    -0.744 OA
ENDBRANCH  79  83
ENDBRANCH  52  76
BRANCH  64  87
ATOM     87  C   UNL     1       3.846   8.736   8.731  1.00  0.00     0.023 A 
ATOM     88  C   UNL     1       5.161   8.870   9.212  1.00  0.00     0.031 A 
ATOM     89  C   UNL     1       2.812   9.334   9.476  1.00  0.00     0.131 A 
ATOM     90  C   UNL     1       5.398   9.511  10.438  1.00  0.00     0.055 A 
ATOM     91  C   UNL     1       3.063  10.037  10.655  1.00  0.00     0.041 A 
ATOM     92  F   UNL     1       1.535   9.242   9.070  1.00  0.00    -0.206 F 
ATOM     93  C   UNL     1       4.359  10.111  11.154  1.00  0.00     0.022 A 
BRANCH  90  94
ATOM     94  S   UNL     1       7.064   9.435  11.153  1.00  0.00     0.124 S 
ATOM     95  O   UNL     1       7.319   7.999  11.179  1.00  0.00    -0.237 OA
ATOM     96  O   UNL     1       7.849  10.204  10.192  1.00  0.00    -0.237 OA
ATOM     97  O   UNL     1       6.904  10.062  12.464  1.00  0.00    -0.744 OA
ENDBRANCH  90  94
ENDBRANCH  64  87
ENDBRANCH  38  39
ENDBRANCH  30  33
ENDBRANCH  28  29
ENDBRANCH  27  28
ENDBRANCH  26  27
ENDBRANCH   3  26
TORSDOF 19
