REMARK SMILES CCn1c(N2CCC(C(=O)NCCCNC(=O)c3ccc(-c4c5nc(c(-c6cc(S(=O)(=O)[O-])ccc6F)c6ccc([nH]6)c(-c6cc(S(=O)(=O)[O-])ccc6F)c6nc(c(-c7cc(S(=O)(=O)[O-])ccc7F)c7ccc4[nH]7)C=C6)C=C5)cc3)CC2)nc2cc(C)ccc21
REMARK SMILES IDX 13 1 12 2 11 3 9 4 10 5 8 7 5 8 6 9 82 10 7 11 81 12 4 13
REMARK SMILES IDX 3 14 90 15 83 16 84 17 89 18 85 19 88 20 86 21 87 22 2 23
REMARK SMILES IDX 1 24 14 25 15 26 16 27 17 29 18 30 19 31 80 32 20 33 79 34
REMARK SMILES IDX 21 35 22 36 23 37 73 38 24 39 78 40 72 41 74 42 25 43 77 44
REMARK SMILES IDX 71 45 70 46 26 48 58 49 38 50 57 51 39 52 42 53 56 54 75 55
REMARK SMILES IDX 40 56 41 57 55 59 76 60 43 61 27 62 28 63 36 64 29 65 35 66
REMARK SMILES IDX 37 67 34 68 30 69 31 70 32 71 33 72 59 73 60 74 68 75 61 76
REMARK SMILES IDX 67 77 69 78 66 79 62 80 63 81 64 82 65 83 44 84 45 85 53 86
REMARK SMILES IDX 46 87 52 88 54 89 51 90 47 91 48 92 49 93 50 94
REMARK H PARENT 11 6 15 28 74 47 42 58
REMARK Flexibility Score: inf
ROOT
ATOM      1  C   UNL     1      -0.962   6.654   3.755  1.00  0.00     0.042 C 
ENDROOT
BRANCH   1   2
ATOM      2  C   UNL     1      -1.918   5.725   3.009  1.00  0.00     0.117 C 
BRANCH   2   3
ATOM      3  N   UNL     1      -2.386   6.302   1.752  1.00  0.00    -0.356 N 
ATOM      4  C   UNL     1      -2.208   5.911   0.462  1.00  0.00     0.223 C 
ATOM      5  O   UNL     1      -2.730   6.591  -0.426  1.00  0.00    -0.275 OA
ATOM      6  H   UNL     1      -2.927   7.118   1.857  1.00  0.00     0.163 HD
BRANCH   4   7
ATOM      7  C   UNL     1      -1.424   4.658   0.107  1.00  0.00     0.082 C 
ATOM      8  N   UNL     1      -0.018   2.401   1.118  1.00  0.00    -0.342 N 
ATOM      9  C   UNL     1       0.789   3.448   0.518  1.00  0.00     0.120 C 
ATOM     10  C   UNL     1      -1.333   2.154   0.564  1.00  0.00     0.120 C 
ATOM     11  C   UNL     1       0.048   4.775   0.520  1.00  0.00     0.035 C 
ATOM     12  C   UNL     1      -2.172   3.417   0.609  1.00  0.00     0.035 C 
BRANCH   8  13
ATOM     13  C   UNL     1       0.512   1.629   2.099  1.00  0.00     0.206 A 
ATOM     14  N   UNL     1       0.688   0.266   1.960  1.00  0.00    -0.310 N 
ATOM     15  C   UNL     1       1.270  -0.213   3.112  1.00  0.00     0.070 A 
ATOM     16  N   UNL     1       0.985   2.041   3.256  1.00  0.00    -0.213 NA
ATOM     17  C   UNL     1       1.409   0.909   3.920  1.00  0.00     0.091 A 
ATOM     18  C   UNL     1       1.676  -1.492   3.512  1.00  0.00     0.029 A 
ATOM     19  C   UNL     1       1.924   0.751   5.221  1.00  0.00     0.034 A 
ATOM     20  C   UNL     1       2.183  -1.629   4.803  1.00  0.00     0.006 A 
ATOM     21  C   UNL     1       2.277  -0.538   5.671  1.00  0.00    -0.049 A 
ATOM     22  C   UNL     1       2.800  -0.768   7.059  1.00  0.00     0.044 C 
BRANCH  14  23
ATOM     23  C   UNL     1       0.348  -0.554   0.817  1.00  0.00     0.122 C 
ATOM     24  C   UNL     1       1.173  -0.259  -0.423  1.00  0.00     0.028 C 
ENDBRANCH  14  23
ENDBRANCH   8  13
ENDBRANCH   4   7
ENDBRANCH   2   3
ENDBRANCH   1   2
BRANCH   1  25
ATOM     25  C   UNL     1      -1.574   8.002   4.131  1.00  0.00     0.118 C 
BRANCH  25  26
ATOM     26  N   UNL     1      -2.795   7.898   4.902  1.00  0.00    -0.352 N 
ATOM     27  C   UNL     1      -3.087   7.774   6.231  1.00  0.00     0.251 C 
ATOM     28  H   UNL     1      -3.601   7.922   4.338  1.00  0.00     0.163 HD
ATOM     29  O   UNL     1      -4.287   7.827   6.515  1.00  0.00    -0.269 OA
BRANCH  27  30
ATOM     30  C   UNL     1      -2.096   7.526   7.315  1.00  0.00     0.039 A 
ATOM     31  C   UNL     1      -0.715   7.414   7.151  1.00  0.00     0.014 A 
ATOM     32  C   UNL     1      -2.636   7.316   8.598  1.00  0.00     0.014 A 
ATOM     33  C   UNL     1       0.089   6.987   8.205  1.00  0.00     0.010 A 
ATOM     34  C   UNL     1      -1.835   6.915   9.661  1.00  0.00     0.010 A 
ATOM     35  C   UNL     1      -0.480   6.691   9.444  1.00  0.00    -0.014 A 
BRANCH  35  36
ATOM     36  C   UNL     1       0.394   6.181  10.497  1.00  0.00     0.031 A 
ATOM     37  C   UNL     1       1.466   7.114  10.955  1.00  0.00     0.074 A 
ATOM     38  C   UNL     1       0.188   4.992  11.099  1.00  0.00     0.049 A 
ATOM     39  N   UNL     1       2.752   6.983  10.875  1.00  0.00    -0.248 NA
ATOM     40  C   UNL     1       1.032   8.420  11.471  1.00  0.00     0.031 C 
ATOM     41  C   UNL     1      -0.977   4.106  10.984  1.00  0.00     0.029 A 
ATOM     42  N   UNL     1       0.957   4.364  12.030  1.00  0.00    -0.354 N 
ATOM     43  C   UNL     1       3.297   8.116  11.489  1.00  0.00     0.074 A 
ATOM     44  C   UNL     1       2.198   9.021  11.704  1.00  0.00     0.031 C 
ATOM     45  C   UNL     1      -0.939   3.188  11.976  1.00  0.00     0.029 A 
ATOM     46  C   UNL     1       0.321   3.321  12.684  1.00  0.00     0.049 A 
ATOM     47  H   UNL     1       1.885   4.628  12.223  1.00  0.00     0.167 HD
ATOM     48  C   UNL     1       4.583   8.161  11.943  1.00  0.00     0.034 A 
ATOM     49  C   UNL     1       0.766   2.667  13.784  1.00  0.00     0.034 A 
ATOM     50  C   UNL     1       5.363   7.075  11.433  1.00  0.00     0.049 A 
ATOM     51  C   UNL     1       2.217   2.929  13.918  1.00  0.00     0.074 A 
ATOM     52  C   UNL     1       5.850   6.709  10.199  1.00  0.00     0.029 A 
ATOM     53  N   UNL     1       5.530   5.995  12.262  1.00  0.00    -0.354 N 
ATOM     54  N   UNL     1       3.127   2.460  13.111  1.00  0.00    -0.248 NA
ATOM     55  C   UNL     1       2.629   4.055  14.744  1.00  0.00     0.031 C 
ATOM     56  C   UNL     1       5.902   5.291  10.234  1.00  0.00     0.029 A 
ATOM     57  C   UNL     1       5.452   4.872  11.492  1.00  0.00     0.049 A 
ATOM     58  H   UNL     1       5.678   6.024  13.234  1.00  0.00     0.167 HD
ATOM     59  C   UNL     1       4.079   3.466  13.035  1.00  0.00     0.074 A 
ATOM     60  C   UNL     1       3.776   4.370  14.139  1.00  0.00     0.031 C 
ATOM     61  C   UNL     1       4.847   3.627  11.921  1.00  0.00     0.034 A 
BRANCH  48  62
ATOM     62  C   UNL     1       5.069   8.971  13.124  1.00  0.00     0.023 A 
ATOM     63  C   UNL     1       4.195   9.595  14.028  1.00  0.00     0.031 A 
ATOM     64  C   UNL     1       6.425   8.905  13.524  1.00  0.00     0.131 A 
ATOM     65  C   UNL     1       4.648  10.098  15.254  1.00  0.00     0.055 A 
ATOM     66  C   UNL     1       6.864   9.344  14.779  1.00  0.00     0.041 A 
ATOM     67  F   UNL     1       7.356   8.344  12.736  1.00  0.00    -0.206 F 
ATOM     68  C   UNL     1       5.970   9.940  15.656  1.00  0.00     0.022 A 
BRANCH  65  69
ATOM     69  S   UNL     1       3.500  10.951  16.368  1.00  0.00     0.124 S 
ATOM     70  O   UNL     1       3.541  10.098  17.550  1.00  0.00    -0.237 OA
ATOM     71  O   UNL     1       4.138  12.257  16.505  1.00  0.00    -0.237 OA
ATOM     72  O   UNL     1       2.243  10.953  15.624  1.00  0.00    -0.744 OA
ENDBRANCH  65  69
ENDBRANCH  48  62
BRANCH  49  73
ATOM     73  C   UNL     1      -0.061   2.280  14.949  1.00  0.00     0.023 A 
ATOM     74  C   UNL     1      -1.148   3.095  15.322  1.00  0.00     0.031 A 
ATOM     75  C   UNL     1       0.383   1.325  15.877  1.00  0.00     0.131 A 
ATOM     76  C   UNL     1      -1.714   2.984  16.597  1.00  0.00     0.055 A 
ATOM     77  C   UNL     1      -0.200   1.200  17.144  1.00  0.00     0.041 A 
ATOM     78  F   UNL     1       1.435   0.541  15.595  1.00  0.00    -0.206 F 
ATOM     79  C   UNL     1      -1.244   2.044  17.515  1.00  0.00     0.022 A 
BRANCH  76  80
ATOM     80  S   UNL     1      -3.014   4.134  17.124  1.00  0.00     0.124 S 
ATOM     81  O   UNL     1      -4.016   3.229  17.685  1.00  0.00    -0.237 OA
ATOM     82  O   UNL     1      -2.302   4.961  18.091  1.00  0.00    -0.237 OA
ATOM     83  O   UNL     1      -3.409   4.797  15.884  1.00  0.00    -0.744 OA
ENDBRANCH  76  80
ENDBRANCH  49  73
BRANCH  61  84
ATOM     84  C   UNL     1       4.799   2.583  10.839  1.00  0.00     0.023 A 
ATOM     85  C   UNL     1       6.024   2.039  10.417  1.00  0.00     0.031 A 
ATOM     86  C   UNL     1       3.700   2.525   9.966  1.00  0.00     0.131 A 
ATOM     87  C   UNL     1       6.157   1.582   9.102  1.00  0.00     0.055 A 
ATOM     88  C   UNL     1       3.834   2.049   8.667  1.00  0.00     0.041 A 
ATOM     89  F   UNL     1       2.521   3.066  10.291  1.00  0.00    -0.206 F 
ATOM     90  C   UNL     1       5.076   1.614   8.217  1.00  0.00     0.022 A 
BRANCH  87  91
ATOM     91  S   UNL     1       7.794   1.172   8.444  1.00  0.00     0.124 S 
ATOM     92  O   UNL     1       7.743  -0.288   8.396  1.00  0.00    -0.237 OA
ATOM     93  O   UNL     1       7.791   1.838   7.140  1.00  0.00    -0.237 OA
ATOM     94  O   UNL     1       8.717   1.738   9.418  1.00  0.00    -0.744 OA
ENDBRANCH  87  91
ENDBRANCH  61  84
ENDBRANCH  35  36
ENDBRANCH  27  30
ENDBRANCH  25  26
ENDBRANCH   1  25
TORSDOF 15
