REMARK SMILES C[C@@H](Nc1cccc(Cl)c1)[C@@H](C)C(=O)NCCCNC(=O)c1ccc(-c2c3nc(c(-c4cc(S(=O)(=O)[O-])ccc4F)c4ccc([nH]4)c(-c4cc(S(=O)(=O)[O-])ccc4F)c4nc(c(-c5cc(S(=O)(=O)[O-])ccc5F)c5ccc2[nH]5)C=C4)C=C3)cc1
REMARK SMILES IDX 17 1 16 2 15 3 13 4 14 5 11 7 12 8 2 9 1 10 3 11 4 13 5 14
REMARK SMILES IDX 10 15 6 16 8 17 7 18 9 19 18 20 19 21 20 22 21 24 22 25
REMARK SMILES IDX 23 26 84 27 24 28 83 29 25 30 26 31 27 32 77 33 28 34 82 35
REMARK SMILES IDX 76 36 78 37 29 38 81 39 75 40 74 41 30 43 62 44 42 45 61 46
REMARK SMILES IDX 43 47 46 48 60 49 79 50 44 51 45 52 59 54 80 55 47 56 31 57
REMARK SMILES IDX 32 58 40 59 33 60 39 61 41 62 38 63 34 64 35 65 36 66 37 67
REMARK SMILES IDX 63 68 64 69 72 70 65 71 71 72 73 73 70 74 66 75 67 76 68 77
REMARK SMILES IDX 69 78 48 79 49 80 57 81 50 82 56 83 58 84 55 85 51 86 52 87
REMARK SMILES IDX 53 88 54 89
REMARK H PARENT 15 6 3 12 19 23 78 42 46 53
REMARK Flexibility Score: inf
ROOT
ATOM      1  C   UNL     1       0.861   3.044   3.579  1.00  0.00     0.042 C 
ENDROOT
BRANCH   1   2
ATOM      2  C   UNL     1      -0.319   2.084   3.447  1.00  0.00     0.117 C 
BRANCH   2   3
ATOM      3  N   UNL     1      -1.366   2.573   2.568  1.00  0.00    -0.356 N 
ATOM      4  C   UNL     1      -1.777   2.192   1.331  1.00  0.00     0.224 C 
ATOM      5  O   UNL     1      -2.834   2.697   0.933  1.00  0.00    -0.275 OA
ATOM      6  H   UNL     1      -1.876   3.328   2.941  1.00  0.00     0.163 HD
BRANCH   4   7
ATOM      7  C   UNL     1      -1.068   1.137   0.484  1.00  0.00     0.097 C 
ATOM      8  C   UNL     1      -1.494  -0.223   1.059  1.00  0.00     0.020 C 
BRANCH   7   9
ATOM      9  C   UNL     1       0.459   1.340   0.287  1.00  0.00     0.088 C 
ATOM     10  C   UNL     1       1.165   0.011  -0.055  1.00  0.00     0.031 C 
BRANCH   9  11
ATOM     11  N   UNL     1       0.855   2.263  -0.789  1.00  0.00    -0.382 N 
ATOM     12  H   UNL     1       1.766   2.128  -1.136  1.00  0.00     0.160 HD
BRANCH  11  13
ATOM     13  C   UNL     1       0.156   3.284  -1.388  1.00  0.00     0.036 A 
ATOM     14  C   UNL     1      -0.628   4.208  -0.699  1.00  0.00     0.026 A 
ATOM     15  C   UNL     1       0.186   3.373  -2.786  1.00  0.00     0.046 A 
ATOM     16  C   UNL     1      -1.432   5.132  -1.377  1.00  0.00     0.004 A 
ATOM     17  C   UNL     1      -0.599   4.304  -3.467  1.00  0.00     0.043 A 
ATOM     18  C   UNL     1      -1.427   5.172  -2.767  1.00  0.00     0.020 A 
ATOM     19  Cl  UNL     1      -0.559   4.356  -5.187  1.00  0.00    -0.084 Cl
ENDBRANCH  11  13
ENDBRANCH   9  11
ENDBRANCH   7   9
ENDBRANCH   4   7
ENDBRANCH   2   3
ENDBRANCH   1   2
BRANCH   1  20
ATOM     20  C   UNL     1       0.510   4.429   4.110  1.00  0.00     0.118 C 
BRANCH  20  21
ATOM     21  N   UNL     1      -0.095   4.390   5.431  1.00  0.00    -0.352 N 
ATOM     22  C   UNL     1       0.390   4.777   6.657  1.00  0.00     0.251 C 
ATOM     23  H   UNL     1      -1.008   4.024   5.451  1.00  0.00     0.163 HD
ATOM     24  O   UNL     1      -0.226   4.441   7.665  1.00  0.00    -0.269 OA
BRANCH  22  25
ATOM     25  C   UNL     1       1.641   5.562   6.780  1.00  0.00     0.039 A 
ATOM     26  C   UNL     1       2.503   5.287   7.846  1.00  0.00     0.014 A 
ATOM     27  C   UNL     1       1.951   6.596   5.893  1.00  0.00     0.014 A 
ATOM     28  C   UNL     1       3.701   5.996   7.978  1.00  0.00     0.010 A 
ATOM     29  C   UNL     1       3.183   7.242   5.975  1.00  0.00     0.010 A 
ATOM     30  C   UNL     1       4.072   6.953   7.020  1.00  0.00    -0.014 A 
BRANCH  30  31
ATOM     31  C   UNL     1       5.380   7.661   7.099  1.00  0.00     0.031 A 
ATOM     32  C   UNL     1       5.424   9.157   7.266  1.00  0.00     0.074 A 
ATOM     33  C   UNL     1       6.525   6.964   6.958  1.00  0.00     0.049 A 
ATOM     34  N   UNL     1       6.457   9.960   7.270  1.00  0.00    -0.248 NA
ATOM     35  C   UNL     1       4.132   9.841   7.420  1.00  0.00     0.031 C 
ATOM     36  C   UNL     1       6.613   5.516   6.756  1.00  0.00     0.029 A 
ATOM     37  N   UNL     1       7.835   7.376   6.954  1.00  0.00    -0.354 N 
ATOM     38  C   UNL     1       5.941  11.244   7.413  1.00  0.00     0.074 A 
ATOM     39  C   UNL     1       4.499  11.114   7.428  1.00  0.00     0.031 C 
ATOM     40  C   UNL     1       7.904   5.159   6.674  1.00  0.00     0.029 A 
ATOM     41  C   UNL     1       8.737   6.354   6.763  1.00  0.00     0.049 A 
ATOM     42  H   UNL     1       8.103   8.315   7.076  1.00  0.00     0.167 HD
ATOM     43  C   UNL     1       6.607  12.419   7.543  1.00  0.00     0.034 A 
ATOM     44  C   UNL     1      10.081   6.377   6.654  1.00  0.00     0.034 A 
ATOM     45  C   UNL     1       8.046  12.530   7.535  1.00  0.00     0.049 A 
ATOM     46  C   UNL     1      10.797   7.699   6.765  1.00  0.00     0.074 A 
ATOM     47  C   UNL     1       8.825  13.662   7.710  1.00  0.00     0.029 A 
ATOM     48  N   UNL     1       8.927  11.474   7.333  1.00  0.00    -0.354 N 
ATOM     49  N   UNL     1      10.295   8.899   6.947  1.00  0.00    -0.248 NA
ATOM     50  C   UNL     1      12.262   7.668   6.667  1.00  0.00     0.031 C 
ATOM     51  C   UNL     1      10.166  13.304   7.541  1.00  0.00     0.029 A 
ATOM     52  C   UNL     1      10.235  11.934   7.345  1.00  0.00     0.049 A 
ATOM     53  H   UNL     1       8.660  10.536   7.201  1.00  0.00     0.167 HD
ATOM     54  C   UNL     1      11.388   9.760   7.018  1.00  0.00     0.074 A 
ATOM     55  C   UNL     1      12.572   8.939   6.875  1.00  0.00     0.031 C 
ATOM     56  C   UNL     1      11.410  11.107   7.190  1.00  0.00     0.034 A 
BRANCH  43  57
ATOM     57  C   UNL     1       5.780  13.678   7.676  1.00  0.00     0.023 A 
ATOM     58  C   UNL     1       4.905  13.876   8.760  1.00  0.00     0.031 A 
ATOM     59  C   UNL     1       5.847  14.684   6.696  1.00  0.00     0.131 A 
ATOM     60  C   UNL     1       4.078  15.008   8.796  1.00  0.00     0.055 A 
ATOM     61  C   UNL     1       5.084  15.850   6.783  1.00  0.00     0.041 A 
ATOM     62  F   UNL     1       6.648  14.545   5.628  1.00  0.00    -0.206 F 
ATOM     63  C   UNL     1       4.180  16.010   7.829  1.00  0.00     0.022 A 
BRANCH  60  64
ATOM     64  S   UNL     1       2.759  15.076  10.040  1.00  0.00     0.124 S 
ATOM     65  O   UNL     1       2.000  13.866   9.731  1.00  0.00    -0.237 OA
ATOM     66  O   UNL     1       3.506  15.060  11.292  1.00  0.00    -0.237 OA
ATOM     67  O   UNL     1       2.069  16.329   9.740  1.00  0.00    -0.744 OA
ENDBRANCH  60  64
ENDBRANCH  43  57
BRANCH  44  68
ATOM     68  C   UNL     1      10.842   5.117   6.413  1.00  0.00     0.023 A 
ATOM     69  C   UNL     1      11.761   4.635   7.358  1.00  0.00     0.031 A 
ATOM     70  C   UNL     1      10.694   4.399   5.212  1.00  0.00     0.131 A 
ATOM     71  C   UNL     1      12.533   3.499   7.069  1.00  0.00     0.055 A 
ATOM     72  C   UNL     1      11.423   3.237   4.953  1.00  0.00     0.041 A 
ATOM     73  F   UNL     1       9.827   4.812   4.275  1.00  0.00    -0.206 F 
ATOM     74  C   UNL     1      12.360   2.788   5.879  1.00  0.00     0.022 A 
BRANCH  71  75
ATOM     75  S   UNL     1      13.835   3.015   8.234  1.00  0.00     0.124 S 
ATOM     76  O   UNL     1      14.655   4.220   8.280  1.00  0.00    -0.237 OA
ATOM     77  O   UNL     1      13.068   2.713   9.437  1.00  0.00    -0.237 OA
ATOM     78  O   UNL     1      14.457   1.861   7.588  1.00  0.00    -0.744 OA
ENDBRANCH  71  75
ENDBRANCH  44  68
BRANCH  56  79
ATOM     79  C   UNL     1      12.765  11.766   7.282  1.00  0.00     0.023 A 
ATOM     80  C   UNL     1      13.649  11.802   6.190  1.00  0.00     0.031 A 
ATOM     81  C   UNL     1      13.183  12.356   8.489  1.00  0.00     0.131 A 
ATOM     82  C   UNL     1      14.927  12.363   6.342  1.00  0.00     0.055 A 
ATOM     83  C   UNL     1      14.429  12.971   8.615  1.00  0.00     0.041 A 
ATOM     84  F   UNL     1      12.382  12.348   9.567  1.00  0.00    -0.206 F 
ATOM     85  C   UNL     1      15.315  12.964   7.542  1.00  0.00     0.022 A 
BRANCH  82  86
ATOM     86  S   UNL     1      16.114  12.209   4.979  1.00  0.00     0.124 S 
ATOM     87  O   UNL     1      16.195  10.762   4.809  1.00  0.00    -0.237 OA
ATOM     88  O   UNL     1      15.452  12.942   3.904  1.00  0.00    -0.237 OA
ATOM     89  O   UNL     1      17.323  12.840   5.505  1.00  0.00    -0.744 OA
ENDBRANCH  82  86
ENDBRANCH  56  79
ENDBRANCH  30  31
ENDBRANCH  22  25
ENDBRANCH  20  21
ENDBRANCH   1  20
TORSDOF 16
