REMARK SMILES C[C@H]1[NH2+]CC[C@H]1C(=O)N1CC(C(=O)NCCCNC(=O)c2ccc(-c3c4nc(c(-c5cc(S(=O)(=O)[O-])ccc5F)c5ccc([nH]5)c(-c5cc(S(=O)(=O)[O-])ccc5F)c5nc(c(-c6cc(S(=O)(=O)[O-])ccc6F)c6ccc3[nH]6)C=C5)C=C4)cc2)C1
REMARK SMILES IDX 17 1 16 2 15 3 14 4 12 5 13 6 11 8 7 9 8 10 9 11 10 12 84 13
REMARK SMILES IDX 6 14 1 15 2 16 3 17 4 18 5 21 18 22 19 23 20 25 21 26 22 27
REMARK SMILES IDX 83 28 23 29 82 30 24 31 25 32 26 33 76 34 27 35 81 36 75 37
REMARK SMILES IDX 77 38 28 39 80 40 74 41 73 42 29 44 61 45 41 46 60 47 42 48
REMARK SMILES IDX 45 49 59 50 78 51 43 52 44 53 58 55 79 56 46 57 30 58 31 59
REMARK SMILES IDX 39 60 32 61 38 62 40 63 37 64 33 65 34 66 35 67 36 68 62 69
REMARK SMILES IDX 63 70 71 71 64 72 70 73 72 74 69 75 65 76 66 77 67 78 68 79
REMARK SMILES IDX 47 80 48 81 56 82 49 83 55 84 57 85 54 86 50 87 51 88 52 89
REMARK SMILES IDX 53 90
REMARK H PARENT 14 7 3 19 3 20 18 24 77 43 45 54
REMARK Flexibility Score: inf
ROOT
ATOM      1  C   UNL     1       2.145   0.046   6.478  1.00  0.00     0.118 C 
ENDROOT
BRANCH   1   2
ATOM      2  C   UNL     1       1.698   0.317   5.046  1.00  0.00     0.042 C 
BRANCH   2   3
ATOM      3  C   UNL     1       1.356   1.773   4.756  1.00  0.00     0.117 C 
BRANCH   3   4
ATOM      4  N   UNL     1       2.499   2.659   4.889  1.00  0.00    -0.356 N 
ATOM      5  C   UNL     1       3.134   3.467   3.976  1.00  0.00     0.226 C 
ATOM      6  O   UNL     1       4.072   4.144   4.421  1.00  0.00    -0.275 OA
ATOM      7  H   UNL     1       2.888   2.686   5.793  1.00  0.00     0.163 HD
BRANCH   5   8
ATOM      8  C   UNL     1       2.733   3.523   2.500  1.00  0.00     0.117 C 
ATOM      9  C   UNL     1       0.922   2.407  -0.009  1.00  0.00     0.231 C 
ATOM     10  O   UNL     1       1.174   3.293  -0.827  1.00  0.00    -0.274 OA
ATOM     11  N   UNL     1       1.336   2.487   1.307  1.00  0.00    -0.341 N 
ATOM     12  C   UNL     1       1.299   3.762   2.061  1.00  0.00     0.134 C 
ATOM     13  C   UNL     1       2.744   2.247   1.684  1.00  0.00     0.134 C 
BRANCH   9  14
ATOM     14  C   UNL     1       0.086   1.191  -0.388  1.00  0.00     0.142 C 
ATOM     15  C   UNL     1       1.809  -0.576   0.478  1.00  0.00     0.076 C 
ATOM     16  C   UNL     1       0.781  -0.158  -0.566  1.00  0.00     0.192 C 
ATOM     17  N   UNL     1      -0.341  -1.114  -0.564  1.00  0.00    -0.343 N 
ATOM     18  C   UNL     1      -1.438  -0.551   0.226  1.00  0.00     0.261 C 
ATOM     19  H   UNL     1      -0.039  -1.996  -0.150  1.00  0.00     0.346 HD
ATOM     20  H   UNL     1      -0.654  -1.285  -1.519  1.00  0.00     0.346 HD
ATOM     21  C   UNL     1      -1.056   0.880   0.567  1.00  0.00     0.081 C 
ENDBRANCH   9  14
ENDBRANCH   5   8
ENDBRANCH   3   4
ENDBRANCH   2   3
ENDBRANCH   1   2
BRANCH   1  22
ATOM     22  N   UNL     1       1.123   0.375   7.462  1.00  0.00    -0.352 N 
ATOM     23  C   UNL     1       0.482  -0.421   8.379  1.00  0.00     0.251 C 
ATOM     24  H   UNL     1       0.847   1.320   7.470  1.00  0.00     0.163 HD
ATOM     25  O   UNL     1      -0.491   0.032   8.982  1.00  0.00    -0.269 OA
BRANCH  23  26
ATOM     26  C   UNL     1       0.928  -1.810   8.624  1.00  0.00     0.039 A 
ATOM     27  C   UNL     1      -0.035  -2.807   8.805  1.00  0.00     0.014 A 
ATOM     28  C   UNL     1       2.285  -2.135   8.694  1.00  0.00     0.014 A 
ATOM     29  C   UNL     1       0.363  -4.135   8.979  1.00  0.00     0.010 A 
ATOM     30  C   UNL     1       2.678  -3.469   8.778  1.00  0.00     0.010 A 
ATOM     31  C   UNL     1       1.722  -4.486   8.921  1.00  0.00    -0.014 A 
BRANCH  31  32
ATOM     32  C   UNL     1       2.158  -5.906   9.000  1.00  0.00     0.031 A 
ATOM     33  C   UNL     1       3.046  -6.367  10.125  1.00  0.00     0.074 A 
ATOM     34  C   UNL     1       1.806  -6.766   8.024  1.00  0.00     0.049 A 
ATOM     35  N   UNL     1       3.589  -7.541  10.324  1.00  0.00    -0.248 NA
ATOM     36  C   UNL     1       3.393  -5.365  11.144  1.00  0.00     0.031 C 
ATOM     37  C   UNL     1       0.981  -6.431   6.861  1.00  0.00     0.029 A 
ATOM     38  N   UNL     1       2.101  -8.095   7.846  1.00  0.00    -0.354 N 
ATOM     39  C   UNL     1       4.350  -7.416  11.482  1.00  0.00     0.074 A 
ATOM     40  C   UNL     1       4.250  -6.034  11.899  1.00  0.00     0.031 C 
ATOM     41  C   UNL     1       0.813  -7.530   6.109  1.00  0.00     0.029 A 
ATOM     42  C   UNL     1       1.561  -8.634   6.700  1.00  0.00     0.049 A 
ATOM     43  H   UNL     1       2.649  -8.615   8.478  1.00  0.00     0.167 HD
ATOM     44  C   UNL     1       5.048  -8.371  12.147  1.00  0.00     0.034 A 
ATOM     45  C   UNL     1       1.667  -9.871   6.175  1.00  0.00     0.034 A 
ATOM     46  C   UNL     1       5.133  -9.747  11.717  1.00  0.00     0.049 A 
ATOM     47  C   UNL     1       2.481 -10.907   6.910  1.00  0.00     0.074 A 
ATOM     48  C   UNL     1       5.766 -10.807  12.343  1.00  0.00     0.029 A 
ATOM     49  N   UNL     1       4.581 -10.253  10.546  1.00  0.00    -0.354 N 
ATOM     50  N   UNL     1       3.152 -10.786   8.032  1.00  0.00    -0.248 NA
ATOM     51  C   UNL     1       2.542 -12.247   6.312  1.00  0.00     0.031 C 
ATOM     52  C   UNL     1       5.669 -11.929  11.514  1.00  0.00     0.029 A 
ATOM     53  C   UNL     1       4.894 -11.598  10.414  1.00  0.00     0.049 A 
ATOM     54  H   UNL     1       4.046  -9.732   9.905  1.00  0.00     0.167 HD
ATOM     55  C   UNL     1       3.687 -12.046   8.291  1.00  0.00     0.074 A 
ATOM     56  C   UNL     1       3.248 -12.911   7.215  1.00  0.00     0.031 C 
ATOM     57  C   UNL     1       4.463 -12.451   9.329  1.00  0.00     0.034 A 
BRANCH  44  58
ATOM     58  C   UNL     1       5.797  -7.947  13.390  1.00  0.00     0.023 A 
ATOM     59  C   UNL     1       5.133  -7.413  14.509  1.00  0.00     0.031 A 
ATOM     60  C   UNL     1       7.199  -8.050  13.449  1.00  0.00     0.131 A 
ATOM     61  C   UNL     1       5.872  -6.923  15.596  1.00  0.00     0.055 A 
ATOM     62  C   UNL     1       7.922  -7.646  14.573  1.00  0.00     0.041 A 
ATOM     63  F   UNL     1       7.894  -8.531  12.406  1.00  0.00    -0.206 F 
ATOM     64  C   UNL     1       7.261  -7.061  15.649  1.00  0.00     0.022 A 
BRANCH  61  65
ATOM     65  S   UNL     1       5.007  -5.952  16.862  1.00  0.00     0.124 S 
ATOM     66  O   UNL     1       4.418  -4.882  16.060  1.00  0.00    -0.237 OA
ATOM     67  O   UNL     1       4.072  -6.922  17.418  1.00  0.00    -0.237 OA
ATOM     68  O   UNL     1       6.078  -5.529  17.761  1.00  0.00    -0.744 OA
ENDBRANCH  61  65
ENDBRANCH  44  58
BRANCH  45  69
ATOM     69  C   UNL     1       1.001 -10.200   4.881  1.00  0.00     0.023 A 
ATOM     70  C   UNL     1      -0.021 -11.160   4.815  1.00  0.00     0.031 A 
ATOM     71  C   UNL     1       1.400  -9.580   3.683  1.00  0.00     0.131 A 
ATOM     72  C   UNL     1      -0.577 -11.505   3.573  1.00  0.00     0.055 A 
ATOM     73  C   UNL     1       0.803  -9.884   2.459  1.00  0.00     0.041 A 
ATOM     74  F   UNL     1       2.370  -8.651   3.689  1.00  0.00    -0.206 F 
ATOM     75  C   UNL     1      -0.184 -10.863   2.397  1.00  0.00     0.022 A 
BRANCH  72  76
ATOM     76  S   UNL     1      -1.768 -12.872   3.505  1.00  0.00     0.124 S 
ATOM     77  O   UNL     1      -0.985 -13.974   4.051  1.00  0.00    -0.237 OA
ATOM     78  O   UNL     1      -2.850 -12.373   4.347  1.00  0.00    -0.237 OA
ATOM     79  O   UNL     1      -2.085 -12.975   2.082  1.00  0.00    -0.744 OA
ENDBRANCH  72  76
ENDBRANCH  45  69
BRANCH  57  80
ATOM     80  C   UNL     1       4.847 -13.911   9.374  1.00  0.00     0.023 A 
ATOM     81  C   UNL     1       5.679 -14.493   8.402  1.00  0.00     0.031 A 
ATOM     82  C   UNL     1       4.365 -14.735  10.409  1.00  0.00     0.131 A 
ATOM     83  C   UNL     1       5.957 -15.868   8.452  1.00  0.00     0.055 A 
ATOM     84  C   UNL     1       4.701 -16.087  10.491  1.00  0.00     0.041 A 
ATOM     85  F   UNL     1       3.562 -14.236  11.362  1.00  0.00    -0.206 F 
ATOM     86  C   UNL     1       5.491 -16.664   9.502  1.00  0.00     0.022 A 
BRANCH  83  87
ATOM     87  S   UNL     1       6.855 -16.627   7.071  1.00  0.00     0.124 S 
ATOM     88  O   UNL     1       5.996 -16.302   5.937  1.00  0.00    -0.237 OA
ATOM     89  O   UNL     1       8.139 -15.935   7.115  1.00  0.00    -0.237 OA
ATOM     90  O   UNL     1       6.902 -18.044   7.428  1.00  0.00    -0.744 OA
ENDBRANCH  83  87
ENDBRANCH  57  80
ENDBRANCH  31  32
ENDBRANCH  23  26
ENDBRANCH   1  22
TORSDOF 14
