REMARK SMILES Cc1cc(F)c([C@](C)(NC=O)C(=O)NCCCNC(=O)c2ccc(-c3c4nc(c(-c5cc(S(=O)(=O)[O-])ccc5F)c5ccc([nH]5)c(-c5cc(S(=O)(=O)[O-])ccc5F)c5nc(c(-c6cc(S(=O)(=O)[O-])ccc6F)c6ccc3[nH]6)C=C5)C=C4)cc2)cc1F
REMARK SMILES IDX 17 1 16 2 15 3 14 4 12 5 13 6 7 8 8 9 6 10 1 11 2 12 3 13
REMARK SMILES IDX 85 14 4 15 84 16 86 17 5 18 9 19 10 20 11 22 18 23 19 24
REMARK SMILES IDX 20 26 21 27 22 28 83 29 23 30 82 31 24 32 25 33 26 34 76 35
REMARK SMILES IDX 27 36 81 37 75 38 77 39 28 40 80 41 74 42 73 43 29 45 61 46
REMARK SMILES IDX 41 47 60 48 42 49 45 50 59 51 78 52 43 53 44 54 58 56 79 57
REMARK SMILES IDX 46 58 30 59 31 60 39 61 32 62 38 63 40 64 37 65 33 66 34 67
REMARK SMILES IDX 35 68 36 69 62 70 63 71 71 72 64 73 70 74 72 75 69 76 65 77
REMARK SMILES IDX 66 78 67 79 68 80 47 81 48 82 56 83 49 84 55 85 57 86 54 87
REMARK SMILES IDX 50 88 51 89 52 90 53 91
REMARK H PARENT 14 7 9 21 18 25 77 44 45 55
REMARK Flexibility Score: inf
ROOT
ATOM      1  C   UNL     1      -2.704  -6.136   7.879  1.00  0.00     0.118 C 
ENDROOT
BRANCH   1   2
ATOM      2  C   UNL     1      -1.837  -6.520   6.691  1.00  0.00     0.042 C 
BRANCH   2   3
ATOM      3  C   UNL     1      -2.412  -6.092   5.352  1.00  0.00     0.117 C 
BRANCH   3   4
ATOM      4  N   UNL     1      -2.506  -4.650   5.207  1.00  0.00    -0.354 N 
ATOM      5  C   UNL     1      -1.815  -3.784   4.405  1.00  0.00     0.250 C 
ATOM      6  O   UNL     1      -2.151  -2.596   4.462  1.00  0.00    -0.272 OA
ATOM      7  H   UNL     1      -3.180  -4.223   5.784  1.00  0.00     0.163 HD
BRANCH   5   8
ATOM      8  C   UNL     1      -0.657  -4.274   3.451  1.00  0.00     0.144 C 
ATOM      9  C   UNL     1       0.010  -3.055   2.775  1.00  0.00     0.051 C 
BRANCH   8  10
ATOM     10  C   UNL     1      -1.246  -5.208   2.371  1.00  0.00     0.025 A 
ATOM     11  C   UNL     1      -3.262  -7.857  -0.428  1.00  0.00     0.047 C 
ATOM     12  C   UNL     1      -2.566  -6.939   0.528  1.00  0.00    -0.012 A 
ATOM     13  C   UNL     1      -2.910  -5.588   0.607  1.00  0.00     0.046 A 
ATOM     14  C   UNL     1      -1.533  -7.402   1.337  1.00  0.00     0.126 A 
ATOM     15  C   UNL     1      -2.267  -4.749   1.522  1.00  0.00     0.129 A 
ATOM     16  C   UNL     1      -0.874  -6.560   2.234  1.00  0.00     0.049 A 
ATOM     17  F   UNL     1      -1.174  -8.692   1.291  1.00  0.00    -0.207 F 
ATOM     18  F   UNL     1      -2.679  -3.476   1.589  1.00  0.00    -0.207 F 
ENDBRANCH   8  10
BRANCH   8  19
ATOM     19  N   UNL     1       0.376  -4.946   4.264  1.00  0.00    -0.341 N 
ATOM     20  C   UNL     1       0.960  -4.404   5.370  1.00  0.00     0.338 C 
ATOM     21  H   UNL     1       0.663  -5.846   3.989  1.00  0.00     0.164 HD
ATOM     22  O   UNL     1       1.991  -4.872   5.846  1.00  0.00    -0.279 OA
ENDBRANCH   8  19
ENDBRANCH   5   8
ENDBRANCH   3   4
ENDBRANCH   2   3
ENDBRANCH   1   2
BRANCH   1  23
ATOM     23  N   UNL     1      -3.979  -6.844   7.904  1.00  0.00    -0.352 N 
ATOM     24  C   UNL     1      -4.449  -7.805   8.771  1.00  0.00     0.251 C 
ATOM     25  H   UNL     1      -4.605  -6.594   7.186  1.00  0.00     0.163 HD
ATOM     26  O   UNL     1      -5.486  -8.403   8.501  1.00  0.00    -0.269 OA
BRANCH  24  27
ATOM     27  C   UNL     1      -3.689  -8.139   9.997  1.00  0.00     0.039 A 
ATOM     28  C   UNL     1      -3.086  -7.136  10.754  1.00  0.00     0.014 A 
ATOM     29  C   UNL     1      -3.558  -9.475  10.385  1.00  0.00     0.014 A 
ATOM     30  C   UNL     1      -2.175  -7.476  11.746  1.00  0.00     0.010 A 
ATOM     31  C   UNL     1      -2.738  -9.808  11.470  1.00  0.00     0.010 A 
ATOM     32  C   UNL     1      -1.990  -8.816  12.123  1.00  0.00    -0.014 A 
BRANCH  32  33
ATOM     33  C   UNL     1      -1.017  -9.142  13.203  1.00  0.00     0.031 A 
ATOM     34  C   UNL     1       0.178 -10.021  12.931  1.00  0.00     0.074 A 
ATOM     35  C   UNL     1      -1.179  -8.582  14.420  1.00  0.00     0.049 A 
ATOM     36  N   UNL     1       1.133 -10.384  13.749  1.00  0.00    -0.248 NA
ATOM     37  C   UNL     1       0.323 -10.567  11.571  1.00  0.00     0.031 C 
ATOM     38  C   UNL     1      -2.288  -7.701  14.793  1.00  0.00     0.029 A 
ATOM     39  N   UNL     1      -0.406  -8.634  15.554  1.00  0.00    -0.354 N 
ATOM     40  C   UNL     1       1.980 -11.207  13.013  1.00  0.00     0.074 A 
ATOM     41  C   UNL     1       1.405 -11.325  11.692  1.00  0.00     0.031 C 
ATOM     42  C   UNL     1      -2.085  -7.236  16.033  1.00  0.00     0.029 A 
ATOM     43  C   UNL     1      -0.883  -7.854  16.584  1.00  0.00     0.049 A 
ATOM     44  H   UNL     1       0.412  -9.177  15.624  1.00  0.00     0.167 HD
ATOM     45  C   UNL     1       3.139 -11.790  13.400  1.00  0.00     0.034 A 
ATOM     46  C   UNL     1      -0.420  -7.664  17.837  1.00  0.00     0.034 A 
ATOM     47  C   UNL     1       3.715 -11.636  14.712  1.00  0.00     0.049 A 
ATOM     48  C   UNL     1       0.845  -8.370  18.251  1.00  0.00     0.074 A 
ATOM     49  C   UNL     1       4.894 -12.178  15.194  1.00  0.00     0.029 A 
ATOM     50  N   UNL     1       3.176 -10.879  15.742  1.00  0.00    -0.354 N 
ATOM     51  N   UNL     1       1.644  -9.122  17.531  1.00  0.00    -0.248 NA
ATOM     52  C   UNL     1       1.275  -8.207  19.647  1.00  0.00     0.031 C 
ATOM     53  C   UNL     1       5.034 -11.806  16.530  1.00  0.00     0.029 A 
ATOM     54  C   UNL     1       3.987 -10.962  16.863  1.00  0.00     0.049 A 
ATOM     55  H   UNL     1       2.342 -10.359  15.685  1.00  0.00     0.167 HD
ATOM     56  C   UNL     1       2.685  -9.495  18.377  1.00  0.00     0.074 A 
ATOM     57  C   UNL     1       2.429  -8.861  19.653  1.00  0.00     0.031 C 
ATOM     58  C   UNL     1       3.747 -10.299  18.122  1.00  0.00     0.034 A 
BRANCH  45  59
ATOM     59  C   UNL     1       3.905 -12.636  12.410  1.00  0.00     0.023 A 
ATOM     60  C   UNL     1       4.133 -14.000  12.678  1.00  0.00     0.031 A 
ATOM     61  C   UNL     1       4.558 -12.058  11.307  1.00  0.00     0.131 A 
ATOM     62  C   UNL     1       5.036 -14.724  11.890  1.00  0.00     0.055 A 
ATOM     63  C   UNL     1       5.420 -12.798  10.495  1.00  0.00     0.041 A 
ATOM     64  F   UNL     1       4.375 -10.762  11.009  1.00  0.00    -0.206 F 
ATOM     65  C   UNL     1       5.677 -14.132  10.796  1.00  0.00     0.022 A 
BRANCH  62  66
ATOM     66  S   UNL     1       5.480 -16.435  12.302  1.00  0.00     0.124 S 
ATOM     67  O   UNL     1       5.160 -17.136  11.061  1.00  0.00    -0.237 OA
ATOM     68  O   UNL     1       6.904 -16.316  12.601  1.00  0.00    -0.237 OA
ATOM     69  O   UNL     1       4.619 -16.757  13.435  1.00  0.00    -0.744 OA
ENDBRANCH  62  66
ENDBRANCH  45  59
BRANCH  46  70
ATOM     70  C   UNL     1      -1.140  -6.737  18.762  1.00  0.00     0.023 A 
ATOM     71  C   UNL     1      -2.489  -6.948  19.102  1.00  0.00     0.031 A 
ATOM     72  C   UNL     1      -0.511  -5.583  19.258  1.00  0.00     0.131 A 
ATOM     73  C   UNL     1      -3.181  -5.989  19.852  1.00  0.00     0.055 A 
ATOM     74  C   UNL     1      -1.181  -4.670  20.074  1.00  0.00     0.041 A 
ATOM     75  F   UNL     1       0.770  -5.325  18.952  1.00  0.00    -0.206 F 
ATOM     76  C   UNL     1      -2.529  -4.861  20.360  1.00  0.00     0.022 A 
BRANCH  73  77
ATOM     77  S   UNL     1      -4.978  -6.101  20.074  1.00  0.00     0.124 S 
ATOM     78  O   UNL     1      -5.098  -6.241  21.522  1.00  0.00    -0.237 OA
ATOM     79  O   UNL     1      -5.428  -4.825  19.523  1.00  0.00    -0.237 OA
ATOM     80  O   UNL     1      -5.348  -7.276  19.291  1.00  0.00    -0.744 OA
ENDBRANCH  73  77
ENDBRANCH  46  70
BRANCH  58  81
ATOM     81  C   UNL     1       4.754 -10.542  19.221  1.00  0.00     0.023 A 
ATOM     82  C   UNL     1       6.098 -10.162  19.037  1.00  0.00     0.031 A 
ATOM     83  C   UNL     1       4.425 -11.285  20.368  1.00  0.00     0.131 A 
ATOM     84  C   UNL     1       7.071 -10.569  19.959  1.00  0.00     0.055 A 
ATOM     85  C   UNL     1       5.389 -11.638  21.313  1.00  0.00     0.041 A 
ATOM     86  F   UNL     1       3.161 -11.684  20.582  1.00  0.00    -0.206 F 
ATOM     87  C   UNL     1       6.721 -11.295  21.102  1.00  0.00     0.022 A 
BRANCH  84  88
ATOM     88  S   UNL     1       8.833 -10.261  19.658  1.00  0.00     0.124 S 
ATOM     89  O   UNL     1       9.199  -9.447  20.815  1.00  0.00    -0.237 OA
ATOM     90  O   UNL     1       9.383 -11.614  19.649  1.00  0.00    -0.237 OA
ATOM     91  O   UNL     1       8.857  -9.565  18.377  1.00  0.00    -0.744 OA
ENDBRANCH  84  88
ENDBRANCH  58  81
ENDBRANCH  32  33
ENDBRANCH  24  27
ENDBRANCH   1  23
TORSDOF 15
