REMARK SMILES CSCc1ccc(C(=O)N[C@H]2C=C[C@@H](C(=O)NCCCNC(=O)c3ccc(-c4c5nc(c(-c6cc(S(=O)(=O)[O-])ccc6F)c6ccc([nH]6)c(-c6cc(S(=O)(=O)[O-])ccc6F)c6nc(c(-c7cc(S(=O)(=O)[O-])ccc7F)c7ccc4[nH]7)C=C6)C=C5)cc3)C2)o1
REMARK SMILES IDX 18 1 17 2 15 3 16 4 14 6 11 7 12 8 87 9 13 10 10 11 8 12
REMARK SMILES IDX 9 13 7 15 4 16 5 17 88 18 6 19 3 20 2 21 1 22 19 23 20 24
REMARK SMILES IDX 21 25 22 26 23 28 24 29 25 30 86 31 26 32 85 33 27 34 28 35
REMARK SMILES IDX 29 36 79 37 30 38 84 39 78 40 80 41 31 42 83 43 77 44 76 45
REMARK SMILES IDX 32 47 64 48 44 49 63 50 45 51 48 52 62 53 81 54 46 55 47 56
REMARK SMILES IDX 61 58 82 59 49 60 33 61 34 62 42 63 35 64 41 65 43 66 40 67
REMARK SMILES IDX 36 68 37 69 38 70 39 71 65 72 66 73 74 74 67 75 73 76 75 77
REMARK SMILES IDX 72 78 68 79 69 80 70 81 71 82 50 83 51 84 59 85 52 86 58 87
REMARK SMILES IDX 60 88 57 89 53 90 54 91 55 92 56 93
REMARK H PARENT 17 5 10 14 21 27 80 46 48 57
REMARK Flexibility Score: inf
ROOT
ATOM      1  C   UNL     1       0.570  -5.896   8.261  1.00  0.00     0.117 C 
ENDROOT
BRANCH   1   2
ATOM      2  N   UNL     1       0.878  -7.240   7.799  1.00  0.00    -0.356 N 
ATOM      3  C   UNL     1       1.003  -7.755   6.546  1.00  0.00     0.227 C 
ATOM      4  O   UNL     1       1.291  -8.951   6.447  1.00  0.00    -0.274 OA
ATOM      5  H   UNL     1       1.021  -7.894   8.521  1.00  0.00     0.163 HD
BRANCH   3   6
ATOM      6  C   UNL     1       0.846  -6.903   5.289  1.00  0.00     0.103 C 
ATOM      7  C   UNL     1      -0.193  -4.790   4.619  1.00  0.00     0.106 C 
ATOM      8  C   UNL     1       1.254  -4.624   4.967  1.00  0.00    -0.006 C 
ATOM      9  C   UNL     1      -0.510  -6.207   5.121  1.00  0.00     0.047 C 
ATOM     10  C   UNL     1       1.838  -5.783   5.277  1.00  0.00    -0.016 C 
BRANCH   7  11
ATOM     11  N   UNL     1      -0.977  -3.753   5.239  1.00  0.00    -0.343 N 
ATOM     12  C   UNL     1      -1.088  -2.414   4.918  1.00  0.00     0.287 C 
ATOM     13  O   UNL     1      -1.901  -1.770   5.585  1.00  0.00    -0.266 OA
ATOM     14  H   UNL     1      -1.516  -4.042   6.011  1.00  0.00     0.164 HD
BRANCH  12  15
ATOM     15  C   UNL     1      -0.251  -1.810   3.889  1.00  0.00     0.191 A 
ATOM     16  C   UNL     1       0.636  -0.065   2.841  1.00  0.00     0.114 A 
ATOM     17  C   UNL     1       1.279  -1.177   2.355  1.00  0.00     0.047 A 
ATOM     18  O   UNL     1      -0.270  -0.434   3.790  1.00  0.00    -0.455 OA
ATOM     19  C   UNL     1       0.635  -2.285   2.936  1.00  0.00     0.056 A 
BRANCH  16  20
ATOM     20  C   UNL     1       0.768   1.381   2.543  1.00  0.00     0.144 C 
BRANCH  20  21
ATOM     21  S   UNL     1      -0.027   1.863   0.967  1.00  0.00    -0.157 SA
ATOM     22  C   UNL     1       0.739   0.689  -0.180  1.00  0.00     0.085 C 
ENDBRANCH  20  21
ENDBRANCH  16  20
ENDBRANCH  12  15
ENDBRANCH   7  11
ENDBRANCH   3   6
ENDBRANCH   1   2
BRANCH   1  23
ATOM     23  C   UNL     1      -0.821  -5.807   8.871  1.00  0.00     0.042 C 
BRANCH  23  24
ATOM     24  C   UNL     1      -0.970  -6.615  10.149  1.00  0.00     0.118 C 
BRANCH  24  25
ATOM     25  N   UNL     1      -0.154  -6.088  11.232  1.00  0.00    -0.352 N 
ATOM     26  C   UNL     1      -0.538  -5.601  12.458  1.00  0.00     0.251 C 
ATOM     27  H   UNL     1       0.816  -6.080  11.062  1.00  0.00     0.163 HD
ATOM     28  O   UNL     1       0.278  -4.998  13.148  1.00  0.00    -0.269 OA
BRANCH  26  29
ATOM     29  C   UNL     1      -1.930  -5.785  12.924  1.00  0.00     0.039 A 
ATOM     30  C   UNL     1      -2.574  -4.730  13.572  1.00  0.00     0.014 A 
ATOM     31  C   UNL     1      -2.596  -6.997  12.725  1.00  0.00     0.014 A 
ATOM     32  C   UNL     1      -3.907  -4.872  13.966  1.00  0.00     0.010 A 
ATOM     33  C   UNL     1      -3.948  -7.103  13.030  1.00  0.00     0.010 A 
ATOM     34  C   UNL     1      -4.614  -6.047  13.668  1.00  0.00    -0.014 A 
BRANCH  34  35
ATOM     35  C   UNL     1      -6.044  -6.208  14.038  1.00  0.00     0.031 A 
ATOM     36  C   UNL     1      -6.451  -7.287  15.004  1.00  0.00     0.074 A 
ATOM     37  C   UNL     1      -6.978  -5.434  13.453  1.00  0.00     0.049 A 
ATOM     38  N   UNL     1      -7.647  -7.645  15.396  1.00  0.00    -0.248 NA
ATOM     39  C   UNL     1      -5.364  -8.098  15.573  1.00  0.00     0.031 C 
ATOM     40  C   UNL     1      -6.711  -4.381  12.472  1.00  0.00     0.029 A 
ATOM     41  N   UNL     1      -8.341  -5.416  13.597  1.00  0.00    -0.354 N 
ATOM     42  C   UNL     1      -7.458  -8.734  16.241  1.00  0.00     0.074 A 
ATOM     43  C   UNL     1      -6.039  -9.022  16.237  1.00  0.00     0.031 C 
ATOM     44  C   UNL     1      -7.869  -3.792  12.134  1.00  0.00     0.029 A 
ATOM     45  C   UNL     1      -8.964  -4.455  12.835  1.00  0.00     0.049 A 
ATOM     46  H   UNL     1      -8.829  -6.032  14.191  1.00  0.00     0.167 HD
ATOM     47  C   UNL     1      -8.377  -9.412  16.974  1.00  0.00     0.034 A 
ATOM     48  C   UNL     1     -10.269  -4.147  12.715  1.00  0.00     0.034 A 
ATOM     49  C   UNL     1      -9.786  -9.100  16.972  1.00  0.00     0.049 A 
ATOM     50  C   UNL     1     -11.280  -4.933  13.508  1.00  0.00     0.074 A 
ATOM     51  C   UNL     1     -10.800  -9.671  17.720  1.00  0.00     0.029 A 
ATOM     52  N   UNL     1     -10.383  -8.133  16.170  1.00  0.00    -0.354 N 
ATOM     53  N   UNL     1     -11.084  -5.927  14.344  1.00  0.00    -0.248 NA
ATOM     54  C   UNL     1     -12.687  -4.550  13.343  1.00  0.00     0.031 C 
ATOM     55  C   UNL     1     -12.015  -9.101  17.322  1.00  0.00     0.029 A 
ATOM     56  C   UNL     1     -11.755  -8.119  16.379  1.00  0.00     0.049 A 
ATOM     57  H   UNL     1      -9.903  -7.544  15.545  1.00  0.00     0.167 HD
ATOM     58  C   UNL     1     -12.343  -6.267  14.829  1.00  0.00     0.074 A 
ATOM     59  C   UNL     1     -13.287  -5.366  14.197  1.00  0.00     0.031 C 
ATOM     60  C   UNL     1     -12.687  -7.229  15.725  1.00  0.00     0.034 A 
BRANCH  47  61
ATOM     61  C   UNL     1      -7.874 -10.573  17.804  1.00  0.00     0.023 A 
ATOM     62  C   UNL     1      -6.903 -10.397  18.807  1.00  0.00     0.031 A 
ATOM     63  C   UNL     1      -8.310 -11.883  17.540  1.00  0.00     0.131 A 
ATOM     64  C   UNL     1      -6.319 -11.513  19.424  1.00  0.00     0.055 A 
ATOM     65  C   UNL     1      -7.797 -12.984  18.231  1.00  0.00     0.041 A 
ATOM     66  F   UNL     1      -9.220 -12.123  16.584  1.00  0.00    -0.206 F 
ATOM     67  C   UNL     1      -6.778 -12.805  19.162  1.00  0.00     0.022 A 
BRANCH  64  68
ATOM     68  S   UNL     1      -4.820 -11.264  20.416  1.00  0.00     0.124 S 
ATOM     69  O   UNL     1      -3.941 -10.596  19.458  1.00  0.00    -0.237 OA
ATOM     70  O   UNL     1      -5.305 -10.443  21.519  1.00  0.00    -0.237 OA
ATOM     71  O   UNL     1      -4.417 -12.622  20.776  1.00  0.00    -0.744 OA
ENDBRANCH  64  68
ENDBRANCH  47  61
BRANCH  48  72
ATOM     72  C   UNL     1     -10.697  -3.031  11.826  1.00  0.00     0.023 A 
ATOM     73  C   UNL     1     -11.249  -1.859  12.367  1.00  0.00     0.031 A 
ATOM     74  C   UNL     1     -10.573  -3.122  10.429  1.00  0.00     0.131 A 
ATOM     75  C   UNL     1     -11.688  -0.836  11.514  1.00  0.00     0.055 A 
ATOM     76  C   UNL     1     -10.970  -2.083   9.586  1.00  0.00     0.041 A 
ATOM     77  F   UNL     1     -10.043  -4.219   9.864  1.00  0.00    -0.206 F 
ATOM     78  C   UNL     1     -11.540  -0.934  10.128  1.00  0.00     0.022 A 
BRANCH  75  79
ATOM     79  S   UNL     1     -12.505   0.609  12.243  1.00  0.00     0.124 S 
ATOM     80  O   UNL     1     -13.664   0.002  12.887  1.00  0.00    -0.237 OA
ATOM     81  O   UNL     1     -11.472   1.126  13.134  1.00  0.00    -0.237 OA
ATOM     82  O   UNL     1     -12.804   1.451  11.086  1.00  0.00    -0.744 OA
ENDBRANCH  75  79
ENDBRANCH  48  72
BRANCH  60  83
ATOM     83  C   UNL     1     -14.146  -7.321  16.098  1.00  0.00     0.023 A 
ATOM     84  C   UNL     1     -15.124  -7.730  15.175  1.00  0.00     0.031 A 
ATOM     85  C   UNL     1     -14.565  -6.974  17.395  1.00  0.00     0.131 A 
ATOM     86  C   UNL     1     -16.477  -7.729  15.544  1.00  0.00     0.055 A 
ATOM     87  C   UNL     1     -15.907  -7.032  17.775  1.00  0.00     0.041 A 
ATOM     88  F   UNL     1     -13.675  -6.573  18.317  1.00  0.00    -0.206 F 
ATOM     89  C   UNL     1     -16.873  -7.399  16.843  1.00  0.00     0.022 A 
BRANCH  86  90
ATOM     90  S   UNL     1     -17.727  -8.078  14.276  1.00  0.00     0.124 S 
ATOM     91  O   UNL     1     -17.463  -7.030  13.294  1.00  0.00    -0.237 OA
ATOM     92  O   UNL     1     -17.387  -9.436  13.866  1.00  0.00    -0.237 OA
ATOM     93  O   UNL     1     -18.993  -7.947  14.996  1.00  0.00    -0.744 OA
ENDBRANCH  86  90
ENDBRANCH  60  83
ENDBRANCH  34  35
ENDBRANCH  26  29
ENDBRANCH  24  25
ENDBRANCH  23  24
ENDBRANCH   1  23
TORSDOF 17
