REMARK SMILES CS(=O)(=O)c1ccc(C2=NN(c3ccc(C(=O)NCCCNC(=O)c4ccc(-c5c6nc(c(-c7cc(S(=O)(=O)[O-])ccc7F)c7ccc([nH]7)c(-c7cc(S(=O)(=O)[O-])ccc7F)c7nc(c(-c8cc(S(=O)(=O)[O-])ccc8F)c8ccc5[nH]8)C=C7)C=C6)cc4)cc3)[C@H](c3ccc(Cl)cc3)C2)cc1
REMARK SMILES IDX 20 1 19 2 18 3 16 4 17 5 15 7 12 8 13 9 89 10 14 11 88 12
REMARK SMILES IDX 11 13 9 14 10 15 98 16 90 17 8 18 5 19 6 20 100 21 7 22
REMARK SMILES IDX 99 23 2 24 1 25 3 26 4 27 91 28 92 29 97 30 93 31 96 32
REMARK SMILES IDX 94 33 95 34 21 35 22 36 23 37 24 39 25 40 26 41 87 42 27 43
REMARK SMILES IDX 86 44 28 45 29 46 30 47 80 48 31 49 85 50 79 51 81 52 32 53
REMARK SMILES IDX 84 54 78 55 77 56 33 58 65 59 45 60 64 61 46 62 49 63 63 64
REMARK SMILES IDX 82 65 47 66 48 67 62 69 83 70 50 71 34 72 35 73 43 74 36 75
REMARK SMILES IDX 42 76 44 77 41 78 37 79 38 80 39 81 40 82 66 83 67 84 75 85
REMARK SMILES IDX 68 86 74 87 76 88 73 89 69 90 70 91 71 92 72 93 51 94 52 95
REMARK SMILES IDX 60 96 53 97 59 98 61 99 58 100 54 101 55 102 56 103 57 104
REMARK H PARENT 18 6 22 38 81 57 49 68
REMARK Flexibility Score: inf
ROOT
ATOM      1  C   UNL     1       3.823 -14.369   1.915  1.00  0.00     0.042 C 
ENDROOT
BRANCH   1   2
ATOM      2  C   UNL     1       4.712 -13.755   2.995  1.00  0.00     0.118 C 
BRANCH   2   3
ATOM      3  N   UNL     1       5.877 -13.094   2.430  1.00  0.00    -0.352 N 
ATOM      4  C   UNL     1       6.176 -11.762   2.284  1.00  0.00     0.251 C 
ATOM      5  O   UNL     1       7.310 -11.449   1.923  1.00  0.00    -0.269 OA
ATOM      6  H   UNL     1       6.571 -13.707   2.096  1.00  0.00     0.163 HD
BRANCH   4   7
ATOM      7  C   UNL     1       5.197 -10.691   2.602  1.00  0.00     0.039 A 
ATOM      8  C   UNL     1       3.432  -8.606   3.294  1.00  0.00     0.060 A 
ATOM      9  C   UNL     1       4.805  -8.478   3.524  1.00  0.00     0.029 A 
ATOM     10  C   UNL     1       2.964  -9.759   2.659  1.00  0.00     0.029 A 
ATOM     11  C   UNL     1       5.683  -9.511   3.181  1.00  0.00     0.016 A 
ATOM     12  C   UNL     1       3.838 -10.786   2.300  1.00  0.00     0.016 A 
BRANCH   8  13
ATOM     13  N   UNL     1       2.525  -7.638   3.703  1.00  0.00    -0.257 N 
ATOM     14  C   UNL     1       1.905  -5.608   3.761  1.00  0.00     0.071 C 
ATOM     15  N   UNL     1       2.385  -6.511   2.967  1.00  0.00    -0.176 NA
ATOM     16  C   UNL     1       1.753  -6.015   5.202  1.00  0.00     0.091 C 
ATOM     17  C   UNL     1       2.131  -7.502   5.106  1.00  0.00     0.144 C 
BRANCH  14  18
ATOM     18  C   UNL     1       1.529  -4.268   3.286  1.00  0.00    -0.002 A 
ATOM     19  C   UNL     1       0.786  -1.776   2.304  1.00  0.00     0.067 A 
ATOM     20  C   UNL     1       0.476  -2.924   1.570  1.00  0.00     0.021 A 
ATOM     21  C   UNL     1       1.462  -1.867   3.528  1.00  0.00     0.021 A 
ATOM     22  C   UNL     1       0.867  -4.170   2.056  1.00  0.00     0.011 A 
ATOM     23  C   UNL     1       1.827  -3.121   4.026  1.00  0.00     0.011 A 
BRANCH  19  24
ATOM     24  S   UNL     1       0.289  -0.187   1.682  1.00  0.00     0.175 S 
ATOM     25  C   UNL     1       1.044  -0.077   0.080  1.00  0.00     0.163 C 
ATOM     26  O   UNL     1       0.900   0.823   2.521  1.00  0.00    -0.224 OA
ATOM     27  O   UNL     1      -1.153  -0.241   1.509  1.00  0.00    -0.224 OA
ENDBRANCH  19  24
ENDBRANCH  14  18
BRANCH  17  28
ATOM     28  C   UNL     1       1.059  -8.531   5.445  1.00  0.00    -0.023 A 
ATOM     29  C   UNL     1      -0.318  -8.292   5.317  1.00  0.00     0.007 A 
ATOM     30  C   UNL     1       1.471  -9.826   5.824  1.00  0.00     0.007 A 
ATOM     31  C   UNL     1      -1.250  -9.303   5.587  1.00  0.00     0.021 A 
ATOM     32  C   UNL     1       0.543 -10.841   6.071  1.00  0.00     0.021 A 
ATOM     33  C   UNL     1      -0.816 -10.573   5.958  1.00  0.00     0.041 A 
ATOM     34  Cl  UNL     1      -1.962 -11.817   6.265  1.00  0.00    -0.084 Cl
ENDBRANCH  17  28
ENDBRANCH   8  13
ENDBRANCH   4   7
ENDBRANCH   2   3
ENDBRANCH   1   2
BRANCH   1  35
ATOM     35  C   UNL     1       4.415 -15.615   1.264  1.00  0.00     0.118 C 
BRANCH  35  36
ATOM     36  N   UNL     1       4.383 -16.767   2.152  1.00  0.00    -0.352 N 
ATOM     37  C   UNL     1       3.779 -17.990   1.982  1.00  0.00     0.251 C 
ATOM     38  H   UNL     1       4.867 -16.654   3.002  1.00  0.00     0.163 HD
ATOM     39  O   UNL     1       3.690 -18.751   2.942  1.00  0.00    -0.269 OA
BRANCH  37  40
ATOM     40  C   UNL     1       3.221 -18.382   0.666  1.00  0.00     0.039 A 
ATOM     41  C   UNL     1       1.988 -19.041   0.624  1.00  0.00     0.014 A 
ATOM     42  C   UNL     1       3.917 -18.133  -0.520  1.00  0.00     0.014 A 
ATOM     43  C   UNL     1       1.426 -19.393  -0.607  1.00  0.00     0.010 A 
ATOM     44  C   UNL     1       3.326 -18.425  -1.748  1.00  0.00     0.010 A 
ATOM     45  C   UNL     1       2.075 -19.059  -1.806  1.00  0.00    -0.014 A 
BRANCH  45  46
ATOM     46  C   UNL     1       1.472 -19.365  -3.130  1.00  0.00     0.031 A 
ATOM     47  C   UNL     1       2.153 -20.334  -4.060  1.00  0.00     0.074 A 
ATOM     48  C   UNL     1       0.360 -18.715  -3.526  1.00  0.00     0.049 A 
ATOM     49  N   UNL     1       1.864 -20.636  -5.299  1.00  0.00    -0.248 NA
ATOM     50  C   UNL     1       3.333 -21.031  -3.529  1.00  0.00     0.031 C 
ATOM     51  C   UNL     1      -0.376 -17.735  -2.725  1.00  0.00     0.029 A 
ATOM     52  N   UNL     1      -0.336 -18.766  -4.708  1.00  0.00    -0.354 N 
ATOM     53  C   UNL     1       2.837 -21.544  -5.706  1.00  0.00     0.074 A 
ATOM     54  C   UNL     1       3.751 -21.700  -4.593  1.00  0.00     0.031 C 
ATOM     55  C   UNL     1      -1.424 -17.285  -3.435  1.00  0.00     0.029 A 
ATOM     56  C   UNL     1      -1.409 -17.906  -4.756  1.00  0.00     0.049 A 
ATOM     57  H   UNL     1      -0.090 -19.362  -5.452  1.00  0.00     0.167 HD
ATOM     58  C   UNL     1       2.947 -22.198  -6.889  1.00  0.00     0.034 A 
ATOM     59  C   UNL     1      -2.269 -17.632  -5.756  1.00  0.00     0.034 A 
ATOM     60  C   UNL     1       2.019 -22.041  -7.983  1.00  0.00     0.049 A 
ATOM     61  C   UNL     1      -2.112 -18.351  -7.072  1.00  0.00     0.074 A 
ATOM     62  C   UNL     1       2.006 -22.692  -9.205  1.00  0.00     0.029 A 
ATOM     63  N   UNL     1       0.939 -21.167  -7.990  1.00  0.00    -0.354 N 
ATOM     64  N   UNL     1      -1.206 -19.231  -7.429  1.00  0.00    -0.248 NA
ATOM     65  C   UNL     1      -3.098 -18.044  -8.117  1.00  0.00     0.031 C 
ATOM     66  C   UNL     1       0.958 -22.169  -9.971  1.00  0.00     0.029 A 
ATOM     67  C   UNL     1       0.272 -21.242  -9.203  1.00  0.00     0.049 A 
ATOM     68  H   UNL     1       0.684 -20.579  -7.242  1.00  0.00     0.167 HD
ATOM     69  C   UNL     1      -1.533 -19.605  -8.729  1.00  0.00     0.074 A 
ATOM     70  C   UNL     1      -2.723 -18.861  -9.089  1.00  0.00     0.031 C 
ATOM     71  C   UNL     1      -0.909 -20.488  -9.550  1.00  0.00     0.034 A 
BRANCH  58  72
ATOM     72  C   UNL     1       4.132 -23.118  -7.065  1.00  0.00     0.023 A 
ATOM     73  C   UNL     1       4.306 -24.259  -6.262  1.00  0.00     0.031 A 
ATOM     74  C   UNL     1       5.118 -22.835  -8.027  1.00  0.00     0.131 A 
ATOM     75  C   UNL     1       5.475 -25.026  -6.378  1.00  0.00     0.055 A 
ATOM     76  C   UNL     1       6.240 -23.650  -8.194  1.00  0.00     0.041 A 
ATOM     77  F   UNL     1       5.017 -21.750  -8.811  1.00  0.00    -0.206 F 
ATOM     78  C   UNL     1       6.431 -24.745  -7.356  1.00  0.00     0.022 A 
BRANCH  75  79
ATOM     79  S   UNL     1       5.794 -26.310  -5.138  1.00  0.00     0.124 S 
ATOM     80  O   UNL     1       5.808 -25.529  -3.903  1.00  0.00    -0.237 OA
ATOM     81  O   UNL     1       4.658 -27.208  -5.313  1.00  0.00    -0.237 OA
ATOM     82  O   UNL     1       7.089 -26.857  -5.535  1.00  0.00    -0.744 OA
ENDBRANCH  75  79
ENDBRANCH  58  72
BRANCH  59  83
ATOM     83  C   UNL     1      -3.347 -16.620  -5.567  1.00  0.00     0.023 A 
ATOM     84  C   UNL     1      -4.699 -16.996  -5.577  1.00  0.00     0.031 A 
ATOM     85  C   UNL     1      -3.041 -15.257  -5.412  1.00  0.00     0.131 A 
ATOM     86  C   UNL     1      -5.698 -16.015  -5.476  1.00  0.00     0.055 A 
ATOM     87  C   UNL     1      -4.037 -14.290  -5.263  1.00  0.00     0.041 A 
ATOM     88  F   UNL     1      -1.763 -14.846  -5.390  1.00  0.00    -0.206 F 
ATOM     89  C   UNL     1      -5.376 -14.666  -5.307  1.00  0.00     0.022 A 
BRANCH  86  90
ATOM     90  S   UNL     1      -7.431 -16.520  -5.647  1.00  0.00     0.124 S 
ATOM     91  O   UNL     1      -7.432 -17.140  -6.967  1.00  0.00    -0.237 OA
ATOM     92  O   UNL     1      -7.596 -17.423  -4.513  1.00  0.00    -0.237 OA
ATOM     93  O   UNL     1      -8.164 -15.260  -5.548  1.00  0.00    -0.744 OA
ENDBRANCH  86  90
ENDBRANCH  59  83
BRANCH  71  94
ATOM     94  C   UNL     1      -1.540 -20.732 -10.898  1.00  0.00     0.023 A 
ATOM     95  C   UNL     1      -1.546 -19.748 -11.902  1.00  0.00     0.031 A 
ATOM     96  C   UNL     1      -2.149 -21.968 -11.176  1.00  0.00     0.131 A 
ATOM     97  C   UNL     1      -2.191 -20.002 -13.122  1.00  0.00     0.055 A 
ATOM     98  C   UNL     1      -2.742 -22.233 -12.411  1.00  0.00     0.041 A 
ATOM     99  F   UNL     1      -2.172 -22.941 -10.251  1.00  0.00    -0.206 F 
ATOM    100  C   UNL     1      -2.775 -21.243 -13.388  1.00  0.00     0.022 A 
BRANCH  97 101
ATOM    101  S   UNL     1      -2.319 -18.660 -14.336  1.00  0.00     0.124 S 
ATOM    102  O   UNL     1      -3.070 -17.651 -13.596  1.00  0.00    -0.237 OA
ATOM    103  O   UNL     1      -0.920 -18.344 -14.604  1.00  0.00    -0.237 OA
ATOM    104  O   UNL     1      -3.038 -19.274 -15.451  1.00  0.00    -0.744 OA
ENDBRANCH  97 101
ENDBRANCH  71  94
ENDBRANCH  45  46
ENDBRANCH  37  40
ENDBRANCH  35  36
ENDBRANCH   1  35
TORSDOF 17
