REMARK SMILES Cc1nn(-c2cccc(C(F)(F)F)c2)c(C)c1CC(=O)NCCCNC(=O)c1ccc(-c2c3nc(c(-c4cc(S(=O)(=O)[O-])ccc4F)c4ccc([nH]4)c(-c4cc(S(=O)(=O)[O-])ccc4F)c4nc(c(-c5cc(S(=O)(=O)[O-])ccc5F)c5ccc2[nH]5)C=C4)C=C3)cc1
REMARK SMILES IDX 23 1 22 2 21 3 19 4 20 5 18 7 17 8 1 9 2 10 3 11 4 12 15 13
REMARK SMILES IDX 16 14 5 15 6 16 14 17 7 18 9 19 8 20 10 21 11 22 12 23 13 24
REMARK SMILES IDX 24 25 25 26 26 27 27 29 28 30 29 31 90 32 30 33 89 34 31 35
REMARK SMILES IDX 32 36 33 37 83 38 34 39 88 40 82 41 84 42 35 43 87 44 81 45
REMARK SMILES IDX 80 46 36 48 68 49 48 50 67 51 49 52 52 53 66 54 85 55 50 56
REMARK SMILES IDX 51 57 65 59 86 60 53 61 37 62 38 63 46 64 39 65 45 66 47 67
REMARK SMILES IDX 44 68 40 69 41 70 42 71 43 72 69 73 70 74 78 75 71 76 77 77
REMARK SMILES IDX 79 78 76 79 72 80 73 81 74 82 75 83 54 84 55 85 63 86 56 87
REMARK SMILES IDX 62 88 64 89 61 90 57 91 58 92 59 93 60 94
REMARK H PARENT 21 6 25 28 84 47 52 58
REMARK Flexibility Score: inf
ROOT
ATOM      1  C   UNL     1       3.586   0.472  -2.442  1.00  0.00     0.042 C 
ENDROOT
BRANCH   1   2
ATOM      2  C   UNL     1       3.462   1.686  -1.518  1.00  0.00     0.117 C 
BRANCH   2   3
ATOM      3  N   UNL     1       3.038   2.899  -2.196  1.00  0.00    -0.356 N 
ATOM      4  C   UNL     1       1.800   3.477  -2.219  1.00  0.00     0.224 C 
ATOM      5  O   UNL     1       1.663   4.567  -2.777  1.00  0.00    -0.275 OA
ATOM      6  H   UNL     1       3.736   3.367  -2.708  1.00  0.00     0.163 HD
BRANCH   4   7
ATOM      7  C   UNL     1       0.629   2.780  -1.547  1.00  0.00     0.139 C 
BRANCH   7   8
ATOM      8  C   UNL     1       0.184   1.570  -2.300  1.00  0.00     0.006 A 
ATOM      9  C   UNL     1       0.405  -0.315  -0.496  1.00  0.00     0.069 C 
ATOM     10  C   UNL     1       0.054   0.234  -1.831  1.00  0.00     0.064 A 
ATOM     11  N   UNL     1      -0.443  -0.577  -2.772  1.00  0.00    -0.173 NA
ATOM     12  N   UNL     1      -0.481   0.180  -3.893  1.00  0.00    -0.238 N 
ATOM     13  C   UNL     1      -0.220   1.510  -3.624  1.00  0.00     0.045 A 
ATOM     14  C   UNL     1      -0.436   2.604  -4.614  1.00  0.00     0.067 C 
BRANCH  12  15
ATOM     15  C   UNL     1      -0.797  -0.389  -5.147  1.00  0.00     0.065 A 
ATOM     16  C   UNL     1      -1.896  -1.242  -5.255  1.00  0.00     0.028 A 
ATOM     17  C   UNL     1      -0.044  -0.046  -6.278  1.00  0.00     0.041 A 
ATOM     18  C   UNL     1      -2.301  -1.674  -6.518  1.00  0.00     0.003 A 
ATOM     19  C   UNL     1      -0.416  -0.519  -7.543  1.00  0.00     0.058 A 
ATOM     20  C   UNL     1      -1.571  -1.310  -7.654  1.00  0.00     0.013 A 
BRANCH  19  21
ATOM     21  C   UNL     1       0.398  -0.180  -8.771  1.00  0.00     0.416 C 
ATOM     22  F   UNL     1       0.769  -1.291  -9.465  1.00  0.00    -0.166 F 
ATOM     23  F   UNL     1      -0.291   0.601  -9.645  1.00  0.00    -0.166 F 
ATOM     24  F   UNL     1       1.549   0.488  -8.485  1.00  0.00    -0.166 F 
ENDBRANCH  19  21
ENDBRANCH  12  15
ENDBRANCH   7   8
ENDBRANCH   4   7
ENDBRANCH   2   3
ENDBRANCH   1   2
BRANCH   1  25
ATOM     25  C   UNL     1       4.787   0.563  -3.363  1.00  0.00     0.118 C 
BRANCH  25  26
ATOM     26  N   UNL     1       6.065   0.492  -2.649  1.00  0.00    -0.352 N 
ATOM     27  C   UNL     1       7.338   0.473  -3.184  1.00  0.00     0.251 C 
ATOM     28  H   UNL     1       6.009   0.453  -1.667  1.00  0.00     0.163 HD
ATOM     29  O   UNL     1       8.286   0.074  -2.501  1.00  0.00    -0.269 OA
BRANCH  27  30
ATOM     30  C   UNL     1       7.542   0.925  -4.571  1.00  0.00     0.039 A 
ATOM     31  C   UNL     1       8.456   0.306  -5.427  1.00  0.00     0.014 A 
ATOM     32  C   UNL     1       6.759   1.982  -5.027  1.00  0.00     0.014 A 
ATOM     33  C   UNL     1       8.509   0.717  -6.759  1.00  0.00     0.010 A 
ATOM     34  C   UNL     1       6.670   2.246  -6.367  1.00  0.00     0.010 A 
ATOM     35  C   UNL     1       7.592   1.675  -7.228  1.00  0.00    -0.014 A 
BRANCH  35  36
ATOM     36  C   UNL     1       7.478   2.003  -8.645  1.00  0.00     0.031 A 
ATOM     37  C   UNL     1       7.273   0.811  -9.505  1.00  0.00     0.074 A 
ATOM     38  C   UNL     1       7.344   3.264  -9.119  1.00  0.00     0.049 A 
ATOM     39  N   UNL     1       8.146   0.251 -10.273  1.00  0.00    -0.248 NA
ATOM     40  C   UNL     1       6.040   0.022  -9.341  1.00  0.00     0.031 C 
ATOM     41  C   UNL     1       7.231   4.519  -8.366  1.00  0.00     0.029 A 
ATOM     42  N   UNL     1       7.186   3.686 -10.403  1.00  0.00    -0.354 N 
ATOM     43  C   UNL     1       7.478  -0.788 -10.909  1.00  0.00     0.074 A 
ATOM     44  C   UNL     1       6.299  -1.028 -10.124  1.00  0.00     0.031 C 
ATOM     45  C   UNL     1       6.798   5.508  -9.182  1.00  0.00     0.029 A 
ATOM     46  C   UNL     1       6.765   5.010 -10.546  1.00  0.00     0.049 A 
ATOM     47  H   UNL     1       7.356   3.100 -11.176  1.00  0.00     0.167 HD
ATOM     48  C   UNL     1       7.821  -1.154 -12.176  1.00  0.00     0.034 A 
ATOM     49  C   UNL     1       6.415   5.651 -11.698  1.00  0.00     0.034 A 
ATOM     50  C   UNL     1       9.109  -0.591 -12.537  1.00  0.00     0.049 A 
ATOM     51  C   UNL     1       7.064   4.897 -12.801  1.00  0.00     0.074 A 
ATOM     52  C   UNL     1      10.380  -0.664 -11.996  1.00  0.00     0.029 A 
ATOM     53  N   UNL     1       9.120   0.525 -13.347  1.00  0.00    -0.354 N 
ATOM     54  N   UNL     1       8.361   4.822 -12.941  1.00  0.00    -0.248 NA
ATOM     55  C   UNL     1       6.312   3.812 -13.414  1.00  0.00     0.031 C 
ATOM     56  C   UNL     1      10.889   0.667 -12.086  1.00  0.00     0.029 A 
ATOM     57  C   UNL     1       9.958   1.450 -12.772  1.00  0.00     0.049 A 
ATOM     58  H   UNL     1       8.619   0.638 -14.187  1.00  0.00     0.167 HD
ATOM     59  C   UNL     1       8.610   3.491 -13.242  1.00  0.00     0.074 A 
ATOM     60  C   UNL     1       7.305   2.937 -13.607  1.00  0.00     0.031 C 
ATOM     61  C   UNL     1       9.785   2.888 -12.885  1.00  0.00     0.034 A 
BRANCH  48  62
ATOM     62  C   UNL     1       6.852  -1.661 -13.226  1.00  0.00     0.023 A 
ATOM     63  C   UNL     1       7.386  -1.937 -14.499  1.00  0.00     0.031 A 
ATOM     64  C   UNL     1       5.442  -1.610 -13.154  1.00  0.00     0.131 A 
ATOM     65  C   UNL     1       6.558  -2.014 -15.631  1.00  0.00     0.055 A 
ATOM     66  C   UNL     1       4.617  -1.755 -14.274  1.00  0.00     0.041 A 
ATOM     67  F   UNL     1       4.777  -1.330 -12.029  1.00  0.00    -0.206 F 
ATOM     68  C   UNL     1       5.175  -1.921 -15.528  1.00  0.00     0.022 A 
BRANCH  65  69
ATOM     69  S   UNL     1       7.344  -2.047 -17.261  1.00  0.00     0.124 S 
ATOM     70  O   UNL     1       8.181  -0.853 -17.204  1.00  0.00    -0.237 OA
ATOM     71  O   UNL     1       8.043  -3.327 -17.231  1.00  0.00    -0.237 OA
ATOM     72  O   UNL     1       6.213  -1.975 -18.183  1.00  0.00    -0.744 OA
ENDBRANCH  65  69
ENDBRANCH  48  62
BRANCH  49  73
ATOM     73  C   UNL     1       5.296   6.621 -11.911  1.00  0.00     0.023 A 
ATOM     74  C   UNL     1       5.195   7.469 -13.042  1.00  0.00     0.031 A 
ATOM     75  C   UNL     1       4.146   6.531 -11.095  1.00  0.00     0.131 A 
ATOM     76  C   UNL     1       3.989   8.169 -13.312  1.00  0.00     0.055 A 
ATOM     77  C   UNL     1       2.960   7.217 -11.370  1.00  0.00     0.041 A 
ATOM     78  F   UNL     1       4.107   5.699 -10.042  1.00  0.00    -0.206 F 
ATOM     79  C   UNL     1       2.872   8.031 -12.486  1.00  0.00     0.022 A 
BRANCH  76  80
ATOM     80  S   UNL     1       3.816   9.223 -14.796  1.00  0.00     0.124 S 
ATOM     81  O   UNL     1       4.736  10.318 -14.511  1.00  0.00    -0.237 OA
ATOM     82  O   UNL     1       4.196   8.318 -15.874  1.00  0.00    -0.237 OA
ATOM     83  O   UNL     1       2.400   9.598 -14.787  1.00  0.00    -0.744 OA
ENDBRANCH  76  80
ENDBRANCH  49  73
BRANCH  61  84
ATOM     84  C   UNL     1      10.933   3.760 -12.404  1.00  0.00     0.023 A 
ATOM     85  C   UNL     1      10.891   4.644 -11.299  1.00  0.00     0.031 A 
ATOM     86  C   UNL     1      12.173   3.585 -13.045  1.00  0.00     0.131 A 
ATOM     87  C   UNL     1      12.062   5.316 -10.886  1.00  0.00     0.055 A 
ATOM     88  C   UNL     1      13.332   4.231 -12.619  1.00  0.00     0.041 A 
ATOM     89  F   UNL     1      12.287   2.744 -14.087  1.00  0.00    -0.206 F 
ATOM     90  C   UNL     1      13.280   5.104 -11.541  1.00  0.00     0.022 A 
BRANCH  87  91
ATOM     91  S   UNL     1      12.029   6.505  -9.502  1.00  0.00     0.124 S 
ATOM     92  O   UNL     1      10.877   7.347  -9.801  1.00  0.00    -0.237 OA
ATOM     93  O   UNL     1      11.899   5.633  -8.337  1.00  0.00    -0.237 OA
ATOM     94  O   UNL     1      13.322   7.186  -9.606  1.00  0.00    -0.744 OA
ENDBRANCH  87  91
ENDBRANCH  61  84
ENDBRANCH  35  36
ENDBRANCH  27  30
ENDBRANCH  25  26
ENDBRANCH   1  25
TORSDOF 16
