REMARK SMILES CC[NH2+][C@@]1(C(=O)NCCCNC(=O)c2ccc(-c3c4nc(c(-c5cc(S(=O)(=O)[O-])ccc5F)c5ccc([nH]5)c(-c5cc(S(=O)(=O)[O-])ccc5F)c5nc(c(-c6cc(S(=O)(=O)[O-])ccc6F)c6ccc3[nH]6)C=C5)C=C4)cc2)CCC[C@@H](Sc2ncc(C)cn2)C1
REMARK SMILES IDX 9 1 8 2 7 3 5 4 6 5 4 7 77 8 89 9 78 10 80 11 79 12 3 13
REMARK SMILES IDX 2 16 1 17 81 18 82 19 83 20 88 21 84 22 87 23 85 24 86 25
REMARK SMILES IDX 10 26 11 27 12 28 13 30 14 31 15 32 76 33 16 34 75 35 17 36
REMARK SMILES IDX 18 37 19 38 69 39 20 40 74 41 68 42 70 43 21 44 73 45 67 46
REMARK SMILES IDX 66 47 22 49 54 50 34 51 53 52 35 53 38 54 52 55 71 56 36 57
REMARK SMILES IDX 37 58 51 60 72 61 39 62 23 63 24 64 32 65 25 66 31 67 33 68
REMARK SMILES IDX 30 69 26 70 27 71 28 72 29 73 55 74 56 75 64 76 57 77 63 78
REMARK SMILES IDX 65 79 62 80 58 81 59 82 60 83 61 84 40 85 41 86 49 87 42 88
REMARK SMILES IDX 48 89 50 90 47 91 43 92 44 93 45 94 46 95
REMARK H PARENT 7 6 3 14 3 15 11 29 70 48 38 59
REMARK Flexibility Score: inf
ROOT
ATOM      1  C   UNL     1      -2.301   6.917  -0.464  1.00  0.00     0.042 C 
ENDROOT
BRANCH   1   2
ATOM      2  C   UNL     1      -2.045   5.784   0.527  1.00  0.00     0.118 C 
BRANCH   2   3
ATOM      3  N   UNL     1      -2.048   4.488  -0.113  1.00  0.00    -0.351 N 
ATOM      4  C   UNL     1      -1.111   3.579  -0.474  1.00  0.00     0.281 C 
ATOM      5  O   UNL     1      -1.603   2.647  -1.133  1.00  0.00    -0.268 OA
ATOM      6  H   UNL     1      -2.958   4.193  -0.346  1.00  0.00     0.163 HD
BRANCH   4   7
ATOM      7  C   UNL     1       0.464   3.634  -0.170  1.00  0.00     0.176 C 
ATOM      8  C   UNL     1       0.909   3.970   1.274  1.00  0.00     0.079 C 
ATOM      9  C   UNL     1       1.170   4.543  -1.205  1.00  0.00     0.094 C 
ATOM     10  C   UNL     1       1.225   5.419   1.651  1.00  0.00     0.008 C 
ATOM     11  C   UNL     1       1.075   6.019  -0.840  1.00  0.00     0.061 C 
ATOM     12  C   UNL     1       1.699   6.330   0.520  1.00  0.00     0.015 C 
BRANCH   7  13
ATOM     13  N   UNL     1       0.990   2.247  -0.477  1.00  0.00    -0.334 N 
ATOM     14  H   UNL     1       0.698   2.004  -1.424  1.00  0.00     0.347 HD
ATOM     15  H   UNL     1       2.001   2.301  -0.355  1.00  0.00     0.347 HD
BRANCH  13  16
ATOM     16  C   UNL     1       0.539   1.180   0.418  1.00  0.00     0.257 C 
ATOM     17  C   UNL     1       1.005  -0.165  -0.121  1.00  0.00     0.071 C 
ENDBRANCH  13  16
ENDBRANCH   7  13
BRANCH  11  18
ATOM     18  S   UNL     1       1.587   7.136  -2.196  1.00  0.00    -0.083 SA
BRANCH  18  19
ATOM     19  C   UNL     1       3.334   7.133  -1.979  1.00  0.00     0.187 A 
ATOM     20  N   UNL     1       3.994   5.994  -2.236  1.00  0.00    -0.231 NA
ATOM     21  N   UNL     1       3.889   8.261  -1.509  1.00  0.00    -0.231 NA
ATOM     22  C   UNL     1       5.321   6.020  -2.024  1.00  0.00     0.119 A 
ATOM     23  C   UNL     1       5.218   8.233  -1.315  1.00  0.00     0.119 A 
ATOM     24  C   UNL     1       6.000   7.123  -1.552  1.00  0.00    -0.014 A 
ATOM     25  C   UNL     1       7.469   7.127  -1.322  1.00  0.00     0.048 C 
ENDBRANCH  18  19
ENDBRANCH  11  18
ENDBRANCH   4   7
ENDBRANCH   2   3
ENDBRANCH   1   2
BRANCH   1  26
ATOM     26  C   UNL     1      -3.772   7.245  -0.634  1.00  0.00     0.118 C 
BRANCH  26  27
ATOM     27  N   UNL     1      -4.329   7.862   0.562  1.00  0.00    -0.352 N 
ATOM     28  C   UNL     1      -4.665   9.171   0.817  1.00  0.00     0.251 C 
ATOM     29  H   UNL     1      -4.492   7.241   1.309  1.00  0.00     0.163 HD
ATOM     30  O   UNL     1      -4.857   9.520   1.977  1.00  0.00    -0.269 OA
BRANCH  28  31
ATOM     31  C   UNL     1      -4.773  10.150  -0.289  1.00  0.00     0.039 A 
ATOM     32  C   UNL     1      -4.366  11.470  -0.076  1.00  0.00     0.014 A 
ATOM     33  C   UNL     1      -5.293   9.779  -1.529  1.00  0.00     0.014 A 
ATOM     34  C   UNL     1      -4.413  12.389  -1.128  1.00  0.00     0.010 A 
ATOM     35  C   UNL     1      -5.224  10.656  -2.604  1.00  0.00     0.010 A 
ATOM     36  C   UNL     1      -4.799  11.978  -2.414  1.00  0.00    -0.014 A 
BRANCH  36  37
ATOM     37  C   UNL     1      -4.795  12.912  -3.570  1.00  0.00     0.031 A 
ATOM     38  C   UNL     1      -6.074  13.182  -4.318  1.00  0.00     0.074 A 
ATOM     39  C   UNL     1      -3.634  13.455  -3.988  1.00  0.00     0.049 A 
ATOM     40  N   UNL     1      -6.266  13.878  -5.410  1.00  0.00    -0.248 NA
ATOM     41  C   UNL     1      -7.295  12.554  -3.788  1.00  0.00     0.031 C 
ATOM     42  C   UNL     1      -2.324  13.229  -3.371  1.00  0.00     0.029 A 
ATOM     43  N   UNL     1      -3.362  14.302  -5.033  1.00  0.00    -0.354 N 
ATOM     44  C   UNL     1      -7.620  13.753  -5.706  1.00  0.00     0.074 A 
ATOM     45  C   UNL     1      -8.184  12.855  -4.722  1.00  0.00     0.031 C 
ATOM     46  C   UNL     1      -1.398  13.946  -4.026  1.00  0.00     0.029 A 
ATOM     47  C   UNL     1      -2.032  14.636  -5.144  1.00  0.00     0.049 A 
ATOM     48  H   UNL     1      -4.055  14.639  -5.646  1.00  0.00     0.167 HD
ATOM     49  C   UNL     1      -8.333  14.354  -6.690  1.00  0.00     0.034 A 
ATOM     50  C   UNL     1      -1.393  15.397  -6.055  1.00  0.00     0.034 A 
ATOM     51  C   UNL     1      -7.753  15.260  -7.651  1.00  0.00     0.049 A 
ATOM     52  C   UNL     1      -2.201  16.031  -7.159  1.00  0.00     0.074 A 
ATOM     53  C   UNL     1      -8.385  15.973  -8.653  1.00  0.00     0.029 A 
ATOM     54  N   UNL     1      -6.401  15.572  -7.734  1.00  0.00    -0.354 N 
ATOM     55  N   UNL     1      -3.491  15.947  -7.393  1.00  0.00    -0.248 NA
ATOM     56  C   UNL     1      -1.469  16.867  -8.118  1.00  0.00     0.031 C 
ATOM     57  C   UNL     1      -7.409  16.652  -9.389  1.00  0.00     0.029 A 
ATOM     58  C   UNL     1      -6.176  16.436  -8.794  1.00  0.00     0.049 A 
ATOM     59  H   UNL     1      -5.705  15.229  -7.129  1.00  0.00     0.167 HD
ATOM     60  C   UNL     1      -3.727  16.744  -8.509  1.00  0.00     0.074 A 
ATOM     61  C   UNL     1      -2.450  17.315  -8.886  1.00  0.00     0.031 C 
ATOM     62  C   UNL     1      -4.892  16.986  -9.164  1.00  0.00     0.034 A 
BRANCH  49  63
ATOM     63  C   UNL     1      -9.806  14.029  -6.783  1.00  0.00     0.023 A 
ATOM     64  C   UNL     1     -10.697  14.322  -5.734  1.00  0.00     0.031 A 
ATOM     65  C   UNL     1     -10.325  13.391  -7.923  1.00  0.00     0.131 A 
ATOM     66  C   UNL     1     -12.034  13.905  -5.811  1.00  0.00     0.055 A 
ATOM     67  C   UNL     1     -11.677  13.059  -8.031  1.00  0.00     0.041 A 
ATOM     68  F   UNL     1      -9.523  13.064  -8.949  1.00  0.00    -0.206 F 
ATOM     69  C   UNL     1     -12.537  13.301  -6.965  1.00  0.00     0.022 A 
BRANCH  66  70
ATOM     70  S   UNL     1     -13.065  14.025  -4.324  1.00  0.00     0.124 S 
ATOM     71  O   UNL     1     -12.309  13.211  -3.375  1.00  0.00    -0.237 OA
ATOM     72  O   UNL     1     -13.079  15.460  -4.064  1.00  0.00    -0.237 OA
ATOM     73  O   UNL     1     -14.342  13.454  -4.744  1.00  0.00    -0.744 OA
ENDBRANCH  66  70
ENDBRANCH  49  63
BRANCH  50  74
ATOM     74  C   UNL     1       0.085  15.594  -5.978  1.00  0.00     0.023 A 
ATOM     75  C   UNL     1       0.635  16.870  -5.774  1.00  0.00     0.031 A 
ATOM     76  C   UNL     1       0.971  14.516  -6.152  1.00  0.00     0.131 A 
ATOM     77  C   UNL     1       2.028  17.045  -5.798  1.00  0.00     0.055 A 
ATOM     78  C   UNL     1       2.357  14.685  -6.115  1.00  0.00     0.041 A 
ATOM     79  F   UNL     1       0.501  13.275  -6.351  1.00  0.00    -0.206 F 
ATOM     80  C   UNL     1       2.892  15.959  -5.952  1.00  0.00     0.022 A 
BRANCH  77  81
ATOM     81  S   UNL     1       2.693  18.731  -5.725  1.00  0.00     0.124 S 
ATOM     82  O   UNL     1       2.050  19.355  -6.876  1.00  0.00    -0.237 OA
ATOM     83  O   UNL     1       2.237  19.180  -4.413  1.00  0.00    -0.237 OA
ATOM     84  O   UNL     1       4.136  18.533  -5.846  1.00  0.00    -0.744 OA
ENDBRANCH  77  81
ENDBRANCH  50  74
BRANCH  62  85
ATOM     85  C   UNL     1      -4.838  17.943 -10.330  1.00  0.00     0.023 A 
ATOM     86  C   UNL     1      -4.128  17.638 -11.505  1.00  0.00     0.031 A 
ATOM     87  C   UNL     1      -5.500  19.181 -10.260  1.00  0.00     0.131 A 
ATOM     88  C   UNL     1      -4.047  18.585 -12.537  1.00  0.00     0.055 A 
ATOM     89  C   UNL     1      -5.474  20.090 -11.318  1.00  0.00     0.041 A 
ATOM     90  F   UNL     1      -6.189  19.527  -9.160  1.00  0.00    -0.206 F 
ATOM     91  C   UNL     1      -4.733  19.800 -12.459  1.00  0.00     0.022 A 
BRANCH  88  92
ATOM     92  S   UNL     1      -2.949  18.249 -13.941  1.00  0.00     0.124 S 
ATOM     93  O   UNL     1      -1.658  18.084 -13.282  1.00  0.00    -0.237 OA
ATOM     94  O   UNL     1      -3.533  17.040 -14.512  1.00  0.00    -0.237 OA
ATOM     95  O   UNL     1      -3.075  19.448 -14.768  1.00  0.00    -0.744 OA
ENDBRANCH  88  92
ENDBRANCH  62  85
ENDBRANCH  36  37
ENDBRANCH  28  31
ENDBRANCH  26  27
ENDBRANCH   1  26
TORSDOF 17
