REMARK SMILES CN(c1ccccc1)c1nc(OCC(=O)NCCCNC(=O)c2ccc(-c3c4nc(c(-c5cc(S(=O)(=O)[O-])ccc5F)c5ccc([nH]5)c(-c5cc(S(=O)(=O)[O-])ccc5F)c5nc(c(-c6cc(S(=O)(=O)[O-])ccc6F)c6ccc3[nH]6)C=C5)C=C4)cc2)cc(-c2ccncc2)n1
REMARK SMILES IDX 17 1 16 2 14 3 15 4 13 6 12 7 11 8 9 9 10 10 94 11 87 12
REMARK SMILES IDX 86 13 2 14 1 15 3 16 4 17 8 18 5 19 7 20 6 21 88 22 89 23
REMARK SMILES IDX 93 24 90 25 92 26 91 27 18 28 19 29 20 30 21 31 22 33 23 34
REMARK SMILES IDX 24 35 85 36 25 37 84 38 26 39 27 40 28 41 78 42 29 43 83 44
REMARK SMILES IDX 77 45 79 46 30 47 82 48 76 49 75 50 31 52 63 53 43 54 62 55
REMARK SMILES IDX 44 56 47 57 61 58 80 59 45 60 46 61 60 63 81 64 48 65 32 66
REMARK SMILES IDX 33 67 41 68 34 69 40 70 42 71 39 72 35 73 36 74 37 75 38 76
REMARK SMILES IDX 64 77 65 78 73 79 66 80 72 81 74 82 71 83 67 84 68 85 69 86
REMARK SMILES IDX 70 87 49 88 50 89 58 90 51 91 57 92 59 93 56 94 52 95 53 96
REMARK SMILES IDX 54 97 55 98
REMARK H PARENT 16 5 20 32 79 51 47 62
REMARK Flexibility Score: inf
ROOT
ATOM      1  C   UNL     1      -2.358   0.518   6.431  1.00  0.00     0.117 C 
ENDROOT
BRANCH   1   2
ATOM      2  N   UNL     1      -1.057   0.674   7.057  1.00  0.00    -0.353 N 
ATOM      3  C   UNL     1      -0.204   1.734   6.989  1.00  0.00     0.258 C 
ATOM      4  O   UNL     1       0.863   1.678   7.606  1.00  0.00    -0.271 OA
ATOM      5  H   UNL     1      -0.751  -0.087   7.601  1.00  0.00     0.163 HD
BRANCH   3   6
ATOM      6  C   UNL     1      -0.585   2.974   6.170  1.00  0.00     0.331 C 
BRANCH   6   7
ATOM      7  O   UNL     1      -0.789   2.795   4.781  1.00  0.00    -0.467 OA
BRANCH   7   8
ATOM      8  C   UNL     1       0.266   2.370   4.025  1.00  0.00     0.219 A 
ATOM      9  C   UNL     1       0.840   1.572   1.934  1.00  0.00     0.233 A 
ATOM     10  N   UNL     1      -0.086   2.085   2.766  1.00  0.00    -0.177 NA
ATOM     11  N   UNL     1       2.107   1.339   2.319  1.00  0.00    -0.212 NA
ATOM     12  C   UNL     1       2.448   1.691   3.572  1.00  0.00     0.080 A 
ATOM     13  C   UNL     1       1.552   2.231   4.467  1.00  0.00     0.097 A 
BRANCH   9  14
ATOM     14  N   UNL     1       0.459   1.297   0.613  1.00  0.00    -0.314 N 
ATOM     15  C   UNL     1       0.979   0.048   0.074  1.00  0.00     0.153 C 
BRANCH  14  16
ATOM     16  C   UNL     1      -0.382   2.095  -0.175  1.00  0.00     0.043 A 
ATOM     17  C   UNL     1      -0.222   3.493  -0.174  1.00  0.00     0.026 A 
ATOM     18  C   UNL     1      -1.389   1.560  -0.990  1.00  0.00     0.026 A 
ATOM     19  C   UNL     1      -1.015   4.322  -0.970  1.00  0.00     0.002 A 
ATOM     20  C   UNL     1      -2.199   2.388  -1.776  1.00  0.00     0.002 A 
ATOM     21  C   UNL     1      -2.007   3.768  -1.772  1.00  0.00     0.000 A 
ENDBRANCH  14  16
ENDBRANCH   9  14
BRANCH  12  22
ATOM     22  C   UNL     1       3.851   1.516   3.952  1.00  0.00     0.004 A 
ATOM     23  C   UNL     1       4.211   0.675   5.012  1.00  0.00     0.030 A 
ATOM     24  C   UNL     1       4.860   2.251   3.322  1.00  0.00     0.030 A 
ATOM     25  C   UNL     1       5.538   0.626   5.405  1.00  0.00     0.111 A 
ATOM     26  C   UNL     1       6.157   2.142   3.795  1.00  0.00     0.111 A 
ATOM     27  N   UNL     1       6.518   1.353   4.829  1.00  0.00    -0.265 NA
ENDBRANCH  12  22
ENDBRANCH   7   8
ENDBRANCH   6   7
ENDBRANCH   3   6
ENDBRANCH   1   2
BRANCH   1  28
ATOM     28  C   UNL     1      -2.346  -0.503   5.300  1.00  0.00     0.042 C 
BRANCH  28  29
ATOM     29  C   UNL     1      -1.944  -1.915   5.721  1.00  0.00     0.118 C 
BRANCH  29  30
ATOM     30  N   UNL     1      -2.825  -2.485   6.732  1.00  0.00    -0.352 N 
ATOM     31  C   UNL     1      -3.628  -3.599   6.690  1.00  0.00     0.251 C 
ATOM     32  H   UNL     1      -2.849  -1.992   7.584  1.00  0.00     0.163 HD
ATOM     33  O   UNL     1      -4.425  -3.795   7.606  1.00  0.00    -0.269 OA
BRANCH  31  34
ATOM     34  C   UNL     1      -3.563  -4.538   5.548  1.00  0.00     0.039 A 
ATOM     35  C   UNL     1      -4.756  -5.035   5.014  1.00  0.00     0.014 A 
ATOM     36  C   UNL     1      -2.339  -4.941   5.009  1.00  0.00     0.014 A 
ATOM     37  C   UNL     1      -4.723  -5.862   3.888  1.00  0.00     0.010 A 
ATOM     38  C   UNL     1      -2.310  -5.700   3.841  1.00  0.00     0.010 A 
ATOM     39  C   UNL     1      -3.502  -6.161   3.261  1.00  0.00    -0.014 A 
BRANCH  39  40
ATOM     40  C   UNL     1      -3.453  -6.931   1.989  1.00  0.00     0.031 A 
ATOM     41  C   UNL     1      -2.756  -8.261   1.930  1.00  0.00     0.074 A 
ATOM     42  C   UNL     1      -3.979  -6.398   0.868  1.00  0.00     0.049 A 
ATOM     43  N   UNL     1      -2.536  -9.038   0.900  1.00  0.00    -0.248 NA
ATOM     44  C   UNL     1      -2.210  -8.770   3.196  1.00  0.00     0.031 C 
ATOM     45  C   UNL     1      -4.663  -5.106   0.789  1.00  0.00     0.029 A 
ATOM     46  N   UNL     1      -4.020  -6.873  -0.419  1.00  0.00    -0.354 N 
ATOM     47  C   UNL     1      -1.824 -10.128   1.391  1.00  0.00     0.074 A 
ATOM     48  C   UNL     1      -1.586  -9.867   2.796  1.00  0.00     0.031 C 
ATOM     49  C   UNL     1      -5.088  -4.910  -0.469  1.00  0.00     0.029 A 
ATOM     50  C   UNL     1      -4.656  -6.029  -1.300  1.00  0.00     0.049 A 
ATOM     51  H   UNL     1      -3.631  -7.737  -0.687  1.00  0.00     0.167 HD
ATOM     52  C   UNL     1      -1.431 -11.252   0.739  1.00  0.00     0.034 A 
ATOM     53  C   UNL     1      -4.856  -6.136  -2.628  1.00  0.00     0.034 A 
ATOM     54  C   UNL     1      -1.666 -11.489  -0.665  1.00  0.00     0.049 A 
ATOM     55  C   UNL     1      -4.330  -7.350  -3.351  1.00  0.00     0.074 A 
ATOM     56  C   UNL     1      -1.342 -12.605  -1.419  1.00  0.00     0.029 A 
ATOM     57  N   UNL     1      -2.268 -10.588  -1.536  1.00  0.00    -0.354 N 
ATOM     58  N   UNL     1      -3.695  -8.392  -2.865  1.00  0.00    -0.248 NA
ATOM     59  C   UNL     1      -4.547  -7.400  -4.803  1.00  0.00     0.031 C 
ATOM     60  C   UNL     1      -1.672 -12.346  -2.754  1.00  0.00     0.029 A 
ATOM     61  C   UNL     1      -2.282 -11.104  -2.825  1.00  0.00     0.049 A 
ATOM     62  H   UNL     1      -2.631  -9.711  -1.277  1.00  0.00     0.167 HD
ATOM     63  C   UNL     1      -3.466  -9.235  -3.949  1.00  0.00     0.074 A 
ATOM     64  C   UNL     1      -4.043  -8.586  -5.109  1.00  0.00     0.031 C 
ATOM     65  C   UNL     1      -2.840 -10.440  -3.981  1.00  0.00     0.034 A 
BRANCH  52  66
ATOM     66  C   UNL     1      -0.677 -12.286   1.545  1.00  0.00     0.023 A 
ATOM     67  C   UNL     1      -1.253 -12.900   2.672  1.00  0.00     0.031 A 
ATOM     68  C   UNL     1       0.649 -12.624   1.224  1.00  0.00     0.131 A 
ATOM     69  C   UNL     1      -0.476 -13.730   3.494  1.00  0.00     0.055 A 
ATOM     70  C   UNL     1       1.386 -13.530   1.990  1.00  0.00     0.041 A 
ATOM     71  F   UNL     1       1.264 -12.059   0.172  1.00  0.00    -0.206 F 
ATOM     72  C   UNL     1       0.832 -14.072   3.146  1.00  0.00     0.022 A 
BRANCH  69  73
ATOM     73  S   UNL     1      -1.136 -14.191   5.120  1.00  0.00     0.124 S 
ATOM     74  O   UNL     1      -1.407 -12.882   5.710  1.00  0.00    -0.237 OA
ATOM     75  O   UNL     1      -2.305 -14.989   4.771  1.00  0.00    -0.237 OA
ATOM     76  O   UNL     1      -0.037 -14.928   5.739  1.00  0.00    -0.744 OA
ENDBRANCH  69  73
ENDBRANCH  52  66
BRANCH  53  77
ATOM     77  C   UNL     1      -5.585  -5.067  -3.370  1.00  0.00     0.023 A 
ATOM     78  C   UNL     1      -6.811  -5.341  -3.997  1.00  0.00     0.031 A 
ATOM     79  C   UNL     1      -5.055  -3.771  -3.496  1.00  0.00     0.131 A 
ATOM     80  C   UNL     1      -7.446  -4.346  -4.755  1.00  0.00     0.055 A 
ATOM     81  C   UNL     1      -5.719  -2.768  -4.204  1.00  0.00     0.041 A 
ATOM     82  F   UNL     1      -3.885  -3.456  -2.916  1.00  0.00    -0.206 F 
ATOM     83  C   UNL     1      -6.917  -3.057  -4.850  1.00  0.00     0.022 A 
BRANCH  80  84
ATOM     84  S   UNL     1      -8.938  -4.787  -5.687  1.00  0.00     0.124 S 
ATOM     85  O   UNL     1      -8.441  -5.844  -6.559  1.00  0.00    -0.237 OA
ATOM     86  O   UNL     1      -9.847  -5.205  -4.624  1.00  0.00    -0.237 OA
ATOM     87  O   UNL     1      -9.300  -3.541  -6.359  1.00  0.00    -0.744 OA
ENDBRANCH  80  84
ENDBRANCH  53  77
BRANCH  65  88
ATOM     88  C   UNL     1      -2.779 -11.149  -5.314  1.00  0.00     0.023 A 
ATOM     89  C   UNL     1      -2.039 -10.633  -6.393  1.00  0.00     0.031 A 
ATOM     90  C   UNL     1      -3.477 -12.354  -5.509  1.00  0.00     0.131 A 
ATOM     91  C   UNL     1      -2.057 -11.292  -7.632  1.00  0.00     0.055 A 
ATOM     92  C   UNL     1      -3.438 -13.040  -6.724  1.00  0.00     0.041 A 
ATOM     93  F   UNL     1      -4.206 -12.890  -4.517  1.00  0.00    -0.206 F 
ATOM     94  C   UNL     1      -2.735 -12.502  -7.798  1.00  0.00     0.022 A 
BRANCH  91  95
ATOM     95  S   UNL     1      -1.257 -10.498  -9.053  1.00  0.00     0.124 S 
ATOM     96  O   UNL     1      -1.984  -9.236  -9.145  1.00  0.00    -0.237 OA
ATOM     97  O   UNL     1       0.132 -10.403  -8.618  1.00  0.00    -0.237 OA
ATOM     98  O   UNL     1      -1.499 -11.434 -10.150  1.00  0.00    -0.744 OA
ENDBRANCH  91  95
ENDBRANCH  65  88
ENDBRANCH  39  40
ENDBRANCH  31  34
ENDBRANCH  29  30
ENDBRANCH  28  29
ENDBRANCH   1  28
TORSDOF 18
