REMARK SMILES CC[NH2+][C@@]1(C(=O)NCCCNC(=O)c2ccc(-c3c4nc(c(-c5cc(S(=O)(=O)[O-])ccc5F)c5ccc([nH]5)c(-c5cc(S(=O)(=O)[O-])ccc5F)c5nc(c(-c6cc(S(=O)(=O)[O-])ccc6F)c6ccc3[nH]6)C=C5)C=C4)cc2)CC[C@@H]([N@@H+](C)Cc2nccn2C)C1
REMARK SMILES IDX 9 1 8 2 7 3 5 4 6 5 4 7 77 8 89 9 78 10 79 11 3 12 2 15 1 16
REMARK SMILES IDX 80 17 81 18 82 20 83 21 84 22 87 23 85 24 86 25 88 26 10 27
REMARK SMILES IDX 11 28 12 29 13 31 14 32 15 33 76 34 16 35 75 36 17 37 18 38
REMARK SMILES IDX 19 39 69 40 20 41 74 42 68 43 70 44 21 45 73 46 67 47 66 48
REMARK SMILES IDX 22 50 54 51 34 52 53 53 35 54 38 55 52 56 71 57 36 58 37 59
REMARK SMILES IDX 51 61 72 62 39 63 23 64 24 65 32 66 25 67 31 68 33 69 30 70
REMARK SMILES IDX 26 71 27 72 28 73 29 74 55 75 56 76 64 77 57 78 63 79 65 80
REMARK SMILES IDX 62 81 58 82 59 83 60 84 61 85 40 86 41 87 49 88 42 89 48 90
REMARK SMILES IDX 50 91 47 92 43 93 44 94 45 95 46 96
REMARK H PARENT 7 6 3 13 3 14 80 19 11 30 70 49 38 60
REMARK Flexibility Score: inf
ROOT
ATOM      1  C   UNL     1      -2.187  -0.932  -6.742  1.00  0.00     0.042 C 
ENDROOT
BRANCH   1   2
ATOM      2  C   UNL     1      -2.176   0.026  -5.561  1.00  0.00     0.118 C 
BRANCH   2   3
ATOM      3  N   UNL     1      -2.074  -0.674  -4.305  1.00  0.00    -0.351 N 
ATOM      4  C   UNL     1      -1.064  -0.896  -3.428  1.00  0.00     0.281 C 
ATOM      5  O   UNL     1      -1.397  -1.627  -2.482  1.00  0.00    -0.268 OA
ATOM      6  H   UNL     1      -2.925  -1.080  -4.021  1.00  0.00     0.163 HD
BRANCH   4   7
ATOM      7  C   UNL     1       0.413  -0.334  -3.563  1.00  0.00     0.181 C 
ATOM      8  C   UNL     1       0.578   1.091  -4.115  1.00  0.00     0.085 C 
ATOM      9  C   UNL     1       1.256  -1.224  -4.502  1.00  0.00     0.144 C 
ATOM     10  C   UNL     1       1.058   0.993  -5.564  1.00  0.00     0.072 C 
ATOM     11  C   UNL     1       1.381  -0.478  -5.836  1.00  0.00     0.191 C 
BRANCH   7  12
ATOM     12  N   UNL     1       1.054  -0.436  -2.213  1.00  0.00    -0.334 N 
ATOM     13  H   UNL     1       0.951  -1.397  -1.887  1.00  0.00     0.347 HD
ATOM     14  H   UNL     1       2.025  -0.150  -2.340  1.00  0.00     0.347 HD
BRANCH  12  15
ATOM     15  C   UNL     1       0.503   0.450  -1.192  1.00  0.00     0.257 C 
ATOM     16  C   UNL     1       1.032   0.018   0.168  1.00  0.00     0.071 C 
ENDBRANCH  12  15
ENDBRANCH   7  12
BRANCH  11  17
ATOM     17  N   UNL     1       2.591  -0.783  -6.614  1.00  0.00    -0.328 N 
ATOM     18  C   UNL     1       2.451  -0.428  -8.019  1.00  0.00     0.333 C 
ATOM     19  H   UNL     1       2.633  -1.800  -6.549  1.00  0.00     0.348 HD
BRANCH  17  20
ATOM     20  C   UNL     1       3.908  -0.444  -6.035  1.00  0.00     0.338 C 
BRANCH  20  21
ATOM     21  C   UNL     1       4.199   1.009  -5.763  1.00  0.00     0.164 A 
ATOM     22  N   UNL     1       4.061   1.599  -4.583  1.00  0.00    -0.236 NA
ATOM     23  N   UNL     1       4.609   1.934  -6.699  1.00  0.00    -0.333 N 
ATOM     24  C   UNL     1       4.248   2.938  -4.799  1.00  0.00     0.131 A 
ATOM     25  C   UNL     1       4.566   3.173  -6.112  1.00  0.00     0.107 A 
ATOM     26  C   UNL     1       5.009   1.713  -8.066  1.00  0.00     0.151 C 
ENDBRANCH  20  21
ENDBRANCH  17  20
ENDBRANCH  11  17
ENDBRANCH   4   7
ENDBRANCH   2   3
ENDBRANCH   1   2
BRANCH   1  27
ATOM     27  C   UNL     1      -3.599  -1.182  -7.243  1.00  0.00     0.118 C 
BRANCH  27  28
ATOM     28  N   UNL     1      -4.155   0.000  -7.899  1.00  0.00    -0.352 N 
ATOM     29  C   UNL     1      -4.707   0.121  -9.151  1.00  0.00     0.251 C 
ATOM     30  H   UNL     1      -4.130   0.829  -7.367  1.00  0.00     0.163 HD
ATOM     31  O   UNL     1      -4.935   1.235  -9.614  1.00  0.00    -0.269 OA
BRANCH  29  32
ATOM     32  C   UNL     1      -4.989  -1.097  -9.937  1.00  0.00     0.039 A 
ATOM     33  C   UNL     1      -4.658  -1.132 -11.294  1.00  0.00     0.014 A 
ATOM     34  C   UNL     1      -5.541  -2.218  -9.315  1.00  0.00     0.014 A 
ATOM     35  C   UNL     1      -4.808  -2.324 -12.008  1.00  0.00     0.010 A 
ATOM     36  C   UNL     1      -5.589  -3.424  -9.996  1.00  0.00     0.010 A 
ATOM     37  C   UNL     1      -5.232  -3.490 -11.352  1.00  0.00    -0.014 A 
BRANCH  37  38
ATOM     38  C   UNL     1      -5.357  -4.796 -12.049  1.00  0.00     0.031 A 
ATOM     39  C   UNL     1      -6.697  -5.481 -12.075  1.00  0.00     0.074 A 
ATOM     40  C   UNL     1      -4.264  -5.410 -12.541  1.00  0.00     0.049 A 
ATOM     41  N   UNL     1      -6.999  -6.706 -12.416  1.00  0.00    -0.248 NA
ATOM     42  C   UNL     1      -7.843  -4.691 -11.595  1.00  0.00     0.031 C 
ATOM     43  C   UNL     1      -2.906  -4.861 -12.538  1.00  0.00     0.029 A 
ATOM     44  N   UNL     1      -4.118  -6.645 -13.121  1.00  0.00    -0.354 N 
ATOM     45  C   UNL     1      -8.357  -6.847 -12.148  1.00  0.00     0.074 A 
ATOM     46  C   UNL     1      -8.801  -5.603 -11.558  1.00  0.00     0.031 C 
ATOM     47  C   UNL     1      -2.071  -5.747 -13.104  1.00  0.00     0.029 A 
ATOM     48  C   UNL     1      -2.819  -6.948 -13.458  1.00  0.00     0.049 A 
ATOM     49  H   UNL     1      -4.872  -7.258 -13.280  1.00  0.00     0.167 HD
ATOM     50  C   UNL     1      -9.163  -7.910 -12.393  1.00  0.00     0.034 A 
ATOM     51  C   UNL     1      -2.291  -8.076 -13.974  1.00  0.00     0.034 A 
ATOM     52  C   UNL     1      -8.704  -9.122 -13.023  1.00  0.00     0.049 A 
ATOM     53  C   UNL     1      -3.207  -9.239 -14.258  1.00  0.00     0.074 A 
ATOM     54  C   UNL     1      -9.435 -10.241 -13.378  1.00  0.00     0.029 A 
ATOM     55  N   UNL     1      -7.390  -9.369 -13.401  1.00  0.00    -0.354 N 
ATOM     56  N   UNL     1      -4.495  -9.352 -14.024  1.00  0.00    -0.248 NA
ATOM     57  C   UNL     1      -2.604 -10.422 -14.885  1.00  0.00     0.031 C 
ATOM     58  C   UNL     1      -8.556 -11.183 -13.924  1.00  0.00     0.029 A 
ATOM     59  C   UNL     1      -7.288 -10.626 -13.974  1.00  0.00     0.049 A 
ATOM     60  H   UNL     1      -6.641  -8.742 -13.279  1.00  0.00     0.167 HD
ATOM     61  C   UNL     1      -4.861 -10.603 -14.511  1.00  0.00     0.074 A 
ATOM     62  C   UNL     1      -3.660 -11.205 -15.053  1.00  0.00     0.031 C 
ATOM     63  C   UNL     1      -6.080 -11.199 -14.518  1.00  0.00     0.034 A 
BRANCH  50  64
ATOM     64  C   UNL     1     -10.605  -7.802 -11.958  1.00  0.00     0.023 A 
ATOM     65  C   UNL     1     -11.462  -6.817 -12.480  1.00  0.00     0.031 A 
ATOM     66  C   UNL     1     -11.120  -8.663 -10.973  1.00  0.00     0.131 A 
ATOM     67  C   UNL     1     -12.751  -6.655 -11.950  1.00  0.00     0.055 A 
ATOM     68  C   UNL     1     -12.435  -8.556 -10.515  1.00  0.00     0.041 A 
ATOM     69  F   UNL     1     -10.347  -9.612 -10.421  1.00  0.00    -0.206 F 
ATOM     70  C   UNL     1     -13.254  -7.535 -10.990  1.00  0.00     0.022 A 
BRANCH  67  71
ATOM     71  S   UNL     1     -13.696  -5.180 -12.417  1.00  0.00     0.124 S 
ATOM     72  O   UNL     1     -12.818  -4.109 -11.951  1.00  0.00    -0.237 OA
ATOM     73  O   UNL     1     -13.814  -5.325 -13.863  1.00  0.00    -0.237 OA
ATOM     74  O   UNL     1     -14.944  -5.321 -11.670  1.00  0.00    -0.744 OA
ENDBRANCH  67  71
ENDBRANCH  50  64
BRANCH  51  75
ATOM     75  C   UNL     1      -0.830  -8.168 -14.254  1.00  0.00     0.023 A 
ATOM     76  C   UNL     1      -0.355  -8.285 -15.570  1.00  0.00     0.031 A 
ATOM     77  C   UNL     1       0.113  -8.170 -13.211  1.00  0.00     0.131 A 
ATOM     78  C   UNL     1       1.019  -8.446 -15.808  1.00  0.00     0.055 A 
ATOM     79  C   UNL     1       1.484  -8.281 -13.455  1.00  0.00     0.041 A 
ATOM     80  F   UNL     1      -0.286  -8.050 -11.935  1.00  0.00    -0.206 F 
ATOM     81  C   UNL     1       1.942  -8.433 -14.760  1.00  0.00     0.022 A 
BRANCH  78  82
ATOM     82  S   UNL     1       1.575  -8.750 -17.507  1.00  0.00     0.124 S 
ATOM     83  O   UNL     1       0.831  -9.956 -17.852  1.00  0.00    -0.237 OA
ATOM     84  O   UNL     1       1.163  -7.524 -18.183  1.00  0.00    -0.237 OA
ATOM     85  O   UNL     1       3.019  -8.925 -17.366  1.00  0.00    -0.744 OA
ENDBRANCH  78  82
ENDBRANCH  51  75
BRANCH  63  86
ATOM     86  C   UNL     1      -6.187 -12.537 -15.201  1.00  0.00     0.023 A 
ATOM     87  C   UNL     1      -5.605 -13.697 -14.661  1.00  0.00     0.031 A 
ATOM     88  C   UNL     1      -6.901 -12.650 -16.407  1.00  0.00     0.131 A 
ATOM     89  C   UNL     1      -5.713 -14.914 -15.351  1.00  0.00     0.055 A 
ATOM     90  C   UNL     1      -7.049 -13.872 -17.061  1.00  0.00     0.041 A 
ATOM     91  F   UNL     1      -7.475 -11.571 -16.964  1.00  0.00    -0.206 F 
ATOM     92  C   UNL     1      -6.445 -15.012 -16.538  1.00  0.00     0.022 A 
BRANCH  89  93
ATOM     93  S   UNL     1      -4.827 -16.360 -14.709  1.00  0.00     0.124 S 
ATOM     94  O   UNL     1      -3.441 -15.908 -14.744  1.00  0.00    -0.237 OA
ATOM     95  O   UNL     1      -5.412 -16.522 -13.382  1.00  0.00    -0.237 OA
ATOM     96  O   UNL     1      -5.159 -17.417 -15.663  1.00  0.00    -0.744 OA
ENDBRANCH  89  93
ENDBRANCH  63  86
ENDBRANCH  37  38
ENDBRANCH  29  32
ENDBRANCH  27  28
ENDBRANCH   1  27
TORSDOF 18
