REMARK SMILES Cc1c(Cl)cccc1S(=O)(=O)N[C@H]1C=C[C@@H](C(=O)NCCCNC(=O)c2ccc(-c3c4nc(c(-c5cc(S(=O)(=O)[O-])ccc5F)c5ccc([nH]5)c(-c5cc(S(=O)(=O)[O-])ccc5F)c5nc(c(-c6cc(S(=O)(=O)[O-])ccc6F)c6ccc3[nH]6)C=C5)C=C4)cc2)C1
REMARK SMILES IDX 21 1 20 2 19 3 17 4 18 5 16 7 13 8 14 9 89 10 15 11 12 12
REMARK SMILES IDX 9 14 10 15 11 16 8 17 1 18 2 19 3 20 4 21 5 22 7 23 6 24
REMARK SMILES IDX 22 25 23 26 24 27 25 29 26 30 27 31 88 32 28 33 87 34 29 35
REMARK SMILES IDX 30 36 31 37 81 38 32 39 86 40 80 41 82 42 33 43 85 44 79 45
REMARK SMILES IDX 78 46 34 48 66 49 46 50 65 51 47 52 50 53 64 54 83 55 48 56
REMARK SMILES IDX 49 57 63 59 84 60 51 61 35 62 36 63 44 64 37 65 43 66 45 67
REMARK SMILES IDX 42 68 38 69 39 70 40 71 41 72 67 73 68 74 76 75 69 76 75 77
REMARK SMILES IDX 77 78 74 79 70 80 71 81 72 82 73 83 52 84 53 85 61 86 54 87
REMARK SMILES IDX 60 88 62 89 59 90 55 91 56 92 57 93 58 94
REMARK H PARENT 19 6 12 13 23 28 82 47 50 58
REMARK Flexibility Score: inf
ROOT
ATOM      1  C   UNL     1       1.472   3.451   2.631  1.00  0.00     0.042 C 
ENDROOT
BRANCH   1   2
ATOM      2  C   UNL     1       2.287   4.060   1.481  1.00  0.00     0.117 C 
BRANCH   2   3
ATOM      3  N   UNL     1       2.861   3.088   0.557  1.00  0.00    -0.356 N 
ATOM      4  C   UNL     1       2.840   2.921  -0.789  1.00  0.00     0.226 C 
ATOM      5  O   UNL     1       3.550   2.000  -1.221  1.00  0.00    -0.274 OA
ATOM      6  H   UNL     1       3.385   2.393   1.017  1.00  0.00     0.163 HD
BRANCH   4   7
ATOM      7  C   UNL     1       1.986   3.707  -1.796  1.00  0.00     0.103 C 
ATOM      8  C   UNL     1      -0.474   3.803  -1.641  1.00  0.00     0.093 C 
ATOM      9  C   UNL     1       0.178   5.128  -1.371  1.00  0.00    -0.011 C 
ATOM     10  C   UNL     1       0.688   2.979  -2.198  1.00  0.00     0.042 C 
ATOM     11  C   UNL     1       1.512   5.076  -1.452  1.00  0.00    -0.016 C 
BRANCH   8  12
ATOM     12  N   UNL     1      -0.945   3.273  -0.362  1.00  0.00    -0.204 NA
ATOM     13  H   UNL     1      -0.173   2.742   0.041  1.00  0.00     0.142 HD
BRANCH  12  14
ATOM     14  S   UNL     1      -2.296   2.276  -0.323  1.00  0.00     0.241 S 
ATOM     15  O   UNL     1      -2.971   2.413  -1.596  1.00  0.00    -0.207 OA
ATOM     16  O   UNL     1      -2.957   2.628   0.916  1.00  0.00    -0.207 OA
BRANCH  14  17
ATOM     17  C   UNL     1      -1.842   0.550  -0.160  1.00  0.00     0.086 A 
ATOM     18  C   UNL     1       0.630   0.782   0.534  1.00  0.00     0.047 C 
ATOM     19  C   UNL     1      -0.584   0.003   0.159  1.00  0.00    -0.012 A 
ATOM     20  C   UNL     1      -0.458  -1.408   0.178  1.00  0.00     0.045 A 
ATOM     21  Cl  UNL     1       1.064  -2.185   0.490  1.00  0.00    -0.084 Cl
ATOM     22  C   UNL     1      -1.547  -2.248  -0.047  1.00  0.00     0.021 A 
ATOM     23  C   UNL     1      -2.936  -0.319  -0.372  1.00  0.00     0.022 A 
ATOM     24  C   UNL     1      -2.794  -1.702  -0.304  1.00  0.00     0.003 A 
ENDBRANCH  14  17
ENDBRANCH  12  14
ENDBRANCH   8  12
ENDBRANCH   4   7
ENDBRANCH   2   3
ENDBRANCH   1   2
BRANCH   1  25
ATOM     25  C   UNL     1       2.183   2.389   3.470  1.00  0.00     0.118 C 
BRANCH  25  26
ATOM     26  N   UNL     1       2.963   2.989   4.535  1.00  0.00    -0.352 N 
ATOM     27  C   UNL     1       2.726   3.000   5.889  1.00  0.00     0.251 C 
ATOM     28  H   UNL     1       3.781   3.456   4.246  1.00  0.00     0.163 HD
ATOM     29  O   UNL     1       3.299   3.845   6.574  1.00  0.00    -0.269 OA
BRANCH  27  30
ATOM     30  C   UNL     1       1.808   2.024   6.534  1.00  0.00     0.039 A 
ATOM     31  C   UNL     1       1.045   2.447   7.628  1.00  0.00     0.014 A 
ATOM     32  C   UNL     1       1.778   0.675   6.162  1.00  0.00     0.014 A 
ATOM     33  C   UNL     1       0.262   1.532   8.343  1.00  0.00     0.010 A 
ATOM     34  C   UNL     1       0.949  -0.227   6.841  1.00  0.00     0.010 A 
ATOM     35  C   UNL     1       0.206   0.183   7.961  1.00  0.00    -0.014 A 
BRANCH  35  36
ATOM     36  C   UNL     1      -0.555  -0.811   8.774  1.00  0.00     0.031 A 
ATOM     37  C   UNL     1       0.179  -1.903   9.515  1.00  0.00     0.074 A 
ATOM     38  C   UNL     1      -1.899  -0.747   8.850  1.00  0.00     0.049 A 
ATOM     39  N   UNL     1      -0.297  -2.878  10.250  1.00  0.00    -0.248 NA
ATOM     40  C   UNL     1       1.644  -1.910   9.391  1.00  0.00     0.031 C 
ATOM     41  C   UNL     1      -2.736   0.243   8.171  1.00  0.00     0.029 A 
ATOM     42  N   UNL     1      -2.800  -1.530   9.531  1.00  0.00    -0.354 N 
ATOM     43  C   UNL     1       0.806  -3.620  10.664  1.00  0.00     0.074 A 
ATOM     44  C   UNL     1       1.967  -3.016  10.044  1.00  0.00     0.031 C 
ATOM     45  C   UNL     1      -4.022   0.023   8.489  1.00  0.00     0.029 A 
ATOM     46  C   UNL     1      -4.110  -1.145   9.362  1.00  0.00     0.049 A 
ATOM     47  H   UNL     1      -2.532  -2.296  10.089  1.00  0.00     0.167 HD
ATOM     48  C   UNL     1       0.854  -4.690  11.499  1.00  0.00     0.034 A 
ATOM     49  C   UNL     1      -5.252  -1.672   9.849  1.00  0.00     0.034 A 
ATOM     50  C   UNL     1      -0.308  -5.280  12.123  1.00  0.00     0.049 A 
ATOM     51  C   UNL     1      -5.178  -2.869  10.765  1.00  0.00     0.074 A 
ATOM     52  C   UNL     1      -0.368  -6.346  13.004  1.00  0.00     0.029 A 
ATOM     53  N   UNL     1      -1.617  -4.855  11.931  1.00  0.00    -0.354 N 
ATOM     54  N   UNL     1      -4.124  -3.541  11.168  1.00  0.00    -0.248 NA
ATOM     55  C   UNL     1      -6.450  -3.365  11.307  1.00  0.00     0.031 C 
ATOM     56  C   UNL     1      -1.713  -6.604  13.296  1.00  0.00     0.029 A 
ATOM     57  C   UNL     1      -2.490  -5.648  12.662  1.00  0.00     0.049 A 
ATOM     58  H   UNL     1      -1.886  -4.100  11.360  1.00  0.00     0.167 HD
ATOM     59  C   UNL     1      -4.605  -4.511  12.045  1.00  0.00     0.074 A 
ATOM     60  C   UNL     1      -6.039  -4.327  12.120  1.00  0.00     0.031 C 
ATOM     61  C   UNL     1      -3.921  -5.461  12.733  1.00  0.00     0.034 A 
BRANCH  48  62
ATOM     62  C   UNL     1       2.212  -5.306  11.760  1.00  0.00     0.023 A 
ATOM     63  C   UNL     1       3.247  -4.580  12.376  1.00  0.00     0.031 A 
ATOM     64  C   UNL     1       2.488  -6.624  11.356  1.00  0.00     0.131 A 
ATOM     65  C   UNL     1       4.528  -5.142  12.490  1.00  0.00     0.055 A 
ATOM     66  C   UNL     1       3.741  -7.210  11.553  1.00  0.00     0.041 A 
ATOM     67  F   UNL     1       1.549  -7.364  10.746  1.00  0.00    -0.206 F 
ATOM     68  C   UNL     1       4.776  -6.462  12.107  1.00  0.00     0.022 A 
BRANCH  65  69
ATOM     69  S   UNL     1       5.902  -4.071  12.996  1.00  0.00     0.124 S 
ATOM     70  O   UNL     1       5.865  -3.037  11.965  1.00  0.00    -0.237 OA
ATOM     71  O   UNL     1       5.500  -3.654  14.335  1.00  0.00    -0.237 OA
ATOM     72  O   UNL     1       7.065  -4.955  12.940  1.00  0.00    -0.744 OA
ENDBRANCH  65  69
ENDBRANCH  48  62
BRANCH  49  73
ATOM     73  C   UNL     1      -6.573  -1.078   9.489  1.00  0.00     0.023 A 
ATOM     74  C   UNL     1      -7.393  -0.488  10.465  1.00  0.00     0.031 A 
ATOM     75  C   UNL     1      -7.057  -1.138   8.171  1.00  0.00     0.131 A 
ATOM     76  C   UNL     1      -8.674  -0.030  10.120  1.00  0.00     0.055 A 
ATOM     77  C   UNL     1      -8.310  -0.630   7.821  1.00  0.00     0.041 A 
ATOM     78  F   UNL     1      -6.313  -1.688   7.198  1.00  0.00    -0.206 F 
ATOM     79  C   UNL     1      -9.133  -0.085   8.802  1.00  0.00     0.022 A 
BRANCH  76  80
ATOM     80  S   UNL     1      -9.771   0.560  11.438  1.00  0.00     0.124 S 
ATOM     81  O   UNL     1      -9.848  -0.609  12.307  1.00  0.00    -0.237 OA
ATOM     82  O   UNL     1      -9.028   1.702  11.962  1.00  0.00    -0.237 OA
ATOM     83  O   UNL     1     -11.005   0.895  10.730  1.00  0.00    -0.744 OA
ENDBRANCH  76  80
ENDBRANCH  49  73
BRANCH  61  84
ATOM     84  C   UNL     1      -4.715  -6.331  13.681  1.00  0.00     0.023 A 
ATOM     85  C   UNL     1      -5.701  -7.225  13.228  1.00  0.00     0.031 A 
ATOM     86  C   UNL     1      -4.499  -6.236  15.068  1.00  0.00     0.131 A 
ATOM     87  C   UNL     1      -6.482  -7.934  14.154  1.00  0.00     0.055 A 
ATOM     88  C   UNL     1      -5.234  -6.994  15.982  1.00  0.00     0.041 A 
ATOM     89  F   UNL     1      -3.572  -5.399  15.560  1.00  0.00    -0.206 F 
ATOM     90  C   UNL     1      -6.244  -7.836  15.527  1.00  0.00     0.022 A 
BRANCH  87  91
ATOM     91  S   UNL     1      -7.894  -8.899  13.546  1.00  0.00     0.124 S 
ATOM     92  O   UNL     1      -8.648  -7.899  12.798  1.00  0.00    -0.237 OA
ATOM     93  O   UNL     1      -7.243  -9.934  12.750  1.00  0.00    -0.237 OA
ATOM     94  O   UNL     1      -8.537  -9.373  14.770  1.00  0.00    -0.744 OA
ENDBRANCH  87  91
ENDBRANCH  61  84
ENDBRANCH  35  36
ENDBRANCH  27  30
ENDBRANCH  25  26
ENDBRANCH   1  25
TORSDOF 16
