REMARK SMILES O=C(CC1(NC(=O)c2ccccc2[N+](=O)[O-])CCC1)NCCCNC(=O)c1ccc(-c2c3nc(c(-c4cc(S(=O)(=O)[O-])ccc4F)c4ccc([nH]4)c(-c4cc(S(=O)(=O)[O-])ccc4F)c4nc(c(-c5cc(S(=O)(=O)[O-])ccc5F)c5ccc2[nH]5)C=C4)C=C3)cc1
REMARK SMILES IDX 21 1 20 2 1 3 2 4 3 6 4 7 17 8 19 9 18 10 5 11 6 12 7 14
REMARK SMILES IDX 8 15 9 16 13 17 10 18 12 19 11 20 14 21 15 22 16 23 22 24
REMARK SMILES IDX 23 25 24 26 25 27 26 29 27 30 28 31 89 32 29 33 88 34 30 35
REMARK SMILES IDX 31 36 32 37 82 38 33 39 87 40 81 41 83 42 34 43 86 44 80 45
REMARK SMILES IDX 79 46 35 48 67 49 47 50 66 51 48 52 51 53 65 54 84 55 49 56
REMARK SMILES IDX 50 57 64 59 85 60 52 61 36 62 37 63 45 64 38 65 44 66 46 67
REMARK SMILES IDX 43 68 39 69 40 70 41 71 42 72 68 73 69 74 77 75 70 76 76 77
REMARK SMILES IDX 78 78 75 79 71 80 72 81 73 82 74 83 53 84 54 85 62 86 55 87
REMARK SMILES IDX 61 88 63 89 60 90 56 91 57 92 58 93 59 94
REMARK H PARENT 20 5 5 13 24 28 83 47 51 58
REMARK Flexibility Score: inf
ROOT
ATOM      1  C   UNL     1       1.807  -0.413  -3.013  1.00  0.00     0.117 C 
ENDROOT
BRANCH   1   2
ATOM      2  N   UNL     1       2.267  -0.547  -1.638  1.00  0.00    -0.356 N 
ATOM      3  O   UNL     1       0.191  -0.624  -0.687  1.00  0.00    -0.275 OA
ATOM      4  C   UNL     1       1.415  -0.675  -0.568  1.00  0.00     0.222 C 
ATOM      5  H   UNL     1       3.236  -0.546  -1.467  1.00  0.00     0.163 HD
BRANCH   4   6
ATOM      6  C   UNL     1       2.036  -0.815   0.814  1.00  0.00     0.128 C 
BRANCH   6   7
ATOM      7  C   UNL     1       3.491  -1.268   0.952  1.00  0.00     0.049 C 
ATOM      8  C   UNL     1       3.985  -1.612   2.395  1.00  0.00     0.029 C 
ATOM      9  C   UNL     1       3.630  -2.800   0.651  1.00  0.00     0.029 C 
ATOM     10  C   UNL     1       4.582  -2.920   1.849  1.00  0.00     0.005 C 
BRANCH   7  11
ATOM     11  N   UNL     1       4.494  -0.440   0.214  1.00  0.00    -0.346 N 
ATOM     12  C   UNL     1       4.664   0.925   0.098  1.00  0.00     0.258 C 
ATOM     13  H   UNL     1       5.159  -0.969  -0.282  1.00  0.00     0.164 HD
ATOM     14  O   UNL     1       5.540   1.367  -0.640  1.00  0.00    -0.269 OA
BRANCH  12  15
ATOM     15  C   UNL     1       3.723   1.865   0.726  1.00  0.00     0.117 A 
ATOM     16  C   UNL     1       2.746   2.430  -0.106  1.00  0.00     0.021 A 
ATOM     17  C   UNL     1       3.729   2.202   2.077  1.00  0.00     0.282 A 
ATOM     18  C   UNL     1       1.732   3.229   0.420  1.00  0.00     0.001 A 
ATOM     19  C   UNL     1       2.715   3.014   2.614  1.00  0.00     0.086 A 
ATOM     20  C   UNL     1       1.708   3.509   1.783  1.00  0.00     0.007 A 
BRANCH  17  21
ATOM     21  N   UNL     1       4.773   1.730   2.968  1.00  0.00     0.063 N 
ATOM     22  O   UNL     1       4.428   1.415   4.117  1.00  0.00    -0.258 OA
ATOM     23  O   UNL     1       5.929   1.669   2.537  1.00  0.00    -0.258 OA
ENDBRANCH  17  21
ENDBRANCH  12  15
ENDBRANCH   7  11
ENDBRANCH   6   7
ENDBRANCH   4   6
ENDBRANCH   1   2
BRANCH   1  24
ATOM     24  C   UNL     1       2.037   0.973  -3.621  1.00  0.00     0.042 C 
BRANCH  24  25
ATOM     25  C   UNL     1       3.499   1.401  -3.773  1.00  0.00     0.118 C 
BRANCH  25  26
ATOM     26  N   UNL     1       4.243   0.575  -4.705  1.00  0.00    -0.352 N 
ATOM     27  C   UNL     1       5.049   0.938  -5.756  1.00  0.00     0.251 C 
ATOM     28  H   UNL     1       4.156  -0.396  -4.562  1.00  0.00     0.163 HD
ATOM     29  O   UNL     1       5.493   0.060  -6.492  1.00  0.00    -0.269 OA
BRANCH  27  30
ATOM     30  C   UNL     1       5.360   2.361  -6.033  1.00  0.00     0.039 A 
ATOM     31  C   UNL     1       5.245   2.819  -7.349  1.00  0.00     0.014 A 
ATOM     32  C   UNL     1       5.817   3.226  -5.035  1.00  0.00     0.014 A 
ATOM     33  C   UNL     1       5.539   4.152  -7.659  1.00  0.00     0.010 A 
ATOM     34  C   UNL     1       6.074   4.569  -5.340  1.00  0.00     0.010 A 
ATOM     35  C   UNL     1       5.935   5.048  -6.654  1.00  0.00    -0.014 A 
BRANCH  35  36
ATOM     36  C   UNL     1       6.203   6.482  -6.965  1.00  0.00     0.031 A 
ATOM     37  C   UNL     1       7.596   7.043  -6.843  1.00  0.00     0.074 A 
ATOM     38  C   UNL     1       5.188   7.296  -7.318  1.00  0.00     0.049 A 
ATOM     39  N   UNL     1       8.009   8.278  -6.984  1.00  0.00    -0.248 NA
ATOM     40  C   UNL     1       8.659   6.088  -6.501  1.00  0.00     0.031 C 
ATOM     41  C   UNL     1       3.792   6.883  -7.472  1.00  0.00     0.029 A 
ATOM     42  N   UNL     1       5.167   8.641  -7.600  1.00  0.00    -0.354 N 
ATOM     43  C   UNL     1       9.378   8.254  -6.737  1.00  0.00     0.074 A 
ATOM     44  C   UNL     1       9.712   6.886  -6.392  1.00  0.00     0.031 C 
ATOM     45  C   UNL     1       3.055   7.949  -7.827  1.00  0.00     0.029 A 
ATOM     46  C   UNL     1       3.911   9.131  -7.878  1.00  0.00     0.049 A 
ATOM     47  H   UNL     1       5.976   9.202  -7.604  1.00  0.00     0.167 HD
ATOM     48  C   UNL     1      10.275   9.271  -6.804  1.00  0.00     0.034 A 
ATOM     49  C   UNL     1       3.488  10.389  -8.121  1.00  0.00     0.034 A 
ATOM     50  C   UNL     1       9.931  10.632  -7.149  1.00  0.00     0.049 A 
ATOM     51  C   UNL     1       4.493  11.514  -8.133  1.00  0.00     0.074 A 
ATOM     52  C   UNL     1      10.770  11.726  -7.279  1.00  0.00     0.029 A 
ATOM     53  N   UNL     1       8.645  11.091  -7.405  1.00  0.00    -0.354 N 
ATOM     54  N   UNL     1       5.789  11.469  -7.924  1.00  0.00    -0.248 NA
ATOM     55  C   UNL     1       3.980  12.860  -8.423  1.00  0.00     0.031 C 
ATOM     56  C   UNL     1       9.987  12.855  -7.540  1.00  0.00     0.029 A 
ATOM     57  C   UNL     1       8.666  12.455  -7.660  1.00  0.00     0.049 A 
ATOM     58  H   UNL     1       7.836  10.530  -7.407  1.00  0.00     0.167 HD
ATOM     59  C   UNL     1       6.247  12.773  -8.095  1.00  0.00     0.074 A 
ATOM     60  C   UNL     1       5.093  13.579  -8.433  1.00  0.00     0.031 C 
ATOM     61  C   UNL     1       7.511  13.258  -7.991  1.00  0.00     0.034 A 
BRANCH  48  62
ATOM     62  C   UNL     1      11.713   8.956  -6.459  1.00  0.00     0.023 A 
ATOM     63  C   UNL     1      12.475   8.052  -7.220  1.00  0.00     0.031 A 
ATOM     64  C   UNL     1      12.325   9.554  -5.343  1.00  0.00     0.131 A 
ATOM     65  C   UNL     1      13.775   7.715  -6.813  1.00  0.00     0.055 A 
ATOM     66  C   UNL     1      13.648   9.277  -4.991  1.00  0.00     0.041 A 
ATOM     67  F   UNL     1      11.644  10.412  -4.567  1.00  0.00    -0.206 F 
ATOM     68  C   UNL     1      14.376   8.341  -5.718  1.00  0.00     0.022 A 
BRANCH  65  69
ATOM     69  S   UNL     1      14.615   6.340  -7.646  1.00  0.00     0.124 S 
ATOM     70  O   UNL     1      13.677   5.243  -7.424  1.00  0.00    -0.237 OA
ATOM     71  O   UNL     1      14.722   6.821  -9.019  1.00  0.00    -0.237 OA
ATOM     72  O   UNL     1      15.881   6.223  -6.925  1.00  0.00    -0.744 OA
ENDBRANCH  65  69
ENDBRANCH  48  62
BRANCH  49  73
ATOM     73  C   UNL     1       2.040  10.668  -8.347  1.00  0.00     0.023 A 
ATOM     74  C   UNL     1       1.582  11.175  -9.574  1.00  0.00     0.031 A 
ATOM     75  C   UNL     1       1.098  10.484  -7.319  1.00  0.00     0.131 A 
ATOM     76  C   UNL     1       0.232  11.527  -9.726  1.00  0.00     0.055 A 
ATOM     77  C   UNL     1      -0.255  10.780  -7.494  1.00  0.00     0.041 A 
ATOM     78  F   UNL     1       1.481  10.002  -6.125  1.00  0.00    -0.206 F 
ATOM     79  C   UNL     1      -0.692  11.319  -8.699  1.00  0.00     0.022 A 
BRANCH  76  80
ATOM     80  S   UNL     1      -0.285  12.350 -11.258  1.00  0.00     0.124 S 
ATOM     81  O   UNL     1       0.570  13.531 -11.262  1.00  0.00    -0.237 OA
ATOM     82  O   UNL     1       0.016  11.335 -12.262  1.00  0.00    -0.237 OA
ATOM     83  O   UNL     1      -1.707  12.607 -11.042  1.00  0.00    -0.744 OA
ENDBRANCH  76  80
ENDBRANCH  49  73
BRANCH  61  84
ATOM     84  C   UNL     1       7.720  14.721  -8.306  1.00  0.00     0.023 A 
ATOM     85  C   UNL     1       7.184  15.743  -7.503  1.00  0.00     0.031 A 
ATOM     86  C   UNL     1       8.468  15.096  -9.438  1.00  0.00     0.131 A 
ATOM     87  C   UNL     1       7.357  17.087  -7.872  1.00  0.00     0.055 A 
ATOM     88  C   UNL     1       8.689  16.434  -9.765  1.00  0.00     0.041 A 
ATOM     89  F   UNL     1       9.001  14.164 -10.244  1.00  0.00    -0.206 F 
ATOM     90  C   UNL     1       8.121  17.439  -8.987  1.00  0.00     0.022 A 
BRANCH  87  91
ATOM     91  S   UNL     1       6.495  18.372  -6.924  1.00  0.00     0.124 S 
ATOM     92  O   UNL     1       5.099  17.970  -7.067  1.00  0.00    -0.237 OA
ATOM     93  O   UNL     1       7.069  18.216  -5.592  1.00  0.00    -0.237 OA
ATOM     94  O   UNL     1       6.857  19.609  -7.614  1.00  0.00    -0.744 OA
ENDBRANCH  87  91
ENDBRANCH  61  84
ENDBRANCH  35  36
ENDBRANCH  27  30
ENDBRANCH  25  26
ENDBRANCH  24  25
ENDBRANCH   1  24
TORSDOF 17
