REMARK SMILES O=C(NCCCNC(=O)c1ccc(-c2c3nc(c(-c4cc(S(=O)(=O)[O-])ccc4F)c4ccc([nH]4)c(-c4cc(S(=O)(=O)[O-])ccc4F)c4nc(c(-c5cc(S(=O)(=O)[O-])ccc5F)c5ccc2[nH]5)C=C4)C=C3)cc1)C1=C(C(=O)NCCC2=CCCCC2)CCCC1
REMARK SMILES IDX 4 1 3 2 1 3 2 4 73 6 74 7 89 8 86 9 88 10 87 11 75 12 76 13
REMARK SMILES IDX 77 14 78 16 79 17 80 18 81 19 85 20 82 21 84 22 83 23 5 24
REMARK SMILES IDX 6 25 7 26 8 27 9 29 10 30 11 31 72 32 12 33 71 34 13 35
REMARK SMILES IDX 14 36 15 37 65 38 16 39 70 40 64 41 66 42 17 43 69 44 63 45
REMARK SMILES IDX 62 46 18 48 50 49 30 50 49 51 31 52 34 53 48 54 67 55 32 56
REMARK SMILES IDX 33 57 47 59 68 60 35 61 19 62 20 63 28 64 21 65 27 66 29 67
REMARK SMILES IDX 26 68 22 69 23 70 24 71 25 72 51 73 52 74 60 75 53 76 59 77
REMARK SMILES IDX 61 78 58 79 54 80 55 81 56 82 57 83 36 84 37 85 45 86 38 87
REMARK SMILES IDX 44 88 46 89 43 90 39 91 40 92 41 93 42 94
REMARK H PARENT 3 5 77 15 7 28 66 47 34 58
REMARK Flexibility Score: inf
ROOT
ATOM      1  C   UNL     1       4.790  -1.387  -0.298  1.00  0.00     0.118 C 
ENDROOT
BRANCH   1   2
ATOM      2  N   UNL     1       3.397  -1.539   0.090  1.00  0.00    -0.352 N 
ATOM      3  O   UNL     1       1.425  -1.024   1.012  1.00  0.00    -0.270 OA
ATOM      4  C   UNL     1       2.610  -0.738   0.853  1.00  0.00     0.247 C 
ATOM      5  H   UNL     1       2.956  -2.349  -0.253  1.00  0.00     0.163 HD
BRANCH   4   6
ATOM      6  C   UNL     1       3.195   0.431   1.553  1.00  0.00     0.026 C 
ATOM      7  C   UNL     1       3.904   1.429   0.980  1.00  0.00     0.026 C 
ATOM      8  C   UNL     1       2.890   0.380   3.036  1.00  0.00     0.042 C 
ATOM      9  C   UNL     1       4.702   2.387   1.853  1.00  0.00     0.042 C 
ATOM     10  C   UNL     1       3.414   1.574   3.828  1.00  0.00     0.005 C 
ATOM     11  C   UNL     1       4.791   1.963   3.322  1.00  0.00     0.005 C 
BRANCH   7  12
ATOM     12  C   UNL     1       4.147   1.663  -0.484  1.00  0.00     0.247 C 
ATOM     13  O   UNL     1       5.262   2.037  -0.854  1.00  0.00    -0.270 OA
ATOM     14  N   UNL     1       3.177   1.560  -1.429  1.00  0.00    -0.352 N 
ATOM     15  H   UNL     1       3.450   1.876  -2.321  1.00  0.00     0.163 HD
BRANCH  14  16
ATOM     16  C   UNL     1       1.812   1.067  -1.367  1.00  0.00     0.120 C 
BRANCH  16  17
ATOM     17  C   UNL     1       0.904   1.581  -2.487  1.00  0.00     0.052 C 
BRANCH  17  18
ATOM     18  C   UNL     1       1.316   1.178  -3.890  1.00  0.00    -0.072 C 
ATOM     19  C   UNL     1       1.252  -0.096  -4.323  1.00  0.00    -0.028 C 
ATOM     20  C   UNL     1       1.736   2.299  -4.811  1.00  0.00     0.031 C 
ATOM     21  C   UNL     1       1.618  -0.532  -5.716  1.00  0.00     0.027 C 
ATOM     22  C   UNL     1       1.683   1.918  -6.292  1.00  0.00     0.005 C 
ATOM     23  C   UNL     1       2.318   0.554  -6.532  1.00  0.00     0.004 C 
ENDBRANCH  17  18
ENDBRANCH  16  17
ENDBRANCH  14  16
ENDBRANCH   7  12
ENDBRANCH   4   6
ENDBRANCH   1   2
BRANCH   1  24
ATOM     24  C   UNL     1       5.457  -2.712  -0.617  1.00  0.00     0.042 C 
BRANCH  24  25
ATOM     25  C   UNL     1       4.844  -3.440  -1.807  1.00  0.00     0.118 C 
BRANCH  25  26
ATOM     26  N   UNL     1       5.154  -2.838  -3.096  1.00  0.00    -0.352 N 
ATOM     27  C   UNL     1       5.745  -3.415  -4.202  1.00  0.00     0.251 C 
ATOM     28  H   UNL     1       4.909  -1.889  -3.191  1.00  0.00     0.163 HD
ATOM     29  O   UNL     1       6.014  -2.737  -5.182  1.00  0.00    -0.269 OA
BRANCH  27  30
ATOM     30  C   UNL     1       6.094  -4.855  -4.164  1.00  0.00     0.039 A 
ATOM     31  C   UNL     1       7.388  -5.247  -4.510  1.00  0.00     0.014 A 
ATOM     32  C   UNL     1       5.172  -5.801  -3.709  1.00  0.00     0.014 A 
ATOM     33  C   UNL     1       7.786  -6.570  -4.301  1.00  0.00     0.010 A 
ATOM     34  C   UNL     1       5.601  -7.089  -3.405  1.00  0.00     0.010 A 
ATOM     35  C   UNL     1       6.915  -7.489  -3.691  1.00  0.00    -0.014 A 
BRANCH  35  36
ATOM     36  C   UNL     1       7.365  -8.864  -3.334  1.00  0.00     0.031 A 
ATOM     37  C   UNL     1       6.670 -10.064  -3.922  1.00  0.00     0.074 A 
ATOM     38  C   UNL     1       8.351  -9.032  -2.428  1.00  0.00     0.049 A 
ATOM     39  N   UNL     1       6.872 -11.335  -3.686  1.00  0.00    -0.248 NA
ATOM     40  C   UNL     1       5.579  -9.798  -4.872  1.00  0.00     0.031 C 
ATOM     41  C   UNL     1       9.056  -7.952  -1.732  1.00  0.00     0.029 A 
ATOM     42  N   UNL     1       8.928 -10.174  -1.927  1.00  0.00    -0.354 N 
ATOM     43  C   UNL     1       5.921 -12.017  -4.439  1.00  0.00     0.074 A 
ATOM     44  C   UNL     1       5.102 -11.015  -5.086  1.00  0.00     0.031 C 
ATOM     45  C   UNL     1       9.990  -8.480  -0.925  1.00  0.00     0.029 A 
ATOM     46  C   UNL     1       9.926  -9.936  -1.008  1.00  0.00     0.049 A 
ATOM     47  H   UNL     1       8.654 -11.079  -2.201  1.00  0.00     0.167 HD
ATOM     48  C   UNL     1       5.762 -13.354  -4.600  1.00  0.00     0.034 A 
ATOM     49  C   UNL     1      10.697 -10.791  -0.306  1.00  0.00     0.034 A 
ATOM     50  C   UNL     1       6.607 -14.342  -3.975  1.00  0.00     0.049 A 
ATOM     51  C   UNL     1      10.515 -12.273  -0.517  1.00  0.00     0.074 A 
ATOM     52  C   UNL     1       6.585 -15.717  -4.131  1.00  0.00     0.029 A 
ATOM     53  N   UNL     1       7.624 -14.062  -3.071  1.00  0.00    -0.354 N 
ATOM     54  N   UNL     1       9.657 -12.898  -1.291  1.00  0.00    -0.248 NA
ATOM     55  C   UNL     1      11.414 -13.164   0.227  1.00  0.00     0.031 C 
ATOM     56  C   UNL     1       7.544 -16.272  -3.277  1.00  0.00     0.029 A 
ATOM     57  C   UNL     1       8.216 -15.240  -2.641  1.00  0.00     0.049 A 
ATOM     58  H   UNL     1       7.886 -13.160  -2.779  1.00  0.00     0.167 HD
ATOM     59  C   UNL     1       9.934 -14.255  -1.145  1.00  0.00     0.074 A 
ATOM     60  C   UNL     1      11.051 -14.354  -0.229  1.00  0.00     0.031 C 
ATOM     61  C   UNL     1       9.322 -15.323  -1.717  1.00  0.00     0.034 A 
BRANCH  48  62
ATOM     62  C   UNL     1       4.624 -13.821  -5.476  1.00  0.00     0.023 A 
ATOM     63  C   UNL     1       4.570 -13.512  -6.846  1.00  0.00     0.031 A 
ATOM     64  C   UNL     1       3.567 -14.571  -4.930  1.00  0.00     0.131 A 
ATOM     65  C   UNL     1       3.452 -13.885  -7.606  1.00  0.00     0.055 A 
ATOM     66  C   UNL     1       2.496 -15.011  -5.710  1.00  0.00     0.041 A 
ATOM     67  F   UNL     1       3.552 -14.881  -3.623  1.00  0.00    -0.206 F 
ATOM     68  C   UNL     1       2.426 -14.655  -7.054  1.00  0.00     0.022 A 
BRANCH  65  69
ATOM     69  S   UNL     1       3.294 -13.235  -9.292  1.00  0.00     0.124 S 
ATOM     70  O   UNL     1       3.272 -11.794  -9.051  1.00  0.00    -0.237 OA
ATOM     71  O   UNL     1       4.490 -13.756  -9.945  1.00  0.00    -0.237 OA
ATOM     72  O   UNL     1       2.030 -13.800  -9.761  1.00  0.00    -0.744 OA
ENDBRANCH  65  69
ENDBRANCH  48  62
BRANCH  49  73
ATOM     73  C   UNL     1      11.710 -10.282   0.664  1.00  0.00     0.023 A 
ATOM     74  C   UNL     1      13.082 -10.506   0.465  1.00  0.00     0.031 A 
ATOM     75  C   UNL     1      11.317  -9.610   1.835  1.00  0.00     0.131 A 
ATOM     76  C   UNL     1      14.007 -10.112   1.445  1.00  0.00     0.055 A 
ATOM     77  C   UNL     1      12.245  -9.170   2.781  1.00  0.00     0.041 A 
ATOM     78  F   UNL     1      10.019  -9.363   2.074  1.00  0.00    -0.206 F 
ATOM     79  C   UNL     1      13.599  -9.434   2.596  1.00  0.00     0.022 A 
BRANCH  76  80
ATOM     80  S   UNL     1      15.746 -10.583   1.238  1.00  0.00     0.124 S 
ATOM     81  O   UNL     1      15.649 -12.033   1.118  1.00  0.00    -0.237 OA
ATOM     82  O   UNL     1      16.112  -9.861   0.024  1.00  0.00    -0.237 OA
ATOM     83  O   UNL     1      16.378 -10.098   2.463  1.00  0.00    -0.744 OA
ENDBRANCH  76  80
ENDBRANCH  49  73
BRANCH  61  84
ATOM     84  C   UNL     1       9.883 -16.686  -1.392  1.00  0.00     0.023 A 
ATOM     85  C   UNL     1       9.805 -17.227  -0.097  1.00  0.00     0.031 A 
ATOM     86  C   UNL     1      10.520 -17.445  -2.389  1.00  0.00     0.131 A 
ATOM     87  C   UNL     1      10.410 -18.461   0.182  1.00  0.00     0.055 A 
ATOM     88  C   UNL     1      11.065 -18.701  -2.121  1.00  0.00     0.041 A 
ATOM     89  F   UNL     1      10.624 -16.976  -3.644  1.00  0.00    -0.206 F 
ATOM     90  C   UNL     1      11.025 -19.209  -0.826  1.00  0.00     0.022 A 
BRANCH  87  91
ATOM     91  S   UNL     1      10.468 -19.033   1.902  1.00  0.00     0.124 S 
ATOM     92  O   UNL     1      11.172 -17.939   2.562  1.00  0.00    -0.237 OA
ATOM     93  O   UNL     1       9.053 -19.173   2.232  1.00  0.00    -0.237 OA
ATOM     94  O   UNL     1      11.211 -20.289   1.821  1.00  0.00    -0.744 OA
ENDBRANCH  87  91
ENDBRANCH  61  84
ENDBRANCH  35  36
ENDBRANCH  27  30
ENDBRANCH  25  26
ENDBRANCH  24  25
ENDBRANCH   1  24
TORSDOF 17
