REMARK SMILES C[N@H+](Cc1cc(Cl)ccc1[N+](=O)[O-])[C@H]1COC[C@@H]1C(=O)NCCCNC(=O)c1ccc(-c2c3nc(c(-c4cc(S(=O)(=O)[O-])ccc4F)c4ccc([nH]4)c(-c4cc(S(=O)(=O)[O-])ccc4F)c4nc(c(-c5cc(S(=O)(=O)[O-])ccc5F)c5ccc2[nH]5)C=C4)C=C3)cc1
REMARK SMILES IDX 22 1 21 2 19 3 20 4 18 6 14 7 15 8 16 9 17 10 2 11 1 12 3 14
REMARK SMILES IDX 4 15 5 16 10 17 6 18 9 19 7 20 8 21 11 22 12 23 13 24 23 25
REMARK SMILES IDX 24 26 25 27 26 28 27 30 28 31 29 32 90 33 30 34 89 35 31 36
REMARK SMILES IDX 32 37 33 38 83 39 34 40 88 41 82 42 84 43 35 44 87 45 81 46
REMARK SMILES IDX 80 47 36 49 68 50 48 51 67 52 49 53 52 54 66 55 85 56 50 57
REMARK SMILES IDX 51 58 65 60 86 61 53 62 37 63 38 64 46 65 39 66 45 67 47 68
REMARK SMILES IDX 44 69 40 70 41 71 42 72 43 73 69 74 70 75 78 76 71 77 77 78
REMARK SMILES IDX 79 79 76 80 72 81 73 82 74 83 75 84 54 85 55 86 63 87 56 88
REMARK SMILES IDX 62 89 64 90 61 91 57 92 58 93 59 94 60 95
REMARK H PARENT 21 5 2 13 25 29 84 48 52 59
REMARK Flexibility Score: inf
ROOT
ATOM      1  C   UNL     1      -1.243  -0.020   1.723  1.00  0.00     0.117 C 
ENDROOT
BRANCH   1   2
ATOM      2  N   UNL     1      -1.693  -1.116   2.554  1.00  0.00    -0.356 N 
ATOM      3  C   UNL     1      -1.089  -2.229   3.030  1.00  0.00     0.231 C 
ATOM      4  O   UNL     1      -1.822  -2.949   3.720  1.00  0.00    -0.274 OA
ATOM      5  H   UNL     1      -2.635  -1.036   2.830  1.00  0.00     0.163 HD
BRANCH   3   6
ATOM      6  C   UNL     1       0.407  -2.537   2.903  1.00  0.00     0.164 C 
ATOM      7  C   UNL     1       1.163  -2.217   1.609  1.00  0.00     0.225 C 
ATOM      8  C   UNL     1       0.935  -3.502   0.808  1.00  0.00     0.226 C 
ATOM      9  O   UNL     1       1.034  -4.570   1.748  1.00  0.00    -0.374 OA
ATOM     10  C   UNL     1       0.581  -4.066   3.018  1.00  0.00     0.180 C 
BRANCH   7  11
ATOM     11  N   UNL     1       2.590  -1.784   1.798  1.00  0.00    -0.328 N 
ATOM     12  C   UNL     1       3.221  -1.520   0.494  1.00  0.00     0.333 C 
ATOM     13  H   UNL     1       2.550  -0.919   2.337  1.00  0.00     0.348 HD
BRANCH  11  14
ATOM     14  C   UNL     1       3.407  -2.694   2.619  1.00  0.00     0.306 C 
BRANCH  14  15
ATOM     15  C   UNL     1       4.821  -2.193   2.851  1.00  0.00     0.085 A 
ATOM     16  C   UNL     1       5.882  -2.929   2.284  1.00  0.00     0.037 A 
ATOM     17  C   UNL     1       5.137  -1.000   3.532  1.00  0.00     0.278 A 
ATOM     18  C   UNL     1       7.197  -2.468   2.361  1.00  0.00     0.042 A 
ATOM     19  C   UNL     1       6.464  -0.536   3.603  1.00  0.00     0.088 A 
ATOM     20  Cl  UNL     1       8.462  -3.379   1.634  1.00  0.00    -0.084 Cl
ATOM     21  C   UNL     1       7.491  -1.271   3.008  1.00  0.00     0.027 A 
BRANCH  17  22
ATOM     22  N   UNL     1       4.111  -0.192   4.196  1.00  0.00     0.063 N 
ATOM     23  O   UNL     1       4.221   1.040   4.112  1.00  0.00    -0.258 OA
ATOM     24  O   UNL     1       3.259  -0.782   4.875  1.00  0.00    -0.258 OA
ENDBRANCH  17  22
ENDBRANCH  14  15
ENDBRANCH  11  14
ENDBRANCH   7  11
ENDBRANCH   3   6
ENDBRANCH   1   2
BRANCH   1  25
ATOM     25  C   UNL     1      -1.539  -0.298   0.250  1.00  0.00     0.042 C 
BRANCH  25  26
ATOM     26  C   UNL     1      -3.024  -0.210  -0.089  1.00  0.00     0.118 C 
BRANCH  26  27
ATOM     27  N   UNL     1      -3.512   1.159  -0.013  1.00  0.00    -0.352 N 
ATOM     28  C   UNL     1      -4.007   1.964  -1.010  1.00  0.00     0.251 C 
ATOM     29  H   UNL     1      -3.482   1.568   0.882  1.00  0.00     0.163 HD
ATOM     30  O   UNL     1      -4.098   3.172  -0.823  1.00  0.00    -0.269 OA
BRANCH  28  31
ATOM     31  C   UNL     1      -4.418   1.369  -2.301  1.00  0.00     0.039 A 
ATOM     32  C   UNL     1      -4.121   2.039  -3.491  1.00  0.00     0.014 A 
ATOM     33  C   UNL     1      -5.120   0.162  -2.331  1.00  0.00     0.014 A 
ATOM     34  C   UNL     1      -4.486   1.471  -4.714  1.00  0.00     0.010 A 
ATOM     35  C   UNL     1      -5.401  -0.444  -3.549  1.00  0.00     0.010 A 
ATOM     36  C   UNL     1      -5.105   0.212  -4.754  1.00  0.00    -0.014 A 
BRANCH  36  37
ATOM     37  C   UNL     1      -5.511  -0.428  -6.032  1.00  0.00     0.031 A 
ATOM     38  C   UNL     1      -6.967  -0.725  -6.275  1.00  0.00     0.074 A 
ATOM     39  C   UNL     1      -4.579  -0.820  -6.920  1.00  0.00     0.049 A 
ATOM     40  N   UNL     1      -7.525  -1.421  -7.231  1.00  0.00    -0.248 NA
ATOM     41  C   UNL     1      -7.913  -0.203  -5.278  1.00  0.00     0.031 C 
ATOM     42  C   UNL     1      -3.137  -0.610  -6.780  1.00  0.00     0.029 A 
ATOM     43  N   UNL     1      -4.702  -1.497  -8.107  1.00  0.00    -0.354 N 
ATOM     44  C   UNL     1      -8.884  -1.446  -6.933  1.00  0.00     0.074 A 
ATOM     45  C   UNL     1      -9.048  -0.759  -5.670  1.00  0.00     0.031 C 
ATOM     46  C   UNL     1      -2.512  -1.134  -7.846  1.00  0.00     0.029 A 
ATOM     47  C   UNL     1      -3.499  -1.767  -8.716  1.00  0.00     0.049 A 
ATOM     48  H   UNL     1      -5.570  -1.765  -8.487  1.00  0.00     0.167 HD
ATOM     49  C   UNL     1      -9.902  -1.974  -7.658  1.00  0.00     0.034 A 
ATOM     50  C   UNL     1      -3.220  -2.467  -9.834  1.00  0.00     0.034 A 
ATOM     51  C   UNL     1      -9.712  -2.643  -8.921  1.00  0.00     0.049 A 
ATOM     52  C   UNL     1      -4.360  -3.074 -10.613  1.00  0.00     0.074 A 
ATOM     53  C   UNL     1     -10.667  -3.173  -9.770  1.00  0.00     0.029 A 
ATOM     54  N   UNL     1      -8.477  -2.884  -9.514  1.00  0.00    -0.354 N 
ATOM     55  N   UNL     1      -5.645  -3.064 -10.340  1.00  0.00    -0.248 NA
ATOM     56  C   UNL     1      -4.014  -3.776 -11.856  1.00  0.00     0.031 C 
ATOM     57  C   UNL     1     -10.009  -3.801 -10.832  1.00  0.00     0.029 A 
ATOM     58  C   UNL     1      -8.646  -3.581 -10.700  1.00  0.00     0.049 A 
ATOM     59  H   UNL     1      -7.610  -2.600  -9.146  1.00  0.00     0.167 HD
ATOM     60  C   UNL     1      -6.264  -3.724 -11.398  1.00  0.00     0.074 A 
ATOM     61  C   UNL     1      -5.211  -4.118 -12.312  1.00  0.00     0.031 C 
ATOM     62  C   UNL     1      -7.584  -3.969 -11.602  1.00  0.00     0.034 A 
BRANCH  49  63
ATOM     63  C   UNL     1     -11.294  -1.873  -7.073  1.00  0.00     0.023 A 
ATOM     64  C   UNL     1     -11.882  -0.630  -6.772  1.00  0.00     0.031 A 
ATOM     65  C   UNL     1     -12.021  -3.033  -6.752  1.00  0.00     0.131 A 
ATOM     66  C   UNL     1     -13.097  -0.579  -6.072  1.00  0.00     0.055 A 
ATOM     67  C   UNL     1     -13.279  -2.973  -6.149  1.00  0.00     0.041 A 
ATOM     68  F   UNL     1     -11.509  -4.250  -6.993  1.00  0.00    -0.206 F 
ATOM     69  C   UNL     1     -13.814  -1.741  -5.784  1.00  0.00     0.022 A 
BRANCH  66  70
ATOM     70  S   UNL     1     -13.621   1.011  -5.373  1.00  0.00     0.124 S 
ATOM     71  O   UNL     1     -12.471   1.360  -4.542  1.00  0.00    -0.237 OA
ATOM     72  O   UNL     1     -13.820   1.829  -6.564  1.00  0.00    -0.237 OA
ATOM     73  O   UNL     1     -14.836   0.676  -4.633  1.00  0.00    -0.744 OA
ENDBRANCH  66  70
ENDBRANCH  49  63
BRANCH  50  74
ATOM     74  C   UNL     1      -1.806  -2.642 -10.274  1.00  0.00     0.023 A 
ATOM     75  C   UNL     1      -1.343  -2.069 -11.468  1.00  0.00     0.031 A 
ATOM     76  C   UNL     1      -0.897  -3.392  -9.506  1.00  0.00     0.131 A 
ATOM     77  C   UNL     1      -0.017  -2.283 -11.878  1.00  0.00     0.055 A 
ATOM     78  C   UNL     1       0.434  -3.559  -9.892  1.00  0.00     0.041 A 
ATOM     79  F   UNL     1      -1.286  -3.955  -8.351  1.00  0.00    -0.206 F 
ATOM     80  C   UNL     1       0.878  -3.011 -11.091  1.00  0.00     0.022 A 
BRANCH  77  81
ATOM     81  S   UNL     1       0.506  -1.650 -13.495  1.00  0.00     0.124 S 
ATOM     82  O   UNL     1      -0.412  -2.339 -14.395  1.00  0.00    -0.237 OA
ATOM     83  O   UNL     1       0.298  -0.214 -13.340  1.00  0.00    -0.237 OA
ATOM     84  O   UNL     1       1.903  -2.068 -13.588  1.00  0.00    -0.744 OA
ENDBRANCH  77  81
ENDBRANCH  50  74
BRANCH  62  85
ATOM     85  C   UNL     1      -7.975  -4.637 -12.899  1.00  0.00     0.023 A 
ATOM     86  C   UNL     1      -7.627  -5.966 -13.192  1.00  0.00     0.031 A 
ATOM     87  C   UNL     1      -8.732  -3.925 -13.848  1.00  0.00     0.131 A 
ATOM     88  C   UNL     1      -8.000  -6.529 -14.424  1.00  0.00     0.055 A 
ATOM     89  C   UNL     1      -9.153  -4.510 -15.042  1.00  0.00     0.041 A 
ATOM     90  F   UNL     1      -9.087  -2.650 -13.622  1.00  0.00    -0.206 F 
ATOM     91  C   UNL     1      -8.779  -5.816 -15.340  1.00  0.00     0.022 A 
BRANCH  88  92
ATOM     92  S   UNL     1      -7.384  -8.180 -14.852  1.00  0.00     0.124 S 
ATOM     93  O   UNL     1      -5.939  -7.990 -14.790  1.00  0.00    -0.237 OA
ATOM     94  O   UNL     1      -7.964  -9.012 -13.803  1.00  0.00    -0.237 OA
ATOM     95  O   UNL     1      -7.922  -8.410 -16.192  1.00  0.00    -0.744 OA
ENDBRANCH  88  92
ENDBRANCH  62  85
ENDBRANCH  36  37
ENDBRANCH  28  31
ENDBRANCH  26  27
ENDBRANCH  25  26
ENDBRANCH   1  25
TORSDOF 17
