REMARK SMILES CCOC(=O)c1nc(Nc2cccc(C(=O)NCCCNC(=O)c3ccc(-c4c5nc(c(-c6cc(S(=O)(=O)[O-])ccc6F)c6ccc([nH]6)c(-c6cc(S(=O)(=O)[O-])ccc6F)c6nc(c(-c7cc(S(=O)(=O)[O-])ccc7F)c7ccc4[nH]7)C=C6)C=C5)cc3)c2)c2ccccc2n1
REMARK SMILES IDX 18 1 17 2 15 3 16 4 14 6 10 7 11 8 87 9 12 10 13 11 9 12
REMARK SMILES IDX 8 14 6 15 7 16 94 17 93 18 88 19 92 20 89 21 91 22 90 23
REMARK SMILES IDX 4 24 5 25 3 26 2 27 1 28 19 29 20 30 21 31 22 32 23 34 24 35
REMARK SMILES IDX 25 36 86 37 26 38 85 39 27 40 28 41 29 42 79 43 30 44 84 45
REMARK SMILES IDX 78 46 80 47 31 48 83 49 77 50 76 51 32 53 64 54 44 55 63 56
REMARK SMILES IDX 45 57 48 58 62 59 81 60 46 61 47 62 61 64 82 65 49 66 33 67
REMARK SMILES IDX 34 68 42 69 35 70 41 71 43 72 40 73 36 74 37 75 38 76 39 77
REMARK SMILES IDX 65 78 66 79 74 80 67 81 73 82 75 83 72 84 68 85 69 86 70 87
REMARK SMILES IDX 71 88 50 89 51 90 59 91 52 92 58 93 60 94 57 95 53 96 54 97
REMARK SMILES IDX 55 98 56 99
REMARK H PARENT 17 5 9 13 21 33 80 52 48 63
REMARK Flexibility Score: inf
ROOT
ATOM      1  C   UNL     1       2.988   0.861  -5.001  1.00  0.00     0.118 C 
ENDROOT
BRANCH   1   2
ATOM      2  N   UNL     1       3.829  -0.328  -4.899  1.00  0.00    -0.352 N 
ATOM      3  C   UNL     1       5.108  -0.576  -4.453  1.00  0.00     0.251 C 
ATOM      4  O   UNL     1       5.511  -1.740  -4.524  1.00  0.00    -0.269 OA
ATOM      5  H   UNL     1       3.378  -1.139  -5.226  1.00  0.00     0.163 HD
BRANCH   3   6
ATOM      6  C   UNL     1       6.044   0.471  -3.953  1.00  0.00     0.041 A 
ATOM      7  C   UNL     1       6.504   2.753  -3.195  1.00  0.00     0.040 A 
ATOM      8  C   UNL     1       7.872   2.490  -3.268  1.00  0.00     0.026 A 
ATOM      9  C   UNL     1       5.624   1.690  -3.433  1.00  0.00     0.040 A 
ATOM     10  C   UNL     1       8.330   1.215  -3.618  1.00  0.00     0.003 A 
ATOM     11  C   UNL     1       7.420   0.221  -3.994  1.00  0.00     0.014 A 
BRANCH   7  12
ATOM     12  N   UNL     1       6.028   4.040  -2.872  1.00  0.00    -0.340 N 
ATOM     13  H   UNL     1       6.627   4.789  -3.093  1.00  0.00     0.168 HD
BRANCH  12  14
ATOM     14  C   UNL     1       4.801   4.385  -2.273  1.00  0.00     0.142 A 
ATOM     15  C   UNL     1       3.025   3.723  -0.979  1.00  0.00     0.241 A 
ATOM     16  N   UNL     1       4.224   3.450  -1.505  1.00  0.00    -0.204 NA
ATOM     17  N   UNL     1       2.353   4.875  -1.123  1.00  0.00    -0.222 NA
ATOM     18  C   UNL     1       2.950   5.819  -1.859  1.00  0.00     0.077 A 
ATOM     19  C   UNL     1       4.192   5.633  -2.496  1.00  0.00     0.043 A 
ATOM     20  C   UNL     1       2.313   7.047  -1.986  1.00  0.00     0.029 A 
ATOM     21  C   UNL     1       4.726   6.683  -3.290  1.00  0.00     0.014 A 
ATOM     22  C   UNL     1       2.861   8.093  -2.733  1.00  0.00     0.002 A 
ATOM     23  C   UNL     1       4.066   7.907  -3.397  1.00  0.00     0.001 A 
BRANCH  15  24
ATOM     24  C   UNL     1       2.458   2.649  -0.107  1.00  0.00     0.376 C 
ATOM     25  O   UNL     1       3.124   1.975   0.665  1.00  0.00    -0.242 OA
BRANCH  24  26
ATOM     26  O   UNL     1       1.127   2.491  -0.351  1.00  0.00    -0.460 OA
BRANCH  26  27
ATOM     27  C   UNL     1       0.498   1.448   0.408  1.00  0.00     0.230 C 
ATOM     28  C   UNL     1       0.792   0.074  -0.174  1.00  0.00     0.049 C 
ENDBRANCH  26  27
ENDBRANCH  24  26
ENDBRANCH  15  24
ENDBRANCH  12  14
ENDBRANCH   7  12
ENDBRANCH   3   6
ENDBRANCH   1   2
BRANCH   1  29
ATOM     29  C   UNL     1       2.665   1.273  -6.428  1.00  0.00     0.042 C 
BRANCH  29  30
ATOM     30  C   UNL     1       1.661   0.367  -7.121  1.00  0.00     0.118 C 
BRANCH  30  31
ATOM     31  N   UNL     1       0.363   0.358  -6.454  1.00  0.00    -0.352 N 
ATOM     32  C   UNL     1      -0.834   0.944  -6.794  1.00  0.00     0.251 C 
ATOM     33  H   UNL     1       0.340  -0.157  -5.615  1.00  0.00     0.163 HD
ATOM     34  O   UNL     1      -1.730   1.000  -5.955  1.00  0.00    -0.269 OA
BRANCH  32  35
ATOM     35  C   UNL     1      -1.043   1.519  -8.141  1.00  0.00     0.039 A 
ATOM     36  C   UNL     1      -1.788   2.695  -8.274  1.00  0.00     0.014 A 
ATOM     37  C   UNL     1      -0.535   0.891  -9.279  1.00  0.00     0.014 A 
ATOM     38  C   UNL     1      -1.947   3.279  -9.534  1.00  0.00     0.010 A 
ATOM     39  C   UNL     1      -0.605   1.526 -10.514  1.00  0.00     0.010 A 
ATOM     40  C   UNL     1      -1.314   2.726 -10.658  1.00  0.00    -0.014 A 
BRANCH  40  41
ATOM     41  C   UNL     1      -1.376   3.379 -11.993  1.00  0.00     0.031 A 
ATOM     42  C   UNL     1      -1.977   2.644 -13.163  1.00  0.00     0.074 A 
ATOM     43  C   UNL     1      -0.812   4.591 -12.169  1.00  0.00     0.049 A 
ATOM     44  N   UNL     1      -2.017   2.988 -14.424  1.00  0.00    -0.248 NA
ATOM     45  C   UNL     1      -2.583   1.333 -12.881  1.00  0.00     0.031 C 
ATOM     46  C   UNL     1      -0.157   5.379 -11.120  1.00  0.00     0.029 A 
ATOM     47  N   UNL     1      -0.678   5.368 -13.293  1.00  0.00    -0.354 N 
ATOM     48  C   UNL     1      -2.625   1.927 -15.089  1.00  0.00     0.074 A 
ATOM     49  C   UNL     1      -2.889   0.907 -14.098  1.00  0.00     0.031 C 
ATOM     50  C   UNL     1       0.290   6.529 -11.646  1.00  0.00     0.029 A 
ATOM     51  C   UNL     1       0.011   6.542 -13.077  1.00  0.00     0.049 A 
ATOM     52  H   UNL     1      -1.040   5.111 -14.171  1.00  0.00     0.167 HD
ATOM     53  C   UNL     1      -2.947   1.824 -16.402  1.00  0.00     0.034 A 
ATOM     54  C   UNL     1       0.396   7.505 -13.938  1.00  0.00     0.034 A 
ATOM     55  C   UNL     1      -2.697   2.864 -17.369  1.00  0.00     0.049 A 
ATOM     56  C   UNL     1       0.034   7.360 -15.396  1.00  0.00     0.074 A 
ATOM     57  C   UNL     1      -3.057   2.899 -18.705  1.00  0.00     0.029 A 
ATOM     58  N   UNL     1      -2.014   4.046 -17.111  1.00  0.00    -0.354 N 
ATOM     59  N   UNL     1      -0.606   6.381 -15.994  1.00  0.00    -0.248 NA
ATOM     60  C   UNL     1       0.434   8.452 -16.291  1.00  0.00     0.031 C 
ATOM     61  C   UNL     1      -2.520   4.059 -19.272  1.00  0.00     0.029 A 
ATOM     62  C   UNL     1      -1.905   4.795 -18.272  1.00  0.00     0.049 A 
ATOM     63  H   UNL     1      -1.659   4.312 -16.232  1.00  0.00     0.167 HD
ATOM     64  C   UNL     1      -0.710   6.757 -17.331  1.00  0.00     0.074 A 
ATOM     65  C   UNL     1      -0.087   8.059 -17.444  1.00  0.00     0.031 C 
ATOM     66  C   UNL     1      -1.271   6.089 -18.371  1.00  0.00     0.034 A 
BRANCH  53  67
ATOM     67  C   UNL     1      -3.574   0.533 -16.875  1.00  0.00     0.023 A 
ATOM     68  C   UNL     1      -4.826   0.097 -16.408  1.00  0.00     0.031 A 
ATOM     69  C   UNL     1      -2.906  -0.274 -17.814  1.00  0.00     0.131 A 
ATOM     70  C   UNL     1      -5.341  -1.138 -16.831  1.00  0.00     0.055 A 
ATOM     71  C   UNL     1      -3.461  -1.463 -18.292  1.00  0.00     0.041 A 
ATOM     72  F   UNL     1      -1.697   0.077 -18.279  1.00  0.00    -0.206 F 
ATOM     73  C   UNL     1      -4.680  -1.908 -17.791  1.00  0.00     0.022 A 
BRANCH  70  74
ATOM     74  S   UNL     1      -6.825  -1.786 -16.013  1.00  0.00     0.124 S 
ATOM     75  O   UNL     1      -6.387  -1.855 -14.621  1.00  0.00    -0.237 OA
ATOM     76  O   UNL     1      -7.824  -0.769 -16.319  1.00  0.00    -0.237 OA
ATOM     77  O   UNL     1      -7.034  -3.081 -16.657  1.00  0.00    -0.744 OA
ENDBRANCH  70  74
ENDBRANCH  53  67
BRANCH  54  78
ATOM     78  C   UNL     1       1.194   8.675 -13.464  1.00  0.00     0.023 A 
ATOM     79  C   UNL     1       0.700   9.985 -13.573  1.00  0.00     0.031 A 
ATOM     80  C   UNL     1       2.492   8.505 -12.949  1.00  0.00     0.131 A 
ATOM     81  C   UNL     1       1.517  11.073 -13.230  1.00  0.00     0.055 A 
ATOM     82  C   UNL     1       3.277   9.587 -12.549  1.00  0.00     0.041 A 
ATOM     83  F   UNL     1       3.017   7.276 -12.819  1.00  0.00    -0.206 F 
ATOM     84  C   UNL     1       2.797  10.883 -12.704  1.00  0.00     0.022 A 
BRANCH  81  85
ATOM     85  S   UNL     1       0.925  12.751 -13.587  1.00  0.00     0.124 S 
ATOM     86  O   UNL     1       0.658  12.672 -15.019  1.00  0.00    -0.237 OA
ATOM     87  O   UNL     1      -0.244  12.849 -12.719  1.00  0.00    -0.237 OA
ATOM     88  O   UNL     1       2.054  13.597 -13.207  1.00  0.00    -0.744 OA
ENDBRANCH  81  85
ENDBRANCH  54  78
BRANCH  66  89
ATOM     89  C   UNL     1      -1.274   6.783 -19.712  1.00  0.00     0.023 A 
ATOM     90  C   UNL     1      -0.084   7.061 -20.406  1.00  0.00     0.031 A 
ATOM     91  C   UNL     1      -2.490   7.179 -20.299  1.00  0.00     0.131 A 
ATOM     92  C   UNL     1      -0.131   7.768 -21.617  1.00  0.00     0.055 A 
ATOM     93  C   UNL     1      -2.534   7.819 -21.538  1.00  0.00     0.041 A 
ATOM     94  F   UNL     1      -3.657   6.943 -19.679  1.00  0.00    -0.206 F 
ATOM     95  C   UNL     1      -1.349   8.131 -22.197  1.00  0.00     0.022 A 
BRANCH  92  96
ATOM     96  S   UNL     1       1.429   8.300 -22.374  1.00  0.00     0.124 S 
ATOM     97  O   UNL     1       2.020   9.110 -21.313  1.00  0.00    -0.237 OA
ATOM     98  O   UNL     1       2.092   7.030 -22.650  1.00  0.00    -0.237 OA
ATOM     99  O   UNL     1       1.000   9.044 -23.557  1.00  0.00    -0.744 OA
ENDBRANCH  92  96
ENDBRANCH  66  89
ENDBRANCH  40  41
ENDBRANCH  32  35
ENDBRANCH  30  31
ENDBRANCH  29  30
ENDBRANCH   1  29
TORSDOF 18
