REMARK SMILES C[C@@H]1C[N@@H+](C[C@]2(C(=O)NCCCNC(=O)c3ccc(-c4c5nc(c(-c6cc(S(=O)(=O)[O-])ccc6F)c6ccc([nH]6)c(-c6cc(S(=O)(=O)[O-])ccc6F)c6nc(c(-c7cc(S(=O)(=O)[O-])ccc7F)c7ccc4[nH]7)C=C6)C=C5)cc3)CCOC2)C[C@@H]1C
REMARK SMILES IDX 11 1 10 2 9 3 7 4 8 5 6 7 79 8 82 9 80 10 81 11 5 12 4 13
REMARK SMILES IDX 1 14 2 15 3 16 84 17 83 18 85 19 12 21 13 22 14 23 15 25
REMARK SMILES IDX 16 26 17 27 78 28 18 29 77 30 19 31 20 32 21 33 71 34 22 35
REMARK SMILES IDX 76 36 70 37 72 38 23 39 75 40 69 41 68 42 24 44 56 45 36 46
REMARK SMILES IDX 55 47 37 48 40 49 54 50 73 51 38 52 39 53 53 55 74 56 41 57
REMARK SMILES IDX 25 58 26 59 34 60 27 61 33 62 35 63 32 64 28 65 29 66 30 67
REMARK SMILES IDX 31 68 57 69 58 70 66 71 59 72 65 73 67 74 64 75 60 76 61 77
REMARK SMILES IDX 62 78 63 79 42 80 43 81 51 82 44 83 50 84 52 85 49 86 45 87
REMARK SMILES IDX 46 88 47 89 48 90
REMARK H PARENT 9 6 4 20 13 24 72 43 40 54
REMARK Flexibility Score: inf
ROOT
ATOM      1  C   UNL     1      -0.494   7.418   2.143  1.00  0.00     0.042 C 
ENDROOT
BRANCH   1   2
ATOM      2  C   UNL     1      -1.218   6.825   0.950  1.00  0.00     0.117 C 
BRANCH   2   3
ATOM      3  N   UNL     1      -0.361   6.053   0.062  1.00  0.00    -0.355 N 
ATOM      4  C   UNL     1      -0.515   4.805  -0.470  1.00  0.00     0.234 C 
ATOM      5  O   UNL     1       0.278   4.483  -1.358  1.00  0.00    -0.274 OA
ATOM      6  H   UNL     1       0.471   6.508  -0.199  1.00  0.00     0.163 HD
BRANCH   4   7
ATOM      7  C   UNL     1      -1.620   3.858   0.025  1.00  0.00     0.123 C 
ATOM      8  C   UNL     1      -1.431   2.458  -0.578  1.00  0.00     0.054 C 
ATOM      9  C   UNL     1      -1.325   3.558   1.495  1.00  0.00     0.183 C 
ATOM     10  C   UNL     1      -1.807   1.500   0.526  1.00  0.00     0.161 C 
ATOM     11  O   UNL     1      -1.611   2.178   1.764  1.00  0.00    -0.380 OA
BRANCH   7  12
ATOM     12  C   UNL     1      -2.996   4.475  -0.391  1.00  0.00     0.281 C 
BRANCH  12  13
ATOM     13  N   UNL     1      -4.280   4.074   0.154  1.00  0.00    -0.333 N 
ATOM     14  C   UNL     1      -5.693   2.733   3.315  1.00  0.00     0.014 C 
ATOM     15  C   UNL     1      -4.974   2.808   1.980  1.00  0.00     0.049 C 
ATOM     16  C   UNL     1      -4.590   4.220   1.563  1.00  0.00     0.265 C 
ATOM     17  C   UNL     1      -5.723   2.277   0.748  1.00  0.00     0.049 C 
ATOM     18  C   UNL     1      -4.974   2.937  -0.421  1.00  0.00     0.265 C 
ATOM     19  C   UNL     1      -7.211   2.623   0.725  1.00  0.00     0.014 C 
ATOM     20  H   UNL     1      -4.679   4.916  -0.259  1.00  0.00     0.348 HD
ENDBRANCH  12  13
ENDBRANCH   7  12
ENDBRANCH   4   7
ENDBRANCH   2   3
ENDBRANCH   1   2
BRANCH   1  21
ATOM     21  C   UNL     1       0.692   8.301   1.794  1.00  0.00     0.118 C 
BRANCH  21  22
ATOM     22  N   UNL     1       0.337   9.448   0.972  1.00  0.00    -0.352 N 
ATOM     23  C   UNL     1       0.457  10.796   1.221  1.00  0.00     0.251 C 
ATOM     24  H   UNL     1      -0.052   9.224   0.096  1.00  0.00     0.163 HD
ATOM     25  O   UNL     1      -0.049  11.594   0.440  1.00  0.00    -0.269 OA
BRANCH  23  26
ATOM     26  C   UNL     1       1.151  11.279   2.439  1.00  0.00     0.039 A 
ATOM     27  C   UNL     1       0.625  12.379   3.122  1.00  0.00     0.014 A 
ATOM     28  C   UNL     1       2.309  10.660   2.914  1.00  0.00     0.014 A 
ATOM     29  C   UNL     1       1.214  12.799   4.317  1.00  0.00     0.010 A 
ATOM     30  C   UNL     1       2.823  11.005   4.161  1.00  0.00     0.010 A 
ATOM     31  C   UNL     1       2.289  12.086   4.875  1.00  0.00    -0.014 A 
BRANCH  31  32
ATOM     32  C   UNL     1       2.873  12.474   6.188  1.00  0.00     0.031 A 
ATOM     33  C   UNL     1       4.321  12.881   6.283  1.00  0.00     0.074 A 
ATOM     34  C   UNL     1       2.108  12.432   7.298  1.00  0.00     0.049 A 
ATOM     35  N   UNL     1       5.016  13.224   7.337  1.00  0.00    -0.248 NA
ATOM     36  C   UNL     1       5.097  12.874   5.033  1.00  0.00     0.031 C 
ATOM     37  C   UNL     1       0.704  12.014   7.343  1.00  0.00     0.029 A 
ATOM     38  N   UNL     1       2.396  12.753   8.602  1.00  0.00    -0.354 N 
ATOM     39  C   UNL     1       6.304  13.477   6.877  1.00  0.00     0.074 A 
ATOM     40  C   UNL     1       6.314  13.161   5.466  1.00  0.00     0.031 C 
ATOM     41  C   UNL     1       0.242  12.153   8.596  1.00  0.00     0.029 A 
ATOM     42  C   UNL     1       1.325  12.616   9.457  1.00  0.00     0.049 A 
ATOM     43  H   UNL     1       3.285  13.052   8.898  1.00  0.00     0.167 HD
ATOM     44  C   UNL     1       7.371  13.967   7.556  1.00  0.00     0.034 A 
ATOM     45  C   UNL     1       1.229  12.838  10.783  1.00  0.00     0.034 A 
ATOM     46  C   UNL     1       7.349  14.284   8.963  1.00  0.00     0.049 A 
ATOM     47  C   UNL     1       2.448  13.331  11.526  1.00  0.00     0.074 A 
ATOM     48  C   UNL     1       8.366  14.801   9.746  1.00  0.00     0.029 A 
ATOM     49  N   UNL     1       6.253  14.113   9.799  1.00  0.00    -0.354 N 
ATOM     50  N   UNL     1       3.646  13.606  11.062  1.00  0.00    -0.248 NA
ATOM     51  C   UNL     1       2.295  13.558  12.968  1.00  0.00     0.031 C 
ATOM     52  C   UNL     1       7.907  14.880  11.065  1.00  0.00     0.029 A 
ATOM     53  C   UNL     1       6.578  14.493  11.092  1.00  0.00     0.049 A 
ATOM     54  H   UNL     1       5.374  13.773   9.515  1.00  0.00     0.167 HD
ATOM     55  C   UNL     1       4.373  14.080  12.152  1.00  0.00     0.074 A 
ATOM     56  C   UNL     1       3.472  14.075  13.284  1.00  0.00     0.031 C 
ATOM     57  C   UNL     1       5.668  14.483  12.213  1.00  0.00     0.034 A 
BRANCH  44  58
ATOM     58  C   UNL     1       8.648  14.185   6.779  1.00  0.00     0.023 A 
ATOM     59  C   UNL     1       8.709  15.100   5.712  1.00  0.00     0.031 A 
ATOM     60  C   UNL     1       9.814  13.466   7.093  1.00  0.00     0.131 A 
ATOM     61  C   UNL     1       9.883  15.219   4.955  1.00  0.00     0.055 A 
ATOM     62  C   UNL     1      11.006  13.652   6.390  1.00  0.00     0.041 A 
ATOM     63  F   UNL     1       9.813  12.562   8.086  1.00  0.00    -0.206 F 
ATOM     64  C   UNL     1      11.042  14.522   5.304  1.00  0.00     0.022 A 
BRANCH  61  65
ATOM     65  S   UNL     1       9.831  16.190   3.425  1.00  0.00     0.124 S 
ATOM     66  O   UNL     1       8.805  15.482   2.662  1.00  0.00    -0.237 OA
ATOM     67  O   UNL     1       9.467  17.518   3.905  1.00  0.00    -0.237 OA
ATOM     68  O   UNL     1      11.187  16.067   2.894  1.00  0.00    -0.744 OA
ENDBRANCH  61  65
ENDBRANCH  44  58
BRANCH  45  69
ATOM     69  C   UNL     1      -0.054  12.602  11.512  1.00  0.00     0.023 A 
ATOM     70  C   UNL     1      -0.696  13.648  12.194  1.00  0.00     0.031 A 
ATOM     71  C   UNL     1      -0.610  11.314  11.613  1.00  0.00     0.131 A 
ATOM     72  C   UNL     1      -1.808  13.377  13.008  1.00  0.00     0.055 A 
ATOM     73  C   UNL     1      -1.760  11.063  12.366  1.00  0.00     0.041 A 
ATOM     74  F   UNL     1      -0.041  10.275  10.982  1.00  0.00    -0.206 F 
ATOM     75  C   UNL     1      -2.353  12.095  13.086  1.00  0.00     0.022 A 
BRANCH  72  76
ATOM     76  S   UNL     1      -2.444  14.703  14.071  1.00  0.00     0.124 S 
ATOM     77  O   UNL     1      -1.251  15.078  14.821  1.00  0.00    -0.237 OA
ATOM     78  O   UNL     1      -2.920  15.674  13.091  1.00  0.00    -0.237 OA
ATOM     79  O   UNL     1      -3.490  14.040  14.849  1.00  0.00    -0.744 OA
ENDBRANCH  72  76
ENDBRANCH  45  69
BRANCH  57  80
ATOM     80  C   UNL     1       6.160  15.006  13.542  1.00  0.00     0.023 A 
ATOM     81  C   UNL     1       6.233  14.186  14.681  1.00  0.00     0.031 A 
ATOM     82  C   UNL     1       6.532  16.356  13.676  1.00  0.00     0.131 A 
ATOM     83  C   UNL     1       6.593  14.739  15.919  1.00  0.00     0.055 A 
ATOM     84  C   UNL     1       6.961  16.884  14.895  1.00  0.00     0.041 A 
ATOM     85  F   UNL     1       6.481  17.188  12.623  1.00  0.00    -0.206 F 
ATOM     86  C   UNL     1       6.975  16.078  16.029  1.00  0.00     0.022 A 
BRANCH  83  87
ATOM     87  S   UNL     1       6.435  13.714  17.407  1.00  0.00     0.124 S 
ATOM     88  O   UNL     1       5.028  13.329  17.363  1.00  0.00    -0.237 OA
ATOM     89  O   UNL     1       7.396  12.645  17.152  1.00  0.00    -0.237 OA
ATOM     90  O   UNL     1       6.796  14.625  18.492  1.00  0.00    -0.744 OA
ENDBRANCH  83  87
ENDBRANCH  57  80
ENDBRANCH  31  32
ENDBRANCH  23  26
ENDBRANCH  21  22
ENDBRANCH   1  21
TORSDOF 15
