REMARK SMILES C[C@H]1CC[C@@H]([C@H](C(=O)NCCCNC(=O)c2ccc(-c3c4nc(c(-c5cc(S(=O)(=O)[O-])ccc5F)c5ccc([nH]5)c(-c5cc(S(=O)(=O)[O-])ccc5F)c5nc(c(-c6cc(S(=O)(=O)[O-])ccc6F)c6ccc3[nH]6)C=C5)C=C4)cc2)[C@@H]2CCS(=O)(=O)C2)C[C@@H]1C
REMARK SMILES IDX 12 1 11 2 10 3 9 4 7 5 8 6 6 8 5 9 1 10 2 11 3 12 87 13 4 14
REMARK SMILES IDX 86 15 88 16 79 17 80 18 85 19 81 20 82 21 83 22 84 23 13 24
REMARK SMILES IDX 14 25 15 27 16 28 17 29 78 30 18 31 77 32 19 33 20 34 21 35
REMARK SMILES IDX 71 36 22 37 76 38 70 39 72 40 23 41 75 42 69 43 68 44 24 46
REMARK SMILES IDX 56 47 36 48 55 49 37 50 40 51 54 52 73 53 38 54 39 55 53 57
REMARK SMILES IDX 74 58 41 59 25 60 26 61 34 62 27 63 33 64 35 65 32 66 28 67
REMARK SMILES IDX 29 68 30 69 31 70 57 71 58 72 66 73 59 74 65 75 67 76 64 77
REMARK SMILES IDX 60 78 61 79 62 80 63 81 42 82 43 83 51 84 44 85 50 86 52 87
REMARK SMILES IDX 49 88 45 89 46 90 47 91 48 92
REMARK H PARENT 9 7 13 26 72 45 40 56
REMARK Flexibility Score: inf
ROOT
ATOM      1  C   UNL     1       5.210  -6.778   0.401  1.00  0.00     0.118 C 
ENDROOT
BRANCH   1   2
ATOM      2  C   UNL     1       3.765  -6.366   0.640  1.00  0.00     0.042 C 
BRANCH   2   3
ATOM      3  C   UNL     1       3.322  -5.175  -0.180  1.00  0.00     0.117 C 
BRANCH   3   4
ATOM      4  N   UNL     1       3.317  -5.378  -1.621  1.00  0.00    -0.356 N 
ATOM      5  C   UNL     1       2.696  -4.653  -2.600  1.00  0.00     0.223 C 
ATOM      6  O   UNL     1       3.047  -4.880  -3.761  1.00  0.00    -0.275 OA
ATOM      7  H   UNL     1       3.838  -6.151  -1.938  1.00  0.00     0.163 HD
BRANCH   5   8
ATOM      8  C   UNL     1       1.569  -3.618  -2.273  1.00  0.00     0.085 C 
BRANCH   8   9
ATOM      9  C   UNL     1       2.164  -2.519  -1.309  1.00  0.00     0.002 C 
ATOM     10  C   UNL     1      -0.417   0.952  -1.272  1.00  0.00     0.008 C 
ATOM     11  C   UNL     1       0.777   0.093  -0.828  1.00  0.00    -0.011 C 
ATOM     12  C   UNL     1       0.248  -1.230  -0.244  1.00  0.00     0.004 C 
ATOM     13  C   UNL     1       1.821  -0.029  -1.976  1.00  0.00    -0.011 C 
ATOM     14  C   UNL     1       1.316  -2.282  -0.056  1.00  0.00     0.005 C 
ATOM     15  C   UNL     1       2.771  -1.215  -1.831  1.00  0.00     0.008 C 
ATOM     16  C   UNL     1       2.612   1.275  -2.151  1.00  0.00     0.008 C 
ENDBRANCH   8   9
BRANCH   8  17
ATOM     17  C   UNL     1       0.914  -3.161  -3.631  1.00  0.00     0.018 C 
ATOM     18  C   UNL     1      -0.196  -2.102  -3.601  1.00  0.00     0.021 C 
ATOM     19  C   UNL     1       0.275  -4.316  -4.444  1.00  0.00     0.141 C 
ATOM     20  C   UNL     1      -1.578  -2.705  -3.448  1.00  0.00     0.137 C 
ATOM     21  S   UNL     1      -1.465  -4.356  -4.050  1.00  0.00     0.150 S 
ATOM     22  O   UNL     1      -1.674  -5.249  -2.926  1.00  0.00    -0.229 OA
ATOM     23  O   UNL     1      -2.235  -4.451  -5.271  1.00  0.00    -0.229 OA
ENDBRANCH   8  17
ENDBRANCH   5   8
ENDBRANCH   3   4
ENDBRANCH   2   3
ENDBRANCH   1   2
BRANCH   1  24
ATOM     24  N   UNL     1       6.197  -5.775   0.799  1.00  0.00    -0.352 N 
ATOM     25  C   UNL     1       7.093  -5.748   1.847  1.00  0.00     0.251 C 
ATOM     26  H   UNL     1       6.228  -4.981   0.218  1.00  0.00     0.163 HD
ATOM     27  O   UNL     1       7.754  -4.732   2.049  1.00  0.00    -0.269 OA
BRANCH  25  28
ATOM     28  C   UNL     1       7.220  -6.911   2.753  1.00  0.00     0.039 A 
ATOM     29  C   UNL     1       7.333  -6.704   4.130  1.00  0.00     0.014 A 
ATOM     30  C   UNL     1       7.179  -8.209   2.251  1.00  0.00     0.014 A 
ATOM     31  C   UNL     1       7.278  -7.798   5.000  1.00  0.00     0.010 A 
ATOM     32  C   UNL     1       6.969  -9.274   3.115  1.00  0.00     0.010 A 
ATOM     33  C   UNL     1       7.025  -9.087   4.503  1.00  0.00    -0.014 A 
BRANCH  33  34
ATOM     34  C   UNL     1       6.835 -10.259   5.401  1.00  0.00     0.031 A 
ATOM     35  C   UNL     1       7.715 -11.473   5.241  1.00  0.00     0.074 A 
ATOM     36  C   UNL     1       5.825 -10.268   6.294  1.00  0.00     0.049 A 
ATOM     37  N   UNL     1       7.640 -12.636   5.835  1.00  0.00    -0.248 NA
ATOM     38  C   UNL     1       8.792 -11.381   4.243  1.00  0.00     0.031 C 
ATOM     39  C   UNL     1       4.866  -9.180   6.501  1.00  0.00     0.029 A 
ATOM     40  N   UNL     1       5.426 -11.230   7.190  1.00  0.00    -0.354 N 
ATOM     41  C   UNL     1       8.644 -13.415   5.268  1.00  0.00     0.074 A 
ATOM     42  C   UNL     1       9.246 -12.623   4.220  1.00  0.00     0.031 C 
ATOM     43  C   UNL     1       4.017  -9.519   7.484  1.00  0.00     0.029 A 
ATOM     44  C   UNL     1       4.328 -10.870   7.938  1.00  0.00     0.049 A 
ATOM     45  H   UNL     1       5.883 -12.096   7.288  1.00  0.00     0.167 HD
ATOM     46  C   UNL     1       9.053 -14.660   5.614  1.00  0.00     0.034 A 
ATOM     47  C   UNL     1       3.638 -11.556   8.872  1.00  0.00     0.034 A 
ATOM     48  C   UNL     1       8.449 -15.428   6.675  1.00  0.00     0.049 A 
ATOM     49  C   UNL     1       4.092 -12.950   9.227  1.00  0.00     0.074 A 
ATOM     50  C   UNL     1       8.813 -16.675   7.151  1.00  0.00     0.029 A 
ATOM     51  N   UNL     1       7.347 -15.024   7.420  1.00  0.00    -0.354 N 
ATOM     52  N   UNL     1       5.084 -13.650   8.723  1.00  0.00    -0.248 NA
ATOM     53  C   UNL     1       3.345 -13.641  10.285  1.00  0.00     0.031 C 
ATOM     54  C   UNL     1       7.886 -17.058   8.125  1.00  0.00     0.029 A 
ATOM     55  C   UNL     1       6.997 -16.013   8.326  1.00  0.00     0.049 A 
ATOM     56  H   UNL     1       6.883 -14.162   7.318  1.00  0.00     0.167 HD
ATOM     57  C   UNL     1       5.095 -14.852   9.426  1.00  0.00     0.074 A 
ATOM     58  C   UNL     1       4.025 -14.772  10.398  1.00  0.00     0.031 C 
ATOM     59  C   UNL     1       5.918 -15.923   9.284  1.00  0.00     0.034 A 
BRANCH  46  60
ATOM     60  C   UNL     1      10.192 -15.261   4.822  1.00  0.00     0.023 A 
ATOM     61  C   UNL     1      11.457 -14.646   4.765  1.00  0.00     0.031 A 
ATOM     62  C   UNL     1      10.003 -16.435   4.072  1.00  0.00     0.131 A 
ATOM     63  C   UNL     1      12.443 -15.146   3.902  1.00  0.00     0.055 A 
ATOM     64  C   UNL     1      11.023 -16.985   3.293  1.00  0.00     0.041 A 
ATOM     65  F   UNL     1       8.814 -17.058   4.065  1.00  0.00    -0.206 F 
ATOM     66  C   UNL     1      12.246 -16.329   3.188  1.00  0.00     0.022 A 
BRANCH  63  67
ATOM     67  S   UNL     1      13.913 -14.129   3.591  1.00  0.00     0.124 S 
ATOM     68  O   UNL     1      13.314 -12.894   3.088  1.00  0.00    -0.237 OA
ATOM     69  O   UNL     1      14.527 -14.049   4.911  1.00  0.00    -0.237 OA
ATOM     70  O   UNL     1      14.659 -14.899   2.599  1.00  0.00    -0.744 OA
ENDBRANCH  63  67
ENDBRANCH  46  60
BRANCH  47  71
ATOM     71  C   UNL     1       2.441 -10.949   9.525  1.00  0.00     0.023 A 
ATOM     72  C   UNL     1       2.417 -10.687  10.904  1.00  0.00     0.031 A 
ATOM     73  C   UNL     1       1.284 -10.652   8.780  1.00  0.00     0.131 A 
ATOM     74  C   UNL     1       1.248 -10.189  11.503  1.00  0.00     0.055 A 
ATOM     75  C   UNL     1       0.145 -10.102   9.370  1.00  0.00     0.041 A 
ATOM     76  F   UNL     1       1.251 -10.880   7.457  1.00  0.00    -0.206 F 
ATOM     77  C   UNL     1       0.118  -9.880  10.743  1.00  0.00     0.022 A 
BRANCH  74  78
ATOM     78  S   UNL     1       1.193 -10.036  13.310  1.00  0.00     0.124 S 
ATOM     79  O   UNL     1       1.468 -11.405  13.732  1.00  0.00    -0.237 OA
ATOM     80  O   UNL     1       2.249  -9.061  13.564  1.00  0.00    -0.237 OA
ATOM     81  O   UNL     1      -0.165  -9.563  13.570  1.00  0.00    -0.744 OA
ENDBRANCH  74  78
ENDBRANCH  47  71
BRANCH  59  82
ATOM     82  C   UNL     1       5.720 -17.076  10.238  1.00  0.00     0.023 A 
ATOM     83  C   UNL     1       4.548 -17.852  10.234  1.00  0.00     0.031 A 
ATOM     84  C   UNL     1       6.723 -17.399  11.171  1.00  0.00     0.131 A 
ATOM     85  C   UNL     1       4.383 -18.873  11.182  1.00  0.00     0.055 A 
ATOM     86  C   UNL     1       6.583 -18.462  12.063  1.00  0.00     0.041 A 
ATOM     87  F   UNL     1       7.862 -16.690  11.224  1.00  0.00    -0.206 F 
ATOM     88  C   UNL     1       5.401 -19.197  12.082  1.00  0.00     0.022 A 
BRANCH  85  89
ATOM     89  S   UNL     1       2.775 -19.704  11.294  1.00  0.00     0.124 S 
ATOM     90  O   UNL     1       1.874 -18.585  11.552  1.00  0.00    -0.237 OA
ATOM     91  O   UNL     1       2.655 -20.330   9.981  1.00  0.00    -0.237 OA
ATOM     92  O   UNL     1       2.946 -20.633  12.410  1.00  0.00    -0.744 OA
ENDBRANCH  85  89
ENDBRANCH  59  82
ENDBRANCH  33  34
ENDBRANCH  25  28
ENDBRANCH   1  24
TORSDOF 15
