REMARK SMILES Cc1ccccc1Sc1cncc(C(=O)NCCCNC(=O)c2ccc(-c3c4nc(c(-c5cc(S(=O)(=O)[O-])ccc5F)c5ccc([nH]5)c(-c5cc(S(=O)(=O)[O-])ccc5F)c5nc(c(-c6cc(S(=O)(=O)[O-])ccc6F)c6ccc3[nH]6)C=C5)C=C4)cc2)n1
REMARK SMILES IDX 18 1 17 2 16 3 14 4 15 5 13 7 9 8 10 9 86 10 11 11 12 12
REMARK SMILES IDX 8 13 7 14 1 15 2 16 3 17 4 18 6 19 5 20 19 21 20 22 21 23
REMARK SMILES IDX 22 25 23 26 24 27 85 28 25 29 84 30 26 31 27 32 28 33 78 34
REMARK SMILES IDX 29 35 83 36 77 37 79 38 30 39 82 40 76 41 75 42 31 44 63 45
REMARK SMILES IDX 43 46 62 47 44 48 47 49 61 50 80 51 45 52 46 53 60 55 81 56
REMARK SMILES IDX 48 57 32 58 33 59 41 60 34 61 40 62 42 63 39 64 35 65 36 66
REMARK SMILES IDX 37 67 38 68 64 69 65 70 73 71 66 72 72 73 74 74 71 75 67 76
REMARK SMILES IDX 68 77 69 78 70 79 49 80 50 81 58 82 51 83 57 84 59 85 56 86
REMARK SMILES IDX 52 87 53 88 54 89 55 90
REMARK H PARENT 16 6 20 24 79 43 47 54
REMARK Flexibility Score: inf
ROOT
ATOM      1  C   UNL     1       2.912   4.109   3.457  1.00  0.00     0.042 C 
ENDROOT
BRANCH   1   2
ATOM      2  C   UNL     1       4.030   4.837   2.710  1.00  0.00     0.118 C 
BRANCH   2   3
ATOM      3  N   UNL     1       5.279   4.079   2.725  1.00  0.00    -0.351 N 
ATOM      4  C   UNL     1       5.758   3.156   1.820  1.00  0.00     0.271 C 
ATOM      5  O   UNL     1       6.889   2.690   1.962  1.00  0.00    -0.267 OA
ATOM      6  H   UNL     1       5.867   4.254   3.495  1.00  0.00     0.163 HD
BRANCH   4   7
ATOM      7  C   UNL     1       4.954   2.711   0.648  1.00  0.00     0.147 A 
ATOM      8  C   UNL     1       2.933   2.398  -0.411  1.00  0.00     0.120 A 
ATOM      9  C   UNL     1       3.609   1.947  -1.541  1.00  0.00     0.146 A 
ATOM     10  N   UNL     1       3.601   2.788   0.698  1.00  0.00    -0.233 NA
ATOM     11  N   UNL     1       4.958   1.812  -1.592  1.00  0.00    -0.259 NA
ATOM     12  C   UNL     1       5.614   2.207  -0.467  1.00  0.00     0.145 A 
BRANCH   8  13
ATOM     13  S   UNL     1       1.188   2.606  -0.373  1.00  0.00    -0.068 SA
BRANCH  13  14
ATOM     14  C   UNL     1       0.399   1.013  -0.158  1.00  0.00     0.017 A 
ATOM     15  C   UNL     1       2.412  -0.528   0.356  1.00  0.00     0.045 C 
ATOM     16  C   UNL     1       0.952  -0.252   0.128  1.00  0.00    -0.037 A 
ATOM     17  C   UNL     1       0.093  -1.372   0.211  1.00  0.00     0.004 A 
ATOM     18  C   UNL     1      -1.288  -1.252   0.068  1.00  0.00     0.000 A 
ATOM     19  C   UNL     1      -1.006   1.106  -0.284  1.00  0.00     0.016 A 
ATOM     20  C   UNL     1      -1.841  -0.006  -0.168  1.00  0.00     0.001 A 
ENDBRANCH  13  14
ENDBRANCH   8  13
ENDBRANCH   4   7
ENDBRANCH   2   3
ENDBRANCH   1   2
BRANCH   1  21
ATOM     21  C   UNL     1       2.970   4.343   4.962  1.00  0.00     0.118 C 
BRANCH  21  22
ATOM     22  N   UNL     1       2.020   5.341   5.463  1.00  0.00    -0.352 N 
ATOM     23  C   UNL     1       1.891   5.882   6.732  1.00  0.00     0.251 C 
ATOM     24  H   UNL     1       1.378   5.678   4.797  1.00  0.00     0.163 HD
ATOM     25  O   UNL     1       0.997   6.639   7.005  1.00  0.00    -0.269 OA
BRANCH  23  26
ATOM     26  C   UNL     1       2.943   5.580   7.737  1.00  0.00     0.039 A 
ATOM     27  C   UNL     1       3.554   6.655   8.399  1.00  0.00     0.014 A 
ATOM     28  C   UNL     1       3.455   4.290   7.873  1.00  0.00     0.014 A 
ATOM     29  C   UNL     1       4.797   6.473   8.998  1.00  0.00     0.010 A 
ATOM     30  C   UNL     1       4.731   4.130   8.376  1.00  0.00     0.010 A 
ATOM     31  C   UNL     1       5.426   5.232   8.883  1.00  0.00    -0.014 A 
BRANCH  31  32
ATOM     32  C   UNL     1       6.853   5.036   9.123  1.00  0.00     0.031 A 
ATOM     33  C   UNL     1       7.332   4.260  10.292  1.00  0.00     0.074 A 
ATOM     34  C   UNL     1       7.759   5.511   8.237  1.00  0.00     0.049 A 
ATOM     35  N   UNL     1       8.467   4.457  10.876  1.00  0.00    -0.248 NA
ATOM     36  C   UNL     1       6.549   3.197  10.916  1.00  0.00     0.031 C 
ATOM     37  C   UNL     1       9.187   5.190   8.200  1.00  0.00     0.029 A 
ATOM     38  N   UNL     1       7.646   6.476   7.245  1.00  0.00    -0.354 N 
ATOM     39  C   UNL     1       8.705   3.381  11.702  1.00  0.00     0.074 A 
ATOM     40  C   UNL     1       7.445   2.676  11.762  1.00  0.00     0.031 C 
ATOM     41  C   UNL     1       9.826   6.148   7.510  1.00  0.00     0.029 A 
ATOM     42  C   UNL     1       8.852   7.181   7.218  1.00  0.00     0.049 A 
ATOM     43  H   UNL     1       6.862   6.635   6.670  1.00  0.00     0.167 HD
ATOM     44  C   UNL     1       9.977   3.107  12.113  1.00  0.00     0.034 A 
ATOM     45  C   UNL     1       9.001   8.504   7.527  1.00  0.00     0.034 A 
ATOM     46  C   UNL     1      10.942   4.062  11.566  1.00  0.00     0.049 A 
ATOM     47  C   UNL     1      10.016   8.748   8.630  1.00  0.00     0.074 A 
ATOM     48  C   UNL     1      11.842   3.975  10.516  1.00  0.00     0.029 A 
ATOM     49  N   UNL     1      10.899   5.401  11.937  1.00  0.00    -0.354 N 
ATOM     50  N   UNL     1      10.428   7.825   9.454  1.00  0.00    -0.248 NA
ATOM     51  C   UNL     1      10.625  10.046   8.912  1.00  0.00     0.031 C 
ATOM     52  C   UNL     1      12.323   5.278  10.239  1.00  0.00     0.029 A 
ATOM     53  C   UNL     1      11.732   6.154  11.131  1.00  0.00     0.049 A 
ATOM     54  H   UNL     1      10.352   5.762  12.672  1.00  0.00     0.167 HD
ATOM     55  C   UNL     1      11.320   8.358  10.351  1.00  0.00     0.074 A 
ATOM     56  C   UNL     1      11.419   9.752   9.959  1.00  0.00     0.031 C 
ATOM     57  C   UNL     1      11.886   7.590  11.335  1.00  0.00     0.034 A 
BRANCH  44  58
ATOM     58  C   UNL     1      10.406   1.788  12.728  1.00  0.00     0.023 A 
ATOM     59  C   UNL     1      11.728   1.333  12.531  1.00  0.00     0.031 A 
ATOM     60  C   UNL     1       9.582   0.926  13.475  1.00  0.00     0.131 A 
ATOM     61  C   UNL     1      12.138   0.050  12.936  1.00  0.00     0.055 A 
ATOM     62  C   UNL     1       9.969  -0.375  13.832  1.00  0.00     0.041 A 
ATOM     63  F   UNL     1       8.389   1.321  13.940  1.00  0.00    -0.206 F 
ATOM     64  C   UNL     1      11.248  -0.827  13.546  1.00  0.00     0.022 A 
BRANCH  61  65
ATOM     65  S   UNL     1      13.858  -0.453  12.655  1.00  0.00     0.124 S 
ATOM     66  O   UNL     1      13.982  -0.339  11.205  1.00  0.00    -0.237 OA
ATOM     67  O   UNL     1      14.598   0.524  13.446  1.00  0.00    -0.237 OA
ATOM     68  O   UNL     1      13.900  -1.820  13.171  1.00  0.00    -0.744 OA
ENDBRANCH  61  65
ENDBRANCH  44  58
BRANCH  45  69
ATOM     69  C   UNL     1       7.792   9.334   7.285  1.00  0.00     0.023 A 
ATOM     70  C   UNL     1       7.323   9.422   5.960  1.00  0.00     0.031 A 
ATOM     71  C   UNL     1       6.914   9.684   8.320  1.00  0.00     0.131 A 
ATOM     72  C   UNL     1       5.971   9.691   5.707  1.00  0.00     0.055 A 
ATOM     73  C   UNL     1       5.576  10.006   8.059  1.00  0.00     0.041 A 
ATOM     74  F   UNL     1       7.296   9.593   9.602  1.00  0.00    -0.206 F 
ATOM     75  C   UNL     1       5.088   9.970   6.751  1.00  0.00     0.022 A 
BRANCH  72  76
ATOM     76  S   UNL     1       5.346   9.412   4.023  1.00  0.00     0.124 S 
ATOM     77  O   UNL     1       5.832  10.592   3.318  1.00  0.00    -0.237 OA
ATOM     78  O   UNL     1       5.977   8.144   3.664  1.00  0.00    -0.237 OA
ATOM     79  O   UNL     1       3.898   9.335   4.202  1.00  0.00    -0.744 OA
ENDBRANCH  72  76
ENDBRANCH  45  69
BRANCH  57  80
ATOM     80  C   UNL     1      12.722   8.075  12.508  1.00  0.00     0.023 A 
ATOM     81  C   UNL     1      12.853   9.423  12.870  1.00  0.00     0.031 A 
ATOM     82  C   UNL     1      13.382   7.154  13.364  1.00  0.00     0.131 A 
ATOM     83  C   UNL     1      13.654   9.816  13.961  1.00  0.00     0.055 A 
ATOM     84  C   UNL     1      14.120   7.541  14.487  1.00  0.00     0.041 A 
ATOM     85  F   UNL     1      13.330   5.830  13.159  1.00  0.00    -0.206 F 
ATOM     86  C   UNL     1      14.274   8.883  14.785  1.00  0.00     0.022 A 
BRANCH  83  87
ATOM     87  S   UNL     1      13.909  11.588  14.243  1.00  0.00     0.124 S 
ATOM     88  O   UNL     1      14.565  12.000  13.005  1.00  0.00    -0.237 OA
ATOM     89  O   UNL     1      12.546  12.075  14.430  1.00  0.00    -0.237 OA
ATOM     90  O   UNL     1      14.753  11.632  15.436  1.00  0.00    -0.744 OA
ENDBRANCH  83  87
ENDBRANCH  57  80
ENDBRANCH  31  32
ENDBRANCH  23  26
ENDBRANCH  21  22
ENDBRANCH   1  21
TORSDOF 15
