REMARK SMILES CCN(CC(C)(C)O)C(=O)N[C@@H](C(=O)NCCCNC(=O)c1ccc(-c2c3nc(c(-c4cc(S(=O)(=O)[O-])ccc4F)c4ccc([nH]4)c(-c4cc(S(=O)(=O)[O-])ccc4F)c4nc(c(-c5cc(S(=O)(=O)[O-])ccc5F)c5ccc2[nH]5)C=C4)C=C3)cc1)C(C)(C)C
REMARK SMILES IDX 16 1 15 2 13 3 14 4 12 6 11 7 9 8 10 9 3 11 2 12 1 13 4 14
REMARK SMILES IDX 5 15 6 16 7 17 8 18 85 20 86 21 87 22 88 23 17 24 18 25
REMARK SMILES IDX 19 26 20 27 21 29 22 30 23 31 84 32 24 33 83 34 25 35 26 36
REMARK SMILES IDX 27 37 77 38 28 39 82 40 76 41 78 42 29 43 81 44 75 45 74 46
REMARK SMILES IDX 30 48 62 49 42 50 61 51 43 52 46 53 60 54 79 55 44 56 45 57
REMARK SMILES IDX 59 59 80 60 47 61 31 62 32 63 40 64 33 65 39 66 41 67 38 68
REMARK SMILES IDX 34 69 35 70 36 71 37 72 63 73 64 74 72 75 65 76 71 77 73 78
REMARK SMILES IDX 70 79 66 80 67 81 68 82 69 83 48 84 49 85 57 86 50 87 56 88
REMARK SMILES IDX 58 89 55 90 51 91 52 92 53 93 54 94
REMARK H PARENT 15 5 11 10 8 19 19 28 78 47 46 58
REMARK Flexibility Score: inf
ROOT
ATOM      1  C   UNL     1       2.706   4.441   2.994  1.00  0.00     0.117 C 
ENDROOT
BRANCH   1   2
ATOM      2  N   UNL     1       3.318   5.567   2.300  1.00  0.00    -0.354 N 
ATOM      3  C   UNL     1       3.192   6.022   1.017  1.00  0.00     0.243 C 
ATOM      4  O   UNL     1       3.538   7.197   0.849  1.00  0.00    -0.273 OA
ATOM      5  H   UNL     1       3.934   6.096   2.856  1.00  0.00     0.163 HD
BRANCH   3   6
ATOM      6  C   UNL     1       2.454   5.217  -0.107  1.00  0.00     0.178 C 
BRANCH   6   7
ATOM      7  N   UNL     1       2.756   3.799  -0.061  1.00  0.00    -0.326 N 
ATOM      8  C   UNL     1       2.086   2.691   0.286  1.00  0.00     0.318 C 
ATOM      9  O   UNL     1       2.814   1.702   0.426  1.00  0.00    -0.249 OA
ATOM     10  H   UNL     1       3.675   3.602  -0.355  1.00  0.00     0.166 HD
BRANCH   8  11
ATOM     11  N   UNL     1       0.738   2.650   0.540  1.00  0.00    -0.322 N 
BRANCH  11  12
ATOM     12  C   UNL     1       0.265   1.367   1.095  1.00  0.00     0.118 C 
ATOM     13  C   UNL     1       0.253   0.239   0.065  1.00  0.00     0.027 C 
ENDBRANCH  11  12
BRANCH  11  14
ATOM     14  C   UNL     1      -0.340   3.584   0.136  1.00  0.00     0.155 C 
BRANCH  14  15
ATOM     15  C   UNL     1      -1.112   4.379   1.258  1.00  0.00     0.077 C 
ATOM     16  C   UNL     1      -0.501   5.734   1.627  1.00  0.00     0.043 C 
ATOM     17  C   UNL     1      -2.539   4.669   0.769  1.00  0.00     0.043 C 
BRANCH  15  18
ATOM     18  O   UNL     1      -1.218   3.600   2.453  1.00  0.00    -0.389 OA
ATOM     19  H   UNL     1      -0.330   3.400   2.788  1.00  0.00     0.211 HD
ENDBRANCH  15  18
ENDBRANCH  14  15
ENDBRANCH  11  14
ENDBRANCH   8  11
ENDBRANCH   6   7
BRANCH   6  20
ATOM     20  C   UNL     1       2.629   5.776  -1.570  1.00  0.00    -0.009 C 
ATOM     21  C   UNL     1       2.236   4.718  -2.635  1.00  0.00     0.013 C 
ATOM     22  C   UNL     1       1.688   6.982  -1.769  1.00  0.00     0.013 C 
ATOM     23  C   UNL     1       4.077   6.196  -1.886  1.00  0.00     0.013 C 
ENDBRANCH   6  20
ENDBRANCH   3   6
ENDBRANCH   1   2
BRANCH   1  24
ATOM     24  C   UNL     1       3.502   3.956   4.188  1.00  0.00     0.042 C 
BRANCH  24  25
ATOM     25  C   UNL     1       3.462   4.917   5.364  1.00  0.00     0.118 C 
BRANCH  25  26
ATOM     26  N   UNL     1       2.158   4.998   6.010  1.00  0.00    -0.352 N 
ATOM     27  C   UNL     1       1.787   4.683   7.307  1.00  0.00     0.251 C 
ATOM     28  H   UNL     1       1.428   5.327   5.437  1.00  0.00     0.163 HD
ATOM     29  O   UNL     1       0.607   4.707   7.628  1.00  0.00    -0.269 OA
BRANCH  27  30
ATOM     30  C   UNL     1       2.829   4.275   8.274  1.00  0.00     0.039 A 
ATOM     31  C   UNL     1       2.627   3.140   9.062  1.00  0.00     0.014 A 
ATOM     32  C   UNL     1       4.038   4.964   8.334  1.00  0.00     0.014 A 
ATOM     33  C   UNL     1       3.688   2.631   9.818  1.00  0.00     0.010 A 
ATOM     34  C   UNL     1       5.125   4.382   8.973  1.00  0.00     0.010 A 
ATOM     35  C   UNL     1       4.966   3.208   9.724  1.00  0.00    -0.014 A 
BRANCH  35  36
ATOM     36  C   UNL     1       6.154   2.614  10.396  1.00  0.00     0.031 A 
ATOM     37  C   UNL     1       6.969   3.450  11.347  1.00  0.00     0.074 A 
ATOM     38  C   UNL     1       6.565   1.373  10.066  1.00  0.00     0.049 A 
ATOM     39  N   UNL     1       8.118   3.184  11.915  1.00  0.00    -0.248 NA
ATOM     40  C   UNL     1       6.449   4.792  11.648  1.00  0.00     0.031 C 
ATOM     41  C   UNL     1       5.915   0.493   9.091  1.00  0.00     0.029 A 
ATOM     42  N   UNL     1       7.641   0.640  10.502  1.00  0.00    -0.354 N 
ATOM     43  C   UNL     1       8.472   4.338  12.607  1.00  0.00     0.074 A 
ATOM     44  C   UNL     1       7.461   5.330  12.308  1.00  0.00     0.031 C 
ATOM     45  C   UNL     1       6.588  -0.667   9.024  1.00  0.00     0.029 A 
ATOM     46  C   UNL     1       7.741  -0.601   9.915  1.00  0.00     0.049 A 
ATOM     47  H   UNL     1       8.282   0.972  11.171  1.00  0.00     0.167 HD
ATOM     48  C   UNL     1       9.519   4.543  13.446  1.00  0.00     0.034 A 
ATOM     49  C   UNL     1       8.662  -1.571  10.069  1.00  0.00     0.034 A 
ATOM     50  C   UNL     1      10.495   3.529  13.758  1.00  0.00     0.049 A 
ATOM     51  C   UNL     1       9.794  -1.347  11.037  1.00  0.00     0.074 A 
ATOM     52  C   UNL     1      11.558   3.592  14.642  1.00  0.00     0.029 A 
ATOM     53  N   UNL     1      10.526   2.259  13.193  1.00  0.00    -0.354 N 
ATOM     54  N   UNL     1      10.083  -0.273  11.735  1.00  0.00    -0.248 NA
ATOM     55  C   UNL     1      10.713  -2.472  11.251  1.00  0.00     0.031 C 
ATOM     56  C   UNL     1      12.259   2.382  14.574  1.00  0.00     0.029 A 
ATOM     57  C   UNL     1      11.598   1.537  13.697  1.00  0.00     0.049 A 
ATOM     58  H   UNL     1       9.881   1.921  12.531  1.00  0.00     0.167 HD
ATOM     59  C   UNL     1      11.209  -0.599  12.485  1.00  0.00     0.074 A 
ATOM     60  C   UNL     1      11.530  -1.977  12.169  1.00  0.00     0.031 C 
ATOM     61  C   UNL     1      11.913   0.169  13.356  1.00  0.00     0.034 A 
BRANCH  48  62
ATOM     62  C   UNL     1       9.645   5.918  14.063  1.00  0.00     0.023 A 
ATOM     63  C   UNL     1       8.621   6.462  14.861  1.00  0.00     0.031 A 
ATOM     64  C   UNL     1      10.760   6.730  13.791  1.00  0.00     0.131 A 
ATOM     65  C   UNL     1       8.673   7.807  15.252  1.00  0.00     0.055 A 
ATOM     66  C   UNL     1      10.854   8.038  14.273  1.00  0.00     0.041 A 
ATOM     67  F   UNL     1      11.765   6.278  13.024  1.00  0.00    -0.206 F 
ATOM     68  C   UNL     1       9.796   8.593  14.988  1.00  0.00     0.022 A 
BRANCH  65  69
ATOM     69  S   UNL     1       7.172   8.563  15.936  1.00  0.00     0.124 S 
ATOM     70  O   UNL     1       6.216   8.350  14.851  1.00  0.00    -0.237 OA
ATOM     71  O   UNL     1       6.948   7.782  17.146  1.00  0.00    -0.237 OA
ATOM     72  O   UNL     1       7.557   9.956  16.152  1.00  0.00    -0.744 OA
ENDBRANCH  65  69
ENDBRANCH  48  62
BRANCH  49  73
ATOM     73  C   UNL     1       8.554  -2.838   9.293  1.00  0.00     0.023 A 
ATOM     74  C   UNL     1       8.259  -4.055   9.927  1.00  0.00     0.031 A 
ATOM     75  C   UNL     1       8.753  -2.851   7.901  1.00  0.00     0.131 A 
ATOM     76  C   UNL     1       8.206  -5.241   9.177  1.00  0.00     0.055 A 
ATOM     77  C   UNL     1       8.656  -4.025   7.152  1.00  0.00     0.041 A 
ATOM     78  F   UNL     1       9.025  -1.711   7.245  1.00  0.00    -0.206 F 
ATOM     79  C   UNL     1       8.391  -5.232   7.793  1.00  0.00     0.022 A 
BRANCH  76  80
ATOM     80  S   UNL     1       7.944  -6.811  10.048  1.00  0.00     0.124 S 
ATOM     81  O   UNL     1       9.090  -6.847  10.950  1.00  0.00    -0.237 OA
ATOM     82  O   UNL     1       6.643  -6.597  10.673  1.00  0.00    -0.237 OA
ATOM     83  O   UNL     1       7.961  -7.803   8.976  1.00  0.00    -0.744 OA
ENDBRANCH  76  80
ENDBRANCH  49  73
BRANCH  61  84
ATOM     84  C   UNL     1      13.081  -0.486  14.048  1.00  0.00     0.023 A 
ATOM     85  C   UNL     1      14.236  -0.870  13.344  1.00  0.00     0.031 A 
ATOM     86  C   UNL     1      13.031  -0.744  15.430  1.00  0.00     0.131 A 
ATOM     87  C   UNL     1      15.270  -1.541  14.012  1.00  0.00     0.055 A 
ATOM     88  C   UNL     1      14.088  -1.360  16.100  1.00  0.00     0.041 A 
ATOM     89  F   UNL     1      11.951  -0.399  16.150  1.00  0.00    -0.206 F 
ATOM     90  C   UNL     1      15.210  -1.774  15.389  1.00  0.00     0.022 A 
BRANCH  87  91
ATOM     91  S   UNL     1      16.659  -2.188  13.041  1.00  0.00     0.124 S 
ATOM     92  O   UNL     1      15.983  -3.075  12.100  1.00  0.00    -0.237 OA
ATOM     93  O   UNL     1      17.235  -0.974  12.473  1.00  0.00    -0.237 OA
ATOM     94  O   UNL     1      17.490  -2.861  14.038  1.00  0.00    -0.744 OA
ENDBRANCH  87  91
ENDBRANCH  61  84
ENDBRANCH  35  36
ENDBRANCH  27  30
ENDBRANCH  25  26
ENDBRANCH  24  25
ENDBRANCH   1  24
TORSDOF 20
