REMARK SMILES COC(=O)[C@@H](NC(=O)CCC(=O)NCCCNC(=O)c1ccc(-c2c3nc(c(-c4cc(S(=O)(=O)[O-])ccc4F)c4ccc([nH]4)c(-c4cc(S(=O)(=O)[O-])ccc4F)c4nc(c(-c5cc(S(=O)(=O)[O-])ccc5F)c5ccc2[nH]5)C=C4)C=C3)cc1)c1cccc2ccccc12
REMARK SMILES IDX 14 1 13 2 11 3 12 4 10 6 9 7 7 8 6 9 8 11 5 12 3 13 4 14
REMARK SMILES IDX 2 15 1 16 83 17 84 18 92 19 85 20 87 21 91 22 86 23 88 24
REMARK SMILES IDX 90 25 89 26 15 27 16 28 17 29 18 30 19 32 20 33 21 34 82 35
REMARK SMILES IDX 22 36 81 37 23 38 24 39 25 40 75 41 26 42 80 43 74 44 76 45
REMARK SMILES IDX 27 46 79 47 73 48 72 49 28 51 60 52 40 53 59 54 41 55 44 56
REMARK SMILES IDX 58 57 77 58 42 59 43 60 57 62 78 63 45 64 29 65 30 66 38 67
REMARK SMILES IDX 31 68 37 69 39 70 36 71 32 72 33 73 34 74 35 75 61 76 62 77
REMARK SMILES IDX 70 78 63 79 69 80 71 81 68 82 64 83 65 84 66 85 67 86 46 87
REMARK SMILES IDX 47 88 55 89 48 90 54 91 56 92 53 93 49 94 50 95 51 96 52 97
REMARK H PARENT 13 5 6 10 17 31 76 50 44 61
REMARK Flexibility Score: inf
ROOT
ATOM      1  C   UNL     1       2.143   0.979  -4.239  1.00  0.00     0.117 C 
ENDROOT
BRANCH   1   2
ATOM      2  N   UNL     1       1.233   0.581  -3.182  1.00  0.00    -0.356 N 
ATOM      3  C   UNL     1      -0.058   0.167  -3.243  1.00  0.00     0.220 C 
ATOM      4  O   UNL     1      -0.473  -0.558  -2.337  1.00  0.00    -0.275 OA
ATOM      5  H   UNL     1       1.613   0.617  -2.274  1.00  0.00     0.163 HD
BRANCH   3   6
ATOM      6  C   UNL     1      -0.975   0.616  -4.354  1.00  0.00     0.110 C 
BRANCH   6   7
ATOM      7  C   UNL     1      -1.538   2.022  -4.190  1.00  0.00     0.110 C 
BRANCH   7   8
ATOM      8  C   UNL     1      -0.506   3.059  -3.867  1.00  0.00     0.221 C 
ATOM      9  N   UNL     1      -0.171   3.422  -2.608  1.00  0.00    -0.339 N 
ATOM     10  H   UNL     1       0.674   3.928  -2.585  1.00  0.00     0.164 HD
ATOM     11  O   UNL     1       0.095   3.609  -4.795  1.00  0.00    -0.275 OA
BRANCH   9  12
ATOM     12  C   UNL     1      -0.749   3.252  -1.259  1.00  0.00     0.224 C 
BRANCH  12  13
ATOM     13  C   UNL     1      -0.264   2.266  -0.152  1.00  0.00     0.333 C 
ATOM     14  O   UNL     1      -0.743   2.249   0.979  1.00  0.00    -0.249 OA
BRANCH  13  15
ATOM     15  O   UNL     1       0.787   1.496  -0.530  1.00  0.00    -0.467 OA
ATOM     16  C   UNL     1       1.256   0.554   0.449  1.00  0.00     0.282 C 
ENDBRANCH  13  15
ENDBRANCH  12  13
BRANCH  12  17
ATOM     17  C   UNL     1      -2.252   3.525  -1.202  1.00  0.00    -0.007 A 
ATOM     18  C   UNL     1      -2.640   4.877  -1.268  1.00  0.00     0.007 A 
ATOM     19  C   UNL     1      -3.254   2.514  -1.040  1.00  0.00    -0.013 A 
ATOM     20  C   UNL     1      -3.956   5.251  -1.049  1.00  0.00     0.001 A 
ATOM     21  C   UNL     1      -4.586   2.919  -0.788  1.00  0.00    -0.018 A 
ATOM     22  C   UNL     1      -3.032   1.120  -1.153  1.00  0.00     0.009 A 
ATOM     23  C   UNL     1      -4.910   4.281  -0.762  1.00  0.00     0.009 A 
ATOM     24  C   UNL     1      -5.597   1.962  -0.595  1.00  0.00     0.009 A 
ATOM     25  C   UNL     1      -4.067   0.184  -1.084  1.00  0.00     0.001 A 
ATOM     26  C   UNL     1      -5.349   0.604  -0.776  1.00  0.00     0.001 A 
ENDBRANCH  12  17
ENDBRANCH   9  12
ENDBRANCH   7   8
ENDBRANCH   6   7
ENDBRANCH   3   6
ENDBRANCH   1   2
BRANCH   1  27
ATOM     27  C   UNL     1       2.897   2.293  -4.021  1.00  0.00     0.042 C 
BRANCH  27  28
ATOM     28  C   UNL     1       3.227   2.672  -2.585  1.00  0.00     0.118 C 
BRANCH  28  29
ATOM     29  N   UNL     1       4.220   1.804  -1.982  1.00  0.00    -0.352 N 
ATOM     30  C   UNL     1       5.578   1.988  -1.908  1.00  0.00     0.251 C 
ATOM     31  H   UNL     1       3.876   0.977  -1.572  1.00  0.00     0.163 HD
ATOM     32  O   UNL     1       6.307   1.057  -1.571  1.00  0.00    -0.269 OA
BRANCH  30  33
ATOM     33  C   UNL     1       6.149   3.302  -2.263  1.00  0.00     0.039 A 
ATOM     34  C   UNL     1       7.161   3.373  -3.221  1.00  0.00     0.014 A 
ATOM     35  C   UNL     1       5.670   4.465  -1.653  1.00  0.00     0.014 A 
ATOM     36  C   UNL     1       7.663   4.620  -3.602  1.00  0.00     0.010 A 
ATOM     37  C   UNL     1       6.115   5.709  -2.093  1.00  0.00     0.010 A 
ATOM     38  C   UNL     1       7.129   5.802  -3.060  1.00  0.00    -0.014 A 
BRANCH  38  39
ATOM     39  C   UNL     1       7.655   7.140  -3.446  1.00  0.00     0.031 A 
ATOM     40  C   UNL     1       8.303   8.013  -2.402  1.00  0.00     0.074 A 
ATOM     41  C   UNL     1       7.513   7.592  -4.708  1.00  0.00     0.049 A 
ATOM     42  N   UNL     1       8.740   9.242  -2.501  1.00  0.00    -0.248 NA
ATOM     43  C   UNL     1       8.444   7.433  -1.058  1.00  0.00     0.031 C 
ATOM     44  C   UNL     1       6.883   6.853  -5.804  1.00  0.00     0.029 A 
ATOM     45  N   UNL     1       7.881   8.784  -5.282  1.00  0.00    -0.354 N 
ATOM     46  C   UNL     1       9.190   9.587  -1.230  1.00  0.00     0.074 A 
ATOM     47  C   UNL     1       8.904   8.463  -0.366  1.00  0.00     0.031 C 
ATOM     48  C   UNL     1       6.934   7.597  -6.921  1.00  0.00     0.029 A 
ATOM     49  C   UNL     1       7.548   8.886  -6.613  1.00  0.00     0.049 A 
ATOM     50  H   UNL     1       8.340   9.500  -4.786  1.00  0.00     0.167 HD
ATOM     51  C   UNL     1       9.808  10.725  -0.826  1.00  0.00     0.034 A 
ATOM     52  C   UNL     1       7.704   9.905  -7.482  1.00  0.00     0.034 A 
ATOM     53  C   UNL     1      10.099  11.831  -1.705  1.00  0.00     0.049 A 
ATOM     54  C   UNL     1       8.358  11.179  -7.003  1.00  0.00     0.074 A 
ATOM     55  C   UNL     1      10.761  13.011  -1.415  1.00  0.00     0.029 A 
ATOM     56  N   UNL     1       9.740  11.899  -3.046  1.00  0.00    -0.354 N 
ATOM     57  N   UNL     1       8.810  11.477  -5.806  1.00  0.00    -0.248 NA
ATOM     58  C   UNL     1       8.530  12.250  -7.993  1.00  0.00     0.031 C 
ATOM     59  C   UNL     1      10.732  13.823  -2.553  1.00  0.00     0.029 A 
ATOM     60  C   UNL     1      10.137  13.114  -3.584  1.00  0.00     0.049 A 
ATOM     61  H   UNL     1       9.272  11.188  -3.541  1.00  0.00     0.167 HD
ATOM     62  C   UNL     1       9.357  12.754  -5.913  1.00  0.00     0.074 A 
ATOM     63  C   UNL     1       9.184  13.164  -7.291  1.00  0.00     0.031 C 
ATOM     64  C   UNL     1       9.957  13.514  -4.961  1.00  0.00     0.034 A 
BRANCH  51  65
ATOM     65  C   UNL     1      10.179  10.834   0.635  1.00  0.00     0.023 A 
ATOM     66  C   UNL     1      11.069   9.931   1.243  1.00  0.00     0.031 A 
ATOM     67  C   UNL     1       9.606  11.832   1.444  1.00  0.00     0.131 A 
ATOM     68  C   UNL     1      11.288   9.985   2.627  1.00  0.00     0.055 A 
ATOM     69  C   UNL     1       9.903  11.939   2.804  1.00  0.00     0.041 A 
ATOM     70  F   UNL     1       8.731  12.711   0.930  1.00  0.00    -0.206 F 
ATOM     71  C   UNL     1      10.734  11.001   3.408  1.00  0.00     0.022 A 
BRANCH  68  72
ATOM     72  S   UNL     1      12.167   8.608   3.417  1.00  0.00     0.124 S 
ATOM     73  O   UNL     1      11.330   7.471   3.040  1.00  0.00    -0.237 OA
ATOM     74  O   UNL     1      13.481   8.671   2.788  1.00  0.00    -0.237 OA
ATOM     75  O   UNL     1      12.136   8.951   4.837  1.00  0.00    -0.744 OA
ENDBRANCH  68  72
ENDBRANCH  51  65
BRANCH  52  76
ATOM     76  C   UNL     1       7.225   9.780  -8.891  1.00  0.00     0.023 A 
ATOM     77  C   UNL     1       8.122   9.833  -9.970  1.00  0.00     0.031 A 
ATOM     78  C   UNL     1       5.855   9.653  -9.181  1.00  0.00     0.131 A 
ATOM     79  C   UNL     1       7.636   9.807 -11.287  1.00  0.00     0.055 A 
ATOM     80  C   UNL     1       5.381   9.567 -10.492  1.00  0.00     0.041 A 
ATOM     81  F   UNL     1       4.952   9.598  -8.189  1.00  0.00    -0.206 F 
ATOM     82  C   UNL     1       6.273   9.659 -11.555  1.00  0.00     0.022 A 
BRANCH  79  83
ATOM     83  S   UNL     1       8.804  10.067 -12.651  1.00  0.00     0.124 S 
ATOM     84  O   UNL     1       9.359  11.375 -12.320  1.00  0.00    -0.237 OA
ATOM     85  O   UNL     1       9.706   8.930 -12.498  1.00  0.00    -0.237 OA
ATOM     86  O   UNL     1       7.954  10.031 -13.839  1.00  0.00    -0.744 OA
ENDBRANCH  79  83
ENDBRANCH  52  76
BRANCH  64  87
ATOM     87  C   UNL     1      10.531  14.843  -5.392  1.00  0.00     0.023 A 
ATOM     88  C   UNL     1       9.718  15.901  -5.834  1.00  0.00     0.031 A 
ATOM     89  C   UNL     1      11.922  15.053  -5.350  1.00  0.00     0.131 A 
ATOM     90  C   UNL     1      10.306  17.101  -6.264  1.00  0.00     0.055 A 
ATOM     91  C   UNL     1      12.495  16.271  -5.715  1.00  0.00     0.041 A 
ATOM     92  F   UNL     1      12.748  14.077  -4.941  1.00  0.00    -0.206 F 
ATOM     93  C   UNL     1      11.687  17.300  -6.188  1.00  0.00     0.022 A 
BRANCH  90  94
ATOM     94  S   UNL     1       9.249  18.370  -7.016  1.00  0.00     0.124 S 
ATOM     95  O   UNL     1       8.653  17.645  -8.133  1.00  0.00    -0.237 OA
ATOM     96  O   UNL     1       8.345  18.712  -5.922  1.00  0.00    -0.237 OA
ATOM     97  O   UNL     1      10.191  19.423  -7.392  1.00  0.00    -0.744 OA
ENDBRANCH  90  94
ENDBRANCH  64  87
ENDBRANCH  38  39
ENDBRANCH  30  33
ENDBRANCH  28  29
ENDBRANCH  27  28
ENDBRANCH   1  27
TORSDOF 19
