REMARK SMILES CCC[NH2+][C@]1(C(=O)NCCCNC(=O)c2ccc(-c3c4nc(c(-c5cc(S(=O)(=O)[O-])ccc5F)c5ccc([nH]5)c(-c5cc(S(=O)(=O)[O-])ccc5F)c5nc(c(-c6cc(S(=O)(=O)[O-])ccc6F)c6ccc3[nH]6)C=C5)C=C4)cc2)CC[C@H](n2nc(C)c(CC)c2C)C1
REMARK SMILES IDX 10 1 9 2 8 3 6 4 7 5 5 7 78 8 90 9 79 10 80 11 4 12 3 15
REMARK SMILES IDX 2 16 1 17 81 18 82 19 88 20 83 21 85 22 89 23 84 24 86 25
REMARK SMILES IDX 87 26 11 27 12 28 13 29 14 31 15 32 16 33 77 34 17 35 76 36
REMARK SMILES IDX 18 37 19 38 20 39 70 40 21 41 75 42 69 43 71 44 22 45 74 46
REMARK SMILES IDX 68 47 67 48 23 50 55 51 35 52 54 53 36 54 39 55 53 56 72 57
REMARK SMILES IDX 37 58 38 59 52 61 73 62 40 63 24 64 25 65 33 66 26 67 32 68
REMARK SMILES IDX 34 69 31 70 27 71 28 72 29 73 30 74 56 75 57 76 65 77 58 78
REMARK SMILES IDX 64 79 66 80 63 81 59 82 60 83 61 84 62 85 41 86 42 87 50 88
REMARK SMILES IDX 43 89 49 90 51 91 48 92 44 93 45 94 46 95 47 96
REMARK H PARENT 8 6 4 13 4 14 12 30 71 49 39 60
REMARK Flexibility Score: inf
ROOT
ATOM      1  C   UNL     1      -0.889  -2.255   4.010  1.00  0.00     0.042 C 
ENDROOT
BRANCH   1   2
ATOM      2  C   UNL     1      -0.441  -3.325   3.042  1.00  0.00     0.118 C 
BRANCH   2   3
ATOM      3  N   UNL     1      -0.471  -2.956   1.644  1.00  0.00    -0.351 N 
ATOM      4  C   UNL     1       0.119  -3.579   0.582  1.00  0.00     0.281 C 
ATOM      5  O   UNL     1      -0.126  -3.088  -0.528  1.00  0.00    -0.268 OA
ATOM      6  H   UNL     1      -0.987  -2.146   1.429  1.00  0.00     0.163 HD
BRANCH   4   7
ATOM      7  C   UNL     1       1.056  -4.832   0.719  1.00  0.00     0.177 C 
ATOM      8  C   UNL     1       0.417  -6.124   0.184  1.00  0.00     0.081 C 
ATOM      9  C   UNL     1       2.137  -4.695  -0.377  1.00  0.00     0.106 C 
ATOM     10  C   UNL     1       1.648  -7.019  -0.099  1.00  0.00     0.034 C 
ATOM     11  C   UNL     1       2.811  -6.053  -0.525  1.00  0.00     0.114 C 
BRANCH   7  12
ATOM     12  N   UNL     1       1.411  -5.115   2.117  1.00  0.00    -0.334 N 
ATOM     13  H   UNL     1       0.762  -4.568   2.683  1.00  0.00     0.347 HD
ATOM     14  H   UNL     1       1.380  -6.135   2.121  1.00  0.00     0.347 HD
BRANCH  12  15
ATOM     15  C   UNL     1       2.718  -4.880   2.684  1.00  0.00     0.261 C 
BRANCH  15  16
ATOM     16  C   UNL     1       2.705  -4.677   4.211  1.00  0.00     0.058 C 
ATOM     17  C   UNL     1       1.867  -5.693   4.975  1.00  0.00     0.010 C 
ENDBRANCH  15  16
ENDBRANCH  12  15
ENDBRANCH   7  12
BRANCH  11  18
ATOM     18  N   UNL     1       4.084  -6.246   0.169  1.00  0.00    -0.266 N 
ATOM     19  N   UNL     1       4.420  -7.525   0.463  1.00  0.00    -0.178 NA
ATOM     20  C   UNL     1       5.081  -5.357   0.561  1.00  0.00     0.039 A 
ATOM     21  C   UNL     1       5.505  -7.432   1.233  1.00  0.00     0.063 A 
ATOM     22  C   UNL     1       5.943  -6.093   1.369  1.00  0.00    -0.004 A 
ATOM     23  C   UNL     1       5.187  -3.905   0.235  1.00  0.00     0.066 C 
ATOM     24  C   UNL     1       6.093  -8.659   1.824  1.00  0.00     0.069 C 
BRANCH  22  25
ATOM     25  C   UNL     1       7.099  -5.592   2.179  1.00  0.00     0.036 C 
ATOM     26  C   UNL     1       6.858  -5.694   3.680  1.00  0.00     0.009 C 
ENDBRANCH  22  25
ENDBRANCH  11  18
ENDBRANCH   4   7
ENDBRANCH   2   3
ENDBRANCH   1   2
BRANCH   1  27
ATOM     27  C   UNL     1      -2.317  -1.813   3.804  1.00  0.00     0.118 C 
BRANCH  27  28
ATOM     28  N   UNL     1      -3.281  -2.867   4.090  1.00  0.00    -0.352 N 
ATOM     29  C   UNL     1      -3.985  -3.166   5.233  1.00  0.00     0.251 C 
ATOM     30  H   UNL     1      -3.460  -3.470   3.333  1.00  0.00     0.163 HD
ATOM     31  O   UNL     1      -4.595  -4.233   5.297  1.00  0.00    -0.269 OA
BRANCH  29  32
ATOM     32  C   UNL     1      -3.971  -2.247   6.393  1.00  0.00     0.039 A 
ATOM     33  C   UNL     1      -3.963  -2.770   7.689  1.00  0.00     0.014 A 
ATOM     34  C   UNL     1      -3.959  -0.866   6.214  1.00  0.00     0.014 A 
ATOM     35  C   UNL     1      -3.847  -1.908   8.785  1.00  0.00     0.010 A 
ATOM     36  C   UNL     1      -3.678  -0.029   7.284  1.00  0.00     0.010 A 
ATOM     37  C   UNL     1      -3.645  -0.532   8.589  1.00  0.00    -0.014 A 
BRANCH  37  38
ATOM     38  C   UNL     1      -3.444   0.411   9.722  1.00  0.00     0.031 A 
ATOM     39  C   UNL     1      -4.362   1.598   9.879  1.00  0.00     0.074 A 
ATOM     40  C   UNL     1      -2.394   0.252  10.553  1.00  0.00     0.049 A 
ATOM     41  N   UNL     1      -4.286   2.602  10.715  1.00  0.00    -0.248 NA
ATOM     42  C   UNL     1      -5.483   1.696   8.931  1.00  0.00     0.031 C 
ATOM     43  C   UNL     1      -1.400  -0.820  10.468  1.00  0.00     0.029 A 
ATOM     44  N   UNL     1      -1.982   0.998  11.629  1.00  0.00    -0.354 N 
ATOM     45  C   UNL     1      -5.329   3.458  10.372  1.00  0.00     0.074 A 
ATOM     46  C   UNL     1      -5.958   2.901   9.196  1.00  0.00     0.031 C 
ATOM     47  C   UNL     1      -0.521  -0.687  11.473  1.00  0.00     0.029 A 
ATOM     48  C   UNL     1      -0.850   0.510  12.239  1.00  0.00     0.049 A 
ATOM     49  H   UNL     1      -2.453   1.806  11.935  1.00  0.00     0.167 HD
ATOM     50  C   UNL     1      -5.751   4.583  11.002  1.00  0.00     0.034 A 
ATOM     51  C   UNL     1      -0.148   0.979  13.290  1.00  0.00     0.034 A 
ATOM     52  C   UNL     1      -5.127   5.105  12.193  1.00  0.00     0.049 A 
ATOM     53  C   UNL     1      -0.625   2.235  13.974  1.00  0.00     0.074 A 
ATOM     54  C   UNL     1      -5.502   6.196  12.956  1.00  0.00     0.029 A 
ATOM     55  N   UNL     1      -3.990   4.573  12.791  1.00  0.00    -0.354 N 
ATOM     56  N   UNL     1      -1.648   3.003  13.673  1.00  0.00    -0.248 NA
ATOM     57  C   UNL     1       0.139   2.680  15.146  1.00  0.00     0.031 C 
ATOM     58  C   UNL     1      -4.552   6.367  13.969  1.00  0.00     0.029 A 
ATOM     59  C   UNL     1      -3.632   5.333  13.894  1.00  0.00     0.049 A 
ATOM     60  H   UNL     1      -3.510   3.772  12.478  1.00  0.00     0.167 HD
ATOM     61  C   UNL     1      -1.665   4.007  14.637  1.00  0.00     0.074 A 
ATOM     62  C   UNL     1      -0.561   3.735  15.536  1.00  0.00     0.031 C 
ATOM     63  C   UNL     1      -2.519   5.055  14.772  1.00  0.00     0.034 A 
BRANCH  50  64
ATOM     64  C   UNL     1      -6.926   5.319  10.396  1.00  0.00     0.023 A 
ATOM     65  C   UNL     1      -8.179   4.701  10.229  1.00  0.00     0.031 A 
ATOM     66  C   UNL     1      -6.780   6.635   9.925  1.00  0.00     0.131 A 
ATOM     67  C   UNL     1      -9.196   5.354   9.518  1.00  0.00     0.055 A 
ATOM     68  C   UNL     1      -7.831   7.318   9.307  1.00  0.00     0.041 A 
ATOM     69  F   UNL     1      -5.605   7.276  10.034  1.00  0.00    -0.206 F 
ATOM     70  C   UNL     1      -9.041   6.670   9.080  1.00  0.00     0.022 A 
BRANCH  67  71
ATOM     71  S   UNL     1     -10.649   4.391   9.011  1.00  0.00     0.124 S 
ATOM     72  O   UNL     1     -10.034   3.316   8.236  1.00  0.00    -0.237 OA
ATOM     73  O   UNL     1     -11.232   4.004  10.290  1.00  0.00    -0.237 OA
ATOM     74  O   UNL     1     -11.434   5.343   8.228  1.00  0.00    -0.744 OA
ENDBRANCH  67  71
ENDBRANCH  50  64
BRANCH  51  75
ATOM     75  C   UNL     1       1.074   0.264  13.758  1.00  0.00     0.023 A 
ATOM     76  C   UNL     1       1.119  -0.343  15.023  1.00  0.00     0.031 A 
ATOM     77  C   UNL     1       2.224   0.191  12.951  1.00  0.00     0.131 A 
ATOM     78  C   UNL     1       2.300  -0.963  15.460  1.00  0.00     0.055 A 
ATOM     79  C   UNL     1       3.378  -0.473  13.369  1.00  0.00     0.041 A 
ATOM     80  F   UNL     1       2.233   0.749  11.730  1.00  0.00    -0.206 F 
ATOM     81  C   UNL     1       3.425  -1.045  14.636  1.00  0.00     0.022 A 
BRANCH  78  82
ATOM     82  S   UNL     1       2.371  -1.603  17.157  1.00  0.00     0.124 S 
ATOM     83  O   UNL     1       2.108  -0.400  17.938  1.00  0.00    -0.237 OA
ATOM     84  O   UNL     1       1.313  -2.607  17.147  1.00  0.00    -0.237 OA
ATOM     85  O   UNL     1       3.729  -2.133  17.264  1.00  0.00    -0.744 OA
ENDBRANCH  78  82
ENDBRANCH  51  75
BRANCH  63  86
ATOM     86  C   UNL     1      -2.312   5.960  15.963  1.00  0.00     0.023 A 
ATOM     87  C   UNL     1      -1.165   6.760  16.096  1.00  0.00     0.031 A 
ATOM     88  C   UNL     1      -3.281   6.017  16.981  1.00  0.00     0.131 A 
ATOM     89  C   UNL     1      -0.988   7.539  17.249  1.00  0.00     0.055 A 
ATOM     90  C   UNL     1      -3.131   6.846  18.093  1.00  0.00     0.041 A 
ATOM     91  F   UNL     1      -4.395   5.271  16.908  1.00  0.00    -0.206 F 
ATOM     92  C   UNL     1      -1.972   7.602  18.239  1.00  0.00     0.022 A 
BRANCH  89  93
ATOM     93  S   UNL     1       0.595   8.392  17.488  1.00  0.00     0.124 S 
ATOM     94  O   UNL     1       1.545   7.285  17.446  1.00  0.00    -0.237 OA
ATOM     95  O   UNL     1       0.631   9.307  16.351  1.00  0.00    -0.237 OA
ATOM     96  O   UNL     1       0.446   9.033  18.793  1.00  0.00    -0.744 OA
ENDBRANCH  89  93
ENDBRANCH  63  86
ENDBRANCH  37  38
ENDBRANCH  29  32
ENDBRANCH  27  28
ENDBRANCH   1  27
TORSDOF 18
