REMARK SMILES O=C(NCCCNC(=O)[C@H](c1c[nH]c2cc(F)ccc12)[NH+]1CC[NH+](CC(=O)N2CCOCC2)CC1)c1ccc(-c2c3nc(c(-c4cc(S(=O)(=O)[O-])ccc4F)c4ccc([nH]4)c(-c4cc(S(=O)(=O)[O-])ccc4F)c4nc(c(-c5cc(S(=O)(=O)[O-])ccc5F)c5ccc2[nH]5)C=C4)C=C3)cc1
REMARK SMILES IDX 5 1 4 2 3 3 1 4 2 5 36 7 37 8 98 9 38 10 97 11 39 12 40 13
REMARK SMILES IDX 41 14 91 15 42 16 96 17 90 18 92 19 43 20 95 21 89 22 88 23
REMARK SMILES IDX 44 25 76 26 56 27 75 28 57 29 60 30 74 31 93 32 58 33 59 34
REMARK SMILES IDX 73 36 94 37 61 38 45 39 46 40 54 41 47 42 53 43 55 44 52 45
REMARK SMILES IDX 48 46 49 47 50 48 51 49 77 50 78 51 86 52 79 53 85 54 87 55
REMARK SMILES IDX 84 56 80 57 81 58 82 59 83 60 62 61 63 62 71 63 64 64 70 65
REMARK SMILES IDX 72 66 69 67 65 68 66 69 67 70 68 71 6 72 7 73 8 74 9 76
REMARK SMILES IDX 10 77 21 78 22 79 35 80 23 82 34 83 24 84 25 86 26 87 27 88
REMARK SMILES IDX 28 89 29 90 33 91 30 92 32 93 31 94 11 95 12 96 20 97 13 98
REMARK SMILES IDX 14 99 19 100 15 102 18 103 16 104 17 105
REMARK H PARENT 3 6 92 24 60 35 7 75 21 81 24 85 13 101
REMARK Flexibility Score: inf
ROOT
ATOM      1  C   UNL     1       9.098   4.989  -5.427  1.00  0.00     0.042 C 
ENDROOT
BRANCH   1   2
ATOM      2  C   UNL     1      10.571   4.819  -5.135  1.00  0.00     0.118 C 
BRANCH   2   3
ATOM      3  N   UNL     1      11.392   5.231  -6.261  1.00  0.00    -0.352 N 
ATOM      4  O   UNL     1      12.605   6.656  -7.511  1.00  0.00    -0.269 OA
ATOM      5  C   UNL     1      12.182   6.346  -6.394  1.00  0.00     0.251 C 
ATOM      6  H   UNL     1      11.380   4.625  -7.037  1.00  0.00     0.163 HD
BRANCH   5   7
ATOM      7  C   UNL     1      12.511   7.175  -5.212  1.00  0.00     0.039 A 
ATOM      8  C   UNL     1      12.718   6.577  -3.970  1.00  0.00     0.014 A 
ATOM      9  C   UNL     1      12.639   8.562  -5.338  1.00  0.00     0.014 A 
ATOM     10  C   UNL     1      12.850   7.359  -2.836  1.00  0.00     0.010 A 
ATOM     11  C   UNL     1      12.950   9.339  -4.215  1.00  0.00     0.010 A 
ATOM     12  C   UNL     1      13.047   8.742  -2.949  1.00  0.00    -0.014 A 
BRANCH  12  13
ATOM     13  C   UNL     1      13.488   9.478  -1.734  1.00  0.00     0.031 A 
ATOM     14  C   UNL     1      12.690  10.611  -1.157  1.00  0.00     0.074 A 
ATOM     15  C   UNL     1      14.608   9.044  -1.116  1.00  0.00     0.049 A 
ATOM     16  N   UNL     1      12.931  11.317  -0.082  1.00  0.00    -0.248 NA
ATOM     17  C   UNL     1      11.476  11.016  -1.881  1.00  0.00     0.031 C 
ATOM     18  C   UNL     1      15.469   7.958  -1.604  1.00  0.00     0.029 A 
ATOM     19  N   UNL     1      15.198   9.416   0.064  1.00  0.00    -0.354 N 
ATOM     20  C   UNL     1      11.908  12.254   0.001  1.00  0.00     0.074 A 
ATOM     21  C   UNL     1      11.065  12.051  -1.160  1.00  0.00     0.031 C 
ATOM     22  C   UNL     1      16.411   7.693  -0.693  1.00  0.00     0.029 A 
ATOM     23  C   UNL     1      16.305   8.663   0.385  1.00  0.00     0.049 A 
ATOM     24  H   UNL     1      14.862  10.150   0.627  1.00  0.00     0.167 HD
ATOM     25  C   UNL     1      11.693  13.186   0.963  1.00  0.00     0.034 A 
ATOM     26  C   UNL     1      17.169   8.761   1.413  1.00  0.00     0.034 A 
ATOM     27  C   UNL     1      12.557  13.371   2.108  1.00  0.00     0.049 A 
ATOM     28  C   UNL     1      16.927   9.835   2.436  1.00  0.00     0.074 A 
ATOM     29  C   UNL     1      12.437  14.286   3.139  1.00  0.00     0.029 A 
ATOM     30  N   UNL     1      13.703  12.629   2.373  1.00  0.00    -0.354 N 
ATOM     31  N   UNL     1      15.951  10.713   2.494  1.00  0.00    -0.248 NA
ATOM     32  C   UNL     1      17.897   9.931   3.530  1.00  0.00     0.031 C 
ATOM     33  C   UNL     1      13.542  14.146   3.986  1.00  0.00     0.029 A 
ATOM     34  C   UNL     1      14.310  13.085   3.535  1.00  0.00     0.049 A 
ATOM     35  H   UNL     1      14.036  11.887   1.818  1.00  0.00     0.167 HD
ATOM     36  C   UNL     1      16.188  11.460   3.642  1.00  0.00     0.074 A 
ATOM     37  C   UNL     1      17.368  10.896   4.266  1.00  0.00     0.031 C 
ATOM     38  C   UNL     1      15.501  12.524   4.132  1.00  0.00     0.034 A 
BRANCH  25  39
ATOM     39  C   UNL     1      10.503  14.103   0.799  1.00  0.00     0.023 A 
ATOM     40  C   UNL     1       9.184  13.618   0.828  1.00  0.00     0.031 A 
ATOM     41  C   UNL     1      10.689  15.486   0.620  1.00  0.00     0.131 A 
ATOM     42  C   UNL     1       8.108  14.498   0.627  1.00  0.00     0.055 A 
ATOM     43  C   UNL     1       9.613  16.367   0.498  1.00  0.00     0.041 A 
ATOM     44  F   UNL     1      11.925  16.006   0.559  1.00  0.00    -0.206 F 
ATOM     45  C   UNL     1       8.312  15.873   0.491  1.00  0.00     0.022 A 
BRANCH  42  46
ATOM     46  S   UNL     1       6.443  13.806   0.426  1.00  0.00     0.124 S 
ATOM     47  O   UNL     1       6.618  12.956  -0.750  1.00  0.00    -0.237 OA
ATOM     48  O   UNL     1       6.233  13.115   1.693  1.00  0.00    -0.237 OA
ATOM     49  O   UNL     1       5.605  14.984   0.213  1.00  0.00    -0.744 OA
ENDBRANCH  42  46
ENDBRANCH  25  39
BRANCH  26  50
ATOM     50  C   UNL     1      18.364   7.871   1.488  1.00  0.00     0.023 A 
ATOM     51  C   UNL     1      18.583   7.032   2.590  1.00  0.00     0.031 A 
ATOM     52  C   UNL     1      19.341   7.891   0.473  1.00  0.00     0.131 A 
ATOM     53  C   UNL     1      19.775   6.296   2.682  1.00  0.00     0.055 A 
ATOM     54  C   UNL     1      20.487   7.098   0.532  1.00  0.00     0.041 A 
ATOM     55  F   UNL     1      19.188   8.676  -0.605  1.00  0.00    -0.206 F 
ATOM     56  C   UNL     1      20.719   6.308   1.653  1.00  0.00     0.022 A 
BRANCH  53  57
ATOM     57  S   UNL     1      20.135   5.423   4.230  1.00  0.00     0.124 S 
ATOM     58  O   UNL     1      20.012   6.495   5.210  1.00  0.00    -0.237 OA
ATOM     59  O   UNL     1      19.088   4.407   4.255  1.00  0.00    -0.237 OA
ATOM     60  O   UNL     1      21.490   4.915   4.025  1.00  0.00    -0.744 OA
ENDBRANCH  53  57
ENDBRANCH  26  50
BRANCH  38  61
ATOM     61  C   UNL     1      16.012  13.113   5.425  1.00  0.00     0.023 A 
ATOM     62  C   UNL     1      17.286  13.703   5.511  1.00  0.00     0.031 A 
ATOM     63  C   UNL     1      15.243  13.027   6.598  1.00  0.00     0.131 A 
ATOM     64  C   UNL     1      17.788  14.102   6.757  1.00  0.00     0.055 A 
ATOM     65  C   UNL     1      15.716  13.501   7.822  1.00  0.00     0.041 A 
ATOM     66  F   UNL     1      14.022  12.469   6.577  1.00  0.00    -0.206 F 
ATOM     67  C   UNL     1      17.004  14.023   7.910  1.00  0.00     0.022 A 
BRANCH  64  68
ATOM     68  S   UNL     1      19.530  14.593   6.872  1.00  0.00     0.124 S 
ATOM     69  O   UNL     1      20.211  13.411   6.353  1.00  0.00    -0.237 OA
ATOM     70  O   UNL     1      19.576  15.779   6.025  1.00  0.00    -0.237 OA
ATOM     71  O   UNL     1      19.721  14.842   8.300  1.00  0.00    -0.744 OA
ENDBRANCH  64  68
ENDBRANCH  38  61
ENDBRANCH  12  13
ENDBRANCH   5   7
ENDBRANCH   2   3
ENDBRANCH   1   2
BRANCH   1  72
ATOM     72  C   UNL     1       8.517   3.822  -6.218  1.00  0.00     0.118 C 
BRANCH  72  73
ATOM     73  N   UNL     1       8.522   2.583  -5.443  1.00  0.00    -0.351 N 
ATOM     74  C   UNL     1       7.689   2.240  -4.386  1.00  0.00     0.283 C 
ATOM     75  H   UNL     1       9.195   1.912  -5.701  1.00  0.00     0.163 HD
ATOM     76  O   UNL     1       7.867   1.159  -3.823  1.00  0.00    -0.268 OA
BRANCH  74  77
ATOM     77  C   UNL     1       6.569   3.225  -4.035  1.00  0.00     0.308 C 
BRANCH  77  78
ATOM     78  N   UNL     1       5.335   2.964  -4.779  1.00  0.00    -0.312 N 
ATOM     79  C   UNL     1       4.592   1.710  -4.673  1.00  0.00     0.325 C 
ATOM     80  C   UNL     1       4.465   4.119  -4.791  1.00  0.00     0.325 C 
ATOM     81  H   UNL     1       5.761   2.775  -5.686  1.00  0.00     0.349 HD
ATOM     82  C   UNL     1       3.169   1.752  -4.008  1.00  0.00     0.325 C 
ATOM     83  C   UNL     1       3.400   4.112  -3.690  1.00  0.00     0.325 C 
ATOM     84  N   UNL     1       2.455   3.038  -3.922  1.00  0.00    -0.318 N 
ATOM     85  H   UNL     1       1.848   2.899  -3.114  1.00  0.00     0.348 HD
BRANCH  84  86
ATOM     86  C   UNL     1       1.397   3.373  -4.889  1.00  0.00     0.364 C 
BRANCH  86  87
ATOM     87  C   UNL     1       1.743   3.569  -6.379  1.00  0.00     0.277 C 
ATOM     88  O   UNL     1       1.816   2.581  -7.120  1.00  0.00    -0.268 OA
ATOM     89  N   UNL     1       1.809   4.875  -6.912  1.00  0.00    -0.333 N 
ATOM     90  C   UNL     1       2.576   5.981  -6.313  1.00  0.00     0.148 C 
ATOM     91  C   UNL     1       1.671   5.000  -8.361  1.00  0.00     0.148 C 
ATOM     92  C   UNL     1       2.308   7.375  -6.878  1.00  0.00     0.181 C 
ATOM     93  C   UNL     1       1.291   6.428  -8.762  1.00  0.00     0.181 C 
ATOM     94  O   UNL     1       2.276   7.363  -8.307  1.00  0.00    -0.378 OA
ENDBRANCH  86  87
ENDBRANCH  84  86
ENDBRANCH  77  78
BRANCH  77  95
ATOM     95  C   UNL     1       6.387   3.682  -2.614  1.00  0.00     0.044 A 
ATOM     96  C   UNL     1       6.037   2.962  -1.488  1.00  0.00     0.094 A 
ATOM     97  C   UNL     1       6.404   5.080  -2.215  1.00  0.00     0.009 A 
ATOM     98  N   UNL     1       5.791   3.848  -0.466  1.00  0.00    -0.361 N 
ATOM     99  C   UNL     1       5.986   5.144  -0.888  1.00  0.00     0.049 A 
ATOM    100  C   UNL     1       6.649   6.301  -2.895  1.00  0.00     0.014 A 
ATOM    101  H   UNL     1       5.513   3.592   0.443  1.00  0.00     0.166 HD
ATOM    102  C   UNL     1       5.800   6.361  -0.218  1.00  0.00     0.065 A 
ATOM    103  C   UNL     1       6.494   7.522  -2.237  1.00  0.00     0.040 A 
ATOM    104  C   UNL     1       6.068   7.537  -0.921  1.00  0.00     0.125 A 
ATOM    105  F   UNL     1       5.886   8.715  -0.313  1.00  0.00    -0.207 F 
ENDBRANCH  77  95
ENDBRANCH  74  77
ENDBRANCH  72  73
ENDBRANCH   1  72
TORSDOF 17
