REMARK SMILES CC(C)[C@H]1C(=O)Nc2ccccc2N1C(=O)N[C@H](Cc1ccccc1)C(=O)NCCCNC(=O)c1ccc(-c2c3nc(c(-c4cc(S(=O)(=O)[O-])ccc4F)c4ccc([nH]4)c(-c4cc(S(=O)(=O)[O-])ccc4F)c4nc(c(-c5cc(S(=O)(=O)[O-])ccc5F)c5ccc2[nH]5)C=C4)C=C3)cc1
REMARK SMILES IDX 30 1 29 2 28 3 26 4 27 5 18 7 17 8 15 9 16 10 14 12 4 13
REMARK SMILES IDX 5 14 6 15 7 16 13 17 8 18 12 20 9 21 11 22 10 23 2 24 1 25
REMARK SMILES IDX 3 26 19 27 20 28 21 29 25 30 22 31 24 32 23 33 31 34 32 35
REMARK SMILES IDX 33 36 34 38 35 39 36 40 97 41 37 42 96 43 38 44 39 45 40 46
REMARK SMILES IDX 90 47 41 48 95 49 89 50 91 51 42 52 94 53 88 54 87 55 43 57
REMARK SMILES IDX 75 58 55 59 74 60 56 61 59 62 73 63 92 64 57 65 58 66 72 68
REMARK SMILES IDX 93 69 60 70 44 71 45 72 53 73 46 74 52 75 54 76 51 77 47 78
REMARK SMILES IDX 48 79 49 80 50 81 76 82 77 83 85 84 78 85 84 86 86 87 83 88
REMARK SMILES IDX 79 89 80 90 81 91 82 92 61 93 62 94 70 95 63 96 69 97 71 98
REMARK SMILES IDX 68 99 64 100 65 101 66 102 67 103
REMARK H PARENT 28 6 17 11 7 19 32 37 91 56 59 67
REMARK Flexibility Score: inf
ROOT
ATOM      1  C   UNL     1       4.893   3.924   0.427  1.00  0.00     0.042 C 
ENDROOT
BRANCH   1   2
ATOM      2  C   UNL     1       4.361   2.465   1.912  1.00  0.00     0.117 C 
BRANCH   2   3
ATOM      3  N   UNL     1       2.786   2.312   2.894  1.00  0.00    -0.354 N 
ATOM      4  C   UNL     1       1.464   1.415   2.876  1.00  0.00     0.242 C 
ATOM      5  O   UNL     1       0.798   1.410   3.921  1.00  0.00    -0.273 OA
ATOM      6  H   UNL     1       2.761   2.966   3.629  1.00  0.00     0.163 HD
BRANCH   4   7
ATOM      7  C   UNL     1       0.726   0.602   1.306  1.00  0.00     0.177 C 
BRANCH   7   8
ATOM      8  N   UNL     1       1.628   0.301  -0.290  1.00  0.00    -0.326 N 
ATOM      9  C   UNL     1       3.083   0.758  -0.996  1.00  0.00     0.323 C 
ATOM     10  O   UNL     1       3.556   0.041  -1.876  1.00  0.00    -0.248 OA
ATOM     11  H   UNL     1       1.111  -0.287  -0.886  1.00  0.00     0.166 HD
BRANCH   9  12
ATOM     12  N   UNL     1       3.922   1.973  -0.259  1.00  0.00    -0.280 N 
ATOM     13  C   UNL     1       3.035   3.293   0.654  1.00  0.00     0.184 C 
ATOM     14  C   UNL     1       3.859   4.340   2.138  1.00  0.00     0.247 C 
ATOM     15  O   UNL     1       3.294   5.199   2.831  1.00  0.00    -0.272 OA
ATOM     16  N   UNL     1       5.614   3.980   2.320  1.00  0.00    -0.322 N 
ATOM     17  C   UNL     1       5.655   1.834   0.082  1.00  0.00     0.070 A 
ATOM     18  C   UNL     1       6.465   2.760   1.312  1.00  0.00     0.065 A 
ATOM     19  H   UNL     1       6.128   4.472   3.000  1.00  0.00     0.170 HD
ATOM     20  C   UNL     1       6.425   1.048  -0.736  1.00  0.00     0.028 A 
ATOM     21  C   UNL     1       7.837   2.842   1.304  1.00  0.00     0.028 A 
ATOM     22  C   UNL     1       7.822   1.209  -0.613  1.00  0.00     0.002 A 
ATOM     23  C   UNL     1       8.484   2.092   0.313  1.00  0.00     0.002 A 
BRANCH  13  24
ATOM     24  C   UNL     1       2.049   2.256   0.746  1.00  0.00     0.015 C 
ATOM     25  C   UNL     1       1.227   2.609  -0.718  1.00  0.00     0.010 C 
ATOM     26  C   UNL     1       2.974   0.561   1.375  1.00  0.00     0.010 C 
ENDBRANCH  13  24
ENDBRANCH   9  12
ENDBRANCH   7   8
BRANCH   7  27
ATOM     27  C   UNL     1      -0.697   1.263   1.170  1.00  0.00     0.070 C 
BRANCH  27  28
ATOM     28  C   UNL     1      -1.650   0.928   0.055  1.00  0.00    -0.045 A 
ATOM     29  C   UNL     1      -2.367   1.981  -0.551  1.00  0.00     0.004 A 
ATOM     30  C   UNL     1      -1.940  -0.384  -0.317  1.00  0.00     0.004 A 
ATOM     31  C   UNL     1      -3.350   1.728  -1.505  1.00  0.00     0.000 A 
ATOM     32  C   UNL     1      -2.930  -0.636  -1.271  1.00  0.00     0.000 A 
ATOM     33  C   UNL     1      -3.637   0.415  -1.860  1.00  0.00     0.000 A 
ENDBRANCH  27  28
ENDBRANCH   7  27
ENDBRANCH   4   7
ENDBRANCH   2   3
ENDBRANCH   1   2
BRANCH   1  34
ATOM     34  C   UNL     1       5.017   5.642   0.476  1.00  0.00     0.118 C 
BRANCH  34  35
ATOM     35  N   UNL     1       5.604   6.240   1.667  1.00  0.00    -0.352 N 
ATOM     36  C   UNL     1       6.890   6.701   1.764  1.00  0.00     0.251 C 
ATOM     37  H   UNL     1       5.032   6.319   2.464  1.00  0.00     0.163 HD
ATOM     38  O   UNL     1       7.876   6.027   2.001  1.00  0.00    -0.269 OA
BRANCH  36  39
ATOM     39  C   UNL     1       6.915   8.134   1.518  1.00  0.00     0.039 A 
ATOM     40  C   UNL     1       7.568   8.583   0.368  1.00  0.00     0.014 A 
ATOM     41  C   UNL     1       5.936   8.871   2.186  1.00  0.00     0.014 A 
ATOM     42  C   UNL     1       7.199   9.812  -0.148  1.00  0.00     0.010 A 
ATOM     43  C   UNL     1       5.481  10.015   1.593  1.00  0.00     0.010 A 
ATOM     44  C   UNL     1       6.145  10.506   0.458  1.00  0.00    -0.014 A 
BRANCH  44  45
ATOM     45  C   UNL     1       5.777  11.864   0.059  1.00  0.00     0.031 A 
ATOM     46  C   UNL     1       6.008  12.930   1.084  1.00  0.00     0.074 A 
ATOM     47  C   UNL     1       5.110  12.050  -1.088  1.00  0.00     0.049 A 
ATOM     48  N   UNL     1       5.514  14.130   1.155  1.00  0.00    -0.248 NA
ATOM     49  C   UNL     1       6.816  12.537   2.256  1.00  0.00     0.031 C 
ATOM     50  C   UNL     1       4.802  11.012  -2.076  1.00  0.00     0.029 A 
ATOM     51  N   UNL     1       4.546  13.180  -1.599  1.00  0.00    -0.354 N 
ATOM     52  C   UNL     1       5.897  14.605   2.404  1.00  0.00     0.074 A 
ATOM     53  C   UNL     1       6.558  13.525   3.094  1.00  0.00     0.031 C 
ATOM     54  C   UNL     1       4.120  11.566  -3.092  1.00  0.00     0.029 A 
ATOM     55  C   UNL     1       3.908  12.978  -2.797  1.00  0.00     0.049 A 
ATOM     56  H   UNL     1       4.591  14.056  -1.152  1.00  0.00     0.167 HD
ATOM     57  C   UNL     1       5.739  15.854   2.897  1.00  0.00     0.034 A 
ATOM     58  C   UNL     1       3.227  13.860  -3.549  1.00  0.00     0.034 A 
ATOM     59  C   UNL     1       5.127  16.894   2.112  1.00  0.00     0.049 A 
ATOM     60  C   UNL     1       3.139  15.271  -3.028  1.00  0.00     0.074 A 
ATOM     61  C   UNL     1       4.975  18.233   2.406  1.00  0.00     0.029 A 
ATOM     62  N   UNL     1       4.575  16.693   0.847  1.00  0.00    -0.354 N 
ATOM     63  N   UNL     1       3.555  15.752  -1.875  1.00  0.00    -0.248 NA
ATOM     64  C   UNL     1       2.517  16.260  -3.909  1.00  0.00     0.031 C 
ATOM     65  C   UNL     1       4.288  18.829   1.342  1.00  0.00     0.029 A 
ATOM     66  C   UNL     1       4.072  17.880   0.351  1.00  0.00     0.049 A 
ATOM     67  H   UNL     1       4.548  15.829   0.376  1.00  0.00     0.167 HD
ATOM     68  C   UNL     1       3.263  17.110  -1.898  1.00  0.00     0.074 A 
ATOM     69  C   UNL     1       2.657  17.367  -3.194  1.00  0.00     0.031 C 
ATOM     70  C   UNL     1       3.466  18.063  -0.950  1.00  0.00     0.034 A 
BRANCH  57  71
ATOM     71  C   UNL     1       6.224  16.114   4.305  1.00  0.00     0.023 A 
ATOM     72  C   UNL     1       7.554  15.857   4.693  1.00  0.00     0.031 A 
ATOM     73  C   UNL     1       5.327  16.529   5.304  1.00  0.00     0.131 A 
ATOM     74  C   UNL     1       7.916  15.895   6.048  1.00  0.00     0.055 A 
ATOM     75  C   UNL     1       5.721  16.669   6.638  1.00  0.00     0.041 A 
ATOM     76  F   UNL     1       4.039  16.767   5.011  1.00  0.00    -0.206 F 
ATOM     77  C   UNL     1       7.016  16.328   7.022  1.00  0.00     0.022 A 
BRANCH  74  78
ATOM     78  S   UNL     1       9.514  15.185   6.537  1.00  0.00     0.124 S 
ATOM     79  O   UNL     1       9.371  13.802   6.086  1.00  0.00    -0.237 OA
ATOM     80  O   UNL     1      10.464  16.003   5.792  1.00  0.00    -0.237 OA
ATOM     81  O   UNL     1       9.539  15.361   7.987  1.00  0.00    -0.744 OA
ENDBRANCH  74  78
ENDBRANCH  57  71
BRANCH  58  82
ATOM     82  C   UNL     1       2.644  13.443  -4.852  1.00  0.00     0.023 A 
ATOM     83  C   UNL     1       3.164  13.936  -6.058  1.00  0.00     0.031 A 
ATOM     84  C   UNL     1       1.587  12.518  -4.920  1.00  0.00     0.131 A 
ATOM     85  C   UNL     1       2.610  13.526  -7.281  1.00  0.00     0.055 A 
ATOM     86  C   UNL     1       1.065  12.082  -6.140  1.00  0.00     0.041 A 
ATOM     87  F   UNL     1       1.068  11.996  -3.797  1.00  0.00    -0.206 F 
ATOM     88  C   UNL     1       1.572  12.594  -7.331  1.00  0.00     0.022 A 
BRANCH  85  89
ATOM     89  S   UNL     1       3.239  14.270  -8.810  1.00  0.00     0.124 S 
ATOM     90  O   UNL     1       3.019  15.691  -8.564  1.00  0.00    -0.237 OA
ATOM     91  O   UNL     1       4.630  13.827  -8.812  1.00  0.00    -0.237 OA
ATOM     92  O   UNL     1       2.398  13.679  -9.848  1.00  0.00    -0.744 OA
ENDBRANCH  85  89
ENDBRANCH  58  82
BRANCH  70  93
ATOM     93  C   UNL     1       3.046  19.459  -1.315  1.00  0.00     0.023 A 
ATOM     94  C   UNL     1       1.693  19.791  -1.483  1.00  0.00     0.031 A 
ATOM     95  C   UNL     1       4.011  20.465  -1.494  1.00  0.00     0.131 A 
ATOM     96  C   UNL     1       1.343  21.084  -1.887  1.00  0.00     0.055 A 
ATOM     97  C   UNL     1       3.652  21.769  -1.825  1.00  0.00     0.041 A 
ATOM     98  F   UNL     1       5.318  20.194  -1.342  1.00  0.00    -0.206 F 
ATOM     99  C   UNL     1       2.311  22.081  -2.038  1.00  0.00     0.022 A 
BRANCH  96 100
ATOM    100  S   UNL     1      -0.385  21.412  -2.319  1.00  0.00     0.124 S 
ATOM    101  O   UNL     1      -0.616  20.448  -3.390  1.00  0.00    -0.237 OA
ATOM    102  O   UNL     1      -1.077  21.146  -1.062  1.00  0.00    -0.237 OA
ATOM    103  O   UNL     1      -0.372  22.813  -2.736  1.00  0.00    -0.744 OA
ENDBRANCH  96 100
ENDBRANCH  70  93
ENDBRANCH  44  45
ENDBRANCH  36  39
ENDBRANCH  34  35
ENDBRANCH   1  34
TORSDOF 18
