REMARK SMILES Cc1ccccc1C(=O)Nc1ccc(N2CCC(n3c(C)nc4cccnc43)CC2)c(C(=O)NCCCNC(=O)c2ccc(-c3c4nc(c(-c5cc(S(=O)(=O)[O-])ccc5F)c5ccc([nH]5)c(-c5cc(S(=O)(=O)[O-])ccc5F)c5nc(c(-c6cc(S(=O)(=O)[O-])ccc6F)c6ccc3[nH]6)C=C5)C=C4)cc2)c1
REMARK SMILES IDX 36 1 35 2 34 3 32 4 33 5 31 7 11 8 12 9 104 10 13 11 14 12
REMARK SMILES IDX 10 13 8 14 9 15 7 17 1 18 2 19 3 20 4 21 6 22 5 23 15 24
REMARK SMILES IDX 16 25 30 26 17 27 29 28 18 29 19 30 20 31 28 32 21 33 22 34
REMARK SMILES IDX 23 35 27 36 24 37 26 38 25 39 37 40 38 41 39 42 40 44 41 45
REMARK SMILES IDX 42 46 103 47 43 48 102 49 44 50 45 51 46 52 96 53 47 54
REMARK SMILES IDX 101 55 95 56 97 57 48 58 100 59 94 60 93 61 49 63 81 64
REMARK SMILES IDX 61 65 80 66 62 67 65 68 79 69 98 70 63 71 64 72 78 74 99 75
REMARK SMILES IDX 66 76 50 77 51 78 59 79 52 80 58 81 60 82 57 83 53 84 54 85
REMARK SMILES IDX 55 86 56 87 82 88 83 89 91 90 84 91 90 92 92 93 89 94 85 95
REMARK SMILES IDX 86 96 87 97 88 98 67 99 68 100 76 101 69 102 75 103 77 104
REMARK SMILES IDX 74 105 70 106 71 107 72 108 73 109
REMARK H PARENT 34 6 10 16 38 43 97 62 65 73
REMARK Flexibility Score: inf
ROOT
ATOM      1  C   UNL     1       8.508  -2.481   0.096  1.00  0.00     0.042 C 
ENDROOT
BRANCH   1   2
ATOM      2  C   UNL     1       7.322  -2.451   1.029  1.00  0.00     0.118 C 
BRANCH   2   3
ATOM      3  N   UNL     1       6.997  -1.131   1.523  1.00  0.00    -0.352 N 
ATOM      4  C   UNL     1       6.000  -0.214   1.374  1.00  0.00     0.253 C 
ATOM      5  O   UNL     1       6.053   0.701   2.211  1.00  0.00    -0.269 OA
ATOM      6  H   UNL     1       7.691  -0.804   2.140  1.00  0.00     0.163 HD
BRANCH   4   7
ATOM      7  C   UNL     1       4.918  -0.125   0.326  1.00  0.00     0.065 A 
ATOM      8  C   UNL     1       3.136   1.425  -0.392  1.00  0.00     0.042 A 
ATOM      9  C   UNL     1       2.761   0.566  -1.402  1.00  0.00     0.028 A 
ATOM     10  C   UNL     1       4.293   1.155   0.339  1.00  0.00     0.042 A 
ATOM     11  C   UNL     1       3.397  -0.667  -1.494  1.00  0.00     0.029 A 
ATOM     12  C   UNL     1       4.372  -1.093  -0.549  1.00  0.00     0.050 A 
BRANCH   8  13
ATOM     13  N   UNL     1       2.329   2.483   0.047  1.00  0.00    -0.322 N 
ATOM     14  C   UNL     1       0.956   2.525   0.208  1.00  0.00     0.255 C 
ATOM     15  O   UNL     1       0.421   3.601   0.487  1.00  0.00    -0.269 OA
ATOM     16  H   UNL     1       2.807   3.314   0.272  1.00  0.00     0.170 HD
BRANCH  14  17
ATOM     17  C   UNL     1       0.082   1.313   0.113  1.00  0.00     0.043 A 
ATOM     18  C   UNL     1       1.441  -0.193   1.705  1.00  0.00     0.045 C 
ATOM     19  C   UNL     1       0.313   0.077   0.752  1.00  0.00    -0.038 A 
ATOM     20  C   UNL     1      -0.577  -0.991   0.520  1.00  0.00     0.004 A 
ATOM     21  C   UNL     1      -1.746  -0.807  -0.215  1.00  0.00     0.000 A 
ATOM     22  C   UNL     1      -1.125   1.493  -0.588  1.00  0.00     0.014 A 
ATOM     23  C   UNL     1      -2.038   0.446  -0.738  1.00  0.00     0.001 A 
ENDBRANCH  14  17
ENDBRANCH   8  13
BRANCH  12  24
ATOM     24  N   UNL     1       4.483  -2.481  -0.438  1.00  0.00    -0.371 N 
ATOM     25  C   UNL     1       5.027  -3.223  -1.565  1.00  0.00     0.118 C 
ATOM     26  C   UNL     1       4.114  -3.074   0.846  1.00  0.00     0.118 C 
ATOM     27  C   UNL     1       4.828  -4.725  -1.489  1.00  0.00     0.047 C 
ATOM     28  C   UNL     1       3.908  -4.574   0.795  1.00  0.00     0.047 C 
ATOM     29  C   UNL     1       4.907  -5.330  -0.076  1.00  0.00     0.094 C 
BRANCH  29  30
ATOM     30  N   UNL     1       4.716  -6.792  -0.133  1.00  0.00    -0.310 N 
ATOM     31  C   UNL     1       3.831  -7.629   0.537  1.00  0.00     0.108 A 
ATOM     32  C   UNL     1       5.480  -7.614  -0.943  1.00  0.00     0.160 A 
ATOM     33  C   UNL     1       2.955  -7.267   1.681  1.00  0.00     0.088 C 
ATOM     34  N   UNL     1       3.879  -8.863   0.059  1.00  0.00    -0.232 NA
ATOM     35  C   UNL     1       4.936  -8.880  -0.800  1.00  0.00     0.108 A 
ATOM     36  N   UNL     1       6.522  -7.268  -1.727  1.00  0.00    -0.237 NA
ATOM     37  C   UNL     1       5.513  -9.937  -1.512  1.00  0.00     0.034 A 
ATOM     38  C   UNL     1       7.094  -8.333  -2.336  1.00  0.00     0.113 A 
ATOM     39  C   UNL     1       6.639  -9.646  -2.282  1.00  0.00     0.022 A 
ENDBRANCH  29  30
ENDBRANCH  12  24
ENDBRANCH   4   7
ENDBRANCH   2   3
ENDBRANCH   1   2
BRANCH   1  40
ATOM     40  C   UNL     1       9.427  -3.654   0.409  1.00  0.00     0.118 C 
BRANCH  40  41
ATOM     41  N   UNL     1       8.926  -4.994   0.080  1.00  0.00    -0.352 N 
ATOM     42  C   UNL     1       9.628  -6.202   0.076  1.00  0.00     0.251 C 
ATOM     43  H   UNL     1       7.975  -5.049  -0.169  1.00  0.00     0.163 HD
ATOM     44  O   UNL     1       9.123  -7.279  -0.151  1.00  0.00    -0.269 OA
BRANCH  42  45
ATOM     45  C   UNL     1      11.042  -6.166   0.500  1.00  0.00     0.039 A 
ATOM     46  C   UNL     1      11.309  -6.728   1.752  1.00  0.00     0.014 A 
ATOM     47  C   UNL     1      11.876  -5.219  -0.074  1.00  0.00     0.014 A 
ATOM     48  C   UNL     1      12.217  -6.088   2.579  1.00  0.00     0.010 A 
ATOM     49  C   UNL     1      12.678  -4.505   0.790  1.00  0.00     0.010 A 
ATOM     50  C   UNL     1      12.766  -4.885   2.140  1.00  0.00    -0.014 A 
BRANCH  50  51
ATOM     51  C   UNL     1      13.226  -3.857   3.067  1.00  0.00     0.031 A 
ATOM     52  C   UNL     1      14.623  -3.387   3.024  1.00  0.00     0.074 A 
ATOM     53  C   UNL     1      12.346  -3.256   3.906  1.00  0.00     0.049 A 
ATOM     54  N   UNL     1      15.188  -2.756   3.994  1.00  0.00    -0.248 NA
ATOM     55  C   UNL     1      15.536  -3.650   1.913  1.00  0.00     0.031 C 
ATOM     56  C   UNL     1      12.543  -2.022   4.664  1.00  0.00     0.029 A 
ATOM     57  N   UNL     1      11.161  -3.785   4.424  1.00  0.00    -0.354 N 
ATOM     58  C   UNL     1      16.353  -2.223   3.508  1.00  0.00     0.074 A 
ATOM     59  C   UNL     1      16.602  -2.935   2.283  1.00  0.00     0.031 C 
ATOM     60  C   UNL     1      11.701  -2.008   5.707  1.00  0.00     0.029 A 
ATOM     61  C   UNL     1      11.016  -3.283   5.734  1.00  0.00     0.049 A 
ATOM     62  H   UNL     1      10.542  -4.394   3.960  1.00  0.00     0.167 HD
ATOM     63  C   UNL     1      16.871  -1.126   4.121  1.00  0.00     0.034 A 
ATOM     64  C   UNL     1      10.949  -4.125   6.806  1.00  0.00     0.034 A 
ATOM     65  C   UNL     1      16.282  -0.930   5.450  1.00  0.00     0.049 A 
ATOM     66  C   UNL     1      12.118  -3.981   7.761  1.00  0.00     0.074 A 
ATOM     67  C   UNL     1      15.467   0.033   6.018  1.00  0.00     0.029 A 
ATOM     68  N   UNL     1      16.330  -1.982   6.364  1.00  0.00    -0.354 N 
ATOM     69  N   UNL     1      13.137  -3.189   7.557  1.00  0.00    -0.248 NA
ATOM     70  C   UNL     1      12.255  -4.733   9.006  1.00  0.00     0.031 C 
ATOM     71  C   UNL     1      14.933  -0.507   7.226  1.00  0.00     0.029 A 
ATOM     72  C   UNL     1      15.467  -1.770   7.420  1.00  0.00     0.049 A 
ATOM     73  H   UNL     1      16.907  -2.775   6.268  1.00  0.00     0.167 HD
ATOM     74  C   UNL     1      14.086  -3.381   8.529  1.00  0.00     0.074 A 
ATOM     75  C   UNL     1      13.453  -4.311   9.449  1.00  0.00     0.031 C 
ATOM     76  C   UNL     1      15.321  -2.792   8.458  1.00  0.00     0.034 A 
BRANCH  63  77
ATOM     77  C   UNL     1      17.782  -0.119   3.447  1.00  0.00     0.023 A 
ATOM     78  C   UNL     1      18.304   0.948   4.208  1.00  0.00     0.031 A 
ATOM     79  C   UNL     1      18.060  -0.059   2.060  1.00  0.00     0.131 A 
ATOM     80  C   UNL     1      19.051   1.981   3.606  1.00  0.00     0.055 A 
ATOM     81  C   UNL     1      18.864   0.928   1.477  1.00  0.00     0.041 A 
ATOM     82  F   UNL     1      17.511  -0.898   1.174  1.00  0.00    -0.206 F 
ATOM     83  C   UNL     1      19.361   1.960   2.249  1.00  0.00     0.022 A 
BRANCH  80  84
ATOM     84  S   UNL     1      19.551   3.413   4.599  1.00  0.00     0.124 S 
ATOM     85  O   UNL     1      18.264   4.005   4.947  1.00  0.00    -0.237 OA
ATOM     86  O   UNL     1      20.298   2.794   5.688  1.00  0.00    -0.237 OA
ATOM     87  O   UNL     1      20.359   4.204   3.670  1.00  0.00    -0.744 OA
ENDBRANCH  80  84
ENDBRANCH  63  77
BRANCH  64  88
ATOM     88  C   UNL     1      10.167  -5.357   6.495  1.00  0.00     0.023 A 
ATOM     89  C   UNL     1       8.822  -5.149   6.107  1.00  0.00     0.031 A 
ATOM     90  C   UNL     1      10.778  -6.558   6.118  1.00  0.00     0.131 A 
ATOM     91  C   UNL     1       8.204  -6.012   5.192  1.00  0.00     0.055 A 
ATOM     92  C   UNL     1      10.123  -7.467   5.273  1.00  0.00     0.041 A 
ATOM     93  F   UNL     1      12.061  -6.799   6.427  1.00  0.00    -0.206 F 
ATOM     94  C   UNL     1       8.855  -7.169   4.762  1.00  0.00     0.022 A 
BRANCH  91  95
ATOM     95  S   UNL     1       6.691  -5.455   4.338  1.00  0.00     0.124 S 
ATOM     96  O   UNL     1       5.641  -6.171   5.053  1.00  0.00    -0.237 OA
ATOM     97  O   UNL     1       6.708  -4.007   4.528  1.00  0.00    -0.237 OA
ATOM     98  O   UNL     1       6.902  -5.860   2.950  1.00  0.00    -0.744 OA
ENDBRANCH  91  95
ENDBRANCH  64  88
BRANCH  76  99
ATOM     99  C   UNL     1      16.507  -3.102   9.360  1.00  0.00     0.023 A 
ATOM    100  C   UNL     1      16.595  -4.239  10.178  1.00  0.00     0.031 A 
ATOM    101  C   UNL     1      17.654  -2.266   9.364  1.00  0.00     0.131 A 
ATOM    102  C   UNL     1      17.715  -4.465  11.004  1.00  0.00     0.055 A 
ATOM    103  C   UNL     1      18.801  -2.539  10.117  1.00  0.00     0.041 A 
ATOM    104  F   UNL     1      17.713  -1.145   8.629  1.00  0.00    -0.206 F 
ATOM    105  C   UNL     1      18.831  -3.636  10.961  1.00  0.00     0.022 A 
BRANCH 102 106
ATOM    106  S   UNL     1      17.642  -5.828  12.198  1.00  0.00     0.124 S 
ATOM    107  O   UNL     1      16.493  -5.449  13.017  1.00  0.00    -0.237 OA
ATOM    108  O   UNL     1      17.449  -6.990  11.336  1.00  0.00    -0.237 OA
ATOM    109  O   UNL     1      18.934  -5.765  12.877  1.00  0.00    -0.744 OA
ENDBRANCH 102 106
ENDBRANCH  76  99
ENDBRANCH  50  51
ENDBRANCH  42  45
ENDBRANCH  40  41
ENDBRANCH   1  40
TORSDOF 17
