REMARK SMILES COc1cc(OC(F)(F)F)cc2c1O[C@@H](C(F)(F)F)C(C(=O)NCCCNC(=O)c1ccc(-c3c4nc(c(-c5cc(S(=O)(=O)[O-])ccc5F)c5ccc([nH]5)c(-c5cc(S(=O)(=O)[O-])ccc5F)c5nc(c(-c6cc(S(=O)(=O)[O-])ccc6F)c6ccc3[nH]6)C=C5)C=C4)cc1)=C2
REMARK SMILES IDX 25 1 24 2 23 3 21 4 22 5 20 7 3 8 4 9 13 10 5 11 12 12 14 13
REMARK SMILES IDX 11 14 93 15 15 16 2 17 1 18 6 19 7 20 8 21 9 22 10 23 16 24
REMARK SMILES IDX 17 25 18 26 19 27 26 28 27 29 28 30 29 32 30 33 31 34 92 35
REMARK SMILES IDX 32 36 91 37 33 38 34 39 35 40 85 41 36 42 90 43 84 44 86 45
REMARK SMILES IDX 37 46 89 47 83 48 82 49 38 51 70 52 50 53 69 54 51 55 54 56
REMARK SMILES IDX 68 57 87 58 52 59 53 60 67 62 88 63 55 64 39 65 40 66 48 67
REMARK SMILES IDX 41 68 47 69 49 70 46 71 42 72 43 73 44 74 45 75 71 76 72 77
REMARK SMILES IDX 80 78 73 79 79 80 81 81 78 82 74 83 75 84 76 85 77 86 56 87
REMARK SMILES IDX 57 88 65 89 58 90 64 91 66 92 63 93 59 94 60 95 61 96 62 97
REMARK H PARENT 23 6 27 31 86 50 54 61
REMARK Flexibility Score: inf
ROOT
ATOM      1  C   UNL     1       6.000   6.156  -3.127  1.00  0.00     0.042 C 
ENDROOT
BRANCH   1   2
ATOM      2  C   UNL     1       6.241   4.678  -3.447  1.00  0.00     0.118 C 
BRANCH   2   3
ATOM      3  N   UNL     1       6.704   3.967  -2.266  1.00  0.00    -0.352 N 
ATOM      4  C   UNL     1       6.064   3.260  -1.301  1.00  0.00     0.251 C 
ATOM      5  O   UNL     1       6.720   2.883  -0.332  1.00  0.00    -0.270 OA
ATOM      6  H   UNL     1       7.680   4.006  -2.142  1.00  0.00     0.163 HD
BRANCH   4   7
ATOM      7  C   UNL     1       4.636   2.860  -1.398  1.00  0.00     0.067 C 
ATOM      8  C   UNL     1       0.703   1.404  -1.706  1.00  0.00     0.165 A 
ATOM      9  C   UNL     1      -0.283   2.197  -2.307  1.00  0.00     0.097 A 
ATOM     10  C   UNL     1       2.015   1.876  -1.582  1.00  0.00     0.170 A 
ATOM     11  C   UNL     1       0.022   3.484  -2.744  1.00  0.00     0.134 A 
ATOM     12  C   UNL     1       2.321   3.168  -2.004  1.00  0.00     0.025 A 
ATOM     13  O   UNL     1       2.978   1.015  -1.145  1.00  0.00    -0.471 OA
ATOM     14  C   UNL     1       1.323   3.968  -2.575  1.00  0.00     0.059 A 
ATOM     15  C   UNL     1       3.692   3.649  -1.930  1.00  0.00     0.026 C 
ATOM     16  C   UNL     1       4.252   1.560  -0.700  1.00  0.00     0.314 C 
BRANCH   8  17
ATOM     17  O   UNL     1       0.299   0.147  -1.331  1.00  0.00    -0.493 OA
ATOM     18  C   UNL     1       0.605  -0.150   0.032  1.00  0.00     0.278 C 
ENDBRANCH   8  17
BRANCH  11  19
ATOM     19  O   UNL     1      -0.827   4.361  -3.356  1.00  0.00    -0.406 OA
BRANCH  19  20
ATOM     20  C   UNL     1      -2.159   3.939  -3.595  1.00  0.00     0.573 C 
ATOM     21  F   UNL     1      -2.190   2.845  -4.387  1.00  0.00    -0.132 F 
ATOM     22  F   UNL     1      -2.798   3.674  -2.436  1.00  0.00    -0.132 F 
ATOM     23  F   UNL     1      -2.823   4.931  -4.226  1.00  0.00    -0.132 F 
ENDBRANCH  19  20
ENDBRANCH  11  19
BRANCH  16  24
ATOM     24  C   UNL     1       5.277   0.402  -0.764  1.00  0.00     0.429 C 
ATOM     25  F   UNL     1       6.222   0.479   0.199  1.00  0.00    -0.167 F 
ATOM     26  F   UNL     1       4.662  -0.797  -0.563  1.00  0.00    -0.167 F 
ATOM     27  F   UNL     1       5.896   0.323  -1.964  1.00  0.00    -0.167 F 
ENDBRANCH  16  24
ENDBRANCH   4   7
ENDBRANCH   2   3
ENDBRANCH   1   2
BRANCH   1  28
ATOM     28  C   UNL     1       7.291   6.954  -2.947  1.00  0.00     0.118 C 
BRANCH  28  29
ATOM     29  N   UNL     1       7.995   7.126  -4.208  1.00  0.00    -0.352 N 
ATOM     30  C   UNL     1       8.367   8.278  -4.856  1.00  0.00     0.251 C 
ATOM     31  H   UNL     1       8.241   6.291  -4.667  1.00  0.00     0.163 HD
ATOM     32  O   UNL     1       8.716   8.212  -6.031  1.00  0.00    -0.269 OA
BRANCH  30  33
ATOM     33  C   UNL     1       8.341   9.584  -4.157  1.00  0.00     0.039 A 
ATOM     34  C   UNL     1       7.921  10.715  -4.863  1.00  0.00     0.014 A 
ATOM     35  C   UNL     1       8.779   9.710  -2.836  1.00  0.00     0.014 A 
ATOM     36  C   UNL     1       7.899  11.962  -4.232  1.00  0.00     0.010 A 
ATOM     37  C   UNL     1       8.694  10.942  -2.188  1.00  0.00     0.010 A 
ATOM     38  C   UNL     1       8.261  12.082  -2.881  1.00  0.00    -0.014 A 
BRANCH  38  39
ATOM     39  C   UNL     1       8.211  13.395  -2.184  1.00  0.00     0.031 A 
ATOM     40  C   UNL     1       9.478  14.030  -1.677  1.00  0.00     0.074 A 
ATOM     41  C   UNL     1       7.020  13.983  -1.958  1.00  0.00     0.049 A 
ATOM     42  N   UNL     1       9.634  15.124  -0.976  1.00  0.00    -0.248 NA
ATOM     43  C   UNL     1      10.732  13.323  -1.975  1.00  0.00     0.031 C 
ATOM     44  C   UNL     1       5.721  13.446  -2.372  1.00  0.00     0.029 A 
ATOM     45  N   UNL     1       6.703  15.154  -1.317  1.00  0.00    -0.354 N 
ATOM     46  C   UNL     1      11.000  15.229  -0.735  1.00  0.00     0.074 A 
ATOM     47  C   UNL     1      11.618  14.055  -1.316  1.00  0.00     0.031 C 
ATOM     48  C   UNL     1       4.753  14.294  -1.992  1.00  0.00     0.029 A 
ATOM     49  C   UNL     1       5.353  15.411  -1.268  1.00  0.00     0.049 A 
ATOM     50  H   UNL     1       7.380  15.755  -0.928  1.00  0.00     0.167 HD
ATOM     51  C   UNL     1      11.678  16.222  -0.106  1.00  0.00     0.034 A 
ATOM     52  C   UNL     1       4.673  16.423  -0.693  1.00  0.00     0.034 A 
ATOM     53  C   UNL     1      11.046  17.392   0.455  1.00  0.00     0.049 A 
ATOM     54  C   UNL     1       5.445  17.506   0.017  1.00  0.00     0.074 A 
ATOM     55  C   UNL     1      11.637  18.483   1.067  1.00  0.00     0.029 A 
ATOM     56  N   UNL     1       9.675  17.621   0.480  1.00  0.00    -0.354 N 
ATOM     57  N   UNL     1       6.742  17.613   0.197  1.00  0.00    -0.248 NA
ATOM     58  C   UNL     1       4.663  18.609   0.589  1.00  0.00     0.031 C 
ATOM     59  C   UNL     1      10.625  19.337   1.519  1.00  0.00     0.029 A 
ATOM     60  C   UNL     1       9.402  18.820   1.122  1.00  0.00     0.049 A 
ATOM     61  H   UNL     1       8.996  17.019   0.098  1.00  0.00     0.167 HD
ATOM     62  C   UNL     1       6.931  18.813   0.877  1.00  0.00     0.074 A 
ATOM     63  C   UNL     1       5.618  19.398   1.060  1.00  0.00     0.031 C 
ATOM     64  C   UNL     1       8.086  19.384   1.307  1.00  0.00     0.034 A 
BRANCH  51  65
ATOM     65  C   UNL     1      13.175  16.066   0.027  1.00  0.00     0.023 A 
ATOM     66  C   UNL     1      14.016  16.003  -1.099  1.00  0.00     0.031 A 
ATOM     67  C   UNL     1      13.771  15.950   1.296  1.00  0.00     0.131 A 
ATOM     68  C   UNL     1      15.386  15.748  -0.939  1.00  0.00     0.055 A 
ATOM     69  C   UNL     1      15.148  15.781   1.452  1.00  0.00     0.041 A 
ATOM     70  F   UNL     1      13.021  15.983   2.409  1.00  0.00    -0.206 F 
ATOM     71  C   UNL     1      15.963  15.662   0.330  1.00  0.00     0.022 A 
BRANCH  68  72
ATOM     72  S   UNL     1      16.375  15.380  -2.414  1.00  0.00     0.124 S 
ATOM     73  O   UNL     1      15.681  14.210  -2.949  1.00  0.00    -0.237 OA
ATOM     74  O   UNL     1      16.252  16.607  -3.191  1.00  0.00    -0.237 OA
ATOM     75  O   UNL     1      17.707  15.112  -1.876  1.00  0.00    -0.744 OA
ENDBRANCH  68  72
ENDBRANCH  51  65
BRANCH  52  76
ATOM     76  C   UNL     1       3.184  16.462  -0.754  1.00  0.00     0.023 A 
ATOM     77  C   UNL     1       2.515  17.484  -1.446  1.00  0.00     0.031 A 
ATOM     78  C   UNL     1       2.406  15.498  -0.089  1.00  0.00     0.131 A 
ATOM     79  C   UNL     1       1.113  17.546  -1.419  1.00  0.00     0.055 A 
ATOM     80  C   UNL     1       1.011  15.533  -0.109  1.00  0.00     0.041 A 
ATOM     81  F   UNL     1       2.995  14.495   0.582  1.00  0.00    -0.206 F 
ATOM     82  C   UNL     1       0.356  16.570  -0.767  1.00  0.00     0.022 A 
BRANCH  79  83
ATOM     83  S   UNL     1       0.293  18.971  -2.185  1.00  0.00     0.124 S 
ATOM     84  O   UNL     1       0.890  20.084  -1.456  1.00  0.00    -0.237 OA
ATOM     85  O   UNL     1       0.688  18.831  -3.583  1.00  0.00    -0.237 OA
ATOM     86  O   UNL     1      -1.123  18.733  -1.913  1.00  0.00    -0.744 OA
ENDBRANCH  79  83
ENDBRANCH  52  76
BRANCH  64  87
ATOM     87  C   UNL     1       7.975  20.732   1.976  1.00  0.00     0.023 A 
ATOM     88  C   UNL     1       7.346  20.891   3.223  1.00  0.00     0.031 A 
ATOM     89  C   UNL     1       8.496  21.877   1.347  1.00  0.00     0.131 A 
ATOM     90  C   UNL     1       7.204  22.173   3.775  1.00  0.00     0.055 A 
ATOM     91  C   UNL     1       8.406  23.141   1.929  1.00  0.00     0.041 A 
ATOM     92  F   UNL     1       9.104  21.783   0.153  1.00  0.00    -0.206 F 
ATOM     93  C   UNL     1       7.745  23.297   3.145  1.00  0.00     0.022 A 
BRANCH  90  94
ATOM     94  S   UNL     1       6.222  22.366   5.288  1.00  0.00     0.124 S 
ATOM     95  O   UNL     1       4.926  21.835   4.878  1.00  0.00    -0.237 OA
ATOM     96  O   UNL     1       6.966  21.559   6.249  1.00  0.00    -0.237 OA
ATOM     97  O   UNL     1       6.252  23.806   5.535  1.00  0.00    -0.744 OA
ENDBRANCH  90  94
ENDBRANCH  64  87
ENDBRANCH  38  39
ENDBRANCH  30  33
ENDBRANCH  28  29
ENDBRANCH   1  28
TORSDOF 17
