REMARK SMILES CSc1ccc(/C=C2\C(C)=C(CC(=O)NCCCNC(=O)c3ccc(-c4c5nc(c(-c6cc(S(=O)(=O)[O-])ccc6F)c6ccc([nH]6)c(-c6cc(S(=O)(=O)[O-])ccc6F)c6nc(c(-c7cc(S(=O)(=O)[O-])ccc7F)c7ccc4[nH]7)C=C6)C=C5)cc3)c3cc(F)ccc32)cc1
REMARK SMILES IDX 17 1 16 2 15 3 13 4 14 5 12 7 11 8 7 9 8 10 9 11 91 12 10 13
REMARK SMILES IDX 85 14 90 15 86 16 89 17 87 18 88 19 6 20 3 21 4 22 93 23
REMARK SMILES IDX 5 24 92 25 2 26 1 27 18 28 19 29 20 30 21 32 22 33 23 34
REMARK SMILES IDX 84 35 24 36 83 37 25 38 26 39 27 40 77 41 28 42 82 43 76 44
REMARK SMILES IDX 78 45 29 46 81 47 75 48 74 49 30 51 62 52 42 53 61 54 43 55
REMARK SMILES IDX 46 56 60 57 79 58 44 59 45 60 59 62 80 63 47 64 31 65 32 66
REMARK SMILES IDX 40 67 33 68 39 69 41 70 38 71 34 72 35 73 36 74 37 75 63 76
REMARK SMILES IDX 64 77 72 78 65 79 71 80 73 81 70 82 66 83 67 84 68 85 69 86
REMARK SMILES IDX 48 87 49 88 57 89 50 90 56 91 58 92 55 93 51 94 52 95 53 96
REMARK SMILES IDX 54 97
REMARK H PARENT 15 6 19 31 78 50 46 61
REMARK Flexibility Score: inf
ROOT
ATOM      1  C   UNL     1       2.718  -9.151   2.725  1.00  0.00     0.042 C 
ENDROOT
BRANCH   1   2
ATOM      2  C   UNL     1       3.070  -9.937   1.469  1.00  0.00     0.117 C 
BRANCH   2   3
ATOM      3  N   UNL     1       2.251 -11.125   1.312  1.00  0.00    -0.356 N 
ATOM      4  C   UNL     1       1.053 -11.258   0.671  1.00  0.00     0.224 C 
ATOM      5  O   UNL     1       0.467 -12.340   0.722  1.00  0.00    -0.275 OA
ATOM      6  H   UNL     1       2.607 -11.946   1.722  1.00  0.00     0.163 HD
BRANCH   4   7
ATOM      7  C   UNL     1       0.478 -10.079  -0.084  1.00  0.00     0.136 C 
BRANCH   7   8
ATOM      8  C   UNL     1      -0.304  -9.188   0.861  1.00  0.00    -0.027 C 
ATOM      9  C   UNL     1      -0.333  -6.211  -0.906  1.00  0.00     0.017 C 
ATOM     10  C   UNL     1      -0.743  -7.223  -0.125  1.00  0.00    -0.014 C 
ATOM     11  C   UNL     1      -0.019  -7.861   0.995  1.00  0.00    -0.039 C 
ATOM     12  C   UNL     1      -2.027  -7.957  -0.166  1.00  0.00    -0.010 A 
ATOM     13  C   UNL     1      -0.413  -7.163   2.315  1.00  0.00     0.045 C 
ATOM     14  C   UNL     1      -1.752  -9.147   0.544  1.00  0.00    -0.011 A 
ATOM     15  C   UNL     1      -3.316  -7.454  -0.228  1.00  0.00     0.012 A 
ATOM     16  C   UNL     1      -2.735  -9.857   1.209  1.00  0.00     0.048 A 
ATOM     17  C   UNL     1      -4.315  -8.151   0.467  1.00  0.00     0.040 A 
ATOM     18  C   UNL     1      -4.017  -9.327   1.177  1.00  0.00     0.123 A 
ATOM     19  F   UNL     1      -4.970  -9.887   1.937  1.00  0.00    -0.207 F 
BRANCH   9  20
ATOM     20  C   UNL     1       0.777  -5.246  -0.667  1.00  0.00    -0.025 A 
ATOM     21  C   UNL     1       1.809  -2.749   0.143  1.00  0.00     0.007 A 
ATOM     22  C   UNL     1       1.823  -3.836   1.011  1.00  0.00     0.015 A 
ATOM     23  C   UNL     1       1.506  -2.988  -1.198  1.00  0.00     0.015 A 
ATOM     24  C   UNL     1       1.372  -5.084   0.585  1.00  0.00     0.009 A 
ATOM     25  C   UNL     1       0.983  -4.227  -1.601  1.00  0.00     0.009 A 
BRANCH  21  26
ATOM     26  S   UNL     1       2.103  -1.152   0.879  1.00  0.00    -0.130 SA
ATOM     27  C   UNL     1       1.592   0.004  -0.414  1.00  0.00     0.091 C 
ENDBRANCH  21  26
ENDBRANCH   9  20
ENDBRANCH   7   8
ENDBRANCH   4   7
ENDBRANCH   2   3
ENDBRANCH   1   2
BRANCH   1  28
ATOM     28  C   UNL     1       2.859  -9.933   4.020  1.00  0.00     0.118 C 
BRANCH  28  29
ATOM     29  N   UNL     1       4.219 -10.390   4.218  1.00  0.00    -0.352 N 
ATOM     30  C   UNL     1       5.186  -9.931   5.071  1.00  0.00     0.251 C 
ATOM     31  H   UNL     1       4.489 -11.149   3.653  1.00  0.00     0.163 HD
ATOM     32  O   UNL     1       6.360 -10.209   4.830  1.00  0.00    -0.269 OA
BRANCH  30  33
ATOM     33  C   UNL     1       4.838  -9.120   6.261  1.00  0.00     0.039 A 
ATOM     34  C   UNL     1       5.759  -8.170   6.711  1.00  0.00     0.014 A 
ATOM     35  C   UNL     1       3.665  -9.345   6.988  1.00  0.00     0.014 A 
ATOM     36  C   UNL     1       5.497  -7.446   7.875  1.00  0.00     0.010 A 
ATOM     37  C   UNL     1       3.359  -8.553   8.092  1.00  0.00     0.010 A 
ATOM     38  C   UNL     1       4.289  -7.621   8.569  1.00  0.00    -0.014 A 
BRANCH  38  39
ATOM     39  C   UNL     1       4.023  -6.873   9.824  1.00  0.00     0.031 A 
ATOM     40  C   UNL     1       3.881  -7.611  11.130  1.00  0.00     0.074 A 
ATOM     41  C   UNL     1       3.897  -5.533   9.781  1.00  0.00     0.049 A 
ATOM     42  N   UNL     1       3.664  -7.137  12.330  1.00  0.00    -0.248 NA
ATOM     43  C   UNL     1       3.962  -9.079  11.074  1.00  0.00     0.031 C 
ATOM     44  C   UNL     1       3.961  -4.719   8.564  1.00  0.00     0.029 A 
ATOM     45  N   UNL     1       3.698  -4.617  10.782  1.00  0.00    -0.354 N 
ATOM     46  C   UNL     1       3.577  -8.245  13.168  1.00  0.00     0.074 A 
ATOM     47  C   UNL     1       3.687  -9.415  12.325  1.00  0.00     0.031 C 
ATOM     48  C   UNL     1       3.843  -3.424   8.896  1.00  0.00     0.029 A 
ATOM     49  C   UNL     1       3.659  -3.315  10.339  1.00  0.00     0.049 A 
ATOM     50  H   UNL     1       3.592  -4.867  11.728  1.00  0.00     0.167 HD
ATOM     51  C   UNL     1       3.447  -8.282  14.517  1.00  0.00     0.034 A 
ATOM     52  C   UNL     1       3.498  -2.165  11.021  1.00  0.00     0.034 A 
ATOM     53  C   UNL     1       3.350  -7.101  15.340  1.00  0.00     0.049 A 
ATOM     54  C   UNL     1       3.368  -2.228  12.521  1.00  0.00     0.074 A 
ATOM     55  C   UNL     1       3.257  -7.012  16.718  1.00  0.00     0.029 A 
ATOM     56  N   UNL     1       3.330  -5.797  14.858  1.00  0.00    -0.354 N 
ATOM     57  N   UNL     1       3.344  -3.282  13.305  1.00  0.00    -0.248 NA
ATOM     58  C   UNL     1       3.267  -0.947  13.229  1.00  0.00     0.031 C 
ATOM     59  C   UNL     1       3.119  -5.662  17.063  1.00  0.00     0.029 A 
ATOM     60  C   UNL     1       3.204  -4.901  15.909  1.00  0.00     0.049 A 
ATOM     61  H   UNL     1       3.395  -5.546  13.908  1.00  0.00     0.167 HD
ATOM     62  C   UNL     1       3.256  -2.786  14.603  1.00  0.00     0.074 A 
ATOM     63  C   UNL     1       3.252  -1.341  14.493  1.00  0.00     0.031 C 
ATOM     64  C   UNL     1       3.190  -3.462  15.779  1.00  0.00     0.034 A 
BRANCH  51  65
ATOM     65  C   UNL     1       3.382  -9.643  15.173  1.00  0.00     0.023 A 
ATOM     66  C   UNL     1       4.450 -10.556  15.089  1.00  0.00     0.031 A 
ATOM     67  C   UNL     1       2.226 -10.051  15.862  1.00  0.00     0.131 A 
ATOM     68  C   UNL     1       4.310 -11.852  15.609  1.00  0.00     0.055 A 
ATOM     69  C   UNL     1       2.126 -11.313  16.452  1.00  0.00     0.041 A 
ATOM     70  F   UNL     1       1.164  -9.236  15.959  1.00  0.00    -0.206 F 
ATOM     71  C   UNL     1       3.165 -12.229  16.314  1.00  0.00     0.022 A 
BRANCH  68  72
ATOM     72  S   UNL     1       5.581 -13.088  15.222  1.00  0.00     0.124 S 
ATOM     73  O   UNL     1       5.540 -13.101  13.758  1.00  0.00    -0.237 OA
ATOM     74  O   UNL     1       6.781 -12.501  15.818  1.00  0.00    -0.237 OA
ATOM     75  O   UNL     1       5.093 -14.298  15.863  1.00  0.00    -0.744 OA
ENDBRANCH  68  72
ENDBRANCH  51  65
BRANCH  52  76
ATOM     76  C   UNL     1       3.465  -0.861  10.299  1.00  0.00     0.023 A 
ATOM     77  C   UNL     1       4.467   0.103  10.493  1.00  0.00     0.031 A 
ATOM     78  C   UNL     1       2.413  -0.551   9.419  1.00  0.00     0.131 A 
ATOM     79  C   UNL     1       4.372   1.349   9.852  1.00  0.00     0.055 A 
ATOM     80  C   UNL     1       2.352   0.668   8.743  1.00  0.00     0.041 A 
ATOM     81  F   UNL     1       1.435  -1.442   9.190  1.00  0.00    -0.206 F 
ATOM     82  C   UNL     1       3.329   1.633   8.969  1.00  0.00     0.022 A 
BRANCH  79  83
ATOM     83  S   UNL     1       5.595   2.627  10.253  1.00  0.00     0.124 S 
ATOM     84  O   UNL     1       5.438   2.747  11.698  1.00  0.00    -0.237 OA
ATOM     85  O   UNL     1       6.836   2.014   9.792  1.00  0.00    -0.237 OA
ATOM     86  O   UNL     1       5.147   3.782   9.478  1.00  0.00    -0.744 OA
ENDBRANCH  79  83
ENDBRANCH  52  76
BRANCH  64  87
ATOM     87  C   UNL     1       3.154  -2.633  17.040  1.00  0.00     0.023 A 
ATOM     88  C   UNL     1       2.067  -1.797  17.346  1.00  0.00     0.031 A 
ATOM     89  C   UNL     1       4.238  -2.664  17.935  1.00  0.00     0.131 A 
ATOM     90  C   UNL     1       2.116  -0.975  18.482  1.00  0.00     0.055 A 
ATOM     91  C   UNL     1       4.253  -1.893  19.098  1.00  0.00     0.041 A 
ATOM     92  F   UNL     1       5.304  -3.444  17.692  1.00  0.00    -0.206 F 
ATOM     93  C   UNL     1       3.195  -1.030  19.369  1.00  0.00     0.022 A 
BRANCH  90  94
ATOM     94  S   UNL     1       0.801   0.249  18.728  1.00  0.00     0.124 S 
ATOM     95  O   UNL     1       0.864   1.016  17.488  1.00  0.00    -0.237 OA
ATOM     96  O   UNL     1      -0.380  -0.592  18.898  1.00  0.00    -0.237 OA
ATOM     97  O   UNL     1       1.224   0.972  19.926  1.00  0.00    -0.744 OA
ENDBRANCH  90  94
ENDBRANCH  64  87
ENDBRANCH  38  39
ENDBRANCH  30  33
ENDBRANCH  28  29
ENDBRANCH   1  28
TORSDOF 16
