REMARK SMILES CCc1ccc(N2C(=O)C[C@@H](SC[C@@H](NC(C)=O)C(=O)NCCCNC(=O)c3ccc(-c4c5nc(c(-c6cc(S(=O)(=O)[O-])ccc6F)c6ccc([nH]6)c(-c6cc(S(=O)(=O)[O-])ccc6F)c6nc(c(-c7cc(S(=O)(=O)[O-])ccc7F)c7ccc4[nH]7)C=C6)C=C5)cc3)C2=O)cc1
REMARK SMILES IDX 22 1 21 2 19 3 20 4 14 6 13 7 12 8 11 9 7 10 8 11 91 12 9 13
REMARK SMILES IDX 10 14 92 15 6 16 3 17 4 18 94 19 5 20 93 21 2 22 1 23 15 24
REMARK SMILES IDX 16 25 17 27 18 28 23 29 24 30 25 31 26 32 27 34 28 35 29 36
REMARK SMILES IDX 90 37 30 38 89 39 31 40 32 41 33 42 83 43 34 44 88 45 82 46
REMARK SMILES IDX 84 47 35 48 87 49 81 50 80 51 36 53 68 54 48 55 67 56 49 57
REMARK SMILES IDX 52 58 66 59 85 60 50 61 51 62 65 64 86 65 53 66 37 67 38 68
REMARK SMILES IDX 46 69 39 70 45 71 47 72 44 73 40 74 41 75 42 76 43 77 69 78
REMARK SMILES IDX 70 79 78 80 71 81 77 82 79 83 76 84 72 85 73 86 74 87 75 88
REMARK SMILES IDX 54 89 55 90 63 91 56 92 62 93 64 94 61 95 57 96 58 97 59 98
REMARK SMILES IDX 60 99
REMARK H PARENT 21 5 15 26 25 33 84 52 52 63
REMARK Flexibility Score: inf
ROOT
ATOM      1  C   UNL     1       6.237   7.532   8.746  1.00  0.00     0.117 C 
ENDROOT
BRANCH   1   2
ATOM      2  N   UNL     1       7.058   6.501   9.354  1.00  0.00    -0.354 N 
ATOM      3  C   UNL     1       7.035   5.146   9.194  1.00  0.00     0.243 C 
ATOM      4  O   UNL     1       7.771   4.473   9.923  1.00  0.00    -0.273 OA
ATOM      5  H   UNL     1       7.740   6.832   9.982  1.00  0.00     0.163 HD
BRANCH   3   6
ATOM      6  C   UNL     1       5.981   4.456   8.296  1.00  0.00     0.181 C 
BRANCH   6   7
ATOM      7  C   UNL     1       4.653   4.567   9.103  1.00  0.00     0.105 C 
BRANCH   7   8
ATOM      8  S   UNL     1       3.136   3.713   8.519  1.00  0.00    -0.145 SA
BRANCH   8   9
ATOM      9  C   UNL     1       2.738   4.678   7.015  1.00  0.00     0.146 C 
ATOM     10  N   UNL     1       1.624   3.530   5.307  1.00  0.00    -0.250 N 
ATOM     11  C   UNL     1       0.700   4.426   5.783  1.00  0.00     0.235 C 
ATOM     12  C   UNL     1       2.861   3.721   5.856  1.00  0.00     0.247 C 
ATOM     13  O   UNL     1      -0.434   4.623   5.386  1.00  0.00    -0.274 OA
ATOM     14  C   UNL     1       1.313   5.190   6.925  1.00  0.00     0.125 C 
ATOM     15  O   UNL     1       3.942   3.273   5.483  1.00  0.00    -0.273 OA
BRANCH  10  16
ATOM     16  C   UNL     1       1.360   2.575   4.307  1.00  0.00     0.052 A 
ATOM     17  C   UNL     1       0.776   0.619   2.362  1.00  0.00    -0.048 A 
ATOM     18  C   UNL     1       1.415   0.266   3.557  1.00  0.00     0.006 A 
ATOM     19  C   UNL     1       0.422   1.960   2.159  1.00  0.00     0.006 A 
ATOM     20  C   UNL     1       1.732   1.240   4.509  1.00  0.00     0.027 A 
ATOM     21  C   UNL     1       0.690   2.925   3.134  1.00  0.00     0.027 A 
BRANCH  17  22
ATOM     22  C   UNL     1       0.428  -0.441   1.344  1.00  0.00     0.032 C 
ATOM     23  C   UNL     1       0.987  -0.160  -0.044  1.00  0.00     0.009 C 
ENDBRANCH  17  22
ENDBRANCH  10  16
ENDBRANCH   8   9
ENDBRANCH   7   8
ENDBRANCH   6   7
BRANCH   6  24
ATOM     24  N   UNL     1       5.873   4.981   6.926  1.00  0.00    -0.344 N 
ATOM     25  C   UNL     1       6.916   5.538   6.218  1.00  0.00     0.217 C 
ATOM     26  H   UNL     1       4.995   4.931   6.484  1.00  0.00     0.164 HD
ATOM     27  C   UNL     1       6.493   6.117   4.893  1.00  0.00     0.114 C 
ATOM     28  O   UNL     1       8.056   5.673   6.642  1.00  0.00    -0.275 OA
ENDBRANCH   6  24
ENDBRANCH   3   6
ENDBRANCH   1   2
BRANCH   1  29
ATOM     29  C   UNL     1       5.529   8.369   9.803  1.00  0.00     0.042 C 
BRANCH  29  30
ATOM     30  C   UNL     1       6.476   9.253  10.601  1.00  0.00     0.118 C 
BRANCH  30  31
ATOM     31  N   UNL     1       7.091  10.282   9.774  1.00  0.00    -0.352 N 
ATOM     32  C   UNL     1       7.033  11.649   9.892  1.00  0.00     0.251 C 
ATOM     33  H   UNL     1       7.628   9.948   9.019  1.00  0.00     0.163 HD
ATOM     34  O   UNL     1       7.418  12.353   8.963  1.00  0.00    -0.269 OA
BRANCH  32  35
ATOM     35  C   UNL     1       6.484  12.261  11.121  1.00  0.00     0.039 A 
ATOM     36  C   UNL     1       5.648  13.373  11.010  1.00  0.00     0.014 A 
ATOM     37  C   UNL     1       6.793  11.739  12.381  1.00  0.00     0.014 A 
ATOM     38  C   UNL     1       5.069  13.918  12.158  1.00  0.00     0.010 A 
ATOM     39  C   UNL     1       6.142  12.223  13.510  1.00  0.00     0.010 A 
ATOM     40  C   UNL     1       5.278  13.323  13.413  1.00  0.00    -0.014 A 
BRANCH  40  41
ATOM     41  C   UNL     1       4.609  13.844  14.634  1.00  0.00     0.031 A 
ATOM     42  C   UNL     1       5.433  14.379  15.774  1.00  0.00     0.074 A 
ATOM     43  C   UNL     1       3.266  13.784  14.735  1.00  0.00     0.049 A 
ATOM     44  N   UNL     1       5.041  14.821  16.942  1.00  0.00    -0.248 NA
ATOM     45  C   UNL     1       6.892  14.388  15.589  1.00  0.00     0.031 C 
ATOM     46  C   UNL     1       2.366  13.247  13.712  1.00  0.00     0.029 A 
ATOM     47  N   UNL     1       2.422  14.172  15.745  1.00  0.00    -0.354 N 
ATOM     48  C   UNL     1       6.203  15.149  17.633  1.00  0.00     0.074 A 
ATOM     49  C   UNL     1       7.314  14.789  16.778  1.00  0.00     0.031 C 
ATOM     50  C   UNL     1       1.097  13.374  14.131  1.00  0.00     0.029 A 
ATOM     51  C   UNL     1       1.092  13.950  15.472  1.00  0.00     0.049 A 
ATOM     52  H   UNL     1       2.739  14.573  16.586  1.00  0.00     0.167 HD
ATOM     53  C   UNL     1       6.331  15.723  18.855  1.00  0.00     0.034 A 
ATOM     54  C   UNL     1      -0.006  14.174  16.221  1.00  0.00     0.034 A 
ATOM     55  C   UNL     1       5.210  16.086  19.687  1.00  0.00     0.049 A 
ATOM     56  C   UNL     1       0.163  14.783  17.591  1.00  0.00     0.074 A 
ATOM     57  C   UNL     1       5.220  16.722  20.916  1.00  0.00     0.029 A 
ATOM     58  N   UNL     1       3.877  15.838  19.382  1.00  0.00    -0.354 N 
ATOM     59  N   UNL     1       1.267  15.140  18.206  1.00  0.00    -0.248 NA
ATOM     60  C   UNL     1      -1.062  15.029  18.361  1.00  0.00     0.031 C 
ATOM     61  C   UNL     1       3.905  16.787  21.388  1.00  0.00     0.029 A 
ATOM     62  C   UNL     1       3.062  16.274  20.415  1.00  0.00     0.049 A 
ATOM     63  H   UNL     1       3.558  15.413  18.553  1.00  0.00     0.167 HD
ATOM     64  C   UNL     1       0.864  15.687  19.422  1.00  0.00     0.074 A 
ATOM     65  C   UNL     1      -0.583  15.625  19.443  1.00  0.00     0.031 C 
ATOM     66  C   UNL     1       1.619  16.198  20.427  1.00  0.00     0.034 A 
BRANCH  53  67
ATOM     67  C   UNL     1       7.731  15.966  19.369  1.00  0.00     0.023 A 
ATOM     68  C   UNL     1       8.626  16.821  18.702  1.00  0.00     0.031 A 
ATOM     69  C   UNL     1       8.187  15.316  20.530  1.00  0.00     0.131 A 
ATOM     70  C   UNL     1       9.949  16.943  19.154  1.00  0.00     0.055 A 
ATOM     71  C   UNL     1       9.478  15.510  21.024  1.00  0.00     0.041 A 
ATOM     72  F   UNL     1       7.387  14.470  21.198  1.00  0.00    -0.206 F 
ATOM     73  C   UNL     1      10.373  16.315  20.326  1.00  0.00     0.022 A 
BRANCH  70  74
ATOM     74  S   UNL     1      11.145  17.811  18.102  1.00  0.00     0.124 S 
ATOM     75  O   UNL     1      11.071  17.034  16.867  1.00  0.00    -0.237 OA
ATOM     76  O   UNL     1      10.593  19.159  18.043  1.00  0.00    -0.237 OA
ATOM     77  O   UNL     1      12.403  17.682  18.836  1.00  0.00    -0.744 OA
ENDBRANCH  70  74
ENDBRANCH  53  67
BRANCH  54  78
ATOM     78  C   UNL     1      -1.361  13.821  15.706  1.00  0.00     0.023 A 
ATOM     79  C   UNL     1      -2.336  14.810  15.499  1.00  0.00     0.031 A 
ATOM     80  C   UNL     1      -1.720  12.483  15.461  1.00  0.00     0.131 A 
ATOM     81  C   UNL     1      -3.636  14.444  15.115  1.00  0.00     0.055 A 
ATOM     82  C   UNL     1      -2.997  12.130  15.020  1.00  0.00     0.041 A 
ATOM     83  F   UNL     1      -0.827  11.497  15.638  1.00  0.00    -0.206 F 
ATOM     84  C   UNL     1      -3.968  13.112  14.860  1.00  0.00     0.022 A 
BRANCH  81  85
ATOM     85  S   UNL     1      -4.915  15.728  15.050  1.00  0.00     0.124 S 
ATOM     86  O   UNL     1      -4.877  16.252  16.411  1.00  0.00    -0.237 OA
ATOM     87  O   UNL     1      -4.405  16.611  14.007  1.00  0.00    -0.237 OA
ATOM     88  O   UNL     1      -6.124  14.985  14.700  1.00  0.00    -0.744 OA
ENDBRANCH  81  85
ENDBRANCH  54  78
BRANCH  66  89
ATOM     89  C   UNL     1       0.885  16.779  21.612  1.00  0.00     0.023 A 
ATOM     90  C   UNL     1       0.114  15.979  22.473  1.00  0.00     0.031 A 
ATOM     91  C   UNL     1       0.954  18.159  21.877  1.00  0.00     0.131 A 
ATOM     92  C   UNL     1      -0.606  16.573  23.521  1.00  0.00     0.055 A 
ATOM     93  C   UNL     1       0.291  18.734  22.961  1.00  0.00     0.041 A 
ATOM     94  F   UNL     1       1.673  18.972  21.086  1.00  0.00    -0.206 F 
ATOM     95  C   UNL     1      -0.506  17.942  23.782  1.00  0.00     0.022 A 
BRANCH  92  96
ATOM     96  S   UNL     1      -1.756  15.548  24.478  1.00  0.00     0.124 S 
ATOM     97  O   UNL     1      -2.652  15.048  23.441  1.00  0.00    -0.237 OA
ATOM     98  O   UNL     1      -0.866  14.561  25.082  1.00  0.00    -0.237 OA
ATOM     99  O   UNL     1      -2.359  16.494  25.416  1.00  0.00    -0.744 OA
ENDBRANCH  92  96
ENDBRANCH  66  89
ENDBRANCH  40  41
ENDBRANCH  32  35
ENDBRANCH  30  31
ENDBRANCH  29  30
ENDBRANCH   1  29
TORSDOF 19
