REMARK SMILES CC(C)(C)NS(=O)(=O)c1csc(C(=O)Nc2ccccc2C(=O)NCCCNC(=O)c2ccc(-c3c4nc(c(-c5cc(S(=O)(=O)[O-])ccc5F)c5ccc([nH]5)c(-c5cc(S(=O)(=O)[O-])ccc5F)c5nc(c(-c6cc(S(=O)(=O)[O-])ccc6F)c6ccc3[nH]6)C=C5)C=C4)cc2)c1
REMARK SMILES IDX 25 1 24 2 22 3 23 4 21 6 16 7 17 8 18 9 20 10 19 11 15 12
REMARK SMILES IDX 13 13 14 14 12 16 9 17 10 18 94 19 11 20 6 21 7 22 8 23 5 24
REMARK SMILES IDX 2 26 1 27 3 28 4 29 26 30 27 31 28 32 29 33 30 35 31 36
REMARK SMILES IDX 32 37 93 38 33 39 92 40 34 41 35 42 36 43 86 44 37 45 91 46
REMARK SMILES IDX 85 47 87 48 38 49 90 50 84 51 83 52 39 54 71 55 51 56 70 57
REMARK SMILES IDX 52 58 55 59 69 60 88 61 53 62 54 63 68 65 89 66 56 67 40 68
REMARK SMILES IDX 41 69 49 70 42 71 48 72 50 73 47 74 43 75 44 76 45 77 46 78
REMARK SMILES IDX 72 79 73 80 81 81 74 82 80 83 82 84 79 85 75 86 76 87 77 88
REMARK SMILES IDX 78 89 57 90 58 91 66 92 59 93 65 94 67 95 64 96 60 97 61 98
REMARK SMILES IDX 62 99 63 100
REMARK H PARENT 24 5 15 15 5 25 28 34 87 53 55 64
REMARK Flexibility Score: inf
ROOT
ATOM      1  C   UNL     1       4.196   0.191   5.273  1.00  0.00     0.118 C 
ENDROOT
BRANCH   1   2
ATOM      2  N   UNL     1       3.252   0.752   4.321  1.00  0.00    -0.352 N 
ATOM      3  C   UNL     1       3.328   1.869   3.530  1.00  0.00     0.253 C 
ATOM      4  O   UNL     1       2.390   2.100   2.760  1.00  0.00    -0.269 OA
ATOM      5  H   UNL     1       2.414   0.243   4.228  1.00  0.00     0.163 HD
BRANCH   3   6
ATOM      6  C   UNL     1       4.456   2.840   3.609  1.00  0.00     0.063 A 
ATOM      7  C   UNL     1       5.832   2.552   3.681  1.00  0.00     0.054 A 
ATOM      8  C   UNL     1       6.734   3.607   3.920  1.00  0.00     0.027 A 
ATOM      9  C   UNL     1       6.311   4.935   3.926  1.00  0.00     0.002 A 
ATOM     10  C   UNL     1       4.048   4.191   3.600  1.00  0.00     0.016 A 
ATOM     11  C   UNL     1       4.970   5.230   3.734  1.00  0.00     0.001 A 
BRANCH   7  12
ATOM     12  N   UNL     1       6.467   1.309   3.502  1.00  0.00    -0.321 N 
ATOM     13  C   UNL     1       6.229   0.234   2.672  1.00  0.00     0.265 C 
ATOM     14  O   UNL     1       6.883  -0.781   2.929  1.00  0.00    -0.268 OA
ATOM     15  H   UNL     1       7.243   1.180   4.093  1.00  0.00     0.170 HD
BRANCH  13  16
ATOM     16  C   UNL     1       5.336   0.334   1.531  1.00  0.00     0.094 A 
ATOM     17  C   UNL     1       3.873   1.084  -0.131  1.00  0.00     0.093 A 
ATOM     18  C   UNL     1       3.809  -0.277  -0.319  1.00  0.00     0.087 A 
ATOM     19  C   UNL     1       4.875   1.429   0.825  1.00  0.00     0.047 A 
ATOM     20  S   UNL     1       4.758  -1.123   0.821  1.00  0.00    -0.137 S 
BRANCH  17  21
ATOM     21  S   UNL     1       2.897   2.251  -0.961  1.00  0.00     0.241 S 
ATOM     22  O   UNL     1       3.064   1.931  -2.358  1.00  0.00    -0.207 OA
ATOM     23  O   UNL     1       3.347   3.520  -0.425  1.00  0.00    -0.207 OA
BRANCH  21  24
ATOM     24  N   UNL     1       1.291   2.095  -0.490  1.00  0.00    -0.206 NA
ATOM     25  H   UNL     1       1.315   2.061   0.529  1.00  0.00     0.141 HD
BRANCH  24  26
ATOM     26  C   UNL     1       0.355   1.014  -0.891  1.00  0.00     0.025 C 
ATOM     27  C   UNL     1       0.339  -0.083   0.180  1.00  0.00     0.028 C 
ATOM     28  C   UNL     1       0.634   0.433  -2.279  1.00  0.00     0.028 C 
ATOM     29  C   UNL     1      -1.050   1.649  -0.934  1.00  0.00     0.028 C 
ENDBRANCH  24  26
ENDBRANCH  21  24
ENDBRANCH  17  21
ENDBRANCH  13  16
ENDBRANCH   7  12
ENDBRANCH   3   6
ENDBRANCH   1   2
BRANCH   1  30
ATOM     30  C   UNL     1       3.543  -0.498   6.461  1.00  0.00     0.042 C 
BRANCH  30  31
ATOM     31  C   UNL     1       2.599  -1.641   6.106  1.00  0.00     0.118 C 
BRANCH  31  32
ATOM     32  N   UNL     1       3.236  -2.757   5.418  1.00  0.00    -0.352 N 
ATOM     33  C   UNL     1       3.556  -4.031   5.835  1.00  0.00     0.251 C 
ATOM     34  H   UNL     1       3.483  -2.567   4.484  1.00  0.00     0.163 HD
ATOM     35  O   UNL     1       4.167  -4.772   5.069  1.00  0.00    -0.269 OA
BRANCH  33  36
ATOM     36  C   UNL     1       3.227  -4.500   7.201  1.00  0.00     0.039 A 
ATOM     37  C   UNL     1       4.162  -5.274   7.895  1.00  0.00     0.014 A 
ATOM     38  C   UNL     1       2.013  -4.187   7.809  1.00  0.00     0.014 A 
ATOM     39  C   UNL     1       3.924  -5.632   9.227  1.00  0.00     0.010 A 
ATOM     40  C   UNL     1       1.833  -4.431   9.166  1.00  0.00     0.010 A 
ATOM     41  C   UNL     1       2.785  -5.159   9.896  1.00  0.00    -0.014 A 
BRANCH  41  42
ATOM     42  C   UNL     1       2.551  -5.416  11.345  1.00  0.00     0.031 A 
ATOM     43  C   UNL     1       1.279  -6.093  11.792  1.00  0.00     0.074 A 
ATOM     44  C   UNL     1       3.424  -4.951  12.262  1.00  0.00     0.049 A 
ATOM     45  N   UNL     1       0.802  -6.254  13.000  1.00  0.00    -0.248 NA
ATOM     46  C   UNL     1       0.400  -6.604  10.729  1.00  0.00     0.031 C 
ATOM     47  C   UNL     1       4.660  -4.221  11.966  1.00  0.00     0.029 A 
ATOM     48  N   UNL     1       3.400  -5.010  13.633  1.00  0.00    -0.354 N 
ATOM     49  C   UNL     1      -0.452  -6.837  12.838  1.00  0.00     0.074 A 
ATOM     50  C   UNL     1      -0.683  -6.937  11.413  1.00  0.00     0.031 C 
ATOM     51  C   UNL     1       5.288  -3.930  13.116  1.00  0.00     0.029 A 
ATOM     52  C   UNL     1       4.482  -4.407  14.234  1.00  0.00     0.049 A 
ATOM     53  H   UNL     1       2.676  -5.443  14.140  1.00  0.00     0.167 HD
ATOM     54  C   UNL     1      -1.317  -7.274  13.787  1.00  0.00     0.034 A 
ATOM     55  C   UNL     1       4.787  -4.249  15.537  1.00  0.00     0.034 A 
ATOM     56  C   UNL     1      -1.042  -7.221  15.202  1.00  0.00     0.049 A 
ATOM     57  C   UNL     1       3.842  -4.800  16.574  1.00  0.00     0.074 A 
ATOM     58  C   UNL     1      -1.808  -7.701  16.251  1.00  0.00     0.029 A 
ATOM     59  N   UNL     1       0.098  -6.665  15.768  1.00  0.00    -0.354 N 
ATOM     60  N   UNL     1       2.679  -5.384  16.404  1.00  0.00    -0.248 NA
ATOM     61  C   UNL     1       4.259  -4.682  17.977  1.00  0.00     0.031 C 
ATOM     62  C   UNL     1      -1.153  -7.395  17.450  1.00  0.00     0.029 A 
ATOM     63  C   UNL     1       0.051  -6.779  17.148  1.00  0.00     0.049 A 
ATOM     64  H   UNL     1       0.833  -6.249  15.261  1.00  0.00     0.167 HD
ATOM     65  C   UNL     1       2.239  -5.729  17.678  1.00  0.00     0.074 A 
ATOM     66  C   UNL     1       3.270  -5.303  18.602  1.00  0.00     0.031 C 
ATOM     67  C   UNL     1       1.088  -6.344  18.053  1.00  0.00     0.034 A 
BRANCH  54  68
ATOM     68  C   UNL     1      -2.640  -7.832  13.316  1.00  0.00     0.023 A 
ATOM     69  C   UNL     1      -2.711  -8.967  12.488  1.00  0.00     0.031 A 
ATOM     70  C   UNL     1      -3.846  -7.193  13.653  1.00  0.00     0.131 A 
ATOM     71  C   UNL     1      -3.942  -9.366  11.947  1.00  0.00     0.055 A 
ATOM     72  C   UNL     1      -5.081  -7.652  13.186  1.00  0.00     0.041 A 
ATOM     73  F   UNL     1      -3.846  -6.095  14.426  1.00  0.00    -0.206 F 
ATOM     74  C   UNL     1      -5.132  -8.733  12.311  1.00  0.00     0.022 A 
BRANCH  71  75
ATOM     75  S   UNL     1      -3.942 -10.617  10.633  1.00  0.00     0.124 S 
ATOM     76  O   UNL     1      -3.134  -9.962   9.607  1.00  0.00    -0.237 OA
ATOM     77  O   UNL     1      -3.329 -11.766  11.291  1.00  0.00    -0.237 OA
ATOM     78  O   UNL     1      -5.357 -10.767  10.302  1.00  0.00    -0.744 OA
ENDBRANCH  71  75
ENDBRANCH  54  68
BRANCH  55  79
ATOM     79  C   UNL     1       6.040  -3.551  15.943  1.00  0.00     0.023 A 
ATOM     80  C   UNL     1       7.076  -4.249  16.584  1.00  0.00     0.031 A 
ATOM     81  C   UNL     1       6.206  -2.172  15.729  1.00  0.00     0.131 A 
ATOM     82  C   UNL     1       8.212  -3.558  17.033  1.00  0.00     0.055 A 
ATOM     83  C   UNL     1       7.360  -1.498  16.134  1.00  0.00     0.041 A 
ATOM     84  F   UNL     1       5.251  -1.461  15.108  1.00  0.00    -0.206 F 
ATOM     85  C   UNL     1       8.366  -2.189  16.803  1.00  0.00     0.022 A 
BRANCH  82  86
ATOM     86  S   UNL     1       9.456  -4.464  17.993  1.00  0.00     0.124 S 
ATOM     87  O   UNL     1       8.662  -4.968  19.108  1.00  0.00    -0.237 OA
ATOM     88  O   UNL     1       9.914  -5.460  17.030  1.00  0.00    -0.237 OA
ATOM     89  O   UNL     1      10.435  -3.436  18.337  1.00  0.00    -0.744 OA
ENDBRANCH  82  86
ENDBRANCH  55  79
BRANCH  67  90
ATOM     90  C   UNL     1       0.919  -6.631  19.523  1.00  0.00     0.023 A 
ATOM     91  C   UNL     1       0.749  -5.599  20.462  1.00  0.00     0.031 A 
ATOM     92  C   UNL     1       0.952  -7.956  19.991  1.00  0.00     0.131 A 
ATOM     93  C   UNL     1       0.677  -5.905  21.829  1.00  0.00     0.055 A 
ATOM     94  C   UNL     1       0.823  -8.258  21.347  1.00  0.00     0.041 A 
ATOM     95  F   UNL     1       1.113  -8.979  19.136  1.00  0.00    -0.206 F 
ATOM     96  C   UNL     1       0.699  -7.229  22.276  1.00  0.00     0.022 A 
BRANCH  93  97
ATOM     97  S   UNL     1       0.650  -4.542  23.025  1.00  0.00     0.124 S 
ATOM     98  O   UNL     1       1.878  -3.825  22.697  1.00  0.00    -0.237 OA
ATOM     99  O   UNL     1      -0.595  -3.858  22.689  1.00  0.00    -0.237 OA
ATOM    100  O   UNL     1       0.654  -5.221  24.319  1.00  0.00    -0.744 OA
ENDBRANCH  93  97
ENDBRANCH  67  90
ENDBRANCH  41  42
ENDBRANCH  33  36
ENDBRANCH  31  32
ENDBRANCH  30  31
ENDBRANCH   1  30
TORSDOF 18
