REMARK SMILES Cc1ccc(N2CC[C@H]([NH+]3CCOCC3)[C@H](CCC(=O)NCCCNC(=O)c3ccc(-c4c5nc(c(-c6cc(S(=O)(=O)[O-])ccc6F)c6ccc([nH]6)c(-c6cc(S(=O)(=O)[O-])ccc6F)c6nc(c(-c7cc(S(=O)(=O)[O-])ccc7F)c7ccc4[nH]7)C=C6)C=C5)cc3)C2)nc1
REMARK SMILES IDX 23 1 22 2 21 3 19 4 20 5 18 7 17 8 16 9 6 10 7 11 91 12 8 13
REMARK SMILES IDX 9 14 5 15 1 16 2 17 3 18 93 19 4 20 92 21 10 22 11 23 15 24
REMARK SMILES IDX 12 26 14 27 13 28 24 29 25 30 26 31 27 33 28 34 29 35 90 36
REMARK SMILES IDX 30 37 89 38 31 39 32 40 33 41 83 42 34 43 88 44 82 45 84 46
REMARK SMILES IDX 35 47 87 48 81 49 80 50 36 52 68 53 48 54 67 55 49 56 52 57
REMARK SMILES IDX 66 58 85 59 50 60 51 61 65 63 86 64 53 65 37 66 38 67 46 68
REMARK SMILES IDX 39 69 45 70 47 71 44 72 40 73 41 74 42 75 43 76 69 77 70 78
REMARK SMILES IDX 78 79 71 80 77 81 79 82 76 83 72 84 73 85 74 86 75 87 54 88
REMARK SMILES IDX 55 89 63 90 56 91 62 92 64 93 61 94 57 95 58 96 59 97 60 98
REMARK H PARENT 21 6 10 25 25 32 84 51 52 62
REMARK Flexibility Score: inf
ROOT
ATOM      1  C   UNL     1      -7.039   1.144  -2.922  1.00  0.00     0.042 C 
ENDROOT
BRANCH   1   2
ATOM      2  C   UNL     1      -7.225  -0.196  -3.636  1.00  0.00     0.117 C 
BRANCH   2   3
ATOM      3  N   UNL     1      -6.345  -0.264  -4.792  1.00  0.00    -0.356 N 
ATOM      4  C   UNL     1      -5.094  -0.801  -4.913  1.00  0.00     0.220 C 
ATOM      5  O   UNL     1      -4.460  -0.567  -5.943  1.00  0.00    -0.275 OA
ATOM      6  H   UNL     1      -6.706   0.139  -5.614  1.00  0.00     0.163 HD
BRANCH   4   7
ATOM      7  C   UNL     1      -4.564  -1.771  -3.868  1.00  0.00     0.100 C 
BRANCH   7   8
ATOM      8  C   UNL     1      -3.741  -1.242  -2.671  1.00  0.00     0.021 C 
BRANCH   8   9
ATOM      9  C   UNL     1      -4.547  -0.593  -1.526  1.00  0.00     0.067 C 
ATOM     10  N   UNL     1      -3.008   0.218   0.252  1.00  0.00    -0.356 N 
ATOM     11  C   UNL     1      -3.659  -0.527   1.302  1.00  0.00     0.124 C 
ATOM     12  C   UNL     1      -3.795   0.615  -0.897  1.00  0.00     0.127 C 
ATOM     13  C   UNL     1      -4.289  -1.793   0.741  1.00  0.00     0.087 C 
ATOM     14  C   UNL     1      -5.248  -1.452  -0.406  1.00  0.00     0.190 C 
BRANCH  10  15
ATOM     15  C   UNL     1      -1.639   0.126   0.145  1.00  0.00     0.128 A 
ATOM     16  C   UNL     1       2.602  -0.193  -0.024  1.00  0.00     0.046 C 
ATOM     17  C   UNL     1       1.118  -0.037   0.039  1.00  0.00    -0.033 A 
ATOM     18  C   UNL     1       0.503   1.204  -0.083  1.00  0.00     0.009 A 
ATOM     19  C   UNL     1       0.292  -1.140   0.210  1.00  0.00     0.117 A 
ATOM     20  C   UNL     1      -0.886   1.283  -0.041  1.00  0.00     0.047 A 
ATOM     21  N   UNL     1      -1.056  -1.083   0.284  1.00  0.00    -0.239 NA
ENDBRANCH  10  15
BRANCH  14  22
ATOM     22  N   UNL     1      -6.193  -2.524  -0.808  1.00  0.00    -0.328 N 
ATOM     23  C   UNL     1      -7.139  -2.924   0.269  1.00  0.00     0.291 C 
ATOM     24  C   UNL     1      -5.693  -3.743  -1.455  1.00  0.00     0.291 C 
ATOM     25  H   UNL     1      -6.656  -2.012  -1.559  1.00  0.00     0.348 HD
ATOM     26  C   UNL     1      -6.716  -4.133   1.137  1.00  0.00     0.221 C 
ATOM     27  C   UNL     1      -5.259  -4.881  -0.534  1.00  0.00     0.221 C 
ATOM     28  O   UNL     1      -6.317  -5.256   0.346  1.00  0.00    -0.370 OA
ENDBRANCH  14  22
ENDBRANCH   8   9
ENDBRANCH   7   8
ENDBRANCH   4   7
ENDBRANCH   2   3
ENDBRANCH   1   2
BRANCH   1  29
ATOM     29  C   UNL     1      -7.872   2.259  -3.505  1.00  0.00     0.118 C 
BRANCH  29  30
ATOM     30  N   UNL     1      -9.230   2.236  -2.995  1.00  0.00    -0.352 N 
ATOM     31  C   UNL     1      -9.928   3.225  -2.339  1.00  0.00     0.251 C 
ATOM     32  H   UNL     1      -9.722   1.395  -3.139  1.00  0.00     0.163 HD
ATOM     33  O   UNL     1     -10.988   2.945  -1.794  1.00  0.00    -0.269 OA
BRANCH  31  34
ATOM     34  C   UNL     1      -9.379   4.603  -2.259  1.00  0.00     0.039 A 
ATOM     35  C   UNL     1      -9.586   5.345  -1.094  1.00  0.00     0.014 A 
ATOM     36  C   UNL     1      -8.662   5.167  -3.317  1.00  0.00     0.014 A 
ATOM     37  C   UNL     1      -9.029   6.622  -0.975  1.00  0.00     0.010 A 
ATOM     38  C   UNL     1      -8.005   6.381  -3.148  1.00  0.00     0.010 A 
ATOM     39  C   UNL     1      -8.201   7.137  -1.986  1.00  0.00    -0.014 A 
BRANCH  39  40
ATOM     40  C   UNL     1      -7.575   8.481  -1.871  1.00  0.00     0.031 A 
ATOM     41  C   UNL     1      -7.893   9.542  -2.896  1.00  0.00     0.074 A 
ATOM     42  C   UNL     1      -6.693   8.733  -0.883  1.00  0.00     0.049 A 
ATOM     43  N   UNL     1      -7.399  10.747  -3.021  1.00  0.00    -0.248 NA
ATOM     44  C   UNL     1      -8.870   9.188  -3.938  1.00  0.00     0.031 C 
ATOM     45  C   UNL     1      -6.277   7.775   0.144  1.00  0.00     0.029 A 
ATOM     46  N   UNL     1      -5.986   9.870  -0.578  1.00  0.00    -0.354 N 
ATOM     47  C   UNL     1      -7.995  11.284  -4.159  1.00  0.00     0.074 A 
ATOM     48  C   UNL     1      -8.824  10.247  -4.729  1.00  0.00     0.031 C 
ATOM     49  C   UNL     1      -5.420   8.376   0.986  1.00  0.00     0.029 A 
ATOM     50  C   UNL     1      -5.179   9.741   0.531  1.00  0.00     0.049 A 
ATOM     51  H   UNL     1      -6.050  10.700  -1.103  1.00  0.00     0.167 HD
ATOM     52  C   UNL     1      -7.887  12.538  -4.662  1.00  0.00     0.034 A 
ATOM     53  C   UNL     1      -4.333  10.619   1.106  1.00  0.00     0.034 A 
ATOM     54  C   UNL     1      -7.073  13.568  -4.069  1.00  0.00     0.049 A 
ATOM     55  C   UNL     1      -4.204  11.998   0.504  1.00  0.00     0.074 A 
ATOM     56  C   UNL     1      -6.924  14.885  -4.466  1.00  0.00     0.029 A 
ATOM     57  N   UNL     1      -6.265  13.397  -2.951  1.00  0.00    -0.354 N 
ATOM     58  N   UNL     1      -4.813  12.503  -0.545  1.00  0.00    -0.248 NA
ATOM     59  C   UNL     1      -3.284  12.928   1.171  1.00  0.00     0.031 C 
ATOM     60  C   UNL     1      -5.974  15.488  -3.637  1.00  0.00     0.029 A 
ATOM     61  C   UNL     1      -5.593  14.576  -2.666  1.00  0.00     0.049 A 
ATOM     62  H   UNL     1      -6.182  12.562  -2.437  1.00  0.00     0.167 HD
ATOM     63  C   UNL     1      -4.374  13.821  -0.639  1.00  0.00     0.074 A 
ATOM     64  C   UNL     1      -3.468  14.037   0.469  1.00  0.00     0.031 C 
ATOM     65  C   UNL     1      -4.691  14.771  -1.557  1.00  0.00     0.034 A 
BRANCH  52  66
ATOM     66  C   UNL     1      -8.659  12.854  -5.922  1.00  0.00     0.023 A 
ATOM     67  C   UNL     1     -10.064  12.802  -5.961  1.00  0.00     0.031 A 
ATOM     68  C   UNL     1      -7.982  13.200  -7.105  1.00  0.00     0.131 A 
ATOM     69  C   UNL     1     -10.741  13.020  -7.170  1.00  0.00     0.055 A 
ATOM     70  C   UNL     1      -8.667  13.501  -8.285  1.00  0.00     0.041 A 
ATOM     71  F   UNL     1      -6.641  13.244  -7.138  1.00  0.00    -0.206 F 
ATOM     72  C   UNL     1     -10.055  13.398  -8.325  1.00  0.00     0.022 A 
BRANCH  69  73
ATOM     73  S   UNL     1     -12.519  12.668  -7.242  1.00  0.00     0.124 S 
ATOM     74  O   UNL     1     -12.552  11.251  -6.888  1.00  0.00    -0.237 OA
ATOM     75  O   UNL     1     -13.064  13.587  -6.250  1.00  0.00    -0.237 OA
ATOM     76  O   UNL     1     -12.871  12.964  -8.629  1.00  0.00    -0.744 OA
ENDBRANCH  69  73
ENDBRANCH  52  66
BRANCH  53  77
ATOM     77  C   UNL     1      -3.530  10.236   2.305  1.00  0.00     0.023 A 
ATOM     78  C   UNL     1      -3.677  10.920   3.523  1.00  0.00     0.031 A 
ATOM     79  C   UNL     1      -2.555   9.225   2.236  1.00  0.00     0.131 A 
ATOM     80  C   UNL     1      -2.821  10.633   4.597  1.00  0.00     0.055 A 
ATOM     81  C   UNL     1      -1.751   8.896   3.329  1.00  0.00     0.041 A 
ATOM     82  F   UNL     1      -2.369   8.536   1.098  1.00  0.00    -0.206 F 
ATOM     83  C   UNL     1      -1.869   9.615   4.514  1.00  0.00     0.022 A 
BRANCH  80  84
ATOM     84  S   UNL     1      -2.888  11.694   6.067  1.00  0.00     0.124 S 
ATOM     85  O   UNL     1      -2.655  13.013   5.490  1.00  0.00    -0.237 OA
ATOM     86  O   UNL     1      -4.237  11.439   6.562  1.00  0.00    -0.237 OA
ATOM     87  O   UNL     1      -1.809  11.179   6.907  1.00  0.00    -0.744 OA
ENDBRANCH  80  84
ENDBRANCH  53  77
BRANCH  65  88
ATOM     88  C   UNL     1      -4.090  16.142  -1.364  1.00  0.00     0.023 A 
ATOM     89  C   UNL     1      -2.706  16.366  -1.468  1.00  0.00     0.031 A 
ATOM     90  C   UNL     1      -4.917  17.239  -1.064  1.00  0.00     0.131 A 
ATOM     91  C   UNL     1      -2.185  17.643  -1.213  1.00  0.00     0.055 A 
ATOM     92  C   UNL     1      -4.400  18.522  -0.881  1.00  0.00     0.041 A 
ATOM     93  F   UNL     1      -6.246  17.083  -0.950  1.00  0.00    -0.206 F 
ATOM     94  C   UNL     1      -3.025  18.726  -0.941  1.00  0.00     0.022 A 
BRANCH  91  95
ATOM     95  S   UNL     1      -0.385  17.849  -1.142  1.00  0.00     0.124 S 
ATOM     96  O   UNL     1      -0.014  16.909  -0.089  1.00  0.00    -0.237 OA
ATOM     97  O   UNL     1       0.025  17.483  -2.494  1.00  0.00    -0.237 OA
ATOM     98  O   UNL     1      -0.214  19.260  -0.803  1.00  0.00    -0.744 OA
ENDBRANCH  91  95
ENDBRANCH  65  88
ENDBRANCH  39  40
ENDBRANCH  31  34
ENDBRANCH  29  30
ENDBRANCH   1  29
TORSDOF 17
