REMARK SMILES O=C(CCc1ccccc1)Nc1ccccc1Oc1ccsc1C(=O)NCCCNC(=O)c1ccc(-c2c3nc(c(-c4cc(S(=O)(=O)[O-])ccc4F)c4ccc([nH]4)c(-c4cc(S(=O)(=O)[O-])ccc4F)c4nc(c(-c5cc(S(=O)(=O)[O-])ccc5F)c5ccc2[nH]5)C=C4)C=C3)cc1
REMARK SMILES IDX 24 1 25 2 26 3 23 5 19 6 20 7 21 8 22 9 18 10 17 11 12 12
REMARK SMILES IDX 13 13 14 14 16 15 15 16 11 17 1 18 2 19 3 21 4 22 5 23 6 24
REMARK SMILES IDX 10 25 7 26 9 27 8 28 27 29 28 30 29 31 30 32 31 33 32 35
REMARK SMILES IDX 33 36 34 37 95 38 35 39 94 40 36 41 37 42 38 43 88 44 39 45
REMARK SMILES IDX 93 46 87 47 89 48 40 49 92 50 86 51 85 52 41 54 73 55 53 56
REMARK SMILES IDX 72 57 54 58 57 59 71 60 90 61 55 62 56 63 70 65 91 66 58 67
REMARK SMILES IDX 42 68 43 69 51 70 44 71 50 72 52 73 49 74 45 75 46 76 47 77
REMARK SMILES IDX 48 78 74 79 75 80 83 81 76 82 82 83 84 84 81 85 77 86 78 87
REMARK SMILES IDX 79 88 80 89 59 90 60 91 68 92 61 93 67 94 69 95 66 96 62 97
REMARK SMILES IDX 63 98 64 99 65 100
REMARK H PARENT 26 4 11 20 30 34 89 53 57 64
REMARK Flexibility Score: inf
ROOT
ATOM      1  C   UNL     1      -0.198   1.809   0.285  1.00  0.00     0.265 C 
ATOM      2  O   UNL     1      -0.417   1.915   1.500  1.00  0.00    -0.268 OA
ATOM      3  N   UNL     1      -1.264   1.321  -0.429  1.00  0.00    -0.351 N 
ATOM      4  H   UNL     1      -1.993   0.981   0.138  1.00  0.00     0.163 HD
ENDROOT
BRANCH   1   5
ATOM      5  C   UNL     1       1.080   2.202  -0.308  1.00  0.00     0.135 A 
ATOM      6  C   UNL     1       1.792   1.793  -1.426  1.00  0.00     0.151 A 
ATOM      7  C   UNL     1       3.084   2.392  -1.528  1.00  0.00     0.059 A 
ATOM      8  C   UNL     1       3.345   3.235  -0.473  1.00  0.00     0.069 A 
ATOM      9  S   UNL     1       2.028   3.335   0.603  1.00  0.00    -0.135 S 
BRANCH   6  10
ATOM     10  O   UNL     1       1.253   0.969  -2.343  1.00  0.00    -0.453 OA
BRANCH  10  11
ATOM     11  C   UNL     1       1.793  -0.198  -2.815  1.00  0.00     0.151 A 
ATOM     12  C   UNL     1       2.615  -1.098  -2.132  1.00  0.00     0.084 A 
ATOM     13  C   UNL     1       2.982  -2.303  -2.749  1.00  0.00     0.030 A 
ATOM     14  C   UNL     1       2.482  -2.643  -4.006  1.00  0.00     0.002 A 
ATOM     15  C   UNL     1       1.353  -0.523  -4.109  1.00  0.00     0.049 A 
ATOM     16  C   UNL     1       1.675  -1.746  -4.694  1.00  0.00     0.004 A 
BRANCH  12  17
ATOM     17  N   UNL     1       3.163  -0.854  -0.866  1.00  0.00    -0.323 N 
ATOM     18  O   UNL     1       1.225  -0.998   0.381  1.00  0.00    -0.275 OA
ATOM     19  C   UNL     1       2.426  -0.748   0.296  1.00  0.00     0.224 C 
ATOM     20  H   UNL     1       4.140  -0.750  -0.801  1.00  0.00     0.170 HD
BRANCH  19  21
ATOM     21  C   UNL     1       3.216  -0.226   1.491  1.00  0.00     0.105 C 
BRANCH  21  22
ATOM     22  C   UNL     1       4.263  -1.175   2.077  1.00  0.00     0.045 C 
BRANCH  22  23
ATOM     23  C   UNL     1       5.381  -1.506   1.117  1.00  0.00    -0.048 A 
ATOM     24  C   UNL     1       5.499  -2.808   0.610  1.00  0.00     0.004 A 
ATOM     25  C   UNL     1       6.218  -0.498   0.611  1.00  0.00     0.004 A 
ATOM     26  C   UNL     1       6.393  -3.083  -0.425  1.00  0.00     0.000 A 
ATOM     27  C   UNL     1       7.106  -0.776  -0.429  1.00  0.00     0.000 A 
ATOM     28  C   UNL     1       7.185  -2.065  -0.953  1.00  0.00     0.000 A 
ENDBRANCH  22  23
ENDBRANCH  21  22
ENDBRANCH  19  21
ENDBRANCH  12  17
ENDBRANCH  10  11
ENDBRANCH   6  10
ENDBRANCH   1   5
BRANCH   3  29
ATOM     29  C   UNL     1      -1.536   1.205  -1.847  1.00  0.00     0.118 C 
BRANCH  29  30
ATOM     30  C   UNL     1      -1.568  -0.255  -2.302  1.00  0.00     0.042 C 
BRANCH  30  31
ATOM     31  C   UNL     1      -2.941  -0.906  -2.164  1.00  0.00     0.118 C 
BRANCH  31  32
ATOM     32  N   UNL     1      -3.883  -0.336  -3.121  1.00  0.00    -0.352 N 
ATOM     33  C   UNL     1      -4.340  -0.821  -4.321  1.00  0.00     0.251 C 
ATOM     34  H   UNL     1      -4.252   0.541  -2.864  1.00  0.00     0.163 HD
ATOM     35  O   UNL     1      -4.801  -0.026  -5.138  1.00  0.00    -0.269 OA
BRANCH  33  36
ATOM     36  C   UNL     1      -4.304  -2.269  -4.638  1.00  0.00     0.039 A 
ATOM     37  C   UNL     1      -4.175  -2.667  -5.975  1.00  0.00     0.014 A 
ATOM     38  C   UNL     1      -4.500  -3.236  -3.650  1.00  0.00     0.014 A 
ATOM     39  C   UNL     1      -4.206  -4.025  -6.310  1.00  0.00     0.010 A 
ATOM     40  C   UNL     1      -4.447  -4.590  -3.974  1.00  0.00     0.010 A 
ATOM     41  C   UNL     1      -4.319  -5.001  -5.309  1.00  0.00    -0.014 A 
BRANCH  41  42
ATOM     42  C   UNL     1      -4.349  -6.455  -5.626  1.00  0.00     0.031 A 
ATOM     43  C   UNL     1      -5.566  -7.272  -5.275  1.00  0.00     0.074 A 
ATOM     44  C   UNL     1      -3.261  -7.051  -6.149  1.00  0.00     0.049 A 
ATOM     45  N   UNL     1      -5.739  -8.569  -5.320  1.00  0.00    -0.248 NA
ATOM     46  C   UNL     1      -6.731  -6.530  -4.769  1.00  0.00     0.031 C 
ATOM     47  C   UNL     1      -2.014  -6.372  -6.506  1.00  0.00     0.029 A 
ATOM     48  N   UNL     1      -3.019  -8.367  -6.456  1.00  0.00    -0.354 N 
ATOM     49  C   UNL     1      -7.017  -8.800  -4.818  1.00  0.00     0.074 A 
ATOM     50  C   UNL     1      -7.550  -7.512  -4.426  1.00  0.00     0.031 C 
ATOM     51  C   UNL     1      -1.146  -7.272  -6.995  1.00  0.00     0.029 A 
ATOM     52  C   UNL     1      -1.752  -8.598  -6.939  1.00  0.00     0.049 A 
ATOM     53  H   UNL     1      -3.690  -9.079  -6.341  1.00  0.00     0.167 HD
ATOM     54  C   UNL     1      -7.689  -9.974  -4.712  1.00  0.00     0.034 A 
ATOM     55  C   UNL     1      -1.140  -9.750  -7.277  1.00  0.00     0.034 A 
ATOM     56  C   UNL     1      -7.149 -11.244  -5.135  1.00  0.00     0.049 A 
ATOM     57  C   UNL     1      -1.903 -11.044  -7.146  1.00  0.00     0.074 A 
ATOM     58  C   UNL     1      -7.758 -12.487  -5.128  1.00  0.00     0.029 A 
ATOM     59  N   UNL     1      -5.869 -11.434  -5.641  1.00  0.00    -0.354 N 
ATOM     60  N   UNL     1      -3.121 -11.243  -6.698  1.00  0.00    -0.248 NA
ATOM     61  C   UNL     1      -1.211 -12.266  -7.575  1.00  0.00     0.031 C 
ATOM     62  C   UNL     1      -6.829 -13.434  -5.572  1.00  0.00     0.029 A 
ATOM     63  C   UNL     1      -5.663 -12.775  -5.927  1.00  0.00     0.049 A 
ATOM     64  H   UNL     1      -5.205 -10.720  -5.777  1.00  0.00     0.167 HD
ATOM     65  C   UNL     1      -3.352 -12.611  -6.822  1.00  0.00     0.074 A 
ATOM     66  C   UNL     1      -2.151 -13.183  -7.398  1.00  0.00     0.031 C 
ATOM     67  C   UNL     1      -4.456 -13.329  -6.495  1.00  0.00     0.034 A 
BRANCH  54  68
ATOM     68  C   UNL     1      -9.067  -9.935  -4.091  1.00  0.00     0.023 A 
ATOM     69  C   UNL     1     -10.121  -9.209  -4.673  1.00  0.00     0.031 A 
ATOM     70  C   UNL     1      -9.323 -10.605  -2.881  1.00  0.00     0.131 A 
ATOM     71  C   UNL     1     -11.351  -9.100  -4.007  1.00  0.00     0.055 A 
ATOM     72  C   UNL     1     -10.577 -10.564  -2.266  1.00  0.00     0.041 A 
ATOM     73  F   UNL     1      -8.354 -11.300  -2.266  1.00  0.00    -0.206 F 
ATOM     74  C   UNL     1     -11.595  -9.794  -2.820  1.00  0.00     0.022 A 
BRANCH  71  75
ATOM     75  S   UNL     1     -12.574  -7.917  -4.636  1.00  0.00     0.124 S 
ATOM     76  O   UNL     1     -11.832  -6.661  -4.565  1.00  0.00    -0.237 OA
ATOM     77  O   UNL     1     -12.844  -8.425  -5.976  1.00  0.00    -0.237 OA
ATOM     78  O   UNL     1     -13.682  -8.033  -3.689  1.00  0.00    -0.744 OA
ENDBRANCH  71  75
ENDBRANCH  54  68
BRANCH  55  79
ATOM     79  C   UNL     1       0.270  -9.742  -7.761  1.00  0.00     0.023 A 
ATOM     80  C   UNL     1       0.585 -10.126  -9.073  1.00  0.00     0.031 A 
ATOM     81  C   UNL     1       1.329  -9.380  -6.908  1.00  0.00     0.131 A 
ATOM     82  C   UNL     1       1.926 -10.184  -9.483  1.00  0.00     0.055 A 
ATOM     83  C   UNL     1       2.657  -9.389  -7.336  1.00  0.00     0.041 A 
ATOM     84  F   UNL     1       1.083  -8.996  -5.645  1.00  0.00    -0.206 F 
ATOM     85  C   UNL     1       2.963  -9.806  -8.628  1.00  0.00     0.022 A 
BRANCH  82  86
ATOM     86  S   UNL     1       2.301 -10.837 -11.133  1.00  0.00     0.124 S 
ATOM     87  O   UNL     1       1.708 -12.168 -11.068  1.00  0.00    -0.237 OA
ATOM     88  O   UNL     1       1.629  -9.875 -11.999  1.00  0.00    -0.237 OA
ATOM     89  O   UNL     1       3.761 -10.806 -11.186  1.00  0.00    -0.744 OA
ENDBRANCH  82  86
ENDBRANCH  55  79
BRANCH  67  90
ATOM     90  C   UNL     1      -4.428 -14.805  -6.805  1.00  0.00     0.023 A 
ATOM     91  C   UNL     1      -3.572 -15.689  -6.125  1.00  0.00     0.031 A 
ATOM     92  C   UNL     1      -5.264 -15.330  -7.806  1.00  0.00     0.131 A 
ATOM     93  C   UNL     1      -3.532 -17.043  -6.492  1.00  0.00     0.055 A 
ATOM     94  C   UNL     1      -5.263 -16.688  -8.127  1.00  0.00     0.041 A 
ATOM     95  F   UNL     1      -6.099 -14.530  -8.488  1.00  0.00    -0.206 F 
ATOM     96  C   UNL     1      -4.384 -17.550  -7.477  1.00  0.00     0.022 A 
BRANCH  93  97
ATOM     97  S   UNL     1      -2.287 -18.117  -5.728  1.00  0.00     0.124 S 
ATOM     98  O   UNL     1      -1.043 -17.447  -6.093  1.00  0.00    -0.237 OA
ATOM     99  O   UNL     1      -2.650 -18.060  -4.315  1.00  0.00    -0.237 OA
ATOM    100  O   UNL     1      -2.507 -19.410  -6.372  1.00  0.00    -0.744 OA
ENDBRANCH  93  97
ENDBRANCH  67  90
ENDBRANCH  41  42
ENDBRANCH  33  36
ENDBRANCH  31  32
ENDBRANCH  30  31
ENDBRANCH  29  30
ENDBRANCH   3  29
TORSDOF 19
