REMARK SMILES CC(C)Cc1ccc([C@@H]2CC[NH2+][C@H]2C(=O)NCCCNC(=O)c2ccc(-c3c4nc(c(-c5cc(S(=O)(=O)[O-])ccc5F)c5ccc([nH]5)c(-c5cc(S(=O)(=O)[O-])ccc5F)c5nc(c(-c6cc(S(=O)(=O)[O-])ccc6F)c6ccc3[nH]6)C=C5)C=C4)cc2)cc1
REMARK SMILES IDX 18 1 17 2 16 3 14 4 15 5 13 7 9 8 10 9 11 10 12 11 8 14 5 15
REMARK SMILES IDX 6 16 87 17 7 18 86 19 4 20 2 21 1 22 3 23 19 24 20 25 21 26
REMARK SMILES IDX 22 28 23 29 24 30 85 31 25 32 84 33 26 34 27 35 28 36 78 37
REMARK SMILES IDX 29 38 83 39 77 40 79 41 30 42 82 43 76 44 75 45 31 47 63 48
REMARK SMILES IDX 43 49 62 50 44 51 47 52 61 53 80 54 45 55 46 56 60 58 81 59
REMARK SMILES IDX 48 60 32 61 33 62 41 63 34 64 40 65 42 66 39 67 35 68 36 69
REMARK SMILES IDX 37 70 38 71 64 72 65 73 73 74 66 75 72 76 74 77 71 78 67 79
REMARK SMILES IDX 68 80 69 81 70 82 49 83 50 84 58 85 51 86 57 87 59 88 56 89
REMARK SMILES IDX 52 90 53 91 54 92 55 93
REMARK H PARENT 16 6 12 12 12 13 20 27 79 46 47 57
REMARK Flexibility Score: inf
ROOT
ATOM      1  C   UNL     1      -4.481   2.009  -7.680  1.00  0.00     0.042 C 
ENDROOT
BRANCH   1   2
ATOM      2  C   UNL     1      -3.996   0.634  -8.123  1.00  0.00     0.118 C 
BRANCH   2   3
ATOM      3  N   UNL     1      -2.566   0.464  -7.948  1.00  0.00    -0.351 N 
ATOM      4  C   UNL     1      -1.825  -0.236  -7.044  1.00  0.00     0.278 C 
ATOM      5  O   UNL     1      -0.597  -0.145  -7.155  1.00  0.00    -0.268 OA
ATOM      6  H   UNL     1      -2.025   0.949  -8.612  1.00  0.00     0.163 HD
BRANCH   4   7
ATOM      7  C   UNL     1      -2.446  -1.092  -5.920  1.00  0.00     0.280 C 
ATOM      8  C   UNL     1      -3.142  -0.261  -4.832  1.00  0.00     0.093 C 
ATOM      9  C   UNL     1      -4.609  -0.675  -4.908  1.00  0.00     0.076 C 
ATOM     10  C   UNL     1      -4.609  -2.025  -5.606  1.00  0.00     0.262 C 
ATOM     11  N   UNL     1      -3.411  -2.094  -6.443  1.00  0.00    -0.335 N 
ATOM     12  H   UNL     1      -3.649  -1.876  -7.411  1.00  0.00     0.346 HD
ATOM     13  H   UNL     1      -3.007  -3.030  -6.419  1.00  0.00     0.346 HD
BRANCH   8  14
ATOM     14  C   UNL     1      -2.584  -0.495  -3.435  1.00  0.00    -0.038 A 
ATOM     15  C   UNL     1      -1.560  -0.882  -0.830  1.00  0.00    -0.048 A 
ATOM     16  C   UNL     1      -1.757   0.409  -1.334  1.00  0.00     0.004 A 
ATOM     17  C   UNL     1      -1.890  -1.978  -1.632  1.00  0.00     0.004 A 
ATOM     18  C   UNL     1      -2.260   0.601  -2.623  1.00  0.00     0.004 A 
ATOM     19  C   UNL     1      -2.401  -1.786  -2.916  1.00  0.00     0.004 A 
BRANCH  15  20
ATOM     20  C   UNL     1      -0.966  -1.093   0.540  1.00  0.00     0.038 C 
BRANCH  20  21
ATOM     21  C   UNL     1       0.566  -1.272   0.519  1.00  0.00    -0.013 C 
ATOM     22  C   UNL     1       1.292   0.017   0.122  1.00  0.00     0.008 C 
ATOM     23  C   UNL     1       1.052  -1.732   1.894  1.00  0.00     0.008 C 
ENDBRANCH  20  21
ENDBRANCH  15  20
ENDBRANCH   8  14
ENDBRANCH   4   7
ENDBRANCH   2   3
ENDBRANCH   1   2
BRANCH   1  24
ATOM     24  C   UNL     1      -4.089   3.136  -8.630  1.00  0.00     0.118 C 
BRANCH  24  25
ATOM     25  N   UNL     1      -4.690   2.975  -9.947  1.00  0.00    -0.352 N 
ATOM     26  C   UNL     1      -5.563   3.777 -10.632  1.00  0.00     0.251 C 
ATOM     27  H   UNL     1      -4.424   2.156 -10.424  1.00  0.00     0.163 HD
ATOM     28  O   UNL     1      -6.130   3.312 -11.628  1.00  0.00    -0.269 OA
BRANCH  26  29
ATOM     29  C   UNL     1      -5.842   5.164 -10.204  1.00  0.00     0.039 A 
ATOM     30  C   UNL     1      -7.132   5.675 -10.377  1.00  0.00     0.014 A 
ATOM     31  C   UNL     1      -4.835   5.988  -9.693  1.00  0.00     0.014 A 
ATOM     32  C   UNL     1      -7.420   6.988  -9.998  1.00  0.00     0.010 A 
ATOM     33  C   UNL     1      -5.141   7.271  -9.242  1.00  0.00     0.010 A 
ATOM     34  C   UNL     1      -6.434   7.790  -9.401  1.00  0.00    -0.014 A 
BRANCH  34  35
ATOM     35  C   UNL     1      -6.742   9.174  -8.955  1.00  0.00     0.031 A 
ATOM     36  C   UNL     1      -6.059  10.350  -9.602  1.00  0.00     0.074 A 
ATOM     37  C   UNL     1      -7.600   9.364  -7.934  1.00  0.00     0.049 A 
ATOM     38  N   UNL     1      -6.164  11.624  -9.324  1.00  0.00    -0.248 NA
ATOM     39  C   UNL     1      -5.109  10.050 -10.685  1.00  0.00     0.031 C 
ATOM     40  C   UNL     1      -8.281   8.298  -7.194  1.00  0.00     0.029 A 
ATOM     41  N   UNL     1      -8.045  10.516  -7.336  1.00  0.00    -0.354 N 
ATOM     42  C   UNL     1      -5.285  12.276 -10.183  1.00  0.00     0.074 A 
ATOM     43  C   UNL     1      -4.615  11.250 -10.952  1.00  0.00     0.031 C 
ATOM     44  C   UNL     1      -9.074   8.847  -6.260  1.00  0.00     0.029 A 
ATOM     45  C   UNL     1      -8.931  10.298  -6.306  1.00  0.00     0.049 A 
ATOM     46  H   UNL     1      -7.757  11.414  -7.617  1.00  0.00     0.167 HD
ATOM     47  C   UNL     1      -5.073  13.608 -10.330  1.00  0.00     0.034 A 
ATOM     48  C   UNL     1      -9.554  11.169  -5.489  1.00  0.00     0.034 A 
ATOM     49  C   UNL     1      -5.769  14.618  -9.570  1.00  0.00     0.049 A 
ATOM     50  C   UNL     1      -9.316  12.645  -5.686  1.00  0.00     0.074 A 
ATOM     51  C   UNL     1      -5.681  15.995  -9.682  1.00  0.00     0.029 A 
ATOM     52  N   UNL     1      -6.679  14.362  -8.552  1.00  0.00    -0.354 N 
ATOM     53  N   UNL     1      -8.528  13.247  -6.547  1.00  0.00    -0.248 NA
ATOM     54  C   UNL     1     -10.067  13.557  -4.815  1.00  0.00     0.031 C 
ATOM     55  C   UNL     1      -6.490  16.570  -8.695  1.00  0.00     0.029 A 
ATOM     56  C   UNL     1      -7.139  15.554  -8.012  1.00  0.00     0.049 A 
ATOM     57  H   UNL     1      -6.957  13.465  -8.257  1.00  0.00     0.167 HD
ATOM     58  C   UNL     1      -8.711  14.611  -6.337  1.00  0.00     0.074 A 
ATOM     59  C   UNL     1      -9.700  14.739  -5.287  1.00  0.00     0.031 C 
ATOM     60  C   UNL     1      -8.116  15.664  -6.955  1.00  0.00     0.034 A 
BRANCH  47  61
ATOM     61  C   UNL     1      -4.033  14.043 -11.335  1.00  0.00     0.023 A 
ATOM     62  C   UNL     1      -4.180  13.790 -12.710  1.00  0.00     0.031 A 
ATOM     63  C   UNL     1      -2.870  14.710 -10.911  1.00  0.00     0.131 A 
ATOM     64  C   UNL     1      -3.153  14.138 -13.602  1.00  0.00     0.055 A 
ATOM     65  C   UNL     1      -1.887  15.124 -11.813  1.00  0.00     0.041 A 
ATOM     66  F   UNL     1      -2.663  14.962  -9.609  1.00  0.00    -0.206 F 
ATOM     67  C   UNL     1      -2.019  14.826 -13.166  1.00  0.00     0.022 A 
BRANCH  64  68
ATOM     68  S   UNL     1      -3.264  13.567 -15.319  1.00  0.00     0.124 S 
ATOM     69  O   UNL     1      -3.294  12.116 -15.145  1.00  0.00    -0.237 OA
ATOM     70  O   UNL     1      -4.505  14.180 -15.777  1.00  0.00    -0.237 OA
ATOM     71  O   UNL     1      -2.046  14.089 -15.934  1.00  0.00    -0.744 OA
ENDBRANCH  64  68
ENDBRANCH  47  61
BRANCH  48  72
ATOM     72  C   UNL     1     -10.459  10.681  -4.409  1.00  0.00     0.023 A 
ATOM     73  C   UNL     1     -11.831  10.975  -4.425  1.00  0.00     0.031 A 
ATOM     74  C   UNL     1      -9.954   9.950  -3.319  1.00  0.00     0.131 A 
ATOM     75  C   UNL     1     -12.643  10.588  -3.347  1.00  0.00     0.055 A 
ATOM     76  C   UNL     1     -10.775   9.520  -2.275  1.00  0.00     0.041 A 
ATOM     77  F   UNL     1      -8.650   9.633  -3.258  1.00  0.00    -0.206 F 
ATOM     78  C   UNL     1     -12.126   9.853  -2.278  1.00  0.00     0.022 A 
BRANCH  75  79
ATOM     79  S   UNL     1     -14.370  11.141  -3.319  1.00  0.00     0.124 S 
ATOM     80  O   UNL     1     -14.221  12.588  -3.422  1.00  0.00    -0.237 OA
ATOM     81  O   UNL     1     -14.920  10.468  -4.491  1.00  0.00    -0.237 OA
ATOM     82  O   UNL     1     -14.862  10.653  -2.033  1.00  0.00    -0.744 OA
ENDBRANCH  75  79
ENDBRANCH  48  72
BRANCH  60  83
ATOM     83  C   UNL     1      -8.559  17.041  -6.526  1.00  0.00     0.023 A 
ATOM     84  C   UNL     1      -8.300  17.529  -5.233  1.00  0.00     0.031 A 
ATOM     85  C   UNL     1      -9.277  17.862  -7.412  1.00  0.00     0.131 A 
ATOM     86  C   UNL     1      -8.815  18.773  -4.840  1.00  0.00     0.055 A 
ATOM     87  C   UNL     1      -9.732  19.126  -7.037  1.00  0.00     0.041 A 
ATOM     88  F   UNL     1      -9.553  17.445  -8.659  1.00  0.00    -0.206 F 
ATOM     89  C   UNL     1      -9.516  19.582  -5.739  1.00  0.00     0.022 A 
BRANCH  86  90
ATOM     90  S   UNL     1      -8.651  19.273  -3.105  1.00  0.00     0.124 S 
ATOM     91  O   UNL     1      -9.298  18.167  -2.407  1.00  0.00    -0.237 OA
ATOM     92  O   UNL     1      -7.204  19.369  -2.944  1.00  0.00    -0.237 OA
ATOM     93  O   UNL     1      -9.366  20.547  -3.045  1.00  0.00    -0.744 OA
ENDBRANCH  86  90
ENDBRANCH  60  83
ENDBRANCH  34  35
ENDBRANCH  26  29
ENDBRANCH  24  25
ENDBRANCH   1  24
TORSDOF 16
