REMARK SMILES Cc1cscc1-c1noc(SCC(=O)NCCCNC(=O)c2ccc(-c3c4nc(c(-c5cc(S(=O)(=O)[O-])ccc5F)c5ccc([nH]5)c(-c5cc(S(=O)(=O)[O-])ccc5F)c5nc(c(-c6cc(S(=O)(=O)[O-])ccc6F)c6ccc3[nH]6)C=C5)C=C4)cc2)n1
REMARK SMILES IDX 17 1 16 2 15 3 13 4 14 5 12 7 11 8 10 9 7 10 8 11 85 12 9 13
REMARK SMILES IDX 6 14 1 15 2 16 3 17 4 18 5 19 18 20 19 21 20 22 21 24 22 25
REMARK SMILES IDX 23 26 84 27 24 28 83 29 25 30 26 31 27 32 77 33 28 34 82 35
REMARK SMILES IDX 76 36 78 37 29 38 81 39 75 40 74 41 30 43 62 44 42 45 61 46
REMARK SMILES IDX 43 47 46 48 60 49 79 50 44 51 45 52 59 54 80 55 47 56 31 57
REMARK SMILES IDX 32 58 40 59 33 60 39 61 41 62 38 63 34 64 35 65 36 66 37 67
REMARK SMILES IDX 63 68 64 69 72 70 65 71 71 72 73 73 70 74 66 75 67 76 68 77
REMARK SMILES IDX 69 78 48 79 49 80 57 81 50 82 56 83 58 84 55 85 51 86 52 87
REMARK SMILES IDX 53 88 54 89
REMARK H PARENT 15 6 19 23 78 42 46 53
REMARK Flexibility Score: inf
ROOT
ATOM      1  C   UNL     1       6.963   3.932  -0.097  1.00  0.00     0.042 C 
ENDROOT
BRANCH   1   2
ATOM      2  C   UNL     1       6.923   3.814  -1.618  1.00  0.00     0.117 C 
BRANCH   2   3
ATOM      3  N   UNL     1       6.105   2.697  -2.054  1.00  0.00    -0.355 N 
ATOM      4  C   UNL     1       4.867   2.680  -2.626  1.00  0.00     0.230 C 
ATOM      5  O   UNL     1       4.405   1.582  -2.945  1.00  0.00    -0.274 OA
ATOM      6  H   UNL     1       6.507   1.809  -1.913  1.00  0.00     0.163 HD
BRANCH   4   7
ATOM      7  C   UNL     1       4.148   3.968  -2.979  1.00  0.00     0.179 C 
BRANCH   7   8
ATOM      8  S   UNL     1       3.731   5.010  -1.567  1.00  0.00    -0.055 SA
BRANCH   8   9
ATOM      9  C   UNL     1       2.614   4.031  -0.673  1.00  0.00     0.286 A 
ATOM     10  C   UNL     1       1.331   2.521  -0.012  1.00  0.00     0.204 A 
ATOM     11  N   UNL     1       1.111   3.502   0.870  1.00  0.00    -0.056 NA
ATOM     12  N   UNL     1       2.251   2.809  -0.987  1.00  0.00    -0.181 NA
ATOM     13  O   UNL     1       1.985   4.502   0.448  1.00  0.00    -0.327 OA
BRANCH  10  14
ATOM     14  C   UNL     1       0.585   1.263  -0.022  1.00  0.00     0.036 A 
ATOM     15  C   UNL     1       2.666  -0.307  -0.092  1.00  0.00     0.046 C 
ATOM     16  C   UNL     1       1.197  -0.037  -0.071  1.00  0.00    -0.029 A 
ATOM     17  C   UNL     1       0.229  -1.027  -0.065  1.00  0.00     0.069 A 
ATOM     18  S   UNL     1      -1.364  -0.409   0.002  1.00  0.00    -0.151 S 
ATOM     19  C   UNL     1      -0.792   1.198   0.042  1.00  0.00     0.077 A 
ENDBRANCH  10  14
ENDBRANCH   8   9
ENDBRANCH   7   8
ENDBRANCH   4   7
ENDBRANCH   2   3
ENDBRANCH   1   2
BRANCH   1  20
ATOM     20  C   UNL     1       7.619   2.745   0.604  1.00  0.00     0.118 C 
BRANCH  20  21
ATOM     21  N   UNL     1       9.031   2.609   0.276  1.00  0.00    -0.352 N 
ATOM     22  C   UNL     1      10.132   2.602   1.095  1.00  0.00     0.251 C 
ATOM     23  H   UNL     1       9.226   2.506  -0.684  1.00  0.00     0.163 HD
ATOM     24  O   UNL     1      11.252   2.671   0.588  1.00  0.00    -0.269 OA
BRANCH  22  25
ATOM     25  C   UNL     1       9.984   2.539   2.567  1.00  0.00     0.039 A 
ATOM     26  C   UNL     1      10.819   3.330   3.361  1.00  0.00     0.014 A 
ATOM     27  C   UNL     1       9.050   1.692   3.170  1.00  0.00     0.014 A 
ATOM     28  C   UNL     1      10.669   3.324   4.751  1.00  0.00     0.010 A 
ATOM     29  C   UNL     1       8.849   1.746   4.548  1.00  0.00     0.010 A 
ATOM     30  C   UNL     1       9.655   2.563   5.355  1.00  0.00    -0.014 A 
BRANCH  30  31
ATOM     31  C   UNL     1       9.422   2.619   6.824  1.00  0.00     0.031 A 
ATOM     32  C   UNL     1       9.588   1.384   7.669  1.00  0.00     0.074 A 
ATOM     33  C   UNL     1       9.004   3.770   7.389  1.00  0.00     0.049 A 
ATOM     34  N   UNL     1       9.360   1.218   8.947  1.00  0.00    -0.248 NA
ATOM     35  C   UNL     1      10.046   0.169   6.979  1.00  0.00     0.031 C 
ATOM     36  C   UNL     1       8.773   5.027   6.672  1.00  0.00     0.029 A 
ATOM     37  N   UNL     1       8.692   4.073   8.692  1.00  0.00    -0.354 N 
ATOM     38  C   UNL     1       9.634  -0.120   9.212  1.00  0.00     0.074 A 
ATOM     39  C   UNL     1       9.987  -0.731   7.948  1.00  0.00     0.031 C 
ATOM     40  C   UNL     1       8.382   5.967   7.545  1.00  0.00     0.029 A 
ATOM     41  C   UNL     1       8.278   5.373   8.875  1.00  0.00     0.049 A 
ATOM     42  H   UNL     1       8.757   3.421   9.426  1.00  0.00     0.167 HD
ATOM     43  C   UNL     1       9.614  -0.771  10.402  1.00  0.00     0.034 A 
ATOM     44  C   UNL     1       7.847   6.012   9.981  1.00  0.00     0.034 A 
ATOM     45  C   UNL     1       9.265  -0.144  11.655  1.00  0.00     0.049 A 
ATOM     46  C   UNL     1       7.795   5.256  11.285  1.00  0.00     0.074 A 
ATOM     47  C   UNL     1       9.264  -0.699  12.924  1.00  0.00     0.029 A 
ATOM     48  N   UNL     1       8.842   1.171  11.799  1.00  0.00    -0.354 N 
ATOM     49  N   UNL     1       8.107   4.003  11.527  1.00  0.00    -0.248 NA
ATOM     50  C   UNL     1       7.343   6.002  12.466  1.00  0.00     0.031 C 
ATOM     51  C   UNL     1       8.765   0.253  13.819  1.00  0.00     0.029 A 
ATOM     52  C   UNL     1       8.542   1.433  13.128  1.00  0.00     0.049 A 
ATOM     53  H   UNL     1       8.767   1.823  11.065  1.00  0.00     0.167 HD
ATOM     54  C   UNL     1       7.920   3.824  12.896  1.00  0.00     0.074 A 
ATOM     55  C   UNL     1       7.485   5.100  13.425  1.00  0.00     0.031 C 
ATOM     56  C   UNL     1       8.098   2.707  13.646  1.00  0.00     0.034 A 
BRANCH  43  57
ATOM     57  C   UNL     1       9.950  -2.245  10.398  1.00  0.00     0.023 A 
ATOM     58  C   UNL     1      11.212  -2.716   9.994  1.00  0.00     0.031 A 
ATOM     59  C   UNL     1       8.991  -3.196  10.790  1.00  0.00     0.131 A 
ATOM     60  C   UNL     1      11.456  -4.096   9.919  1.00  0.00     0.055 A 
ATOM     61  C   UNL     1       9.269  -4.565  10.797  1.00  0.00     0.041 A 
ATOM     62  F   UNL     1       7.761  -2.812  11.165  1.00  0.00    -0.206 F 
ATOM     63  C   UNL     1      10.502  -5.023  10.345  1.00  0.00     0.022 A 
BRANCH  60  64
ATOM     64  S   UNL     1      12.981  -4.664   9.119  1.00  0.00     0.124 S 
ATOM     65  O   UNL     1      12.857  -4.067   7.791  1.00  0.00    -0.237 OA
ATOM     66  O   UNL     1      14.017  -4.103   9.978  1.00  0.00    -0.237 OA
ATOM     67  O   UNL     1      12.864  -6.120   9.151  1.00  0.00    -0.744 OA
ENDBRANCH  60  64
ENDBRANCH  43  57
BRANCH  44  68
ATOM     68  C   UNL     1       7.408   7.437   9.909  1.00  0.00     0.023 A 
ATOM     69  C   UNL     1       8.084   8.441  10.620  1.00  0.00     0.031 A 
ATOM     70  C   UNL     1       6.275   7.809   9.163  1.00  0.00     0.131 A 
ATOM     71  C   UNL     1       7.594   9.757  10.612  1.00  0.00     0.055 A 
ATOM     72  C   UNL     1       5.827   9.130   9.109  1.00  0.00     0.041 A 
ATOM     73  F   UNL     1       5.591   6.890   8.462  1.00  0.00    -0.206 F 
ATOM     74  C   UNL     1       6.479  10.111   9.848  1.00  0.00     0.022 A 
BRANCH  71  75
ATOM     75  S   UNL     1       8.379  10.984  11.693  1.00  0.00     0.124 S 
ATOM     76  O   UNL     1       8.226  10.364  13.004  1.00  0.00    -0.237 OA
ATOM     77  O   UNL     1       9.736  11.033  11.159  1.00  0.00    -0.237 OA
ATOM     78  O   UNL     1       7.582  12.189  11.474  1.00  0.00    -0.744 OA
ENDBRANCH  71  75
ENDBRANCH  44  68
BRANCH  56  79
ATOM     79  C   UNL     1       7.869   2.832  15.135  1.00  0.00     0.023 A 
ATOM     80  C   UNL     1       6.599   3.108  15.672  1.00  0.00     0.031 A 
ATOM     81  C   UNL     1       8.945   2.682  16.029  1.00  0.00     0.131 A 
ATOM     82  C   UNL     1       6.449   3.283  17.057  1.00  0.00     0.055 A 
ATOM     83  C   UNL     1       8.776   2.788  17.410  1.00  0.00     0.041 A 
ATOM     84  F   UNL     1      10.181   2.423  15.573  1.00  0.00    -0.206 F 
ATOM     85  C   UNL     1       7.525   3.105  17.930  1.00  0.00     0.022 A 
BRANCH  82  86
ATOM     86  S   UNL     1       4.848   3.848  17.695  1.00  0.00     0.124 S 
ATOM     87  O   UNL     1       4.664   5.107  16.980  1.00  0.00    -0.237 OA
ATOM     88  O   UNL     1       3.956   2.760  17.310  1.00  0.00    -0.237 OA
ATOM     89  O   UNL     1       5.079   3.981  19.133  1.00  0.00    -0.744 OA
ENDBRANCH  82  86
ENDBRANCH  56  79
ENDBRANCH  30  31
ENDBRANCH  22  25
ENDBRANCH  20  21
ENDBRANCH   1  20
TORSDOF 16
