REMARK SMILES CN(CC1CCC1)C(=O)N(CC(=O)NCCCNC(=O)c1ccc(-c2c3nc(c(-c4cc(S(=O)(=O)[O-])ccc4F)c4ccc([nH]4)c(-c4cc(S(=O)(=O)[O-])ccc4F)c4nc(c(-c5cc(S(=O)(=O)[O-])ccc5F)c5ccc2[nH]5)C=C4)C=C3)cc1)C(C)(C)C
REMARK SMILES IDX 15 1 14 2 12 3 13 4 11 6 10 7 8 8 9 9 2 10 1 11 3 12 4 13
REMARK SMILES IDX 5 14 7 15 6 16 84 17 85 18 86 19 87 20 16 21 17 22 18 23
REMARK SMILES IDX 19 24 20 26 21 27 22 28 83 29 23 30 82 31 24 32 25 33 26 34
REMARK SMILES IDX 76 35 27 36 81 37 75 38 77 39 28 40 80 41 74 42 73 43 29 45
REMARK SMILES IDX 61 46 41 47 60 48 42 49 45 50 59 51 78 52 43 53 44 54 58 56
REMARK SMILES IDX 79 57 46 58 30 59 31 60 39 61 32 62 38 63 40 64 37 65 33 66
REMARK SMILES IDX 34 67 35 68 36 69 62 70 63 71 71 72 64 73 70 74 72 75 69 76
REMARK SMILES IDX 65 77 66 78 67 79 68 80 47 81 48 82 56 83 49 84 55 85 57 86
REMARK SMILES IDX 54 87 50 88 51 89 52 90 53 91
REMARK H PARENT 14 5 18 25 77 44 45 55
REMARK Flexibility Score: inf
ROOT
ATOM      1  C   UNL     1      -1.990   0.239   3.513  1.00  0.00     0.117 C 
ENDROOT
BRANCH   1   2
ATOM      2  N   UNL     1      -2.250   1.341   4.415  1.00  0.00    -0.354 N 
ATOM      3  C   UNL     1      -1.679   2.574   4.436  1.00  0.00     0.239 C 
ATOM      4  O   UNL     1      -2.265   3.462   5.064  1.00  0.00    -0.273 OA
ATOM      5  H   UNL     1      -2.931   1.174   5.106  1.00  0.00     0.163 HD
BRANCH   3   6
ATOM      6  C   UNL     1      -0.479   2.916   3.548  1.00  0.00     0.221 C 
BRANCH   6   7
ATOM      7  N   UNL     1       0.714   2.058   3.501  1.00  0.00    -0.311 N 
BRANCH   7   8
ATOM      8  C   UNL     1       1.086   1.328   2.368  1.00  0.00     0.320 C 
ATOM      9  O   UNL     1       1.866   0.375   2.464  1.00  0.00    -0.248 OA
BRANCH   8  10
ATOM     10  N   UNL     1       0.527   1.598   1.117  1.00  0.00    -0.327 N 
ATOM     11  C   UNL     1       0.715   0.530   0.133  1.00  0.00     0.148 C 
BRANCH  10  12
ATOM     12  C   UNL     1       0.223   2.919   0.547  1.00  0.00     0.124 C 
BRANCH  12  13
ATOM     13  C   UNL     1      -1.203   2.953  -0.048  1.00  0.00     0.008 C 
ATOM     14  C   UNL     1      -2.275   1.891   0.299  1.00  0.00     0.005 C 
ATOM     15  C   UNL     1      -2.164   4.043   0.500  1.00  0.00     0.005 C 
ATOM     16  C   UNL     1      -3.209   2.973   0.840  1.00  0.00     0.001 C 
ENDBRANCH  12  13
ENDBRANCH  10  12
ENDBRANCH   8  10
ENDBRANCH   7   8
BRANCH   7  17
ATOM     17  C   UNL     1       1.418   1.773   4.821  1.00  0.00     0.037 C 
ATOM     18  C   UNL     1       1.024   0.387   5.376  1.00  0.00     0.034 C 
ATOM     19  C   UNL     1       2.958   1.835   4.672  1.00  0.00     0.034 C 
ATOM     20  C   UNL     1       1.086   2.806   5.933  1.00  0.00     0.034 C 
ENDBRANCH   7  17
ENDBRANCH   6   7
ENDBRANCH   3   6
ENDBRANCH   1   2
BRANCH   1  21
ATOM     21  C   UNL     1      -2.170  -1.117   4.151  1.00  0.00     0.042 C 
BRANCH  21  22
ATOM     22  C   UNL     1      -3.609  -1.377   4.540  1.00  0.00     0.118 C 
BRANCH  22  23
ATOM     23  N   UNL     1      -4.518  -1.444   3.397  1.00  0.00    -0.352 N 
ATOM     24  C   UNL     1      -5.351  -2.469   3.012  1.00  0.00     0.251 C 
ATOM     25  H   UNL     1      -4.537  -0.644   2.823  1.00  0.00     0.163 HD
ATOM     26  O   UNL     1      -5.941  -2.420   1.938  1.00  0.00    -0.269 OA
BRANCH  24  27
ATOM     27  C   UNL     1      -5.475  -3.643   3.898  1.00  0.00     0.039 A 
ATOM     28  C   UNL     1      -5.364  -4.927   3.367  1.00  0.00     0.014 A 
ATOM     29  C   UNL     1      -5.574  -3.453   5.276  1.00  0.00     0.014 A 
ATOM     30  C   UNL     1      -5.254  -6.014   4.236  1.00  0.00     0.010 A 
ATOM     31  C   UNL     1      -5.292  -4.507   6.126  1.00  0.00     0.010 A 
ATOM     32  C   UNL     1      -5.159  -5.808   5.622  1.00  0.00    -0.014 A 
BRANCH  32  33
ATOM     33  C   UNL     1      -4.972  -6.931   6.579  1.00  0.00     0.031 A 
ATOM     34  C   UNL     1      -5.963  -7.114   7.702  1.00  0.00     0.074 A 
ATOM     35  C   UNL     1      -3.887  -7.726   6.491  1.00  0.00     0.049 A 
ATOM     36  N   UNL     1      -5.931  -7.944   8.712  1.00  0.00    -0.248 NA
ATOM     37  C   UNL     1      -7.110  -6.190   7.730  1.00  0.00     0.031 C 
ATOM     38  C   UNL     1      -2.816  -7.599   5.498  1.00  0.00     0.029 A 
ATOM     39  N   UNL     1      -3.503  -8.802   7.250  1.00  0.00    -0.354 N 
ATOM     40  C   UNL     1      -7.024  -7.612   9.506  1.00  0.00     0.074 A 
ATOM     41  C   UNL     1      -7.631  -6.440   8.918  1.00  0.00     0.031 C 
ATOM     42  C   UNL     1      -1.930  -8.593   5.674  1.00  0.00     0.029 A 
ATOM     43  C   UNL     1      -2.340  -9.400   6.818  1.00  0.00     0.049 A 
ATOM     44  H   UNL     1      -4.012  -9.118   8.031  1.00  0.00     0.167 HD
ATOM     45  C   UNL     1      -7.511  -8.253  10.597  1.00  0.00     0.034 A 
ATOM     46  C   UNL     1      -1.686 -10.479   7.292  1.00  0.00     0.034 A 
ATOM     47  C   UNL     1      -6.925  -9.455  11.129  1.00  0.00     0.049 A 
ATOM     48  C   UNL     1      -2.264 -11.205   8.481  1.00  0.00     0.074 A 
ATOM     49  C   UNL     1      -7.362 -10.238  12.182  1.00  0.00     0.029 A 
ATOM     50  N   UNL     1      -5.773 -10.057  10.636  1.00  0.00    -0.354 N 
ATOM     51  N   UNL     1      -3.332 -10.912   9.189  1.00  0.00    -0.248 NA
ATOM     52  C   UNL     1      -1.559 -12.413   8.924  1.00  0.00     0.031 C 
ATOM     53  C   UNL     1      -6.447 -11.281  12.360  1.00  0.00     0.029 A 
ATOM     54  C   UNL     1      -5.477 -11.191  11.373  1.00  0.00     0.049 A 
ATOM     55  H   UNL     1      -5.245  -9.725   9.875  1.00  0.00     0.167 HD
ATOM     56  C   UNL     1      -3.445 -11.923  10.139  1.00  0.00     0.074 A 
ATOM     57  C   UNL     1      -2.345 -12.836   9.903  1.00  0.00     0.031 C 
ATOM     58  C   UNL     1      -4.373 -12.087  11.116  1.00  0.00     0.034 A 
BRANCH  45  59
ATOM     59  C   UNL     1      -8.728  -7.655  11.267  1.00  0.00     0.023 A 
ATOM     60  C   UNL     1      -9.943  -7.487  10.576  1.00  0.00     0.031 A 
ATOM     61  C   UNL     1      -8.659  -7.187  12.590  1.00  0.00     0.131 A 
ATOM     62  C   UNL     1     -10.996  -6.775  11.168  1.00  0.00     0.055 A 
ATOM     63  C   UNL     1      -9.747  -6.567  13.210  1.00  0.00     0.041 A 
ATOM     64  F   UNL     1      -7.524  -7.299  13.297  1.00  0.00    -0.206 F 
ATOM     65  C   UNL     1     -10.917  -6.338  12.492  1.00  0.00     0.022 A 
BRANCH  62  66
ATOM     66  S   UNL     1     -12.393  -6.274  10.125  1.00  0.00     0.124 S 
ATOM     67  O   UNL     1     -11.724  -5.457   9.113  1.00  0.00    -0.237 OA
ATOM     68  O   UNL     1     -12.920  -7.553   9.666  1.00  0.00    -0.237 OA
ATOM     69  O   UNL     1     -13.257  -5.533  11.041  1.00  0.00    -0.744 OA
ENDBRANCH  62  66
ENDBRANCH  45  59
BRANCH  46  70
ATOM     70  C   UNL     1      -0.437 -10.959   6.633  1.00  0.00     0.023 A 
ATOM     71  C   UNL     1      -0.396 -12.206   5.987  1.00  0.00     0.031 A 
ATOM     72  C   UNL     1       0.743 -10.196   6.664  1.00  0.00     0.131 A 
ATOM     73  C   UNL     1       0.808 -12.675   5.441  1.00  0.00     0.055 A 
ATOM     74  C   UNL     1       1.927 -10.644   6.074  1.00  0.00     0.041 A 
ATOM     75  F   UNL     1       0.758  -8.993   7.259  1.00  0.00    -0.206 F 
ATOM     76  C   UNL     1       1.968 -11.897   5.469  1.00  0.00     0.022 A 
BRANCH  73  77
ATOM     77  S   UNL     1       0.858 -14.355   4.759  1.00  0.00     0.124 S 
ATOM     78  O   UNL     1       0.449 -15.155   5.908  1.00  0.00    -0.237 OA
ATOM     79  O   UNL     1      -0.102 -14.267   3.664  1.00  0.00    -0.237 OA
ATOM     80  O   UNL     1       2.252 -14.516   4.351  1.00  0.00    -0.744 OA
ENDBRANCH  73  77
ENDBRANCH  46  70
BRANCH  58  81
ATOM     81  C   UNL     1      -4.265 -13.330  11.961  1.00  0.00     0.023 A 
ATOM     82  C   UNL     1      -3.198 -13.529  12.852  1.00  0.00     0.031 A 
ATOM     83  C   UNL     1      -5.250 -14.330  11.868  1.00  0.00     0.131 A 
ATOM     84  C   UNL     1      -3.110 -14.726  13.576  1.00  0.00     0.055 A 
ATOM     85  C   UNL     1      -5.189 -15.492  12.637  1.00  0.00     0.041 A 
ATOM     86  F   UNL     1      -6.291 -14.189  11.032  1.00  0.00    -0.206 F 
ATOM     87  C   UNL     1      -4.107 -15.701  13.487  1.00  0.00     0.022 A 
BRANCH  84  88
ATOM     88  S   UNL     1      -1.625 -15.033  14.571  1.00  0.00     0.124 S 
ATOM     89  O   UNL     1      -0.566 -14.947  13.570  1.00  0.00    -0.237 OA
ATOM     90  O   UNL     1      -1.672 -13.947  15.544  1.00  0.00    -0.237 OA
ATOM     91  O   UNL     1      -1.851 -16.368  15.122  1.00  0.00    -0.744 OA
ENDBRANCH  84  88
ENDBRANCH  58  81
ENDBRANCH  32  33
ENDBRANCH  24  27
ENDBRANCH  22  23
ENDBRANCH  21  22
ENDBRANCH   1  21
TORSDOF 19
