REMARK SMILES CC(C)n1ccc(C[C@@H](C(=O)NCCCNC(=O)c2ccc(-c3c4nc(c(-c5cc(S(=O)(=O)[O-])ccc5F)c5ccc([nH]5)c(-c5cc(S(=O)(=O)[O-])ccc5F)c5nc(c(-c6cc(S(=O)(=O)[O-])ccc6F)c6ccc3[nH]6)C=C5)C=C4)cc2)c2cccc(Cl)c2)n1
REMARK SMILES IDX 14 1 13 2 12 3 10 4 11 5 9 7 8 8 7 9 4 10 5 11 89 12 6 13
REMARK SMILES IDX 2 14 1 15 3 16 82 17 83 18 88 19 84 20 86 21 85 22 87 23
REMARK SMILES IDX 15 24 16 25 17 26 18 28 19 29 20 30 81 31 21 32 80 33 22 34
REMARK SMILES IDX 23 35 24 36 74 37 25 38 79 39 73 40 75 41 26 42 78 43 72 44
REMARK SMILES IDX 71 45 27 47 59 48 39 49 58 50 40 51 43 52 57 53 76 54 41 55
REMARK SMILES IDX 42 56 56 58 77 59 44 60 28 61 29 62 37 63 30 64 36 65 38 66
REMARK SMILES IDX 35 67 31 68 32 69 33 70 34 71 60 72 61 73 69 74 62 75 68 76
REMARK SMILES IDX 70 77 67 78 63 79 64 80 65 81 66 82 45 83 46 84 54 85 47 86
REMARK SMILES IDX 53 87 55 88 52 89 48 90 49 91 50 92 51 93
REMARK H PARENT 12 6 16 27 75 46 43 57
REMARK Flexibility Score: inf
ROOT
ATOM      1  C   UNL     1      -2.478  -1.904  -3.103  1.00  0.00     0.042 C 
ENDROOT
BRANCH   1   2
ATOM      2  C   UNL     1      -3.596  -1.360  -3.988  1.00  0.00     0.117 C 
BRANCH   2   3
ATOM      3  N   UNL     1      -4.877  -1.404  -3.294  1.00  0.00    -0.355 N 
ATOM      4  C   UNL     1      -5.343  -0.546  -2.333  1.00  0.00     0.227 C 
ATOM      5  O   UNL     1      -6.075  -1.022  -1.463  1.00  0.00    -0.274 OA
ATOM      6  H   UNL     1      -5.480  -2.140  -3.546  1.00  0.00     0.163 HD
BRANCH   4   7
ATOM      7  C   UNL     1      -5.007   0.953  -2.388  1.00  0.00     0.114 C 
BRANCH   7   8
ATOM      8  C   UNL     1      -4.278   1.397  -1.099  1.00  0.00     0.076 C 
BRANCH   8   9
ATOM      9  C   UNL     1      -3.057   0.635  -0.699  1.00  0.00     0.064 A 
ATOM     10  N   UNL     1      -1.031  -0.016  -0.633  1.00  0.00    -0.270 N 
ATOM     11  C   UNL     1      -1.647  -0.678   0.393  1.00  0.00     0.109 A 
ATOM     12  N   UNL     1      -1.871   0.814  -1.306  1.00  0.00    -0.178 NA
ATOM     13  C   UNL     1      -2.960  -0.280   0.376  1.00  0.00     0.045 A 
BRANCH  10  14
ATOM     14  C   UNL     1       0.378  -0.113  -1.010  1.00  0.00     0.101 C 
ATOM     15  C   UNL     1       1.271   0.441   0.099  1.00  0.00     0.033 C 
ATOM     16  C   UNL     1       0.807  -1.540  -1.374  1.00  0.00     0.033 C 
ENDBRANCH  10  14
ENDBRANCH   8   9
ENDBRANCH   7   8
BRANCH   7  17
ATOM     17  C   UNL     1      -6.261   1.856  -2.541  1.00  0.00    -0.034 A 
ATOM     18  C   UNL     1      -6.080   3.241  -2.733  1.00  0.00     0.004 A 
ATOM     19  C   UNL     1      -7.582   1.391  -2.392  1.00  0.00     0.025 A 
ATOM     20  C   UNL     1      -7.160   4.129  -2.696  1.00  0.00     0.002 A 
ATOM     21  C   UNL     1      -8.660   2.282  -2.366  1.00  0.00     0.041 A 
ATOM     22  C   UNL     1      -8.452   3.651  -2.499  1.00  0.00     0.020 A 
ATOM     23  Cl  UNL     1     -10.261   1.691  -2.133  1.00  0.00    -0.084 Cl
ENDBRANCH   7  17
ENDBRANCH   4   7
ENDBRANCH   2   3
ENDBRANCH   1   2
BRANCH   1  24
ATOM     24  C   UNL     1      -2.562  -3.387  -2.826  1.00  0.00     0.118 C 
BRANCH  24  25
ATOM     25  N   UNL     1      -1.516  -4.215  -3.418  1.00  0.00    -0.352 N 
ATOM     26  C   UNL     1      -1.085  -5.486  -3.050  1.00  0.00     0.251 C 
ATOM     27  H   UNL     1      -1.049  -3.818  -4.189  1.00  0.00     0.163 HD
ATOM     28  O   UNL     1      -0.089  -5.957  -3.608  1.00  0.00    -0.269 OA
BRANCH  26  29
ATOM     29  C   UNL     1      -1.770  -6.262  -1.980  1.00  0.00     0.039 A 
ATOM     30  C   UNL     1      -1.248  -7.417  -1.386  1.00  0.00     0.014 A 
ATOM     31  C   UNL     1      -2.997  -5.835  -1.529  1.00  0.00     0.014 A 
ATOM     32  C   UNL     1      -2.047  -8.119  -0.466  1.00  0.00     0.010 A 
ATOM     33  C   UNL     1      -3.395  -6.185  -0.285  1.00  0.00     0.010 A 
ATOM     34  C   UNL     1      -3.201  -7.503   0.014  1.00  0.00    -0.014 A 
BRANCH  34  35
ATOM     35  C   UNL     1      -4.243  -8.101   0.836  1.00  0.00     0.031 A 
ATOM     36  C   UNL     1      -3.914  -8.194   2.268  1.00  0.00     0.074 A 
ATOM     37  C   UNL     1      -5.535  -8.193   0.432  1.00  0.00     0.049 A 
ATOM     38  N   UNL     1      -3.609  -9.250   2.940  1.00  0.00    -0.248 NA
ATOM     39  C   UNL     1      -3.732  -6.937   3.010  1.00  0.00     0.031 C 
ATOM     40  C   UNL     1      -6.144  -7.727  -0.823  1.00  0.00     0.029 A 
ATOM     41  N   UNL     1      -6.617  -8.627   1.138  1.00  0.00    -0.354 N 
ATOM     42  C   UNL     1      -3.417  -8.816   4.245  1.00  0.00     0.074 A 
ATOM     43  C   UNL     1      -3.235  -7.394   4.158  1.00  0.00     0.031 C 
ATOM     44  C   UNL     1      -7.494  -7.729  -0.705  1.00  0.00     0.029 A 
ATOM     45  C   UNL     1      -7.852  -8.334   0.567  1.00  0.00     0.049 A 
ATOM     46  H   UNL     1      -6.531  -9.113   1.990  1.00  0.00     0.167 HD
ATOM     47  C   UNL     1      -3.672  -9.626   5.310  1.00  0.00     0.034 A 
ATOM     48  C   UNL     1      -9.079  -8.547   1.115  1.00  0.00     0.034 A 
ATOM     49  C   UNL     1      -3.913 -10.985   4.868  1.00  0.00     0.049 A 
ATOM     50  C   UNL     1      -8.901  -9.567   2.180  1.00  0.00     0.074 A 
ATOM     51  C   UNL     1      -3.174 -11.917   4.165  1.00  0.00     0.029 A 
ATOM     52  N   UNL     1      -5.223 -11.404   4.768  1.00  0.00    -0.354 N 
ATOM     53  N   UNL     1      -8.523 -10.794   1.942  1.00  0.00    -0.248 NA
ATOM     54  C   UNL     1      -8.666  -9.110   3.543  1.00  0.00     0.031 C 
ATOM     55  C   UNL     1      -4.108 -12.538   3.282  1.00  0.00     0.029 A 
ATOM     56  C   UNL     1      -5.376 -12.014   3.544  1.00  0.00     0.049 A 
ATOM     57  H   UNL     1      -5.923 -11.288   5.451  1.00  0.00     0.167 HD
ATOM     58  C   UNL     1      -7.625 -11.101   2.954  1.00  0.00     0.074 A 
ATOM     59  C   UNL     1      -7.847 -10.076   3.973  1.00  0.00     0.031 C 
ATOM     60  C   UNL     1      -6.593 -11.973   2.746  1.00  0.00     0.034 A 
BRANCH  47  61
ATOM     61  C   UNL     1      -4.022  -9.164   6.708  1.00  0.00     0.023 A 
ATOM     62  C   UNL     1      -4.202 -10.164   7.683  1.00  0.00     0.031 A 
ATOM     63  C   UNL     1      -4.401  -7.860   7.101  1.00  0.00     0.131 A 
ATOM     64  C   UNL     1      -4.797  -9.874   8.923  1.00  0.00     0.055 A 
ATOM     65  C   UNL     1      -4.925  -7.563   8.363  1.00  0.00     0.041 A 
ATOM     66  F   UNL     1      -4.379  -6.811   6.273  1.00  0.00    -0.206 F 
ATOM     67  C   UNL     1      -5.154  -8.577   9.273  1.00  0.00     0.022 A 
BRANCH  64  68
ATOM     68  S   UNL     1      -5.251 -11.255  10.001  1.00  0.00     0.124 S 
ATOM     69  O   UNL     1      -5.994 -12.115   9.086  1.00  0.00    -0.237 OA
ATOM     70  O   UNL     1      -3.944 -11.743  10.428  1.00  0.00    -0.237 OA
ATOM     71  O   UNL     1      -6.051 -10.618  11.044  1.00  0.00    -0.744 OA
ENDBRANCH  64  68
ENDBRANCH  47  61
BRANCH  48  72
ATOM     72  C   UNL     1     -10.300  -7.709   0.966  1.00  0.00     0.023 A 
ATOM     73  C   UNL     1     -11.606  -8.200   1.178  1.00  0.00     0.031 A 
ATOM     74  C   UNL     1     -10.165  -6.309   0.829  1.00  0.00     0.131 A 
ATOM     75  C   UNL     1     -12.702  -7.305   1.242  1.00  0.00     0.055 A 
ATOM     76  C   UNL     1     -11.249  -5.431   0.888  1.00  0.00     0.041 A 
ATOM     77  F   UNL     1      -8.953  -5.741   0.719  1.00  0.00    -0.206 F 
ATOM     78  C   UNL     1     -12.525  -5.926   1.103  1.00  0.00     0.022 A 
BRANCH  75  79
ATOM     79  S   UNL     1     -14.378  -7.924   1.605  1.00  0.00     0.124 S 
ATOM     80  O   UNL     1     -14.697  -8.684   0.403  1.00  0.00    -0.237 OA
ATOM     81  O   UNL     1     -14.169  -8.696   2.825  1.00  0.00    -0.237 OA
ATOM     82  O   UNL     1     -15.164  -6.702   1.785  1.00  0.00    -0.744 OA
ENDBRANCH  75  79
ENDBRANCH  48  72
BRANCH  60  83
ATOM     83  C   UNL     1      -6.604 -12.800   1.469  1.00  0.00     0.023 A 
ATOM     84  C   UNL     1      -6.619 -12.261   0.160  1.00  0.00     0.031 A 
ATOM     85  C   UNL     1      -6.463 -14.194   1.591  1.00  0.00     0.131 A 
ATOM     86  C   UNL     1      -6.506 -13.110  -0.960  1.00  0.00     0.055 A 
ATOM     87  C   UNL     1      -6.329 -15.029   0.481  1.00  0.00     0.041 A 
ATOM     88  F   UNL     1      -6.412 -14.769   2.804  1.00  0.00    -0.206 F 
ATOM     89  C   UNL     1      -6.355 -14.490  -0.801  1.00  0.00     0.022 A 
BRANCH  86  90
ATOM     90  S   UNL     1      -6.557 -12.429  -2.651  1.00  0.00     0.124 S 
ATOM     91  O   UNL     1      -7.735 -11.570  -2.639  1.00  0.00    -0.237 OA
ATOM     92  O   UNL     1      -5.269 -11.749  -2.760  1.00  0.00    -0.237 OA
ATOM     93  O   UNL     1      -6.684 -13.621  -3.494  1.00  0.00    -0.744 OA
ENDBRANCH  86  90
ENDBRANCH  60  83
ENDBRANCH  34  35
ENDBRANCH  26  29
ENDBRANCH  24  25
ENDBRANCH   1  24
TORSDOF 17
