REMARK SMILES Cc1ccccc1OCC(=O)c1nc(C)c(C(=O)NCCCNC(=O)c2ccc(-c3c4nc(c(-c5cc(S(=O)(=O)[O-])ccc5F)c5ccc([nH]5)c(-c5cc(S(=O)(=O)[O-])ccc5F)c5nc(c(-c6cc(S(=O)(=O)[O-])ccc6F)c6ccc3[nH]6)C=C5)C=C4)cc2)s1
REMARK SMILES IDX 20 1 19 2 17 3 18 4 16 6 12 7 13 8 89 9 14 10 15 11 10 12
REMARK SMILES IDX 11 13 9 14 8 15 7 16 1 17 2 18 3 19 4 20 6 21 5 22 21 23
REMARK SMILES IDX 22 24 23 25 24 26 25 28 26 29 27 30 88 31 28 32 87 33 29 34
REMARK SMILES IDX 30 35 31 36 81 37 32 38 86 39 80 40 82 41 33 42 85 43 79 44
REMARK SMILES IDX 78 45 34 47 66 48 46 49 65 50 47 51 50 52 64 53 83 54 48 55
REMARK SMILES IDX 49 56 63 58 84 59 51 60 35 61 36 62 44 63 37 64 43 65 45 66
REMARK SMILES IDX 42 67 38 68 39 69 40 70 41 71 67 72 68 73 76 74 69 75 75 76
REMARK SMILES IDX 77 77 74 78 70 79 71 80 72 81 73 82 52 83 53 84 61 85 54 86
REMARK SMILES IDX 60 87 62 88 59 89 55 90 56 91 57 92 58 93
REMARK H PARENT 19 5 23 27 82 46 50 57
REMARK Flexibility Score: inf
ROOT
ATOM      1  C   UNL     1       2.019   2.582   7.798  1.00  0.00     0.118 C 
ENDROOT
BRANCH   1   2
ATOM      2  N   UNL     1       1.070   3.151   6.858  1.00  0.00    -0.351 N 
ATOM      3  C   UNL     1       0.952   3.225   5.497  1.00  0.00     0.263 C 
ATOM      4  O   UNL     1      -0.120   3.742   5.150  1.00  0.00    -0.268 OA
ATOM      5  H   UNL     1       0.322   3.597   7.317  1.00  0.00     0.163 HD
BRANCH   3   6
ATOM      6  C   UNL     1       1.936   2.784   4.503  1.00  0.00     0.115 A 
ATOM      7  C   UNL     1       2.845   2.359   2.234  1.00  0.00     0.164 A 
ATOM      8  N   UNL     1       3.724   2.051   3.155  1.00  0.00    -0.237 NA
ATOM      9  S   UNL     1       1.379   2.949   2.840  1.00  0.00    -0.105 S 
ATOM     10  C   UNL     1       3.237   2.286   4.440  1.00  0.00     0.062 A 
ATOM     11  C   UNL     1       4.256   1.997   5.475  1.00  0.00     0.068 C 
BRANCH   7  12
ATOM     12  C   UNL     1       3.176   2.221   0.821  1.00  0.00     0.228 C 
ATOM     13  O   UNL     1       4.296   1.858   0.430  1.00  0.00    -0.288 OA
BRANCH  12  14
ATOM     14  C   UNL     1       2.159   2.615  -0.252  1.00  0.00     0.313 C 
BRANCH  14  15
ATOM     15  O   UNL     1       0.795   2.310  -0.160  1.00  0.00    -0.485 OA
BRANCH  15  16
ATOM     16  C   UNL     1       0.281   1.050  -0.164  1.00  0.00     0.122 A 
ATOM     17  C   UNL     1       2.357  -0.461  -0.531  1.00  0.00     0.048 C 
ATOM     18  C   UNL     1       0.895  -0.201  -0.314  1.00  0.00    -0.009 A 
ATOM     19  C   UNL     1       0.087  -1.358  -0.205  1.00  0.00     0.007 A 
ATOM     20  C   UNL     1      -1.290  -1.284  -0.001  1.00  0.00     0.001 A 
ATOM     21  C   UNL     1      -1.113   1.104   0.031  1.00  0.00     0.047 A 
ATOM     22  C   UNL     1      -1.896  -0.045   0.109  1.00  0.00     0.004 A 
ENDBRANCH  15  16
ENDBRANCH  14  15
ENDBRANCH  12  14
ENDBRANCH   7  12
ENDBRANCH   3   6
ENDBRANCH   1   2
BRANCH   1  23
ATOM     23  C   UNL     1       3.233   3.481   8.008  1.00  0.00     0.042 C 
BRANCH  23  24
ATOM     24  C   UNL     1       3.252   4.216   9.341  1.00  0.00     0.118 C 
BRANCH  24  25
ATOM     25  N   UNL     1       4.355   3.773  10.199  1.00  0.00    -0.352 N 
ATOM     26  C   UNL     1       4.832   4.345  11.365  1.00  0.00     0.251 C 
ATOM     27  H   UNL     1       4.820   2.957   9.904  1.00  0.00     0.163 HD
ATOM     28  O   UNL     1       5.800   3.916  11.967  1.00  0.00    -0.269 OA
BRANCH  26  29
ATOM     29  C   UNL     1       4.000   5.410  11.960  1.00  0.00     0.039 A 
ATOM     30  C   UNL     1       3.276   5.045  13.100  1.00  0.00     0.014 A 
ATOM     31  C   UNL     1       3.652   6.521  11.198  1.00  0.00     0.014 A 
ATOM     32  C   UNL     1       2.046   5.646  13.332  1.00  0.00     0.010 A 
ATOM     33  C   UNL     1       2.389   7.054  11.378  1.00  0.00     0.010 A 
ATOM     34  C   UNL     1       1.560   6.560  12.396  1.00  0.00    -0.014 A 
BRANCH  34  35
ATOM     35  C   UNL     1       0.143   6.908  12.323  1.00  0.00     0.031 A 
ATOM     36  C   UNL     1      -0.323   8.241  12.754  1.00  0.00     0.074 A 
ATOM     37  C   UNL     1      -0.767   5.999  11.907  1.00  0.00     0.049 A 
ATOM     38  N   UNL     1      -1.489   8.478  13.256  1.00  0.00    -0.248 NA
ATOM     39  C   UNL     1       0.532   9.419  12.699  1.00  0.00     0.031 C 
ATOM     40  C   UNL     1      -2.176   6.232  11.601  1.00  0.00     0.029 A 
ATOM     41  N   UNL     1      -0.653   4.621  11.883  1.00  0.00    -0.354 N 
ATOM     42  C   UNL     1      -1.643   9.843  13.328  1.00  0.00     0.074 A 
ATOM     43  C   UNL     1      -0.334  10.380  13.030  1.00  0.00     0.031 C 
ATOM     44  C   UNL     1      -2.835   5.064  11.669  1.00  0.00     0.029 A 
ATOM     45  C   UNL     1      -1.902   4.059  12.148  1.00  0.00     0.049 A 
ATOM     46  H   UNL     1       0.175   4.118  11.708  1.00  0.00     0.167 HD
ATOM     47  C   UNL     1      -2.885  10.380  13.492  1.00  0.00     0.034 A 
ATOM     48  C   UNL     1      -2.113   3.236  13.217  1.00  0.00     0.034 A 
ATOM     49  C   UNL     1      -3.912   9.349  13.632  1.00  0.00     0.049 A 
ATOM     50  C   UNL     1      -3.132   3.776  14.200  1.00  0.00     0.074 A 
ATOM     51  C   UNL     1      -4.809   8.796  12.731  1.00  0.00     0.029 A 
ATOM     52  N   UNL     1      -3.934   8.534  14.759  1.00  0.00    -0.354 N 
ATOM     53  N   UNL     1      -3.545   5.014  14.220  1.00  0.00    -0.248 NA
ATOM     54  C   UNL     1      -3.738   2.971  15.258  1.00  0.00     0.031 C 
ATOM     55  C   UNL     1      -5.318   7.600  13.298  1.00  0.00     0.029 A 
ATOM     56  C   UNL     1      -4.758   7.442  14.554  1.00  0.00     0.049 A 
ATOM     57  H   UNL     1      -3.433   8.710  15.588  1.00  0.00     0.167 HD
ATOM     58  C   UNL     1      -4.403   5.196  15.274  1.00  0.00     0.074 A 
ATOM     59  C   UNL     1      -4.521   3.876  15.870  1.00  0.00     0.031 C 
ATOM     60  C   UNL     1      -4.924   6.422  15.582  1.00  0.00     0.034 A 
BRANCH  47  61
ATOM     61  C   UNL     1      -3.199  11.829  13.187  1.00  0.00     0.023 A 
ATOM     62  C   UNL     1      -4.458  12.168  12.650  1.00  0.00     0.031 A 
ATOM     63  C   UNL     1      -2.301  12.901  13.344  1.00  0.00     0.131 A 
ATOM     64  C   UNL     1      -4.732  13.468  12.185  1.00  0.00     0.055 A 
ATOM     65  C   UNL     1      -2.543  14.178  12.818  1.00  0.00     0.041 A 
ATOM     66  F   UNL     1      -1.172  12.771  14.056  1.00  0.00    -0.206 F 
ATOM     67  C   UNL     1      -3.760  14.463  12.217  1.00  0.00     0.022 A 
BRANCH  64  68
ATOM     68  S   UNL     1      -6.388  13.846  11.547  1.00  0.00     0.124 S 
ATOM     69  O   UNL     1      -6.526  12.891  10.453  1.00  0.00    -0.237 OA
ATOM     70  O   UNL     1      -7.227  13.614  12.718  1.00  0.00    -0.237 OA
ATOM     71  O   UNL     1      -6.281  15.245  11.135  1.00  0.00    -0.744 OA
ENDBRANCH  64  68
ENDBRANCH  47  61
BRANCH  48  72
ATOM     72  C   UNL     1      -0.926   2.410  13.579  1.00  0.00     0.023 A 
ATOM     73  C   UNL     1      -0.422   1.536  12.592  1.00  0.00     0.031 A 
ATOM     74  C   UNL     1      -0.095   2.731  14.661  1.00  0.00     0.131 A 
ATOM     75  C   UNL     1       0.925   1.150  12.612  1.00  0.00     0.055 A 
ATOM     76  C   UNL     1       1.232   2.287  14.712  1.00  0.00     0.041 A 
ATOM     77  F   UNL     1      -0.508   3.578  15.614  1.00  0.00    -0.206 F 
ATOM     78  C   UNL     1       1.761   1.530  13.663  1.00  0.00     0.022 A 
BRANCH  75  79
ATOM     79  S   UNL     1       1.656   0.349  11.152  1.00  0.00     0.124 S 
ATOM     80  O   UNL     1       1.937  -0.995  11.642  1.00  0.00    -0.237 OA
ATOM     81  O   UNL     1       0.604   0.448  10.145  1.00  0.00    -0.237 OA
ATOM     82  O   UNL     1       2.824   1.183  10.871  1.00  0.00    -0.744 OA
ENDBRANCH  75  79
ENDBRANCH  48  72
BRANCH  60  83
ATOM     83  C   UNL     1      -5.712   6.744  16.832  1.00  0.00     0.023 A 
ATOM     84  C   UNL     1      -5.635   5.980  18.007  1.00  0.00     0.031 A 
ATOM     85  C   UNL     1      -6.525   7.901  16.905  1.00  0.00     0.131 A 
ATOM     86  C   UNL     1      -6.408   6.301  19.137  1.00  0.00     0.055 A 
ATOM     87  C   UNL     1      -7.229   8.265  18.058  1.00  0.00     0.041 A 
ATOM     88  F   UNL     1      -6.668   8.729  15.859  1.00  0.00    -0.206 F 
ATOM     89  C   UNL     1      -7.190   7.451  19.180  1.00  0.00     0.022 A 
BRANCH  86  90
ATOM     90  S   UNL     1      -6.427   5.132  20.522  1.00  0.00     0.124 S 
ATOM     91  O   UNL     1      -6.955   3.926  19.889  1.00  0.00    -0.237 OA
ATOM     92  O   UNL     1      -5.021   5.080  20.908  1.00  0.00    -0.237 OA
ATOM     93  O   UNL     1      -7.317   5.761  21.495  1.00  0.00    -0.744 OA
ENDBRANCH  86  90
ENDBRANCH  60  83
ENDBRANCH  34  35
ENDBRANCH  26  29
ENDBRANCH  24  25
ENDBRANCH  23  24
ENDBRANCH   1  23
TORSDOF 17
