REMARK SMILES CN(C)C(=O)[C@@H]1CC=CC[C@H]1C(=O)N(c1ccccc1)c1ccccc1C(=O)NCCCNC(=O)c1ccc(-c2c3nc(c(-c4cc(S(=O)(=O)[O-])ccc4F)c4ccc([nH]4)c(-c4cc(S(=O)(=O)[O-])ccc4F)c4nc(c(-c5cc(S(=O)(=O)[O-])ccc5F)c5ccc2[nH]5)C=C4)C=C3)cc1
REMARK SMILES IDX 30 1 29 2 27 3 28 4 26 6 21 7 22 8 23 9 25 10 24 11 14 12
REMARK SMILES IDX 12 13 13 14 11 15 6 16 7 17 8 18 10 19 9 20 4 21 1 22 2 23
REMARK SMILES IDX 3 24 5 25 15 26 16 27 20 28 17 29 19 30 18 31 31 32 32 33
REMARK SMILES IDX 33 34 34 35 35 37 36 38 37 39 98 40 38 41 97 42 39 43 40 44
REMARK SMILES IDX 41 45 91 46 42 47 96 48 90 49 92 50 43 51 95 52 89 53 88 54
REMARK SMILES IDX 44 56 76 57 56 58 75 59 57 60 60 61 74 62 93 63 58 64 59 65
REMARK SMILES IDX 73 67 94 68 61 69 45 70 46 71 54 72 47 73 53 74 55 75 52 76
REMARK SMILES IDX 48 77 49 78 50 79 51 80 77 81 78 82 86 83 79 84 85 85 87 86
REMARK SMILES IDX 84 87 80 88 81 89 82 90 83 91 62 92 63 93 71 94 64 95 70 96
REMARK SMILES IDX 72 97 69 98 65 99 66 100 67 101 68 102
REMARK H PARENT 29 5 33 36 92 55 60 66
REMARK Flexibility Score: inf
ROOT
ATOM      1  C   UNL     1      -2.679  -0.117   2.638  1.00  0.00     0.118 C 
ENDROOT
BRANCH   1   2
ATOM      2  N   UNL     1      -3.996  -0.595   2.350  1.00  0.00    -0.352 N 
ATOM      3  C   UNL     1      -4.395  -1.480   1.376  1.00  0.00     0.253 C 
ATOM      4  O   UNL     1      -5.507  -1.994   1.551  1.00  0.00    -0.269 OA
ATOM      5  H   UNL     1      -4.713  -0.243   2.926  1.00  0.00     0.163 HD
BRANCH   3   6
ATOM      6  C   UNL     1      -3.710  -1.714   0.054  1.00  0.00     0.063 A 
ATOM      7  C   UNL     1      -2.352  -1.907  -0.312  1.00  0.00     0.062 A 
ATOM      8  C   UNL     1      -2.074  -2.140  -1.694  1.00  0.00     0.027 A 
ATOM      9  C   UNL     1      -3.052  -2.141  -2.688  1.00  0.00     0.002 A 
ATOM     10  C   UNL     1      -4.680  -1.707  -0.994  1.00  0.00     0.016 A 
ATOM     11  C   UNL     1      -4.364  -1.909  -2.338  1.00  0.00     0.001 A 
BRANCH   7  12
ATOM     12  N   UNL     1      -1.186  -1.930   0.563  1.00  0.00    -0.280 N 
BRANCH  12  13
ATOM     13  C   UNL     1      -1.190  -2.673   1.747  1.00  0.00     0.235 C 
ATOM     14  O   UNL     1      -2.053  -3.547   1.912  1.00  0.00    -0.274 OA
BRANCH  13  15
ATOM     15  C   UNL     1      -0.170  -2.400   2.926  1.00  0.00     0.096 C 
ATOM     16  C   UNL     1       0.825  -3.568   3.127  1.00  0.00     0.095 C 
ATOM     17  C   UNL     1       1.807  -3.319   4.279  1.00  0.00     0.041 C 
ATOM     18  C   UNL     1       2.478  -1.989   4.167  1.00  0.00    -0.030 C 
ATOM     19  C   UNL     1       0.482  -1.000   3.052  1.00  0.00     0.041 C 
ATOM     20  C   UNL     1       1.876  -0.944   3.591  1.00  0.00    -0.030 C 
BRANCH  16  21
ATOM     21  C   UNL     1       0.059  -4.854   3.430  1.00  0.00     0.226 C 
ATOM     22  C   UNL     1      -0.774  -6.892   2.412  1.00  0.00     0.146 C 
ATOM     23  N   UNL     1       0.307  -5.943   2.605  1.00  0.00    -0.349 N 
ATOM     24  C   UNL     1       1.489  -6.096   1.778  1.00  0.00     0.146 C 
ATOM     25  O   UNL     1      -0.776  -4.897   4.334  1.00  0.00    -0.275 OA
ENDBRANCH  16  21
ENDBRANCH  13  15
ENDBRANCH  12  13
BRANCH  12  26
ATOM     26  C   UNL     1      -0.032  -1.265   0.032  1.00  0.00     0.049 A 
ATOM     27  C   UNL     1      -0.145   0.054  -0.450  1.00  0.00     0.027 A 
ATOM     28  C   UNL     1       1.229  -1.869   0.042  1.00  0.00     0.027 A 
ATOM     29  C   UNL     1       0.992   0.781  -0.804  1.00  0.00     0.002 A 
ATOM     30  C   UNL     1       2.367  -1.138  -0.308  1.00  0.00     0.002 A 
ATOM     31  C   UNL     1       2.249   0.191  -0.709  1.00  0.00     0.000 A 
ENDBRANCH  12  26
ENDBRANCH   7  12
ENDBRANCH   3   6
ENDBRANCH   1   2
BRANCH   1  32
ATOM     32  C   UNL     1      -2.550   1.167   3.436  1.00  0.00     0.042 C 
BRANCH  32  33
ATOM     33  C   UNL     1      -2.667   1.053   4.960  1.00  0.00     0.118 C 
BRANCH  33  34
ATOM     34  N   UNL     1      -1.945  -0.044   5.604  1.00  0.00    -0.352 N 
ATOM     35  C   UNL     1      -0.767  -0.176   6.316  1.00  0.00     0.251 C 
ATOM     36  H   UNL     1      -2.415  -0.903   5.505  1.00  0.00     0.163 HD
ATOM     37  O   UNL     1      -0.469  -1.290   6.718  1.00  0.00    -0.269 OA
BRANCH  35  38
ATOM     38  C   UNL     1       0.181   0.947   6.548  1.00  0.00     0.039 A 
ATOM     39  C   UNL     1       1.553   0.658   6.680  1.00  0.00     0.014 A 
ATOM     40  C   UNL     1      -0.232   2.263   6.686  1.00  0.00     0.014 A 
ATOM     41  C   UNL     1       2.494   1.685   6.847  1.00  0.00     0.010 A 
ATOM     42  C   UNL     1       0.702   3.292   6.746  1.00  0.00     0.010 A 
ATOM     43  C   UNL     1       2.076   3.018   6.844  1.00  0.00    -0.014 A 
BRANCH  43  44
ATOM     44  C   UNL     1       2.992   4.171   7.054  1.00  0.00     0.031 A 
ATOM     45  C   UNL     1       2.738   5.076   8.233  1.00  0.00     0.074 A 
ATOM     46  C   UNL     1       3.928   4.493   6.142  1.00  0.00     0.049 A 
ATOM     47  N   UNL     1       3.157   6.293   8.459  1.00  0.00    -0.248 NA
ATOM     48  C   UNL     1       1.824   4.552   9.260  1.00  0.00     0.031 C 
ATOM     49  C   UNL     1       4.265   3.708   4.954  1.00  0.00     0.029 A 
ATOM     50  N   UNL     1       4.744   5.595   6.055  1.00  0.00    -0.354 N 
ATOM     51  C   UNL     1       2.507   6.702   9.620  1.00  0.00     0.074 A 
ATOM     52  C   UNL     1       1.623   5.624  10.008  1.00  0.00     0.031 C 
ATOM     53  C   UNL     1       5.216   4.354   4.257  1.00  0.00     0.029 A 
ATOM     54  C   UNL     1       5.515   5.622   4.916  1.00  0.00     0.049 A 
ATOM     55  H   UNL     1       4.774   6.298   6.743  1.00  0.00     0.167 HD
ATOM     56  C   UNL     1       2.649   7.862  10.309  1.00  0.00     0.034 A 
ATOM     57  C   UNL     1       6.344   6.577   4.446  1.00  0.00     0.034 A 
ATOM     58  C   UNL     1       3.576   8.899   9.930  1.00  0.00     0.049 A 
ATOM     59  C   UNL     1       6.502   7.856   5.233  1.00  0.00     0.074 A 
ATOM     60  C   UNL     1       3.857  10.089  10.578  1.00  0.00     0.029 A 
ATOM     61  N   UNL     1       4.385   8.862   8.800  1.00  0.00    -0.354 N 
ATOM     62  N   UNL     1       5.891   8.232   6.334  1.00  0.00    -0.248 NA
ATOM     63  C   UNL     1       7.465   8.836   4.715  1.00  0.00     0.031 C 
ATOM     64  C   UNL     1       4.796  10.792   9.815  1.00  0.00     0.029 A 
ATOM     65  C   UNL     1       5.154  10.012   8.726  1.00  0.00     0.049 A 
ATOM     66  H   UNL     1       4.408   8.125   8.148  1.00  0.00     0.167 HD
ATOM     67  C   UNL     1       6.425   9.476   6.658  1.00  0.00     0.074 A 
ATOM     68  C   UNL     1       7.411   9.782   5.642  1.00  0.00     0.031 C 
ATOM     69  C   UNL     1       6.133  10.293   7.704  1.00  0.00     0.034 A 
BRANCH  56  70
ATOM     70  C   UNL     1       1.764   8.062  11.518  1.00  0.00     0.023 A 
ATOM     71  C   UNL     1       1.806   7.185  12.617  1.00  0.00     0.031 A 
ATOM     72  C   UNL     1       0.818   9.102  11.548  1.00  0.00     0.131 A 
ATOM     73  C   UNL     1       0.852   7.294  13.639  1.00  0.00     0.055 A 
ATOM     74  C   UNL     1      -0.064   9.266  12.618  1.00  0.00     0.041 A 
ATOM     75  F   UNL     1       0.715   9.963  10.523  1.00  0.00    -0.206 F 
ATOM     76  C   UNL     1      -0.066   8.345  13.662  1.00  0.00     0.022 A 
BRANCH  73  77
ATOM     77  S   UNL     1       0.716   5.938  14.836  1.00  0.00     0.124 S 
ATOM     78  O   UNL     1       0.407   4.808  13.963  1.00  0.00    -0.237 OA
ATOM     79  O   UNL     1       2.037   5.928  15.453  1.00  0.00    -0.237 OA
ATOM     80  O   UNL     1      -0.379   6.360  15.708  1.00  0.00    -0.744 OA
ENDBRANCH  73  77
ENDBRANCH  56  70
BRANCH  57  81
ATOM     81  C   UNL     1       7.084   6.377   3.167  1.00  0.00     0.023 A 
ATOM     82  C   UNL     1       8.483   6.267   3.159  1.00  0.00     0.031 A 
ATOM     83  C   UNL     1       6.413   6.334   1.932  1.00  0.00     0.131 A 
ATOM     84  C   UNL     1       9.172   6.166   1.941  1.00  0.00     0.055 A 
ATOM     85  C   UNL     1       7.099   6.185   0.725  1.00  0.00     0.041 A 
ATOM     86  F   UNL     1       5.074   6.425   1.882  1.00  0.00    -0.206 F 
ATOM     87  C   UNL     1       8.489   6.113   0.724  1.00  0.00     0.022 A 
BRANCH  84  88
ATOM     88  S   UNL     1      10.986   6.179   1.966  1.00  0.00     0.124 S 
ATOM     89  O   UNL     1      11.265   7.460   2.605  1.00  0.00    -0.237 OA
ATOM     90  O   UNL     1      11.285   4.989   2.756  1.00  0.00    -0.237 OA
ATOM     91  O   UNL     1      11.346   6.092   0.553  1.00  0.00    -0.744 OA
ENDBRANCH  84  88
ENDBRANCH  57  81
BRANCH  69  92
ATOM     92  C   UNL     1       6.939  11.562   7.828  1.00  0.00     0.023 A 
ATOM     93  C   UNL     1       6.810  12.616   6.908  1.00  0.00     0.031 A 
ATOM     94  C   UNL     1       7.849  11.715   8.889  1.00  0.00     0.131 A 
ATOM     95  C   UNL     1       7.617  13.757   7.037  1.00  0.00     0.055 A 
ATOM     96  C   UNL     1       8.607  12.875   9.045  1.00  0.00     0.041 A 
ATOM     97  F   UNL     1       8.011  10.738   9.796  1.00  0.00    -0.206 F 
ATOM     98  C   UNL     1       8.502  13.900   8.109  1.00  0.00     0.022 A 
BRANCH  95  99
ATOM     99  S   UNL     1       7.556  15.019   5.736  1.00  0.00     0.124 S 
ATOM    100  O   UNL     1       7.932  14.253   4.552  1.00  0.00    -0.237 OA
ATOM    101  O   UNL     1       6.166  15.460   5.795  1.00  0.00    -0.237 OA
ATOM    102  O   UNL     1       8.539  16.009   6.172  1.00  0.00    -0.744 OA
ENDBRANCH  95  99
ENDBRANCH  69  92
ENDBRANCH  43  44
ENDBRANCH  35  38
ENDBRANCH  33  34
ENDBRANCH  32  33
ENDBRANCH   1  32
TORSDOF 18
