REMARK SMILES CC(C)(C)OC(=O)N1CCC[C@H]1C(=O)N[C@@H](Cc1ccccc1)C(=O)NCCCNC(=O)c1ccc(-c2c3nc(c(-c4cc(S(=O)(=O)[O-])ccc4F)c4ccc([nH]4)c(-c4cc(S(=O)(=O)[O-])ccc4F)c4nc(c(-c5cc(S(=O)(=O)[O-])ccc5F)c5ccc2[nH]5)C=C4)C=C3)cc1
REMARK SMILES IDX 27 1 26 2 24 3 25 4 16 6 15 7 13 8 14 9 12 11 8 12 9 13
REMARK SMILES IDX 10 14 11 15 6 16 7 17 5 18 2 19 1 20 3 21 4 22 17 23 18 24
REMARK SMILES IDX 19 25 23 26 20 27 22 28 21 29 28 30 29 31 30 32 31 33 32 35
REMARK SMILES IDX 33 36 34 37 95 38 35 39 94 40 36 41 37 42 38 43 88 44 39 45
REMARK SMILES IDX 93 46 87 47 89 48 40 49 92 50 86 51 85 52 41 54 73 55 53 56
REMARK SMILES IDX 72 57 54 58 57 59 71 60 90 61 55 62 56 63 70 65 91 66 58 67
REMARK SMILES IDX 42 68 43 69 51 70 44 71 50 72 52 73 49 74 45 75 46 76 47 77
REMARK SMILES IDX 48 78 74 79 75 80 83 81 76 82 82 83 84 84 81 85 77 86 78 87
REMARK SMILES IDX 79 88 80 89 59 90 60 91 68 92 61 93 67 94 69 95 66 96 62 97
REMARK SMILES IDX 63 98 64 99 65 100
REMARK H PARENT 26 5 15 10 30 34 89 53 57 64
REMARK Flexibility Score: inf
ROOT
ATOM      1  C   UNL     1      -1.375   1.797  11.128  1.00  0.00     0.117 C 
ENDROOT
BRANCH   1   2
ATOM      2  N   UNL     1      -1.825   0.501  10.685  1.00  0.00    -0.354 N 
ATOM      3  C   UNL     1      -1.156  -0.401   9.917  1.00  0.00     0.242 C 
ATOM      4  O   UNL     1      -1.583  -1.563   9.912  1.00  0.00    -0.273 OA
ATOM      5  H   UNL     1      -2.728   0.236  10.975  1.00  0.00     0.163 HD
BRANCH   3   6
ATOM      6  C   UNL     1       0.125  -0.053   9.117  1.00  0.00     0.175 C 
BRANCH   6   7
ATOM      7  N   UNL     1      -0.004   1.060   8.172  1.00  0.00    -0.342 N 
ATOM      8  C   UNL     1       0.317   1.153   6.846  1.00  0.00     0.243 C 
ATOM      9  O   UNL     1       0.369   2.298   6.387  1.00  0.00    -0.273 OA
ATOM     10  H   UNL     1      -0.389   1.880   8.557  1.00  0.00     0.164 HD
BRANCH   8  11
ATOM     11  C   UNL     1       0.511  -0.109   5.955  1.00  0.00     0.178 C 
ATOM     12  N   UNL     1       1.050   0.227   4.631  1.00  0.00    -0.296 N 
ATOM     13  C   UNL     1       2.418  -0.223   4.486  1.00  0.00     0.124 C 
ATOM     14  C   UNL     1       2.416  -1.496   5.297  1.00  0.00     0.024 C 
ATOM     15  C   UNL     1       1.542  -1.121   6.487  1.00  0.00     0.037 C 
BRANCH  12  16
ATOM     16  C   UNL     1       0.264   0.702   3.611  1.00  0.00     0.410 C 
ATOM     17  O   UNL     1      -0.900   1.047   3.754  1.00  0.00    -0.224 OA
BRANCH  16  18
ATOM     18  O   UNL     1       0.925   0.642   2.430  1.00  0.00    -0.444 OA
BRANCH  18  19
ATOM     19  C   UNL     1       0.375   1.048   1.151  1.00  0.00     0.106 C 
ATOM     20  C   UNL     1       1.075   0.137   0.130  1.00  0.00     0.056 C 
ATOM     21  C   UNL     1       0.788   2.499   0.909  1.00  0.00     0.056 C 
ATOM     22  C   UNL     1      -1.138   0.867   0.998  1.00  0.00     0.056 C 
ENDBRANCH  18  19
ENDBRANCH  16  18
ENDBRANCH  12  16
ENDBRANCH   8  11
ENDBRANCH   6   7
BRANCH   6  23
ATOM     23  C   UNL     1       1.443  -0.010   9.945  1.00  0.00     0.070 C 
BRANCH  23  24
ATOM     24  C   UNL     1       1.701   1.131  10.908  1.00  0.00    -0.045 A 
ATOM     25  C   UNL     1       1.830   2.459  10.467  1.00  0.00     0.004 A 
ATOM     26  C   UNL     1       1.802   0.873  12.284  1.00  0.00     0.004 A 
ATOM     27  C   UNL     1       1.917   3.509  11.387  1.00  0.00     0.000 A 
ATOM     28  C   UNL     1       1.929   1.921  13.199  1.00  0.00     0.000 A 
ATOM     29  C   UNL     1       1.955   3.240  12.753  1.00  0.00     0.000 A 
ENDBRANCH  23  24
ENDBRANCH   6  23
ENDBRANCH   3   6
ENDBRANCH   1   2
BRANCH   1  30
ATOM     30  C   UNL     1      -2.410   2.894  11.053  1.00  0.00     0.042 C 
BRANCH  30  31
ATOM     31  C   UNL     1      -3.461   2.813  12.142  1.00  0.00     0.118 C 
BRANCH  31  32
ATOM     32  N   UNL     1      -2.910   2.965  13.486  1.00  0.00    -0.352 N 
ATOM     33  C   UNL     1      -2.957   4.009  14.382  1.00  0.00     0.251 C 
ATOM     34  H   UNL     1      -2.415   2.179  13.810  1.00  0.00     0.163 HD
ATOM     35  O   UNL     1      -2.255   3.958  15.389  1.00  0.00    -0.269 OA
BRANCH  33  36
ATOM     36  C   UNL     1      -3.805   5.196  14.127  1.00  0.00     0.039 A 
ATOM     37  C   UNL     1      -3.351   6.459  14.519  1.00  0.00     0.014 A 
ATOM     38  C   UNL     1      -5.047   5.076  13.507  1.00  0.00     0.014 A 
ATOM     39  C   UNL     1      -4.096   7.598  14.195  1.00  0.00     0.010 A 
ATOM     40  C   UNL     1      -5.713   6.210  13.062  1.00  0.00     0.010 A 
ATOM     41  C   UNL     1      -5.255   7.487  13.410  1.00  0.00    -0.014 A 
BRANCH  41  42
ATOM     42  C   UNL     1      -6.024   8.677  12.958  1.00  0.00     0.031 A 
ATOM     43  C   UNL     1      -7.485   8.801  13.311  1.00  0.00     0.074 A 
ATOM     44  C   UNL     1      -5.440   9.589  12.155  1.00  0.00     0.049 A 
ATOM     45  N   UNL     1      -8.368   9.673  12.898  1.00  0.00    -0.248 NA
ATOM     46  C   UNL     1      -8.036   7.774  14.209  1.00  0.00     0.031 C 
ATOM     47  C   UNL     1      -4.050   9.548  11.694  1.00  0.00     0.029 A 
ATOM     48  N   UNL     1      -5.945  10.724  11.572  1.00  0.00    -0.354 N 
ATOM     49  C   UNL     1      -9.580   9.278  13.457  1.00  0.00     0.074 A 
ATOM     50  C   UNL     1      -9.330   8.048  14.174  1.00  0.00     0.031 C 
ATOM     51  C   UNL     1      -3.805  10.624  10.931  1.00  0.00     0.029 A 
ATOM     52  C   UNL     1      -5.030  11.404  10.800  1.00  0.00     0.049 A 
ATOM     53  H   UNL     1      -6.874  11.024  11.694  1.00  0.00     0.167 HD
ATOM     54  C   UNL     1     -10.784   9.900  13.403  1.00  0.00     0.034 A 
ATOM     55  C   UNL     1      -5.167  12.522  10.060  1.00  0.00     0.034 A 
ATOM     56  C   UNL     1     -11.004  11.148  12.716  1.00  0.00     0.049 A 
ATOM     57  C   UNL     1      -6.511  13.204  10.024  1.00  0.00     0.074 A 
ATOM     58  C   UNL     1     -12.159  11.908  12.654  1.00  0.00     0.029 A 
ATOM     59  N   UNL     1     -10.045  11.823  11.970  1.00  0.00    -0.354 N 
ATOM     60  N   UNL     1      -7.635  12.846  10.601  1.00  0.00    -0.248 NA
ATOM     61  C   UNL     1      -6.601  14.446   9.247  1.00  0.00     0.031 C 
ATOM     62  C   UNL     1     -11.915  13.009  11.825  1.00  0.00     0.029 A 
ATOM     63  C   UNL     1     -10.588  12.976  11.426  1.00  0.00     0.049 A 
ATOM     64  H   UNL     1      -9.114  11.525  11.847  1.00  0.00     0.167 HD
ATOM     65  C   UNL     1      -8.559  13.835  10.277  1.00  0.00     0.074 A 
ATOM     66  C   UNL     1      -7.854  14.812   9.471  1.00  0.00     0.031 C 
ATOM     67  C   UNL     1      -9.870  13.932  10.617  1.00  0.00     0.034 A 
BRANCH  54  68
ATOM     68  C   UNL     1     -11.947   9.226  14.095  1.00  0.00     0.023 A 
ATOM     69  C   UNL     1     -11.945   8.989  15.481  1.00  0.00     0.031 A 
ATOM     70  C   UNL     1     -13.056   8.778  13.356  1.00  0.00     0.131 A 
ATOM     71  C   UNL     1     -12.980   8.246  16.068  1.00  0.00     0.055 A 
ATOM     72  C   UNL     1     -14.127   8.117  13.961  1.00  0.00     0.041 A 
ATOM     73  F   UNL     1     -13.109   8.957  12.026  1.00  0.00    -0.206 F 
ATOM     74  C   UNL     1     -14.085   7.832  15.323  1.00  0.00     0.022 A 
BRANCH  71  75
ATOM     75  S   UNL     1     -12.783   7.696  17.786  1.00  0.00     0.124 S 
ATOM     76  O   UNL     1     -11.562   6.897  17.700  1.00  0.00    -0.237 OA
ATOM     77  O   UNL     1     -12.671   8.957  18.510  1.00  0.00    -0.237 OA
ATOM     78  O   UNL     1     -14.002   6.933  18.044  1.00  0.00    -0.744 OA
ENDBRANCH  71  75
ENDBRANCH  54  68
BRANCH  55  79
ATOM     79  C   UNL     1      -4.012  13.070   9.294  1.00  0.00     0.023 A 
ATOM     80  C   UNL     1      -3.458  14.319   9.620  1.00  0.00     0.031 A 
ATOM     81  C   UNL     1      -3.466  12.372   8.202  1.00  0.00     0.131 A 
ATOM     82  C   UNL     1      -2.423  14.852   8.836  1.00  0.00     0.055 A 
ATOM     83  C   UNL     1      -2.402  12.884   7.457  1.00  0.00     0.041 A 
ATOM     84  F   UNL     1      -3.952  11.171   7.853  1.00  0.00    -0.206 F 
ATOM     85  C   UNL     1      -1.883  14.138   7.764  1.00  0.00     0.022 A 
BRANCH  82  86
ATOM     86  S   UNL     1      -1.846  16.535   9.190  1.00  0.00     0.124 S 
ATOM     87  O   UNL     1      -3.076  17.307   9.052  1.00  0.00    -0.237 OA
ATOM     88  O   UNL     1      -1.324  16.398  10.546  1.00  0.00    -0.237 OA
ATOM     89  O   UNL     1      -0.839  16.774   8.158  1.00  0.00    -0.744 OA
ENDBRANCH  82  86
ENDBRANCH  55  79
BRANCH  67  90
ATOM     90  C   UNL     1     -10.606  15.162  10.149  1.00  0.00     0.023 A 
ATOM     91  C   UNL     1     -10.871  15.393   8.789  1.00  0.00     0.031 A 
ATOM     92  C   UNL     1     -11.038  16.122  11.082  1.00  0.00     0.131 A 
ATOM     93  C   UNL     1     -11.499  16.582   8.393  1.00  0.00     0.055 A 
ATOM     94  C   UNL     1     -11.717  17.275  10.687  1.00  0.00     0.041 A 
ATOM     95  F   UNL     1     -10.810  15.952  12.394  1.00  0.00    -0.206 F 
ATOM     96  C   UNL     1     -11.939  17.516   9.334  1.00  0.00     0.022 A 
BRANCH  93  97
ATOM     97  S   UNL     1     -11.656  16.935   6.621  1.00  0.00     0.124 S 
ATOM     98  O   UNL     1     -10.264  16.924   6.185  1.00  0.00    -0.237 OA
ATOM     99  O   UNL     1     -12.480  15.826   6.153  1.00  0.00    -0.237 OA
ATOM    100  O   UNL     1     -12.306  18.245   6.588  1.00  0.00    -0.744 OA
ENDBRANCH  93  97
ENDBRANCH  67  90
ENDBRANCH  41  42
ENDBRANCH  33  36
ENDBRANCH  31  32
ENDBRANCH  30  31
ENDBRANCH   1  30
TORSDOF 20
