REMARK SMILES CSc1ncccc1C(=O)NCCCC(=O)NCCCNC(=O)c1ccc(-c2c3nc(c(-c4cc(S(=O)(=O)[O-])ccc4F)c4ccc([nH]4)c(-c4cc(S(=O)(=O)[O-])ccc4F)c4nc(c(-c5cc(S(=O)(=O)[O-])ccc5F)c5ccc2[nH]5)C=C4)C=C3)cc1
REMARK SMILES IDX 18 1 17 2 15 3 16 4 14 6 13 7 12 8 11 9 9 10 10 11 8 13 3 14
REMARK SMILES IDX 4 15 5 16 7 17 6 18 2 19 1 20 19 21 20 22 21 23 22 24 23 26
REMARK SMILES IDX 24 27 25 28 86 29 26 30 85 31 27 32 28 33 29 34 79 35 30 36
REMARK SMILES IDX 84 37 78 38 80 39 31 40 83 41 77 42 76 43 32 45 64 46 44 47
REMARK SMILES IDX 63 48 45 49 48 50 62 51 81 52 46 53 47 54 61 56 82 57 49 58
REMARK SMILES IDX 33 59 34 60 42 61 35 62 41 63 43 64 40 65 36 66 37 67 38 68
REMARK SMILES IDX 39 69 65 70 66 71 74 72 67 73 73 74 75 75 72 76 68 77 69 78
REMARK SMILES IDX 70 79 71 80 50 81 51 82 59 83 52 84 58 85 60 86 57 87 53 88
REMARK SMILES IDX 54 89 55 90 56 91
REMARK H PARENT 17 5 11 12 21 25 80 44 48 55
REMARK Flexibility Score: inf
ROOT
ATOM      1  C   UNL     1       4.655   0.935  -6.893  1.00  0.00     0.117 C 
ENDROOT
BRANCH   1   2
ATOM      2  N   UNL     1       5.876   1.689  -7.136  1.00  0.00    -0.356 N 
ATOM      3  C   UNL     1       6.899   2.017  -6.301  1.00  0.00     0.220 C 
ATOM      4  O   UNL     1       7.786   2.760  -6.724  1.00  0.00    -0.275 OA
ATOM      5  H   UNL     1       5.978   2.018  -8.058  1.00  0.00     0.163 HD
BRANCH   3   6
ATOM      6  C   UNL     1       6.963   1.465  -4.894  1.00  0.00     0.102 C 
BRANCH   6   7
ATOM      7  C   UNL     1       6.566   2.477  -3.814  1.00  0.00     0.031 C 
BRANCH   7   8
ATOM      8  C   UNL     1       5.071   2.776  -3.693  1.00  0.00     0.116 C 
BRANCH   8   9
ATOM      9  N   UNL     1       4.268   1.577  -3.530  1.00  0.00    -0.352 N 
ATOM     10  C   UNL     1       2.937   1.337  -3.293  1.00  0.00     0.254 C 
ATOM     11  O   UNL     1       2.607   0.160  -3.425  1.00  0.00    -0.269 OA
ATOM     12  H   UNL     1       4.798   0.750  -3.607  1.00  0.00     0.163 HD
BRANCH  10  13
ATOM     13  C   UNL     1       1.964   2.384  -2.868  1.00  0.00     0.072 A 
ATOM     14  C   UNL     1       0.853   2.073  -2.063  1.00  0.00     0.108 A 
ATOM     15  N   UNL     1       0.009   3.029  -1.579  1.00  0.00    -0.249 NA
ATOM     16  C   UNL     1       0.206   4.308  -1.950  1.00  0.00     0.112 A 
ATOM     17  C   UNL     1       2.103   3.722  -3.260  1.00  0.00     0.018 A 
ATOM     18  C   UNL     1       1.221   4.697  -2.796  1.00  0.00     0.021 A 
BRANCH  14  19
ATOM     19  S   UNL     1       0.305   0.432  -1.616  1.00  0.00    -0.109 SA
ATOM     20  C   UNL     1       1.105   0.294  -0.010  1.00  0.00     0.092 C 
ENDBRANCH  14  19
ENDBRANCH  10  13
ENDBRANCH   8   9
ENDBRANCH   7   8
ENDBRANCH   6   7
ENDBRANCH   3   6
ENDBRANCH   1   2
BRANCH   1  21
ATOM     21  C   UNL     1       3.428   1.842  -6.917  1.00  0.00     0.042 C 
BRANCH  21  22
ATOM     22  C   UNL     1       3.004   2.259  -8.321  1.00  0.00     0.118 C 
BRANCH  22  23
ATOM     23  N   UNL     1       2.331   1.184  -9.031  1.00  0.00    -0.352 N 
ATOM     24  C   UNL     1       1.070   1.142  -9.575  1.00  0.00     0.251 C 
ATOM     25  H   UNL     1       2.860   0.361  -9.138  1.00  0.00     0.163 HD
ATOM     26  O   UNL     1       0.622   0.063  -9.952  1.00  0.00    -0.269 OA
BRANCH  24  27
ATOM     27  C   UNL     1       0.248   2.371  -9.694  1.00  0.00     0.039 A 
ATOM     28  C   UNL     1      -1.126   2.287  -9.444  1.00  0.00     0.014 A 
ATOM     29  C   UNL     1       0.804   3.590 -10.093  1.00  0.00     0.014 A 
ATOM     30  C   UNL     1      -1.928   3.428  -9.548  1.00  0.00     0.010 A 
ATOM     31  C   UNL     1       0.018   4.742 -10.122  1.00  0.00     0.010 A 
ATOM     32  C   UNL     1      -1.359   4.673  -9.861  1.00  0.00    -0.014 A 
BRANCH  32  33
ATOM     33  C   UNL     1      -2.192   5.904  -9.947  1.00  0.00     0.031 A 
ATOM     34  C   UNL     1      -2.328   6.632 -11.258  1.00  0.00     0.074 A 
ATOM     35  C   UNL     1      -2.779   6.396  -8.838  1.00  0.00     0.049 A 
ATOM     36  N   UNL     1      -2.934   7.762 -11.521  1.00  0.00    -0.248 NA
ATOM     37  C   UNL     1      -1.667   6.022 -12.421  1.00  0.00     0.031 C 
ATOM     38  C   UNL     1      -2.697   5.800  -7.502  1.00  0.00     0.029 A 
ATOM     39  N   UNL     1      -3.554   7.514  -8.653  1.00  0.00    -0.354 N 
ATOM     40  C   UNL     1      -2.714   8.008 -12.873  1.00  0.00     0.074 A 
ATOM     41  C   UNL     1      -1.867   6.937 -13.358  1.00  0.00     0.031 C 
ATOM     42  C   UNL     1      -3.411   6.545  -6.643  1.00  0.00     0.029 A 
ATOM     43  C   UNL     1      -3.964   7.695  -7.352  1.00  0.00     0.049 A 
ATOM     44  H   UNL     1      -3.795   8.129  -9.383  1.00  0.00     0.167 HD
ATOM     45  C   UNL     1      -3.190   9.018 -13.644  1.00  0.00     0.034 A 
ATOM     46  C   UNL     1      -4.693   8.681  -6.790  1.00  0.00     0.034 A 
ATOM     47  C   UNL     1      -4.052  10.065 -13.151  1.00  0.00     0.049 A 
ATOM     48  C   UNL     1      -5.202   9.800  -7.664  1.00  0.00     0.074 A 
ATOM     49  C   UNL     1      -4.636  11.104 -13.855  1.00  0.00     0.029 A 
ATOM     50  N   UNL     1      -4.451  10.211 -11.829  1.00  0.00    -0.354 N 
ATOM     51  N   UNL     1      -5.017   9.995  -8.949  1.00  0.00    -0.248 NA
ATOM     52  C   UNL     1      -6.027  10.826  -7.013  1.00  0.00     0.031 C 
ATOM     53  C   UNL     1      -5.335  11.911 -12.950  1.00  0.00     0.029 A 
ATOM     54  C   UNL     1      -5.249  11.337 -11.692  1.00  0.00     0.049 A 
ATOM     55  H   UNL     1      -4.203   9.603 -11.095  1.00  0.00     0.167 HD
ATOM     56  C   UNL     1      -5.730  11.148  -9.264  1.00  0.00     0.074 A 
ATOM     57  C   UNL     1      -6.358  11.596  -8.038  1.00  0.00     0.031 C 
ATOM     58  C   UNL     1      -5.859  11.778 -10.460  1.00  0.00     0.034 A 
BRANCH  45  59
ATOM     59  C   UNL     1      -2.765   9.046 -15.094  1.00  0.00     0.023 A 
ATOM     60  C   UNL     1      -3.109   8.015 -15.986  1.00  0.00     0.031 A 
ATOM     61  C   UNL     1      -1.982  10.105 -15.586  1.00  0.00     0.131 A 
ATOM     62  C   UNL     1      -2.607   8.024 -17.296  1.00  0.00     0.055 A 
ATOM     63  C   UNL     1      -1.555  10.150 -16.915  1.00  0.00     0.041 A 
ATOM     64  F   UNL     1      -1.605  11.109 -14.779  1.00  0.00    -0.206 F 
ATOM     65  C   UNL     1      -1.853   9.097 -17.775  1.00  0.00     0.022 A 
BRANCH  62  66
ATOM     66  S   UNL     1      -2.830   6.542 -18.319  1.00  0.00     0.124 S 
ATOM     67  O   UNL     1      -2.159   5.525 -17.512  1.00  0.00    -0.237 OA
ATOM     68  O   UNL     1      -4.281   6.435 -18.406  1.00  0.00    -0.237 OA
ATOM     69  O   UNL     1      -2.152   6.883 -19.568  1.00  0.00    -0.744 OA
ENDBRANCH  62  66
ENDBRANCH  45  59
BRANCH  46  70
ATOM     70  C   UNL     1      -4.981   8.667  -5.327  1.00  0.00     0.023 A 
ATOM     71  C   UNL     1      -6.295   8.533  -4.851  1.00  0.00     0.031 A 
ATOM     72  C   UNL     1      -3.951   8.830  -4.384  1.00  0.00     0.131 A 
ATOM     73  C   UNL     1      -6.551   8.613  -3.473  1.00  0.00     0.055 A 
ATOM     74  C   UNL     1      -4.205   8.856  -3.012  1.00  0.00     0.041 A 
ATOM     75  F   UNL     1      -2.675   8.955  -4.785  1.00  0.00    -0.206 F 
ATOM     76  C   UNL     1      -5.514   8.760  -2.550  1.00  0.00     0.022 A 
BRANCH  73  77
ATOM     77  S   UNL     1      -8.275   8.609  -2.909  1.00  0.00     0.124 S 
ATOM     78  O   UNL     1      -8.824   9.755  -3.625  1.00  0.00    -0.237 OA
ATOM     79  O   UNL     1      -8.734   7.296  -3.349  1.00  0.00    -0.237 OA
ATOM     80  O   UNL     1      -8.158   8.774  -1.462  1.00  0.00    -0.744 OA
ENDBRANCH  73  77
ENDBRANCH  46  70
BRANCH  58  81
ATOM     81  C   UNL     1      -6.751  12.994 -10.500  1.00  0.00     0.023 A 
ATOM     82  C   UNL     1      -6.409  14.185  -9.837  1.00  0.00     0.031 A 
ATOM     83  C   UNL     1      -7.969  12.954 -11.203  1.00  0.00     0.131 A 
ATOM     84  C   UNL     1      -7.299  15.270  -9.844  1.00  0.00     0.055 A 
ATOM     85  C   UNL     1      -8.824  14.056 -11.255  1.00  0.00     0.041 A 
ATOM     86  F   UNL     1      -8.346  11.841 -11.853  1.00  0.00    -0.206 F 
ATOM     87  C   UNL     1      -8.497  15.218 -10.562  1.00  0.00     0.022 A 
BRANCH  84  88
ATOM     88  S   UNL     1      -6.910  16.723  -8.830  1.00  0.00     0.124 S 
ATOM     89  O   UNL     1      -6.818  16.145  -7.493  1.00  0.00    -0.237 OA
ATOM     90  O   UNL     1      -5.654  17.184  -9.413  1.00  0.00    -0.237 OA
ATOM     91  O   UNL     1      -8.054  17.608  -9.046  1.00  0.00    -0.744 OA
ENDBRANCH  84  88
ENDBRANCH  58  81
ENDBRANCH  32  33
ENDBRANCH  24  27
ENDBRANCH  22  23
ENDBRANCH  21  22
ENDBRANCH   1  21
TORSDOF 18
