REMARK SMILES Cc1ccc(C2=NN(C(=O)CCC(=O)NCCCNC(=O)c3ccc(-c4c5nc(c(-c6cc(S(=O)(=O)[O-])ccc6F)c6ccc([nH]6)c(-c6cc(S(=O)(=O)[O-])ccc6F)c6nc(c(-c7cc(S(=O)(=O)[O-])ccc7F)c7ccc4[nH]7)C=C6)C=C5)cc3)[C@H](C[C@@H]3C=c4cccc(C)c4=NC3=O)C2)cc1
REMARK SMILES IDX 16 1 15 2 13 3 14 4 12 6 11 7 9 8 10 9 8 10 6 11 7 12 99 13
REMARK SMILES IDX 85 14 5 15 1 16 2 17 3 18 101 19 4 20 100 21 86 22 87 23
REMARK SMILES IDX 88 24 97 25 89 26 96 27 98 28 90 29 95 30 91 31 93 32 92 33
REMARK SMILES IDX 94 34 17 35 18 36 19 37 20 38 21 40 22 41 23 42 84 43 24 44
REMARK SMILES IDX 83 45 25 46 26 47 27 48 77 49 28 50 82 51 76 52 78 53 29 54
REMARK SMILES IDX 81 55 75 56 74 57 30 59 62 60 42 61 61 62 43 63 46 64 60 65
REMARK SMILES IDX 79 66 44 67 45 68 59 70 80 71 47 72 31 73 32 74 40 75 33 76
REMARK SMILES IDX 39 77 41 78 38 79 34 80 35 81 36 82 37 83 63 84 64 85 72 86
REMARK SMILES IDX 65 87 71 88 73 89 70 90 66 91 67 92 68 93 69 94 48 95 49 96
REMARK SMILES IDX 57 97 50 98 56 99 58 100 55 101 51 102 52 103 53 104 54 105
REMARK H PARENT 15 5 19 39 78 58 46 69
REMARK Flexibility Score: inf
ROOT
ATOM      1  C   UNL     1      -5.071   1.296   0.412  1.00  0.00     0.117 C 
ENDROOT
BRANCH   1   2
ATOM      2  N   UNL     1      -6.287   2.213  -0.060  1.00  0.00    -0.356 N 
ATOM      3  C   UNL     1      -7.605   2.394   0.252  1.00  0.00     0.220 C 
ATOM      4  O   UNL     1      -8.259   3.127  -0.502  1.00  0.00    -0.275 OA
ATOM      5  H   UNL     1      -6.009   2.822  -0.782  1.00  0.00     0.163 HD
BRANCH   3   6
ATOM      6  C   UNL     1      -8.336   1.761   1.430  1.00  0.00     0.110 C 
BRANCH   6   7
ATOM      7  C   UNL     1      -8.330   0.262   1.582  1.00  0.00     0.112 C 
BRANCH   7   8
ATOM      8  C   UNL     1      -6.990  -0.196   2.074  1.00  0.00     0.243 C 
ATOM      9  O   UNL     1      -6.814  -0.580   3.226  1.00  0.00    -0.273 OA
BRANCH   8  10
ATOM     10  N   UNL     1      -6.026  -0.168   1.089  1.00  0.00    -0.230 N 
ATOM     11  C   UNL     1      -3.268   0.442   0.390  1.00  0.00     0.070 C 
ATOM     12  N   UNL     1      -4.237   0.156   1.670  1.00  0.00    -0.174 NA
ATOM     13  C   UNL     1      -4.263   0.622  -1.317  1.00  0.00     0.086 C 
ATOM     14  C   UNL     1      -6.078   0.023  -0.862  1.00  0.00     0.118 C 
BRANCH  11  15
ATOM     15  C   UNL     1      -1.883  -0.057   0.237  1.00  0.00    -0.002 A 
ATOM     16  C   UNL     1       3.060  -0.299   1.452  1.00  0.00     0.044 C 
ATOM     17  C   UNL     1       1.573  -0.412   1.200  1.00  0.00    -0.051 A 
ATOM     18  C   UNL     1       0.686  -1.915   0.786  1.00  0.00     0.004 A 
ATOM     19  C   UNL     1       0.770   1.182   1.097  1.00  0.00     0.004 A 
ATOM     20  C   UNL     1      -1.074  -1.804   0.293  1.00  0.00     0.010 A 
ATOM     21  C   UNL     1      -0.902   1.359   0.621  1.00  0.00     0.010 A 
ENDBRANCH  11  15
BRANCH  14  22
ATOM     22  C   UNL     1      -6.506  -1.142  -1.847  1.00  0.00     0.045 C 
BRANCH  22  23
ATOM     23  C   UNL     1      -7.886  -1.708  -1.523  1.00  0.00     0.106 C 
ATOM     24  C   UNL     1      -7.775  -2.411  -0.230  1.00  0.00    -0.003 C 
ATOM     25  C   UNL     1      -8.489  -2.611  -2.611  1.00  0.00     0.253 C 
ATOM     26  C   UNL     1      -8.301  -3.579   0.074  1.00  0.00    -0.003 A 
ATOM     27  N   UNL     1      -9.074  -3.815  -2.250  1.00  0.00    -0.212 NA
ATOM     28  O   UNL     1      -8.504  -2.223  -3.778  1.00  0.00    -0.272 OA
ATOM     29  C   UNL     1      -8.228  -4.093   1.412  1.00  0.00     0.010 A 
ATOM     30  C   UNL     1      -8.982  -4.262  -1.037  1.00  0.00     0.077 A 
ATOM     31  C   UNL     1      -8.829  -5.247   1.696  1.00  0.00     0.001 A 
ATOM     32  C   UNL     1      -9.542  -5.595  -0.635  1.00  0.00    -0.025 A 
ATOM     33  C   UNL     1      -9.464  -6.010   0.646  1.00  0.00     0.005 A 
ATOM     34  C   UNL     1     -10.083  -6.428  -1.745  1.00  0.00     0.047 C 
ENDBRANCH  22  23
ENDBRANCH  14  22
ENDBRANCH   8  10
ENDBRANCH   7   8
ENDBRANCH   6   7
ENDBRANCH   3   6
ENDBRANCH   1   2
BRANCH   1  35
ATOM     35  C   UNL     1      -4.567  -0.860   0.123  1.00  0.00     0.042 C 
BRANCH  35  36
ATOM     36  C   UNL     1      -3.462  -1.820   1.344  1.00  0.00     0.118 C 
BRANCH  36  37
ATOM     37  N   UNL     1      -2.062  -1.155   2.115  1.00  0.00    -0.352 N 
ATOM     38  C   UNL     1      -0.546  -0.481   1.611  1.00  0.00     0.251 C 
ATOM     39  H   UNL     1      -2.150  -1.160   3.096  1.00  0.00     0.163 HD
ATOM     40  O   UNL     1      -0.094  -0.206   2.752  1.00  0.00    -0.269 OA
BRANCH  38  41
ATOM     41  C   UNL     1       0.055  -0.286  -0.460  1.00  0.00     0.039 A 
ATOM     42  C   UNL     1       1.222   0.228  -1.171  1.00  0.00     0.014 A 
ATOM     43  C   UNL     1      -0.773  -0.695  -1.647  1.00  0.00     0.014 A 
ATOM     44  C   UNL     1       1.160   0.941  -2.370  1.00  0.00     0.010 A 
ATOM     45  C   UNL     1      -1.072   0.188  -2.614  1.00  0.00     0.010 A 
ATOM     46  C   UNL     1      -0.077   1.057  -2.947  1.00  0.00    -0.014 A 
BRANCH  46  47
ATOM     47  C   UNL     1      -0.387   1.575  -4.243  1.00  0.00     0.031 A 
ATOM     48  C   UNL     1       0.134   0.639  -5.276  1.00  0.00     0.074 A 
ATOM     49  C   UNL     1      -1.313   2.559  -4.162  1.00  0.00     0.049 A 
ATOM     50  N   UNL     1       0.890   0.948  -6.272  1.00  0.00    -0.248 NA
ATOM     51  C   UNL     1       0.102  -0.848  -5.099  1.00  0.00     0.031 C 
ATOM     52  C   UNL     1      -2.225   3.130  -5.131  1.00  0.00     0.029 A 
ATOM     53  N   UNL     1      -1.482   3.390  -3.039  1.00  0.00    -0.354 N 
ATOM     54  C   UNL     1       0.814  -0.166  -7.091  1.00  0.00     0.074 A 
ATOM     55  C   UNL     1       0.685  -1.288  -6.213  1.00  0.00     0.031 C 
ATOM     56  C   UNL     1      -2.543   4.382  -4.735  1.00  0.00     0.029 A 
ATOM     57  C   UNL     1      -1.827   4.674  -3.498  1.00  0.00     0.049 A 
ATOM     58  H   UNL     1      -1.379   3.121  -2.098  1.00  0.00     0.167 HD
ATOM     59  C   UNL     1       0.268  -0.028  -8.334  1.00  0.00     0.034 A 
ATOM     60  C   UNL     1      -0.882   5.650  -3.337  1.00  0.00     0.034 A 
ATOM     61  C   UNL     1      -0.240   1.340  -8.487  1.00  0.00     0.049 A 
ATOM     62  C   UNL     1      -0.006   5.757  -4.575  1.00  0.00     0.074 A 
ATOM     63  C   UNL     1      -1.495   1.923  -8.456  1.00  0.00     0.029 A 
ATOM     64  N   UNL     1       0.649   2.371  -8.285  1.00  0.00    -0.354 N 
ATOM     65  N   UNL     1      -0.108   4.973  -5.616  1.00  0.00    -0.248 NA
ATOM     66  C   UNL     1       1.080   6.721  -4.706  1.00  0.00     0.031 C 
ATOM     67  C   UNL     1      -1.317   3.327  -8.206  1.00  0.00     0.029 A 
ATOM     68  C   UNL     1       0.035   3.579  -8.068  1.00  0.00     0.049 A 
ATOM     69  H   UNL     1       1.626   2.254  -8.296  1.00  0.00     0.167 HD
ATOM     70  C   UNL     1       0.835   5.300  -6.544  1.00  0.00     0.074 A 
ATOM     71  C   UNL     1       1.603   6.357  -5.888  1.00  0.00     0.031 C 
ATOM     72  C   UNL     1       0.909   4.703  -7.778  1.00  0.00     0.034 A 
BRANCH  59  73
ATOM     73  C   UNL     1      -0.071  -1.148  -9.280  1.00  0.00     0.023 A 
ATOM     74  C   UNL     1      -0.890  -0.840 -10.379  1.00  0.00     0.031 A 
ATOM     75  C   UNL     1       0.427  -2.469  -9.245  1.00  0.00     0.131 A 
ATOM     76  C   UNL     1      -1.209  -1.795 -11.354  1.00  0.00     0.055 A 
ATOM     77  C   UNL     1       0.077  -3.438 -10.198  1.00  0.00     0.041 A 
ATOM     78  F   UNL     1       1.316  -2.871  -8.326  1.00  0.00    -0.206 F 
ATOM     79  C   UNL     1      -0.743  -3.102 -11.266  1.00  0.00     0.022 A 
BRANCH  76  80
ATOM     80  S   UNL     1      -2.201  -1.261 -12.770  1.00  0.00     0.124 S 
ATOM     81  O   UNL     1      -3.457  -0.879 -12.132  1.00  0.00    -0.237 OA
ATOM     82  O   UNL     1      -1.396  -0.172 -13.315  1.00  0.00    -0.237 OA
ATOM     83  O   UNL     1      -2.267  -2.458 -13.606  1.00  0.00    -0.744 OA
ENDBRANCH  76  80
ENDBRANCH  59  73
BRANCH  60  84
ATOM     84  C   UNL     1      -0.378   5.654  -1.922  1.00  0.00     0.023 A 
ATOM     85  C   UNL     1      -1.343   5.867  -0.906  1.00  0.00     0.031 A 
ATOM     86  C   UNL     1       0.807   4.989  -1.576  1.00  0.00     0.131 A 
ATOM     87  C   UNL     1      -1.200   5.249   0.343  1.00  0.00     0.055 A 
ATOM     88  C   UNL     1       0.985   4.455  -0.298  1.00  0.00     0.041 A 
ATOM     89  F   UNL     1       1.732   4.704  -2.503  1.00  0.00    -0.206 F 
ATOM     90  C   UNL     1      -0.026   4.565   0.662  1.00  0.00     0.022 A 
BRANCH  87  91
ATOM     91  S   UNL     1      -2.718   4.956   1.335  1.00  0.00     0.124 S 
ATOM     92  O   UNL     1      -2.781   6.148   2.169  1.00  0.00    -0.237 OA
ATOM     93  O   UNL     1      -3.744   4.825   0.300  1.00  0.00    -0.237 OA
ATOM     94  O   UNL     1      -2.430   3.710   2.035  1.00  0.00    -0.744 OA
ENDBRANCH  87  91
ENDBRANCH  60  84
BRANCH  72  95
ATOM     95  C   UNL     1       1.910   5.126  -8.823  1.00  0.00     0.023 A 
ATOM     96  C   UNL     1       2.355   6.444  -8.856  1.00  0.00     0.031 A 
ATOM     97  C   UNL     1       2.434   4.279  -9.830  1.00  0.00     0.131 A 
ATOM     98  C   UNL     1       3.439   6.811  -9.654  1.00  0.00     0.055 A 
ATOM     99  C   UNL     1       3.426   4.682 -10.720  1.00  0.00     0.041 A 
ATOM    100  F   UNL     1       2.047   3.009 -10.002  1.00  0.00    -0.206 F 
ATOM    101  C   UNL     1       3.975   5.944 -10.601  1.00  0.00     0.022 A 
BRANCH  98 102
ATOM    102  S   UNL     1       4.211   8.398  -9.300  1.00  0.00     0.124 S 
ATOM    103  O   UNL     1       3.078   9.317  -9.331  1.00  0.00    -0.237 OA
ATOM    104  O   UNL     1       4.787   8.152  -7.981  1.00  0.00    -0.237 OA
ATOM    105  O   UNL     1       5.176   8.555 -10.385  1.00  0.00    -0.744 OA
ENDBRANCH  98 102
ENDBRANCH  72  95
ENDBRANCH  46  47
ENDBRANCH  38  41
ENDBRANCH  36  37
ENDBRANCH  35  36
ENDBRANCH   1  35
TORSDOF 19
