REMARK SMILES [NH3+][C@@H](CCCCC(=O)NCCCNC(=O)c1ccc(-c2c3nc(c(-c4cc(S(=O)(=O)[O-])ccc4F)c4ccc([nH]4)c(-c4cc(S(=O)(=O)[O-])ccc4F)c4nc(c(-c5cc(S(=O)(=O)[O-])ccc5F)c5ccc2[nH]5)C=C4)C=C3)cc1)c1ccc(-c2ccccc2)cc1
REMARK SMILES IDX 7 1 8 2 9 3 6 5 5 6 4 7 3 8 2 9 1 10 79 14 80 15 90 16 81 17
REMARK SMILES IDX 89 18 82 19 83 20 84 21 88 22 85 23 87 24 86 25 10 26 11 27
REMARK SMILES IDX 12 28 13 29 14 30 15 32 16 33 17 34 78 35 18 36 77 37 19 38
REMARK SMILES IDX 20 39 21 40 71 41 22 42 76 43 70 44 72 45 23 46 75 47 69 48
REMARK SMILES IDX 68 49 24 51 56 52 36 53 55 54 37 55 40 56 54 57 73 58 38 59
REMARK SMILES IDX 39 60 53 62 74 63 41 64 25 65 26 66 34 67 27 68 33 69 35 70
REMARK SMILES IDX 32 71 28 72 29 73 30 74 31 75 57 76 58 77 66 78 59 79 65 80
REMARK SMILES IDX 67 81 64 82 60 83 61 84 62 85 63 86 42 87 43 88 51 89 44 90
REMARK SMILES IDX 50 91 52 92 49 93 45 94 46 95 47 96 48 97
REMARK H PARENT 9 4 1 11 1 12 1 13 13 31 72 50 40 61
REMARK Flexibility Score: inf
ROOT
ATOM      1  C   UNL     1      -1.001  -2.499   4.774  1.00  0.00     0.219 C 
ATOM      2  O   UNL     1      -1.861  -2.410   5.651  1.00  0.00    -0.275 OA
ATOM      3  N   UNL     1       0.241  -2.929   5.125  1.00  0.00    -0.356 N 
ATOM      4  H   UNL     1       0.349  -3.187   6.068  1.00  0.00     0.163 HD
ENDROOT
BRANCH   1   5
ATOM      5  C   UNL     1      -1.318  -2.169   3.327  1.00  0.00     0.100 C 
BRANCH   5   6
ATOM      6  C   UNL     1      -1.068  -0.709   2.942  1.00  0.00     0.010 C 
BRANCH   6   7
ATOM      7  C   UNL     1       0.227  -0.313   2.201  1.00  0.00     0.007 C 
BRANCH   7   8
ATOM      8  C   UNL     1       0.830  -1.270   1.153  1.00  0.00     0.070 C 
BRANCH   8   9
ATOM      9  C   UNL     1       0.382  -1.069  -0.311  1.00  0.00     0.211 C 
BRANCH   9  10
ATOM     10  N   UNL     1       0.967   0.149  -0.877  1.00  0.00    -0.351 N 
ATOM     11  H   UNL     1       1.982   0.118  -0.777  1.00  0.00     0.345 HD
ATOM     12  H   UNL     1       0.602   0.964  -0.383  1.00  0.00     0.345 HD
ATOM     13  H   UNL     1       0.725   0.215  -1.866  1.00  0.00     0.345 HD
ENDBRANCH   9  10
BRANCH   9  14
ATOM     14  C   UNL     1      -1.129  -1.137  -0.401  1.00  0.00     0.009 A 
ATOM     15  C   UNL     1      -1.920   0.017  -0.453  1.00  0.00     0.010 A 
ATOM     16  C   UNL     1      -1.766  -2.380  -0.260  1.00  0.00     0.010 A 
ATOM     17  C   UNL     1      -3.300  -0.065  -0.278  1.00  0.00     0.009 A 
ATOM     18  C   UNL     1      -3.151  -2.458  -0.089  1.00  0.00     0.009 A 
ATOM     19  C   UNL     1      -3.936  -1.298  -0.069  1.00  0.00    -0.018 A 
BRANCH  19  20
ATOM     20  C   UNL     1      -5.381  -1.346   0.189  1.00  0.00    -0.018 A 
ATOM     21  C   UNL     1      -6.276  -0.688  -0.671  1.00  0.00     0.009 A 
ATOM     22  C   UNL     1      -5.905  -2.000   1.316  1.00  0.00     0.009 A 
ATOM     23  C   UNL     1      -7.646  -0.674  -0.411  1.00  0.00     0.001 A 
ATOM     24  C   UNL     1      -7.277  -1.989   1.577  1.00  0.00     0.001 A 
ATOM     25  C   UNL     1      -8.146  -1.324   0.714  1.00  0.00     0.000 A 
ENDBRANCH  19  20
ENDBRANCH   9  14
ENDBRANCH   8   9
ENDBRANCH   7   8
ENDBRANCH   6   7
ENDBRANCH   5   6
ENDBRANCH   1   5
BRANCH   3  26
ATOM     26  C   UNL     1       1.425  -3.059   4.303  1.00  0.00     0.117 C 
BRANCH  26  27
ATOM     27  C   UNL     1       2.316  -1.836   4.437  1.00  0.00     0.042 C 
BRANCH  27  28
ATOM     28  C   UNL     1       3.257  -1.899   5.621  1.00  0.00     0.118 C 
BRANCH  28  29
ATOM     29  N   UNL     1       4.314  -2.876   5.428  1.00  0.00    -0.352 N 
ATOM     30  C   UNL     1       5.677  -2.711   5.438  1.00  0.00     0.251 C 
ATOM     31  H   UNL     1       4.006  -3.797   5.266  1.00  0.00     0.163 HD
ATOM     32  O   UNL     1       6.386  -3.630   5.039  1.00  0.00    -0.269 OA
BRANCH  30  33
ATOM     33  C   UNL     1       6.284  -1.438   5.896  1.00  0.00     0.039 A 
ATOM     34  C   UNL     1       7.467  -1.001   5.295  1.00  0.00     0.014 A 
ATOM     35  C   UNL     1       5.719  -0.690   6.932  1.00  0.00     0.014 A 
ATOM     36  C   UNL     1       8.059   0.193   5.713  1.00  0.00     0.010 A 
ATOM     37  C   UNL     1       6.238   0.557   7.259  1.00  0.00     0.010 A 
ATOM     38  C   UNL     1       7.439   0.993   6.686  1.00  0.00    -0.014 A 
BRANCH  38  39
ATOM     39  C   UNL     1       8.073   2.241   7.186  1.00  0.00     0.031 A 
ATOM     40  C   UNL     1       8.445   2.350   8.644  1.00  0.00     0.074 A 
ATOM     41  C   UNL     1       8.277   3.278   6.351  1.00  0.00     0.049 A 
ATOM     42  N   UNL     1       8.946   3.366   9.300  1.00  0.00    -0.248 NA
ATOM     43  C   UNL     1       8.178   1.172   9.485  1.00  0.00     0.031 C 
ATOM     44  C   UNL     1       7.923   3.301   4.929  1.00  0.00     0.029 A 
ATOM     45  N   UNL     1       8.832   4.512   6.574  1.00  0.00    -0.354 N 
ATOM     46  C   UNL     1       9.027   2.956  10.628  1.00  0.00     0.074 A 
ATOM     47  C   UNL     1       8.450   1.633  10.695  1.00  0.00     0.031 C 
ATOM     48  C   UNL     1       8.309   4.473   4.400  1.00  0.00     0.029 A 
ATOM     49  C   UNL     1       8.890   5.304   5.450  1.00  0.00     0.049 A 
ATOM     50  H   UNL     1       9.158   4.804   7.455  1.00  0.00     0.167 HD
ATOM     51  C   UNL     1       9.563   3.609  11.688  1.00  0.00     0.034 A 
ATOM     52  C   UNL     1       9.357   6.558   5.289  1.00  0.00     0.034 A 
ATOM     53  C   UNL     1      10.161   4.918  11.592  1.00  0.00     0.049 A 
ATOM     54  C   UNL     1       9.941   7.271   6.484  1.00  0.00     0.074 A 
ATOM     55  C   UNL     1      10.785   5.656  12.582  1.00  0.00     0.029 A 
ATOM     56  N   UNL     1      10.207   5.687  10.435  1.00  0.00    -0.354 N 
ATOM     57  N   UNL     1      10.055   6.852   7.724  1.00  0.00    -0.248 NA
ATOM     58  C   UNL     1      10.475   8.618   6.253  1.00  0.00     0.031 C 
ATOM     59  C   UNL     1      11.139   6.897  12.045  1.00  0.00     0.029 A 
ATOM     60  C   UNL     1      10.822   6.901  10.695  1.00  0.00     0.049 A 
ATOM     61  H   UNL     1       9.854   5.410   9.559  1.00  0.00     0.167 HD
ATOM     62  C   UNL     1      10.717   7.869   8.409  1.00  0.00     0.074 A 
ATOM     63  C   UNL     1      10.982   8.912   7.440  1.00  0.00     0.031 C 
ATOM     64  C   UNL     1      11.080   7.932   9.716  1.00  0.00     0.034 A 
BRANCH  51  65
ATOM     65  C   UNL     1       9.498   2.925  13.036  1.00  0.00     0.023 A 
ATOM     66  C   UNL     1      10.113   1.681  13.269  1.00  0.00     0.031 A 
ATOM     67  C   UNL     1       8.774   3.505  14.093  1.00  0.00     0.131 A 
ATOM     68  C   UNL     1       9.917   1.019  14.491  1.00  0.00     0.055 A 
ATOM     69  C   UNL     1       8.663   2.884  15.339  1.00  0.00     0.041 A 
ATOM     70  F   UNL     1       8.144   4.679  13.928  1.00  0.00    -0.206 F 
ATOM     71  C   UNL     1       9.221   1.625  15.538  1.00  0.00     0.022 A 
BRANCH  68  72
ATOM     72  S   UNL     1      10.441  -0.713  14.630  1.00  0.00     0.124 S 
ATOM     73  O   UNL     1       9.678  -1.338  13.551  1.00  0.00    -0.237 OA
ATOM     74  O   UNL     1      11.882  -0.625  14.426  1.00  0.00    -0.237 OA
ATOM     75  O   UNL     1      10.022  -1.090  15.978  1.00  0.00    -0.744 OA
ENDBRANCH  68  72
ENDBRANCH  51  65
BRANCH  52  76
ATOM     76  C   UNL     1       9.306   7.221   3.954  1.00  0.00     0.023 A 
ATOM     77  C   UNL     1      10.485   7.591   3.286  1.00  0.00     0.031 A 
ATOM     78  C   UNL     1       8.079   7.537   3.344  1.00  0.00     0.131 A 
ATOM     79  C   UNL     1      10.413   8.302   2.078  1.00  0.00     0.055 A 
ATOM     80  C   UNL     1       8.013   8.193   2.113  1.00  0.00     0.041 A 
ATOM     81  F   UNL     1       6.921   7.203   3.935  1.00  0.00    -0.206 F 
ATOM     82  C   UNL     1       9.185   8.593   1.480  1.00  0.00     0.022 A 
BRANCH  79  83
ATOM     83  S   UNL     1      11.951   8.928   1.346  1.00  0.00     0.124 S 
ATOM     84  O   UNL     1      12.478   9.754   2.426  1.00  0.00    -0.237 OA
ATOM     85  O   UNL     1      12.677   7.693   1.068  1.00  0.00    -0.237 OA
ATOM     86  O   UNL     1      11.492   9.658   0.167  1.00  0.00    -0.744 OA
ENDBRANCH  79  83
ENDBRANCH  52  76
BRANCH  64  87
ATOM     87  C   UNL     1      11.868   9.144  10.153  1.00  0.00     0.023 A 
ATOM     88  C   UNL     1      11.320  10.438  10.135  1.00  0.00     0.031 A 
ATOM     89  C   UNL     1      13.200   8.997  10.582  1.00  0.00     0.131 A 
ATOM     90  C   UNL     1      12.120  11.540  10.470  1.00  0.00     0.055 A 
ATOM     91  C   UNL     1      13.969  10.089  10.984  1.00  0.00     0.041 A 
ATOM     92  F   UNL     1      13.777   7.785  10.617  1.00  0.00    -0.206 F 
ATOM     93  C   UNL     1      13.435  11.372  10.914  1.00  0.00     0.022 A 
BRANCH  90  94
ATOM     94  S   UNL     1      11.459  13.208  10.206  1.00  0.00     0.124 S 
ATOM     95  O   UNL     1      11.113  13.175   8.788  1.00  0.00    -0.237 OA
ATOM     96  O   UNL     1      10.335  13.248  11.135  1.00  0.00    -0.237 OA
ATOM     97  O   UNL     1      12.580  14.080  10.551  1.00  0.00    -0.744 OA
ENDBRANCH  90  94
ENDBRANCH  64  87
ENDBRANCH  38  39
ENDBRANCH  30  33
ENDBRANCH  28  29
ENDBRANCH  27  28
ENDBRANCH  26  27
ENDBRANCH   3  26
TORSDOF 20
