REMARK SMILES COc1ccc(/C=C/C(=O)NCCCNC(=O)c2ccc(-c3c4nc(c(-c5cc(S(=O)(=O)[O-])ccc5F)c5ccc([nH]5)c(-c5cc(S(=O)(=O)[O-])ccc5F)c5nc(c(-c6cc(S(=O)(=O)[O-])ccc6F)c6ccc3[nH]6)C=C5)C=C4)cc2)cc1S(=O)(=O)Nc1ccc(F)cc1F
REMARK SMILES IDX 12 1 11 2 9 3 10 4 8 6 7 7 6 8 3 9 4 10 82 11 5 12 81 13
REMARK SMILES IDX 2 14 1 15 83 16 84 17 85 18 86 19 87 21 88 22 93 23 89 24
REMARK SMILES IDX 92 25 94 26 90 27 91 28 13 29 14 30 15 31 16 32 17 34 18 35
REMARK SMILES IDX 19 36 80 37 20 38 79 39 21 40 22 41 23 42 73 43 24 44 78 45
REMARK SMILES IDX 72 46 74 47 25 48 77 49 71 50 70 51 26 53 58 54 38 55 57 56
REMARK SMILES IDX 39 57 42 58 56 59 75 60 40 61 41 62 55 64 76 65 43 66 27 67
REMARK SMILES IDX 28 68 36 69 29 70 35 71 37 72 34 73 30 74 31 75 32 76 33 77
REMARK SMILES IDX 59 78 60 79 68 80 61 81 67 82 69 83 66 84 62 85 63 86 64 87
REMARK SMILES IDX 65 88 44 89 45 90 53 91 46 92 52 93 54 94 51 95 47 96 48 97
REMARK SMILES IDX 49 98 50 99
REMARK H PARENT 11 5 86 20 15 33 74 52 42 63
REMARK Flexibility Score: inf
ROOT
ATOM      1  C   UNL     1       3.773  -8.380  -0.115  1.00  0.00     0.118 C 
ENDROOT
BRANCH   1   2
ATOM      2  N   UNL     1       2.721  -9.117   0.565  1.00  0.00    -0.352 N 
ATOM      3  C   UNL     1       1.536  -8.691   1.072  1.00  0.00     0.244 C 
ATOM      4  O   UNL     1       0.741  -9.493   1.554  1.00  0.00    -0.270 OA
ATOM      5  H   UNL     1       2.896 -10.080   0.676  1.00  0.00     0.163 HD
BRANCH   3   6
ATOM      6  C   UNL     1       1.131  -7.284   0.893  1.00  0.00     0.072 C 
ATOM      7  C   UNL     1       1.791  -6.215   1.368  1.00  0.00     0.014 C 
BRANCH   7   8
ATOM      8  C   UNL     1       1.367  -4.839   1.048  1.00  0.00    -0.024 A 
ATOM      9  C   UNL     1       0.684  -2.317   0.012  1.00  0.00     0.139 A 
ATOM     10  C   UNL     1      -0.300  -3.284   0.214  1.00  0.00     0.048 A 
ATOM     11  C   UNL     1       1.964  -2.529   0.515  1.00  0.00     0.130 A 
ATOM     12  C   UNL     1       0.036  -4.528   0.745  1.00  0.00     0.012 A 
ATOM     13  C   UNL     1       2.312  -3.806   1.002  1.00  0.00     0.034 A 
BRANCH   9  14
ATOM     14  O   UNL     1       0.270  -1.199  -0.651  1.00  0.00    -0.495 OA
ATOM     15  C   UNL     1       0.842  -1.110  -1.956  1.00  0.00     0.278 C 
ENDBRANCH   9  14
BRANCH  11  16
ATOM     16  S   UNL     1       3.201  -1.264   0.658  1.00  0.00     0.265 S 
ATOM     17  O   UNL     1       3.938  -1.508   1.879  1.00  0.00    -0.201 OA
ATOM     18  O   UNL     1       3.888  -1.244  -0.620  1.00  0.00    -0.201 OA
BRANCH  16  19
ATOM     19  N   UNL     1       2.509   0.265   0.785  1.00  0.00    -0.277 N 
ATOM     20  H   UNL     1       3.008   1.030   0.417  1.00  0.00     0.180 HD
BRANCH  19  21
ATOM     21  C   UNL     1       1.243   0.521   1.392  1.00  0.00     0.085 A 
ATOM     22  C   UNL     1       0.446   1.494   0.769  1.00  0.00     0.033 A 
ATOM     23  C   UNL     1       0.735  -0.158   2.504  1.00  0.00     0.150 A 
ATOM     24  C   UNL     1      -0.878   1.680   1.167  1.00  0.00     0.041 A 
ATOM     25  C   UNL     1      -0.584   0.028   2.910  1.00  0.00     0.080 A 
ATOM     26  F   UNL     1       1.476  -1.061   3.158  1.00  0.00    -0.205 F 
ATOM     27  C   UNL     1      -1.386   0.928   2.220  1.00  0.00     0.126 A 
ATOM     28  F   UNL     1      -2.672   1.070   2.563  1.00  0.00    -0.207 F 
ENDBRANCH  19  21
ENDBRANCH  16  19
ENDBRANCH  11  16
ENDBRANCH   7   8
ENDBRANCH   3   6
ENDBRANCH   1   2
BRANCH   1  29
ATOM     29  C   UNL     1       5.027  -8.290   0.748  1.00  0.00     0.042 C 
BRANCH  29  30
ATOM     30  C   UNL     1       5.747  -9.627   0.914  1.00  0.00     0.118 C 
BRANCH  30  31
ATOM     31  N   UNL     1       6.365 -10.076  -0.325  1.00  0.00    -0.352 N 
ATOM     32  C   UNL     1       7.679 -10.371  -0.596  1.00  0.00     0.251 C 
ATOM     33  H   UNL     1       5.747 -10.186  -1.084  1.00  0.00     0.163 HD
ATOM     34  O   UNL     1       8.029 -10.518  -1.764  1.00  0.00    -0.269 OA
BRANCH  32  35
ATOM     35  C   UNL     1       8.668 -10.494   0.499  1.00  0.00     0.039 A 
ATOM     36  C   UNL     1       9.945  -9.954   0.319  1.00  0.00     0.014 A 
ATOM     37  C   UNL     1       8.360 -11.174   1.681  1.00  0.00     0.014 A 
ATOM     38  C   UNL     1      10.892 -10.047   1.342  1.00  0.00     0.010 A 
ATOM     39  C   UNL     1       9.282 -11.208   2.726  1.00  0.00     0.010 A 
ATOM     40  C   UNL     1      10.560 -10.649   2.566  1.00  0.00    -0.014 A 
BRANCH  40  41
ATOM     41  C   UNL     1      11.537 -10.715   3.685  1.00  0.00     0.031 A 
ATOM     42  C   UNL     1      12.047 -12.047   4.165  1.00  0.00     0.074 A 
ATOM     43  C   UNL     1      11.914  -9.581   4.309  1.00  0.00     0.049 A 
ATOM     44  N   UNL     1      12.826 -12.320   5.180  1.00  0.00    -0.248 NA
ATOM     45  C   UNL     1      11.593 -13.230   3.420  1.00  0.00     0.031 C 
ATOM     46  C   UNL     1      11.460  -8.234   3.958  1.00  0.00     0.029 A 
ATOM     47  N   UNL     1      12.753  -9.380   5.376  1.00  0.00    -0.354 N 
ATOM     48  C   UNL     1      12.943 -13.707   5.208  1.00  0.00     0.074 A 
ATOM     49  C   UNL     1      12.108 -14.216   4.139  1.00  0.00     0.031 C 
ATOM     50  C   UNL     1      12.039  -7.346   4.783  1.00  0.00     0.029 A 
ATOM     51  C   UNL     1      12.869  -8.061   5.748  1.00  0.00     0.049 A 
ATOM     52  H   UNL     1      13.227 -10.112   5.833  1.00  0.00     0.167 HD
ATOM     53  C   UNL     1      13.690 -14.480   6.035  1.00  0.00     0.034 A 
ATOM     54  C   UNL     1      13.554  -7.492   6.759  1.00  0.00     0.034 A 
ATOM     55  C   UNL     1      14.529 -13.954   7.085  1.00  0.00     0.049 A 
ATOM     56  C   UNL     1      14.368  -8.372   7.673  1.00  0.00     0.074 A 
ATOM     57  C   UNL     1      15.370 -14.640   7.944  1.00  0.00     0.029 A 
ATOM     58  N   UNL     1      14.629 -12.610   7.425  1.00  0.00    -0.354 N 
ATOM     59  N   UNL     1      14.502  -9.678   7.659  1.00  0.00    -0.248 NA
ATOM     60  C   UNL     1      15.131  -7.699   8.732  1.00  0.00     0.031 C 
ATOM     61  C   UNL     1      15.931 -13.722   8.840  1.00  0.00     0.029 A 
ATOM     62  C   UNL     1      15.496 -12.452   8.497  1.00  0.00     0.049 A 
ATOM     63  H   UNL     1      14.154 -11.877   6.971  1.00  0.00     0.167 HD
ATOM     64  C   UNL     1      15.389  -9.979   8.689  1.00  0.00     0.074 A 
ATOM     65  C   UNL     1      15.766  -8.717   9.293  1.00  0.00     0.031 C 
ATOM     66  C   UNL     1      15.853 -11.188   9.096  1.00  0.00     0.034 A 
BRANCH  53  67
ATOM     67  C   UNL     1      13.606 -15.977   5.849  1.00  0.00     0.023 A 
ATOM     68  C   UNL     1      14.025 -16.599   4.659  1.00  0.00     0.031 A 
ATOM     69  C   UNL     1      13.072 -16.792   6.862  1.00  0.00     0.131 A 
ATOM     70  C   UNL     1      13.829 -17.977   4.481  1.00  0.00     0.055 A 
ATOM     71  C   UNL     1      12.955 -18.176   6.710  1.00  0.00     0.041 A 
ATOM     72  F   UNL     1      12.637 -16.256   8.014  1.00  0.00    -0.206 F 
ATOM     73  C   UNL     1      13.319 -18.774   5.507  1.00  0.00     0.022 A 
BRANCH  70  74
ATOM     74  S   UNL     1      14.112 -18.686   2.835  1.00  0.00     0.124 S 
ATOM     75  O   UNL     1      13.176 -17.918   2.018  1.00  0.00    -0.237 OA
ATOM     76  O   UNL     1      15.527 -18.412   2.613  1.00  0.00    -0.237 OA
ATOM     77  O   UNL     1      13.768 -20.096   3.005  1.00  0.00    -0.744 OA
ENDBRANCH  70  74
ENDBRANCH  53  67
BRANCH  54  78
ATOM     78  C   UNL     1      13.498  -6.018   6.973  1.00  0.00     0.023 A 
ATOM     79  C   UNL     1      14.641  -5.221   6.806  1.00  0.00     0.031 A 
ATOM     80  C   UNL     1      12.308  -5.390   7.381  1.00  0.00     0.131 A 
ATOM     81  C   UNL     1      14.583  -3.848   7.089  1.00  0.00     0.055 A 
ATOM     82  C   UNL     1      12.243  -4.016   7.614  1.00  0.00     0.041 A 
ATOM     83  F   UNL     1      11.185  -6.107   7.549  1.00  0.00    -0.206 F 
ATOM     84  C   UNL     1      13.389  -3.237   7.480  1.00  0.00     0.022 A 
BRANCH  81  85
ATOM     85  S   UNL     1      16.116  -2.880   7.013  1.00  0.00     0.124 S 
ATOM     86  O   UNL     1      16.959  -3.583   7.973  1.00  0.00    -0.237 OA
ATOM     87  O   UNL     1      16.490  -3.017   5.609  1.00  0.00    -0.237 OA
ATOM     88  O   UNL     1      15.693  -1.541   7.415  1.00  0.00    -0.744 OA
ENDBRANCH  81  85
ENDBRANCH  54  78
BRANCH  66  89
ATOM     89  C   UNL     1      16.858 -11.188  10.222  1.00  0.00     0.023 A 
ATOM     90  C   UNL     1      16.504 -10.816  11.530  1.00  0.00     0.031 A 
ATOM     91  C   UNL     1      18.193 -11.552   9.974  1.00  0.00     0.131 A 
ATOM     92  C   UNL     1      17.486 -10.762  12.531  1.00  0.00     0.055 A 
ATOM     93  C   UNL     1      19.154 -11.551  10.986  1.00  0.00     0.041 A 
ATOM     94  F   UNL     1      18.586 -11.914   8.742  1.00  0.00    -0.206 F 
ATOM     95  C   UNL     1      18.805 -11.142  12.270  1.00  0.00     0.022 A 
BRANCH  92  96
ATOM     96  S   UNL     1      17.036 -10.105  14.161  1.00  0.00     0.124 S 
ATOM     97  O   UNL     1      16.572  -8.762  13.829  1.00  0.00    -0.237 OA
ATOM     98  O   UNL     1      16.010 -11.043  14.603  1.00  0.00    -0.237 OA
ATOM     99  O   UNL     1      18.290 -10.160  14.911  1.00  0.00    -0.744 OA
ENDBRANCH  92  96
ENDBRANCH  66  89
ENDBRANCH  40  41
ENDBRANCH  32  35
ENDBRANCH  30  31
ENDBRANCH  29  30
ENDBRANCH   1  29
TORSDOF 18
