REMARK SMILES CCc1cc(/C=C/C(=O)NCCCNC(=O)c2ccc(-c3c4nc(c(-c5cc(S(=O)(=O)[O-])ccc5F)c5ccc([nH]5)c(-c5cc(S(=O)(=O)[O-])ccc5F)c5nc(c(-c6cc(S(=O)(=O)[O-])ccc6F)c6ccc3[nH]6)C=C5)C=C4)cc2)cc(C(=O)c2ccccc2)c1
REMARK SMILES IDX 12 1 11 2 10 3 8 4 9 5 7 7 6 8 5 9 3 10 4 11 90 12 81 13
REMARK SMILES IDX 80 14 2 15 1 16 82 17 83 18 84 19 85 20 89 21 86 22 88 23
REMARK SMILES IDX 87 24 13 25 14 26 15 27 16 29 17 30 18 31 79 32 19 33 78 34
REMARK SMILES IDX 20 35 21 36 22 37 72 38 23 39 77 40 71 41 73 42 24 43 76 44
REMARK SMILES IDX 70 45 69 46 25 48 57 49 37 50 56 51 38 52 41 53 55 54 74 55
REMARK SMILES IDX 39 56 40 57 54 59 75 60 42 61 26 62 27 63 35 64 28 65 34 66
REMARK SMILES IDX 36 67 33 68 29 69 30 70 31 71 32 72 58 73 59 74 67 75 60 76
REMARK SMILES IDX 66 77 68 78 65 79 61 80 62 81 63 82 64 83 43 84 44 85 52 86
REMARK SMILES IDX 45 87 51 88 53 89 50 90 46 91 47 92 48 93 49 94
REMARK H PARENT 10 6 14 28 73 47 41 58
REMARK Flexibility Score: inf
ROOT
ATOM      1  C   UNL     1       0.737   2.515   9.064  1.00  0.00     0.042 C 
ENDROOT
BRANCH   1   2
ATOM      2  C   UNL     1       1.995   1.727   8.705  1.00  0.00     0.118 C 
BRANCH   2   3
ATOM      3  N   UNL     1       1.760   0.293   8.728  1.00  0.00    -0.352 N 
ATOM      4  C   UNL     1       1.670  -0.608   7.716  1.00  0.00     0.244 C 
ATOM      5  O   UNL     1       1.610  -1.809   7.976  1.00  0.00    -0.270 OA
ATOM      6  H   UNL     1       1.648  -0.089   9.629  1.00  0.00     0.163 HD
BRANCH   4   7
ATOM      7  C   UNL     1       1.720  -0.188   6.298  1.00  0.00     0.072 C 
ATOM      8  C   UNL     1       1.053   0.857   5.786  1.00  0.00     0.014 C 
BRANCH   8   9
ATOM      9  C   UNL     1       1.042   1.214   4.362  1.00  0.00    -0.024 A 
ATOM     10  C   UNL     1       0.824   0.593   2.005  1.00  0.00    -0.047 A 
ATOM     11  C   UNL     1       0.916   0.241   3.361  1.00  0.00     0.011 A 
ATOM     12  C   UNL     1       0.843   1.952   1.667  1.00  0.00     0.016 A 
ATOM     13  C   UNL     1       0.934   2.940   2.658  1.00  0.00     0.023 A 
ATOM     14  C   UNL     1       1.048   2.566   4.001  1.00  0.00     0.020 A 
BRANCH  10  15
ATOM     15  C   UNL     1       0.595  -0.496   0.982  1.00  0.00     0.032 C 
ATOM     16  C   UNL     1       1.135  -0.225  -0.417  1.00  0.00     0.009 C 
ENDBRANCH  10  15
BRANCH  13  17
ATOM     17  C   UNL     1       0.930   4.392   2.318  1.00  0.00     0.193 C 
ATOM     18  O   UNL     1       1.414   5.207   3.098  1.00  0.00    -0.289 OA
BRANCH  17  19
ATOM     19  C   UNL     1       0.393   4.869   1.022  1.00  0.00     0.022 A 
ATOM     20  C   UNL     1       1.172   5.746   0.262  1.00  0.00     0.012 A 
ATOM     21  C   UNL     1      -0.852   4.439   0.548  1.00  0.00     0.012 A 
ATOM     22  C   UNL     1       0.731   6.146  -1.000  1.00  0.00     0.001 A 
ATOM     23  C   UNL     1      -1.287   4.841  -0.716  1.00  0.00     0.001 A 
ATOM     24  C   UNL     1      -0.490   5.684  -1.492  1.00  0.00     0.000 A 
ENDBRANCH  17  19
ENDBRANCH  13  17
ENDBRANCH   8   9
ENDBRANCH   4   7
ENDBRANCH   2   3
ENDBRANCH   1   2
BRANCH   1  25
ATOM     25  C   UNL     1       0.367   2.440  10.544  1.00  0.00     0.118 C 
BRANCH  25  26
ATOM     26  N   UNL     1       1.354   3.096  11.387  1.00  0.00    -0.352 N 
ATOM     27  C   UNL     1       1.218   4.155  12.250  1.00  0.00     0.251 C 
ATOM     28  H   UNL     1       2.263   2.722  11.329  1.00  0.00     0.163 HD
ATOM     29  O   UNL     1       2.228   4.710  12.673  1.00  0.00    -0.269 OA
BRANCH  27  30
ATOM     30  C   UNL     1      -0.121   4.630  12.664  1.00  0.00     0.039 A 
ATOM     31  C   UNL     1      -0.332   6.004  12.813  1.00  0.00     0.014 A 
ATOM     32  C   UNL     1      -1.150   3.732  12.961  1.00  0.00     0.014 A 
ATOM     33  C   UNL     1      -1.585   6.478  13.211  1.00  0.00     0.010 A 
ATOM     34  C   UNL     1      -2.418   4.208  13.288  1.00  0.00     0.010 A 
ATOM     35  C   UNL     1      -2.647   5.585  13.426  1.00  0.00    -0.014 A 
BRANCH  35  36
ATOM     36  C   UNL     1      -3.999   6.073  13.805  1.00  0.00     0.031 A 
ATOM     37  C   UNL     1      -4.587   5.711  15.142  1.00  0.00     0.074 A 
ATOM     38  C   UNL     1      -4.719   6.787  12.918  1.00  0.00     0.049 A 
ATOM     39  N   UNL     1      -5.772   5.978  15.627  1.00  0.00    -0.248 NA
ATOM     40  C   UNL     1      -3.737   4.914  16.038  1.00  0.00     0.031 C 
ATOM     41  C   UNL     1      -4.269   7.168  11.577  1.00  0.00     0.029 A 
ATOM     42  N   UNL     1      -5.982   7.314  13.005  1.00  0.00    -0.354 N 
ATOM     43  C   UNL     1      -5.820   5.365  16.875  1.00  0.00     0.074 A 
ATOM     44  C   UNL     1      -4.564   4.665  17.042  1.00  0.00     0.031 C 
ATOM     45  C   UNL     1      -5.228   7.893  10.981  1.00  0.00     0.029 A 
ATOM     46  C   UNL     1      -6.378   7.989  11.873  1.00  0.00     0.049 A 
ATOM     47  H   UNL     1      -6.552   7.219  13.802  1.00  0.00     0.167 HD
ATOM     48  C   UNL     1      -6.810   5.401  17.802  1.00  0.00     0.034 A 
ATOM     49  C   UNL     1      -7.540   8.607  11.585  1.00  0.00     0.034 A 
ATOM     50  C   UNL     1      -8.050   6.119  17.619  1.00  0.00     0.049 A 
ATOM     51  C   UNL     1      -8.636   8.615  12.619  1.00  0.00     0.074 A 
ATOM     52  C   UNL     1      -9.092   6.285  18.515  1.00  0.00     0.029 A 
ATOM     53  N   UNL     1      -8.421   6.782  16.455  1.00  0.00    -0.354 N 
ATOM     54  N   UNL     1      -8.645   8.080  13.818  1.00  0.00    -0.248 NA
ATOM     55  C   UNL     1      -9.873   9.319  12.262  1.00  0.00     0.031 C 
ATOM     56  C   UNL     1     -10.120   6.982  17.870  1.00  0.00     0.029 A 
ATOM     57  C   UNL     1      -9.691   7.324  16.597  1.00  0.00     0.049 A 
ATOM     58  H   UNL     1      -7.864   6.857  15.647  1.00  0.00     0.167 HD
ATOM     59  C   UNL     1      -9.879   8.409  14.371  1.00  0.00     0.074 A 
ATOM     60  C   UNL     1     -10.579   9.200  13.378  1.00  0.00     0.031 C 
ATOM     61  C   UNL     1     -10.385   8.094  15.591  1.00  0.00     0.034 A 
BRANCH  48  62
ATOM     62  C   UNL     1      -6.600   4.611  19.075  1.00  0.00     0.023 A 
ATOM     63  C   UNL     1      -5.537   4.888  19.953  1.00  0.00     0.031 A 
ATOM     64  C   UNL     1      -7.448   3.535  19.394  1.00  0.00     0.131 A 
ATOM     65  C   UNL     1      -5.293   4.045  21.049  1.00  0.00     0.055 A 
ATOM     66  C   UNL     1      -7.253   2.756  20.537  1.00  0.00     0.041 A 
ATOM     67  F   UNL     1      -8.470   3.207  18.587  1.00  0.00    -0.206 F 
ATOM     68  C   UNL     1      -6.159   2.996  21.361  1.00  0.00     0.022 A 
BRANCH  65  69
ATOM     69  S   UNL     1      -3.733   4.237  21.957  1.00  0.00     0.124 S 
ATOM     70  O   UNL     1      -2.749   4.070  20.890  1.00  0.00    -0.237 OA
ATOM     71  O   UNL     1      -3.854   5.580  22.511  1.00  0.00    -0.237 OA
ATOM     72  O   UNL     1      -3.770   3.151  22.934  1.00  0.00    -0.744 OA
ENDBRANCH  65  69
ENDBRANCH  48  62
BRANCH  49  73
ATOM     73  C   UNL     1      -7.730   9.273  10.265  1.00  0.00     0.023 A 
ATOM     74  C   UNL     1      -7.879  10.666  10.178  1.00  0.00     0.031 A 
ATOM     75  C   UNL     1      -7.786   8.526   9.075  1.00  0.00     0.131 A 
ATOM     76  C   UNL     1      -8.116  11.267   8.932  1.00  0.00     0.055 A 
ATOM     77  C   UNL     1      -7.972   9.134   7.832  1.00  0.00     0.041 A 
ATOM     78  F   UNL     1      -7.643   7.192   9.102  1.00  0.00    -0.206 F 
ATOM     79  C   UNL     1      -8.149  10.512   7.757  1.00  0.00     0.022 A 
BRANCH  76  80
ATOM     80  S   UNL     1      -8.446  13.050   8.877  1.00  0.00     0.124 S 
ATOM     81  O   UNL     1      -9.631  13.158   9.719  1.00  0.00    -0.237 OA
ATOM     82  O   UNL     1      -7.213  13.603   9.428  1.00  0.00    -0.237 OA
ATOM     83  O   UNL     1      -8.663  13.312   7.456  1.00  0.00    -0.744 OA
ENDBRANCH  76  80
ENDBRANCH  49  73
BRANCH  61  84
ATOM     84  C   UNL     1     -11.751   8.645  15.925  1.00  0.00     0.023 A 
ATOM     85  C   UNL     1     -12.906   8.225  15.244  1.00  0.00     0.031 A 
ATOM     86  C   UNL     1     -11.892   9.619  16.929  1.00  0.00     0.131 A 
ATOM     87  C   UNL     1     -14.144   8.820  15.534  1.00  0.00     0.055 A 
ATOM     88  C   UNL     1     -13.135  10.162  17.257  1.00  0.00     0.041 A 
ATOM     89  F   UNL     1     -10.822  10.060  17.610  1.00  0.00    -0.206 F 
ATOM     90  C   UNL     1     -14.268   9.773  16.549  1.00  0.00     0.022 A 
BRANCH  87  91
ATOM     91  S   UNL     1     -15.575   8.402  14.501  1.00  0.00     0.124 S 
ATOM     92  O   UNL     1     -15.112   8.787  13.172  1.00  0.00    -0.237 OA
ATOM     93  O   UNL     1     -15.722   6.969  14.735  1.00  0.00    -0.237 OA
ATOM     94  O   UNL     1     -16.647   9.232  15.049  1.00  0.00    -0.744 OA
ENDBRANCH  87  91
ENDBRANCH  61  84
ENDBRANCH  35  36
ENDBRANCH  27  30
ENDBRANCH  25  26
ENDBRANCH   1  25
TORSDOF 17
