REMARK SMILES Cc1cc(=O)cc(C)n1C[C@H]1CCCC[C@@H]1C(=O)NCCCNC(=O)c1ccc(-c2c3nc(c(-c4cc(S(=O)(=O)[O-])ccc4F)c4ccc([nH]4)c(-c4cc(S(=O)(=O)[O-])ccc4F)c4nc(c(-c5cc(S(=O)(=O)[O-])ccc5F)c5ccc2[nH]5)C=C4)C=C3)cc1
REMARK SMILES IDX 21 1 20 2 19 3 17 4 18 5 16 7 11 8 12 9 13 10 15 11 14 12
REMARK SMILES IDX 10 13 9 14 1 15 2 16 3 17 4 18 7 19 5 20 6 21 8 22 22 23
REMARK SMILES IDX 23 24 24 25 25 27 26 28 27 29 88 30 28 31 87 32 29 33 30 34
REMARK SMILES IDX 31 35 81 36 32 37 86 38 80 39 82 40 33 41 85 42 79 43 78 44
REMARK SMILES IDX 34 46 66 47 46 48 65 49 47 50 50 51 64 52 83 53 48 54 49 55
REMARK SMILES IDX 63 57 84 58 51 59 35 60 36 61 44 62 37 63 43 64 45 65 42 66
REMARK SMILES IDX 38 67 39 68 40 69 41 70 67 71 68 72 76 73 69 74 75 75 77 76
REMARK SMILES IDX 74 77 70 78 71 79 72 80 73 81 52 82 53 83 61 84 54 85 60 86
REMARK SMILES IDX 62 87 59 88 55 89 56 90 57 91 58 92
REMARK H PARENT 19 6 23 26 82 45 50 56
REMARK Flexibility Score: inf
ROOT
ATOM      1  C   UNL     1      -3.304  -0.140  -2.521  1.00  0.00     0.042 C 
ENDROOT
BRANCH   1   2
ATOM      2  C   UNL     1      -3.059   1.362  -2.530  1.00  0.00     0.117 C 
BRANCH   2   3
ATOM      3  N   UNL     1      -2.401   1.800  -1.314  1.00  0.00    -0.356 N 
ATOM      4  C   UNL     1      -1.218   2.441  -1.130  1.00  0.00     0.223 C 
ATOM      5  O   UNL     1      -0.769   2.442   0.017  1.00  0.00    -0.275 OA
ATOM      6  H   UNL     1      -2.894   1.601  -0.485  1.00  0.00     0.163 HD
BRANCH   4   7
ATOM      7  C   UNL     1      -0.507   3.121  -2.311  1.00  0.00     0.083 C 
ATOM      8  C   UNL     1       0.825   3.812  -1.855  1.00  0.00     0.021 C 
ATOM      9  C   UNL     1       0.482   5.004  -0.934  1.00  0.00     0.006 C 
ATOM     10  C   UNL     1      -0.489   6.004  -1.565  1.00  0.00     0.000 C 
ATOM     11  C   UNL     1      -1.422   4.150  -3.004  1.00  0.00     0.014 C 
ATOM     12  C   UNL     1      -1.747   5.336  -2.103  1.00  0.00     0.001 C 
BRANCH   8  13
ATOM     13  C   UNL     1       1.673   4.224  -3.096  1.00  0.00     0.126 C 
BRANCH  13  14
ATOM     14  N   UNL     1       3.118   4.484  -2.808  1.00  0.00    -0.349 N 
ATOM     15  C   UNL     1       3.706   2.143  -3.627  1.00  0.00     0.064 C 
ATOM     16  C   UNL     1       4.084   3.450  -2.970  1.00  0.00     0.018 A 
ATOM     17  C   UNL     1       5.374   3.599  -2.614  1.00  0.00     0.073 A 
ATOM     18  C   UNL     1       5.832   4.876  -2.048  1.00  0.00     0.182 A 
ATOM     19  C   UNL     1       3.593   5.768  -2.419  1.00  0.00     0.018 A 
ATOM     20  O   UNL     1       6.987   5.035  -1.667  1.00  0.00    -0.290 OA
ATOM     21  C   UNL     1       4.863   5.979  -2.028  1.00  0.00     0.073 A 
ATOM     22  C   UNL     1       2.727   7.000  -2.511  1.00  0.00     0.064 C 
ENDBRANCH  13  14
ENDBRANCH   8  13
ENDBRANCH   4   7
ENDBRANCH   2   3
ENDBRANCH   1   2
BRANCH   1  23
ATOM     23  C   UNL     1      -4.156  -0.633  -1.357  1.00  0.00     0.118 C 
BRANCH  23  24
ATOM     24  N   UNL     1      -5.516  -0.116  -1.387  1.00  0.00    -0.352 N 
ATOM     25  C   UNL     1      -6.706  -0.794  -1.532  1.00  0.00     0.251 C 
ATOM     26  H   UNL     1      -5.597   0.860  -1.290  1.00  0.00     0.163 HD
ATOM     27  O   UNL     1      -7.743  -0.171  -1.707  1.00  0.00    -0.269 OA
BRANCH  25  28
ATOM     28  C   UNL     1      -6.709  -2.274  -1.510  1.00  0.00     0.039 A 
ATOM     29  C   UNL     1      -7.418  -2.963  -2.496  1.00  0.00     0.014 A 
ATOM     30  C   UNL     1      -5.995  -2.977  -0.536  1.00  0.00     0.014 A 
ATOM     31  C   UNL     1      -7.344  -4.357  -2.551  1.00  0.00     0.010 A 
ATOM     32  C   UNL     1      -5.852  -4.356  -0.644  1.00  0.00     0.010 A 
ATOM     33  C   UNL     1      -6.527  -5.061  -1.651  1.00  0.00    -0.014 A 
BRANCH  33  34
ATOM     34  C   UNL     1      -6.383  -6.537  -1.733  1.00  0.00     0.031 A 
ATOM     35  C   UNL     1      -6.865  -7.399  -0.599  1.00  0.00     0.074 A 
ATOM     36  C   UNL     1      -5.782  -7.095  -2.803  1.00  0.00     0.049 A 
ATOM     37  N   UNL     1      -6.761  -8.693  -0.443  1.00  0.00    -0.248 NA
ATOM     38  C   UNL     1      -7.529  -6.710   0.520  1.00  0.00     0.031 C 
ATOM     39  C   UNL     1      -5.251  -6.362  -3.955  1.00  0.00     0.029 A 
ATOM     40  N   UNL     1      -5.521  -8.409  -3.100  1.00  0.00    -0.354 N 
ATOM     41  C   UNL     1      -7.339  -8.972   0.790  1.00  0.00     0.074 A 
ATOM     42  C   UNL     1      -7.734  -7.706   1.368  1.00  0.00     0.031 C 
ATOM     43  C   UNL     1      -4.767  -7.239  -4.849  1.00  0.00     0.029 A 
ATOM     44  C   UNL     1      -4.909  -8.591  -4.319  1.00  0.00     0.049 A 
ATOM     45  H   UNL     1      -5.750  -9.153  -2.497  1.00  0.00     0.167 HD
ATOM     46  C   UNL     1      -7.547 -10.176   1.375  1.00  0.00     0.034 A 
ATOM     47  C   UNL     1      -4.506  -9.718  -4.937  1.00  0.00     0.034 A 
ATOM     48  C   UNL     1      -7.173 -11.433   0.780  1.00  0.00     0.049 A 
ATOM     49  C   UNL     1      -4.716 -11.043  -4.252  1.00  0.00     0.074 A 
ATOM     50  C   UNL     1      -7.372 -12.710   1.273  1.00  0.00     0.029 A 
ATOM     51  N   UNL     1      -6.527 -11.572  -0.440  1.00  0.00    -0.354 N 
ATOM     52  N   UNL     1      -5.263 -11.287  -3.084  1.00  0.00    -0.248 NA
ATOM     53  C   UNL     1      -4.251 -12.241  -4.964  1.00  0.00     0.031 C 
ATOM     54  C   UNL     1      -6.802 -13.619   0.375  1.00  0.00     0.029 A 
ATOM     55  C   UNL     1      -6.300 -12.912  -0.706  1.00  0.00     0.049 A 
ATOM     56  H   UNL     1      -6.267 -10.827  -1.030  1.00  0.00     0.167 HD
ATOM     57  C   UNL     1      -5.225 -12.669  -2.931  1.00  0.00     0.074 A 
ATOM     58  C   UNL     1      -4.607 -13.205  -4.126  1.00  0.00     0.031 C 
ATOM     59  C   UNL     1      -5.667 -13.426  -1.895  1.00  0.00     0.034 A 
BRANCH  46  60
ATOM     60  C   UNL     1      -8.207 -10.185   2.728  1.00  0.00     0.023 A 
ATOM     61  C   UNL     1      -9.546  -9.790   2.891  1.00  0.00     0.031 A 
ATOM     62  C   UNL     1      -7.493 -10.593   3.868  1.00  0.00     0.131 A 
ATOM     63  C   UNL     1     -10.114  -9.760   4.172  1.00  0.00     0.055 A 
ATOM     64  C   UNL     1      -8.085 -10.626   5.131  1.00  0.00     0.041 A 
ATOM     65  F   UNL     1      -6.206 -10.962   3.771  1.00  0.00    -0.206 F 
ATOM     66  C   UNL     1      -9.401 -10.198   5.290  1.00  0.00     0.022 A 
BRANCH  63  67
ATOM     67  S   UNL     1     -11.772  -9.054   4.369  1.00  0.00     0.124 S 
ATOM     68  O   UNL     1     -11.541  -7.658   4.006  1.00  0.00    -0.237 OA
ATOM     69  O   UNL     1     -12.565  -9.836   3.428  1.00  0.00    -0.237 OA
ATOM     70  O   UNL     1     -12.076  -9.283   5.780  1.00  0.00    -0.744 OA
ENDBRANCH  63  67
ENDBRANCH  46  60
BRANCH  47  71
ATOM     71  C   UNL     1      -3.864  -9.646  -6.278  1.00  0.00     0.023 A 
ATOM     72  C   UNL     1      -4.528 -10.123  -7.419  1.00  0.00     0.031 A 
ATOM     73  C   UNL     1      -2.578  -9.101  -6.439  1.00  0.00     0.131 A 
ATOM     74  C   UNL     1      -3.895 -10.067  -8.670  1.00  0.00     0.055 A 
ATOM     75  C   UNL     1      -1.967  -9.014  -7.690  1.00  0.00     0.041 A 
ATOM     76  F   UNL     1      -1.908  -8.621  -5.379  1.00  0.00    -0.206 F 
ATOM     77  C   UNL     1      -2.624  -9.505  -8.815  1.00  0.00     0.022 A 
BRANCH  74  78
ATOM     78  S   UNL     1      -4.748 -10.762 -10.111  1.00  0.00     0.124 S 
ATOM     79  O   UNL     1      -4.816 -12.176  -9.762  1.00  0.00    -0.237 OA
ATOM     80  O   UNL     1      -6.013 -10.034 -10.097  1.00  0.00    -0.237 OA
ATOM     81  O   UNL     1      -3.858 -10.434 -11.223  1.00  0.00    -0.744 OA
ENDBRANCH  74  78
ENDBRANCH  47  71
BRANCH  59  82
ATOM     82  C   UNL     1      -5.517 -14.918  -2.018  1.00  0.00     0.023 A 
ATOM     83  C   UNL     1      -4.263 -15.539  -1.908  1.00  0.00     0.031 A 
ATOM     84  C   UNL     1      -6.651 -15.729  -2.199  1.00  0.00     0.131 A 
ATOM     85  C   UNL     1      -4.167 -16.934  -2.009  1.00  0.00     0.055 A 
ATOM     86  C   UNL     1      -6.555 -17.120  -2.253  1.00  0.00     0.041 A 
ATOM     87  F   UNL     1      -7.872 -15.181  -2.305  1.00  0.00    -0.206 F 
ATOM     88  C   UNL     1      -5.307 -17.729  -2.162  1.00  0.00     0.022 A 
BRANCH  85  89
ATOM     89  S   UNL     1      -2.524 -17.701  -1.964  1.00  0.00     0.124 S 
ATOM     90  O   UNL     1      -1.917 -17.182  -3.185  1.00  0.00    -0.237 OA
ATOM     91  O   UNL     1      -1.972 -17.194  -0.712  1.00  0.00    -0.237 OA
ATOM     92  O   UNL     1      -2.814 -19.134  -1.975  1.00  0.00    -0.744 OA
ENDBRANCH  85  89
ENDBRANCH  59  82
ENDBRANCH  33  34
ENDBRANCH  25  28
ENDBRANCH  23  24
ENDBRANCH   1  23
TORSDOF 15
