REMARK SMILES O=C(CC1=c2ccccc2=NC1)NCCCNC(=O)c1ccc(-c2c3nc(c(-c4cc(S(=O)(=O)[O-])ccc4F)c4ccc([nH]4)c(-c4cc(S(=O)(=O)[O-])ccc4F)c4nc(c(-c5cc(S(=O)(=O)[O-])ccc5F)c5ccc2[nH]5)C=C4)C=C3)cc1
REMARK SMILES IDX 16 1 15 2 14 3 13 4 1 5 2 6 3 8 4 9 5 10 12 11 6 12 10 13
REMARK SMILES IDX 11 14 7 15 9 16 8 17 17 18 18 19 19 21 20 22 21 23 82 24
REMARK SMILES IDX 22 25 81 26 23 27 24 28 25 29 75 30 26 31 80 32 74 33 76 34
REMARK SMILES IDX 27 35 79 36 73 37 72 38 28 40 60 41 40 42 59 43 41 44 44 45
REMARK SMILES IDX 58 46 77 47 42 48 43 49 57 51 78 52 45 53 29 54 30 55 38 56
REMARK SMILES IDX 31 57 37 58 39 59 36 60 32 61 33 62 34 63 35 64 61 65 62 66
REMARK SMILES IDX 70 67 63 68 69 69 71 70 68 71 64 72 65 73 66 74 67 75 46 76
REMARK SMILES IDX 47 77 55 78 48 79 54 80 56 81 53 82 49 83 50 84 51 85 52 86
REMARK H PARENT 13 7 17 20 76 39 44 50
REMARK Flexibility Score: inf
ROOT
ATOM      1  C   UNL     1       3.937   0.127   3.965  1.00  0.00     0.118 C 
ENDROOT
BRANCH   1   2
ATOM      2  C   UNL     1       2.468   0.209   3.567  1.00  0.00     0.042 C 
BRANCH   2   3
ATOM      3  C   UNL     1       2.202   0.975   2.282  1.00  0.00     0.117 C 
BRANCH   3   4
ATOM      4  N   UNL     1       2.891   0.414   1.138  1.00  0.00    -0.356 N 
ATOM      5  O   UNL     1       1.022  -0.400   0.069  1.00  0.00    -0.275 OA
ATOM      6  C   UNL     1       2.227  -0.169   0.078  1.00  0.00     0.224 C 
ATOM      7  H   UNL     1       3.875   0.451   1.116  1.00  0.00     0.163 HD
BRANCH   6   8
ATOM      8  C   UNL     1       3.124  -0.469  -1.118  1.00  0.00     0.133 C 
BRANCH   8   9
ATOM      9  C   UNL     1       3.781   0.749  -1.699  1.00  0.00    -0.030 C 
ATOM     10  C   UNL     1       3.438   2.037  -1.646  1.00  0.00     0.001 A 
ATOM     11  C   UNL     1       5.072   0.584  -2.446  1.00  0.00     0.175 C 
ATOM     12  C   UNL     1       2.349   2.789  -1.106  1.00  0.00     0.010 A 
ATOM     13  C   UNL     1       4.573   2.704  -2.310  1.00  0.00     0.065 A 
ATOM     14  N   UNL     1       5.516   1.954  -2.791  1.00  0.00    -0.280 NA
ATOM     15  C   UNL     1       2.390   4.130  -1.168  1.00  0.00     0.001 A 
ATOM     16  C   UNL     1       4.545   4.182  -2.341  1.00  0.00     0.028 A 
ATOM     17  C   UNL     1       3.507   4.826  -1.781  1.00  0.00     0.002 A 
ENDBRANCH   8   9
ENDBRANCH   6   8
ENDBRANCH   3   4
ENDBRANCH   2   3
ENDBRANCH   1   2
BRANCH   1  18
ATOM     18  N   UNL     1       4.544   1.420   4.255  1.00  0.00    -0.352 N 
ATOM     19  C   UNL     1       5.262   1.836   5.354  1.00  0.00     0.251 C 
ATOM     20  H   UNL     1       4.422   2.102   3.555  1.00  0.00     0.163 HD
ATOM     21  O   UNL     1       5.598   3.015   5.437  1.00  0.00    -0.269 OA
BRANCH  19  22
ATOM     22  C   UNL     1       5.585   0.890   6.448  1.00  0.00     0.039 A 
ATOM     23  C   UNL     1       6.001  -0.414   6.181  1.00  0.00     0.014 A 
ATOM     24  C   UNL     1       5.452   1.317   7.774  1.00  0.00     0.014 A 
ATOM     25  C   UNL     1       6.091  -1.338   7.218  1.00  0.00     0.010 A 
ATOM     26  C   UNL     1       5.637   0.409   8.823  1.00  0.00     0.010 A 
ATOM     27  C   UNL     1       5.899  -0.942   8.552  1.00  0.00    -0.014 A 
BRANCH  27  28
ATOM     28  C   UNL     1       5.972  -1.959   9.637  1.00  0.00     0.031 A 
ATOM     29  C   UNL     1       4.763  -2.287  10.474  1.00  0.00     0.074 A 
ATOM     30  C   UNL     1       7.123  -2.633   9.832  1.00  0.00     0.049 A 
ATOM     31  N   UNL     1       4.635  -3.185  11.418  1.00  0.00    -0.248 NA
ATOM     32  C   UNL     1       3.540  -1.507  10.225  1.00  0.00     0.031 C 
ATOM     33  C   UNL     1       8.361  -2.401   9.087  1.00  0.00     0.029 A 
ATOM     34  N   UNL     1       7.437  -3.660  10.687  1.00  0.00    -0.354 N 
ATOM     35  C   UNL     1       3.329  -3.071  11.882  1.00  0.00     0.074 A 
ATOM     36  C   UNL     1       2.716  -1.989  11.146  1.00  0.00     0.031 C 
ATOM     37  C   UNL     1       9.280  -3.296   9.474  1.00  0.00     0.029 A 
ATOM     38  C   UNL     1       8.725  -4.124  10.542  1.00  0.00     0.049 A 
ATOM     39  H   UNL     1       6.802  -4.030  11.342  1.00  0.00     0.167 HD
ATOM     40  C   UNL     1       2.695  -3.814  12.821  1.00  0.00     0.034 A 
ATOM     41  C   UNL     1       9.392  -5.099  11.194  1.00  0.00     0.034 A 
ATOM     42  C   UNL     1       3.309  -4.906  13.534  1.00  0.00     0.049 A 
ATOM     43  C   UNL     1       8.672  -5.893  12.253  1.00  0.00     0.074 A 
ATOM     44  C   UNL     1       2.734  -5.739  14.477  1.00  0.00     0.029 A 
ATOM     45  N   UNL     1       4.625  -5.320  13.386  1.00  0.00    -0.354 N 
ATOM     46  N   UNL     1       7.420  -5.808  12.638  1.00  0.00    -0.248 NA
ATOM     47  C   UNL     1       9.448  -6.916  12.967  1.00  0.00     0.031 C 
ATOM     48  C   UNL     1       3.715  -6.617  14.942  1.00  0.00     0.029 A 
ATOM     49  C   UNL     1       4.886  -6.379  14.241  1.00  0.00     0.049 A 
ATOM     50  H   UNL     1       5.277  -4.921  12.765  1.00  0.00     0.167 HD
ATOM     51  C   UNL     1       7.256  -6.773  13.627  1.00  0.00     0.074 A 
ATOM     52  C   UNL     1       8.528  -7.452  13.759  1.00  0.00     0.031 C 
ATOM     53  C   UNL     1       6.153  -7.062  14.363  1.00  0.00     0.034 A 
BRANCH  40  54
ATOM     54  C   UNL     1       1.251  -3.505  13.136  1.00  0.00     0.023 A 
ATOM     55  C   UNL     1       0.887  -3.072  14.425  1.00  0.00     0.031 A 
ATOM     56  C   UNL     1       0.228  -3.764  12.207  1.00  0.00     0.131 A 
ATOM     57  C   UNL     1      -0.468  -2.943  14.759  1.00  0.00     0.055 A 
ATOM     58  C   UNL     1      -1.119  -3.595  12.533  1.00  0.00     0.041 A 
ATOM     59  F   UNL     1       0.524  -4.179  10.965  1.00  0.00    -0.206 F 
ATOM     60  C   UNL     1      -1.472  -3.195  13.818  1.00  0.00     0.022 A 
BRANCH  57  61
ATOM     61  S   UNL     1      -0.983  -2.503  16.442  1.00  0.00     0.124 S 
ATOM     62  O   UNL     1      -1.739  -1.274  16.212  1.00  0.00    -0.237 OA
ATOM     63  O   UNL     1      -1.782  -3.663  16.829  1.00  0.00    -0.237 OA
ATOM     64  O   UNL     1       0.274  -2.334  17.162  1.00  0.00    -0.744 OA
ENDBRANCH  57  61
ENDBRANCH  40  54
BRANCH  41  65
ATOM     65  C   UNL     1      10.803  -5.393  10.809  1.00  0.00     0.023 A 
ATOM     66  C   UNL     1      11.804  -4.410  10.925  1.00  0.00     0.031 A 
ATOM     67  C   UNL     1      11.146  -6.618  10.213  1.00  0.00     0.131 A 
ATOM     68  C   UNL     1      13.073  -4.640  10.379  1.00  0.00     0.055 A 
ATOM     69  C   UNL     1      12.435  -6.870   9.739  1.00  0.00     0.041 A 
ATOM     70  F   UNL     1      10.224  -7.582  10.069  1.00  0.00    -0.206 F 
ATOM     71  C   UNL     1      13.401  -5.870   9.802  1.00  0.00     0.022 A 
BRANCH  68  72
ATOM     72  S   UNL     1      14.290  -3.299  10.266  1.00  0.00     0.124 S 
ATOM     73  O   UNL     1      15.394  -3.821  11.064  1.00  0.00    -0.237 OA
ATOM     74  O   UNL     1      14.528  -3.233   8.825  1.00  0.00    -0.237 OA
ATOM     75  O   UNL     1      13.590  -2.149  10.830  1.00  0.00    -0.744 OA
ENDBRANCH  68  72
ENDBRANCH  41  65
BRANCH  53  76
ATOM     76  C   UNL     1       6.240  -8.158  15.397  1.00  0.00     0.023 A 
ATOM     77  C   UNL     1       5.435  -9.307  15.278  1.00  0.00     0.031 A 
ATOM     78  C   UNL     1       6.996  -7.994  16.571  1.00  0.00     0.131 A 
ATOM     79  C   UNL     1       5.371 -10.226  16.333  1.00  0.00     0.055 A 
ATOM     80  C   UNL     1       6.965  -8.936  17.600  1.00  0.00     0.041 A 
ATOM     81  F   UNL     1       7.771  -6.910  16.736  1.00  0.00    -0.206 F 
ATOM     82  C   UNL     1       6.138 -10.051  17.490  1.00  0.00     0.022 A 
BRANCH  79  83
ATOM     83  S   UNL     1       4.226 -11.632  16.284  1.00  0.00     0.124 S 
ATOM     84  O   UNL     1       5.140 -12.769  16.367  1.00  0.00    -0.237 OA
ATOM     85  O   UNL     1       3.406 -11.403  17.471  1.00  0.00    -0.237 OA
ATOM     86  O   UNL     1       3.537 -11.481  15.007  1.00  0.00    -0.744 OA
ENDBRANCH  79  83
ENDBRANCH  53  76
ENDBRANCH  27  28
ENDBRANCH  19  22
ENDBRANCH   1  18
TORSDOF 14
