REMARK SMILES C=CCOC(=O)N[C@@H](Cc1ccccc1)C(=O)NCCCNC(=O)c1ccc(-c2c3nc(c(-c4cc(S(=O)(=O)[O-])ccc4F)c4ccc([nH]4)c(-c4cc(S(=O)(=O)[O-])ccc4F)c4nc(c(-c5cc(S(=O)(=O)[O-])ccc5F)c5ccc2[nH]5)C=C4)C=C3)cc1
REMARK SMILES IDX 19 1 18 2 16 3 17 4 8 6 7 7 5 8 6 9 4 11 3 12 2 13 1 14 9 15
REMARK SMILES IDX 10 16 11 17 15 18 12 19 14 20 13 21 20 22 21 23 22 24 23 25
REMARK SMILES IDX 24 27 25 28 26 29 87 30 27 31 86 32 28 33 29 34 30 35 80 36
REMARK SMILES IDX 31 37 85 38 79 39 81 40 32 41 84 42 78 43 77 44 33 46 65 47
REMARK SMILES IDX 45 48 64 49 46 50 49 51 63 52 82 53 47 54 48 55 62 57 83 58
REMARK SMILES IDX 50 59 34 60 35 61 43 62 36 63 42 64 44 65 41 66 37 67 38 68
REMARK SMILES IDX 39 69 40 70 66 71 67 72 75 73 68 74 74 75 76 76 73 77 69 78
REMARK SMILES IDX 70 79 71 80 72 81 51 82 52 83 60 84 53 85 59 86 61 87 58 88
REMARK SMILES IDX 54 89 55 90 56 91 57 92
REMARK H PARENT 18 5 7 10 22 26 81 45 49 56
REMARK Flexibility Score: inf
ROOT
ATOM      1  C   UNL     1      -1.365   2.445   6.618  1.00  0.00     0.117 C 
ENDROOT
BRANCH   1   2
ATOM      2  N   UNL     1      -1.196   3.523   5.671  1.00  0.00    -0.354 N 
ATOM      3  C   UNL     1      -1.928   3.763   4.542  1.00  0.00     0.243 C 
ATOM      4  O   UNL     1      -1.993   4.937   4.157  1.00  0.00    -0.273 OA
ATOM      5  H   UNL     1      -0.468   4.158   5.861  1.00  0.00     0.163 HD
BRANCH   3   6
ATOM      6  C   UNL     1      -2.755   2.663   3.832  1.00  0.00     0.179 C 
BRANCH   6   7
ATOM      7  N   UNL     1      -2.053   1.388   3.681  1.00  0.00    -0.309 N 
ATOM      8  C   UNL     1      -1.453   0.895   2.565  1.00  0.00     0.408 C 
ATOM      9  O   UNL     1      -0.966  -0.230   2.572  1.00  0.00    -0.225 OA
ATOM     10  H   UNL     1      -2.009   0.819   4.483  1.00  0.00     0.167 HD
BRANCH   8  11
ATOM     11  O   UNL     1      -1.510   1.726   1.499  1.00  0.00    -0.445 OA
BRANCH  11  12
ATOM     12  C   UNL     1      -1.081   1.151   0.260  1.00  0.00     0.262 C 
BRANCH  12  13
ATOM     13  C   UNL     1       0.410   1.204   0.128  1.00  0.00     0.006 C 
ATOM     14  C   UNL     1       1.180   0.121  -0.046  1.00  0.00     0.007 C 
ENDBRANCH  12  13
ENDBRANCH  11  12
ENDBRANCH   8  11
ENDBRANCH   6   7
BRANCH   6  15
ATOM     15  C   UNL     1      -4.202   2.502   4.368  1.00  0.00     0.070 C 
BRANCH  15  16
ATOM     16  C   UNL     1      -4.383   1.983   5.778  1.00  0.00    -0.045 A 
ATOM     17  C   UNL     1      -4.219   0.620   6.076  1.00  0.00     0.004 A 
ATOM     18  C   UNL     1      -4.645   2.875   6.831  1.00  0.00     0.004 A 
ATOM     19  C   UNL     1      -4.211   0.179   7.403  1.00  0.00     0.000 A 
ATOM     20  C   UNL     1      -4.656   2.427   8.156  1.00  0.00     0.000 A 
ATOM     21  C   UNL     1      -4.412   1.085   8.442  1.00  0.00     0.000 A 
ENDBRANCH  15  16
ENDBRANCH   6  15
ENDBRANCH   3   6
ENDBRANCH   1   2
BRANCH   1  22
ATOM     22  C   UNL     1      -0.097   1.918   7.241  1.00  0.00     0.042 C 
BRANCH  22  23
ATOM     23  C   UNL     1       0.454   2.832   8.318  1.00  0.00     0.118 C 
BRANCH  23  24
ATOM     24  N   UNL     1      -0.455   3.004   9.453  1.00  0.00    -0.352 N 
ATOM     25  C   UNL     1      -0.324   2.635  10.772  1.00  0.00     0.251 C 
ATOM     26  H   UNL     1      -1.301   3.458   9.237  1.00  0.00     0.163 HD
ATOM     27  O   UNL     1      -1.288   2.728  11.527  1.00  0.00    -0.269 OA
BRANCH  25  28
ATOM     28  C   UNL     1       0.961   2.091  11.259  1.00  0.00     0.039 A 
ATOM     29  C   UNL     1       0.959   1.007  12.139  1.00  0.00     0.014 A 
ATOM     30  C   UNL     1       2.168   2.618  10.803  1.00  0.00     0.014 A 
ATOM     31  C   UNL     1       2.168   0.391  12.471  1.00  0.00     0.010 A 
ATOM     32  C   UNL     1       3.346   1.918  11.014  1.00  0.00     0.010 A 
ATOM     33  C   UNL     1       3.364   0.802  11.861  1.00  0.00    -0.014 A 
BRANCH  33  34
ATOM     34  C   UNL     1       4.649   0.096  12.100  1.00  0.00     0.031 A 
ATOM     35  C   UNL     1       5.830   0.856  12.645  1.00  0.00     0.074 A 
ATOM     36  C   UNL     1       4.777  -1.198  11.745  1.00  0.00     0.049 A 
ATOM     37  N   UNL     1       7.059   0.452  12.833  1.00  0.00    -0.248 NA
ATOM     38  C   UNL     1       5.608   2.272  12.978  1.00  0.00     0.031 C 
ATOM     39  C   UNL     1       3.723  -2.018  11.141  1.00  0.00     0.029 A 
ATOM     40  N   UNL     1       5.850  -2.050  11.826  1.00  0.00    -0.354 N 
ATOM     41  C   UNL     1       7.759   1.569  13.279  1.00  0.00     0.074 A 
ATOM     42  C   UNL     1       6.835   2.681  13.253  1.00  0.00     0.031 C 
ATOM     43  C   UNL     1       4.191  -3.260  10.939  1.00  0.00     0.029 A 
ATOM     44  C   UNL     1       5.593  -3.312  11.342  1.00  0.00     0.049 A 
ATOM     45  H   UNL     1       6.722  -1.784  12.197  1.00  0.00     0.167 HD
ATOM     46  C   UNL     1       9.045   1.653  13.699  1.00  0.00     0.034 A 
ATOM     47  C   UNL     1       6.399  -4.386  11.217  1.00  0.00     0.034 A 
ATOM     48  C   UNL     1       9.941   0.524  13.733  1.00  0.00     0.049 A 
ATOM     49  C   UNL     1       7.827  -4.274  11.686  1.00  0.00     0.074 A 
ATOM     50  C   UNL     1      11.237   0.467  14.214  1.00  0.00     0.029 A 
ATOM     51  N   UNL     1       9.641  -0.746  13.252  1.00  0.00    -0.354 N 
ATOM     52  N   UNL     1       8.453  -3.231  12.182  1.00  0.00    -0.248 NA
ATOM     53  C   UNL     1       8.652  -5.483  11.590  1.00  0.00     0.031 C 
ATOM     54  C   UNL     1      11.748  -0.806  13.943  1.00  0.00     0.029 A 
ATOM     55  C   UNL     1      10.742  -1.578  13.383  1.00  0.00     0.049 A 
ATOM     56  H   UNL     1       8.773  -1.014  12.873  1.00  0.00     0.167 HD
ATOM     57  C   UNL     1       9.740  -3.668  12.482  1.00  0.00     0.074 A 
ATOM     58  C   UNL     1       9.791  -5.072  12.127  1.00  0.00     0.031 C 
ATOM     59  C   UNL     1      10.783  -2.974  13.007  1.00  0.00     0.034 A 
BRANCH  46  60
ATOM     60  C   UNL     1       9.554   3.014  14.119  1.00  0.00     0.023 A 
ATOM     61  C   UNL     1       8.963   3.737  15.171  1.00  0.00     0.031 A 
ATOM     62  C   UNL     1      10.617   3.620  13.426  1.00  0.00     0.131 A 
ATOM     63  C   UNL     1       9.369   5.055  15.432  1.00  0.00     0.055 A 
ATOM     64  C   UNL     1      11.082   4.894  13.757  1.00  0.00     0.041 A 
ATOM     65  F   UNL     1      11.208   2.993  12.397  1.00  0.00    -0.206 F 
ATOM     66  C   UNL     1      10.444   5.628  14.752  1.00  0.00     0.022 A 
BRANCH  63  67
ATOM     67  S   UNL     1       8.353   6.067  16.544  1.00  0.00     0.124 S 
ATOM     68  O   UNL     1       7.045   5.994  15.897  1.00  0.00    -0.237 OA
ATOM     69  O   UNL     1       8.477   5.362  17.814  1.00  0.00    -0.237 OA
ATOM     70  O   UNL     1       8.992   7.380  16.492  1.00  0.00    -0.744 OA
ENDBRANCH  63  67
ENDBRANCH  46  60
BRANCH  47  71
ATOM     71  C   UNL     1       5.882  -5.646  10.607  1.00  0.00     0.023 A 
ATOM     72  C   UNL     1       5.783  -6.832  11.351  1.00  0.00     0.031 A 
ATOM     73  C   UNL     1       5.494  -5.683   9.255  1.00  0.00     0.131 A 
ATOM     74  C   UNL     1       5.344  -8.013  10.729  1.00  0.00     0.055 A 
ATOM     75  C   UNL     1       5.005  -6.846   8.657  1.00  0.00     0.041 A 
ATOM     76  F   UNL     1       5.565  -4.576   8.498  1.00  0.00    -0.206 F 
ATOM     77  C   UNL     1       4.939  -8.024   9.393  1.00  0.00     0.022 A 
BRANCH  74  78
ATOM     78  S   UNL     1       5.383  -9.561  11.675  1.00  0.00     0.124 S 
ATOM     79  O   UNL     1       6.793  -9.655  12.034  1.00  0.00    -0.237 OA
ATOM     80  O   UNL     1       4.459  -9.273  12.767  1.00  0.00    -0.237 OA
ATOM     81  O   UNL     1       4.915 -10.558  10.714  1.00  0.00    -0.744 OA
ENDBRANCH  74  78
ENDBRANCH  47  71
BRANCH  59  82
ATOM     82  C   UNL     1      12.058  -3.740  13.267  1.00  0.00     0.023 A 
ATOM     83  C   UNL     1      12.819  -4.294  12.223  1.00  0.00     0.031 A 
ATOM     84  C   UNL     1      12.516  -3.922  14.585  1.00  0.00     0.131 A 
ATOM     85  C   UNL     1      13.962  -5.053  12.517  1.00  0.00     0.055 A 
ATOM     86  C   UNL     1      13.693  -4.615  14.867  1.00  0.00     0.041 A 
ATOM     87  F   UNL     1      11.828  -3.421  15.623  1.00  0.00    -0.206 F 
ATOM     88  C   UNL     1      14.416  -5.198  13.830  1.00  0.00     0.022 A 
BRANCH  85  89
ATOM     89  S   UNL     1      14.788  -5.940  11.168  1.00  0.00     0.124 S 
ATOM     90  O   UNL     1      13.709  -6.775  10.651  1.00  0.00    -0.237 OA
ATOM     91  O   UNL     1      15.226  -4.852  10.300  1.00  0.00    -0.237 OA
ATOM     92  O   UNL     1      15.863  -6.665  11.844  1.00  0.00    -0.744 OA
ENDBRANCH  85  89
ENDBRANCH  59  82
ENDBRANCH  33  34
ENDBRANCH  25  28
ENDBRANCH  23  24
ENDBRANCH  22  23
ENDBRANCH   1  22
TORSDOF 19
