REMARK SMILES CCc1nc(C)c(C(=O)NCCCNC(=O)c2ccc(-c3c4nc(c(-c5cc(S(=O)(=O)[O-])ccc5F)c5ccc([nH]5)c(-c5cc(S(=O)(=O)[O-])ccc5F)c5nc(c(-c6cc(S(=O)(=O)[O-])ccc6F)c6ccc3[nH]6)C=C5)C=C4)cc2)c(SCc2cnc(Cl)s2)n1
REMARK SMILES IDX 12 1 11 2 10 3 8 4 9 5 7 7 3 8 4 9 89 10 5 11 80 12 6 13
REMARK SMILES IDX 2 14 1 15 81 16 82 17 83 18 84 19 88 20 85 21 86 22 87 23
REMARK SMILES IDX 13 24 14 25 15 26 16 28 17 29 18 30 79 31 19 32 78 33 20 34
REMARK SMILES IDX 21 35 22 36 72 37 23 38 77 39 71 40 73 41 24 42 76 43 70 44
REMARK SMILES IDX 69 45 25 47 57 48 37 49 56 50 38 51 41 52 55 53 74 54 39 55
REMARK SMILES IDX 40 56 54 58 75 59 42 60 26 61 27 62 35 63 28 64 34 65 36 66
REMARK SMILES IDX 33 67 29 68 30 69 31 70 32 71 58 72 59 73 67 74 60 75 66 76
REMARK SMILES IDX 68 77 65 78 61 79 62 80 63 81 64 82 43 83 44 84 52 85 45 86
REMARK SMILES IDX 51 87 53 88 50 89 46 90 47 91 48 92 49 93
REMARK H PARENT 10 6 14 27 73 46 41 57
REMARK Flexibility Score: inf
ROOT
ATOM      1  C   UNL     1       2.248   2.487  -6.953  1.00  0.00     0.042 C 
ENDROOT
BRANCH   1   2
ATOM      2  C   UNL     1       2.794   3.468  -5.905  1.00  0.00     0.118 C 
BRANCH   2   3
ATOM      3  N   UNL     1       1.703   4.316  -5.456  1.00  0.00    -0.352 N 
ATOM      4  C   UNL     1       0.790   4.180  -4.439  1.00  0.00     0.255 C 
ATOM      5  O   UNL     1      -0.282   4.771  -4.576  1.00  0.00    -0.269 OA
ATOM      6  H   UNL     1       1.599   5.144  -5.979  1.00  0.00     0.163 HD
BRANCH   4   7
ATOM      7  C   UNL     1       1.039   3.505  -3.151  1.00  0.00     0.093 A 
ATOM      8  C   UNL     1       0.874   2.283  -0.699  1.00  0.00     0.129 A 
ATOM      9  N   UNL     1       1.160   1.543  -1.763  1.00  0.00    -0.237 NA
ATOM     10  N   UNL     1       0.753   3.607  -0.750  1.00  0.00    -0.226 NA
ATOM     11  C   UNL     1       1.221   2.133  -2.979  1.00  0.00     0.055 A 
ATOM     12  C   UNL     1       0.842   4.225  -1.962  1.00  0.00     0.113 A 
ATOM     13  C   UNL     1       1.361   1.074  -4.014  1.00  0.00     0.068 C 
BRANCH   8  14
ATOM     14  C   UNL     1       0.510   1.575   0.577  1.00  0.00     0.074 C 
ATOM     15  C   UNL     1       0.859   0.091   0.570  1.00  0.00     0.012 C 
ENDBRANCH   8  14
BRANCH  12  16
ATOM     16  S   UNL     1       0.622   5.979  -1.664  1.00  0.00    -0.100 SA
BRANCH  16  17
ATOM     17  C   UNL     1       1.367   6.916  -3.016  1.00  0.00     0.125 C 
BRANCH  17  18
ATOM     18  C   UNL     1       2.821   6.772  -3.338  1.00  0.00     0.036 A 
ATOM     19  C   UNL     1       3.537   7.579  -4.212  1.00  0.00     0.129 A 
ATOM     20  S   UNL     1       3.881   5.562  -2.733  1.00  0.00    -0.107 S 
ATOM     21  N   UNL     1       4.833   7.190  -4.483  1.00  0.00    -0.233 NA
ATOM     22  C   UNL     1       5.090   6.114  -3.784  1.00  0.00     0.183 A 
ATOM     23  Cl  UNL     1       6.560   5.246  -3.933  1.00  0.00    -0.051 Cl
ENDBRANCH  17  18
ENDBRANCH  16  17
ENDBRANCH  12  16
ENDBRANCH   4   7
ENDBRANCH   2   3
ENDBRANCH   1   2
BRANCH   1  24
ATOM     24  C   UNL     1       2.161   3.059  -8.357  1.00  0.00     0.118 C 
BRANCH  24  25
ATOM     25  N   UNL     1       3.414   2.879  -9.067  1.00  0.00    -0.352 N 
ATOM     26  C   UNL     1       3.675   2.075 -10.148  1.00  0.00     0.251 C 
ATOM     27  H   UNL     1       4.177   3.402  -8.729  1.00  0.00     0.163 HD
ATOM     28  O   UNL     1       4.850   1.787 -10.408  1.00  0.00    -0.269 OA
BRANCH  26  29
ATOM     29  C   UNL     1       2.576   1.546 -10.990  1.00  0.00     0.039 A 
ATOM     30  C   UNL     1       2.685   0.262 -11.532  1.00  0.00     0.014 A 
ATOM     31  C   UNL     1       1.454   2.327 -11.286  1.00  0.00     0.014 A 
ATOM     32  C   UNL     1       1.657  -0.250 -12.332  1.00  0.00     0.010 A 
ATOM     33  C   UNL     1       0.394   1.785 -12.009  1.00  0.00     0.010 A 
ATOM     34  C   UNL     1       0.491   0.498 -12.559  1.00  0.00    -0.014 A 
BRANCH  34  35
ATOM     35  C   UNL     1      -0.622  -0.019 -13.399  1.00  0.00     0.031 A 
ATOM     36  C   UNL     1      -0.993   0.703 -14.670  1.00  0.00     0.074 A 
ATOM     37  C   UNL     1      -1.339  -1.084 -12.987  1.00  0.00     0.049 A 
ATOM     38  N   UNL     1      -1.998   0.491 -15.481  1.00  0.00    -0.248 NA
ATOM     39  C   UNL     1      -0.138   1.835 -15.063  1.00  0.00     0.031 C 
ATOM     40  C   UNL     1      -1.093  -1.847 -11.761  1.00  0.00     0.029 A 
ATOM     41  N   UNL     1      -2.432  -1.702 -13.544  1.00  0.00    -0.354 N 
ATOM     42  C   UNL     1      -1.915   1.480 -16.457  1.00  0.00     0.074 A 
ATOM     43  C   UNL     1      -0.786   2.317 -16.112  1.00  0.00     0.031 C 
ATOM     44  C   UNL     1      -1.994  -2.839 -11.670  1.00  0.00     0.029 A 
ATOM     45  C   UNL     1      -2.915  -2.755 -12.799  1.00  0.00     0.049 A 
ATOM     46  H   UNL     1      -2.833  -1.419 -14.397  1.00  0.00     0.167 HD
ATOM     47  C   UNL     1      -2.700   1.663 -17.547  1.00  0.00     0.034 A 
ATOM     48  C   UNL     1      -3.988  -3.547 -12.994  1.00  0.00     0.034 A 
ATOM     49  C   UNL     1      -3.794   0.792 -17.898  1.00  0.00     0.049 A 
ATOM     50  C   UNL     1      -4.849  -3.315 -14.214  1.00  0.00     0.074 A 
ATOM     51  C   UNL     1      -4.597   0.832 -19.024  1.00  0.00     0.029 A 
ATOM     52  N   UNL     1      -4.242  -0.272 -17.127  1.00  0.00    -0.354 N 
ATOM     53  N   UNL     1      -4.715  -2.413 -15.160  1.00  0.00    -0.248 NA
ATOM     54  C   UNL     1      -5.998  -4.211 -14.398  1.00  0.00     0.031 C 
ATOM     55  C   UNL     1      -5.574  -0.160 -18.900  1.00  0.00     0.029 A 
ATOM     56  C   UNL     1      -5.333  -0.872 -17.736  1.00  0.00     0.049 A 
ATOM     57  H   UNL     1      -3.844  -0.558 -16.273  1.00  0.00     0.167 HD
ATOM     58  C   UNL     1      -5.738  -2.666 -16.071  1.00  0.00     0.074 A 
ATOM     59  C   UNL     1      -6.470  -3.809 -15.568  1.00  0.00     0.031 C 
ATOM     60  C   UNL     1      -6.044  -2.018 -17.223  1.00  0.00     0.034 A 
BRANCH  47  61
ATOM     61  C   UNL     1      -2.426   2.860 -18.425  1.00  0.00     0.023 A 
ATOM     62  C   UNL     1      -1.232   2.994 -19.153  1.00  0.00     0.031 A 
ATOM     63  C   UNL     1      -3.389   3.878 -18.546  1.00  0.00     0.131 A 
ATOM     64  C   UNL     1      -1.008   4.145 -19.925  1.00  0.00     0.055 A 
ATOM     65  C   UNL     1      -3.192   4.985 -19.373  1.00  0.00     0.041 A 
ATOM     66  F   UNL     1      -4.540   3.815 -17.858  1.00  0.00    -0.206 F 
ATOM     67  C   UNL     1      -1.991   5.128 -20.061  1.00  0.00     0.022 A 
BRANCH  64  68
ATOM     68  S   UNL     1       0.629   4.392 -20.663  1.00  0.00     0.124 S 
ATOM     69  O   UNL     1       1.482   4.438 -19.478  1.00  0.00    -0.237 OA
ATOM     70  O   UNL     1       0.775   3.213 -21.510  1.00  0.00    -0.237 OA
ATOM     71  O   UNL     1       0.496   5.660 -21.378  1.00  0.00    -0.744 OA
ENDBRANCH  64  68
ENDBRANCH  47  61
BRANCH  48  72
ATOM     72  C   UNL     1      -4.336  -4.625 -12.021  1.00  0.00     0.023 A 
ATOM     73  C   UNL     1      -4.367  -5.971 -12.419  1.00  0.00     0.031 A 
ATOM     74  C   UNL     1      -4.723  -4.323 -10.703  1.00  0.00     0.131 A 
ATOM     75  C   UNL     1      -4.842  -6.954 -11.537  1.00  0.00     0.055 A 
ATOM     76  C   UNL     1      -5.132  -5.313  -9.807  1.00  0.00     0.041 A 
ATOM     77  F   UNL     1      -4.712  -3.054 -10.265  1.00  0.00    -0.206 F 
ATOM     78  C   UNL     1      -5.212  -6.636 -10.229  1.00  0.00     0.022 A 
BRANCH  75  79
ATOM     79  S   UNL     1      -5.092  -8.636 -12.169  1.00  0.00     0.124 S 
ATOM     80  O   UNL     1      -5.961  -8.396 -13.315  1.00  0.00    -0.237 OA
ATOM     81  O   UNL     1      -3.726  -9.050 -12.474  1.00  0.00    -0.237 OA
ATOM     82  O   UNL     1      -5.716  -9.332 -11.046  1.00  0.00    -0.744 OA
ENDBRANCH  75  79
ENDBRANCH  48  72
BRANCH  60  83
ATOM     83  C   UNL     1      -7.177  -2.575 -18.047  1.00  0.00     0.023 A 
ATOM     84  C   UNL     1      -8.509  -2.538 -17.600  1.00  0.00     0.031 A 
ATOM     85  C   UNL     1      -6.915  -3.152 -19.303  1.00  0.00     0.131 A 
ATOM     86  C   UNL     1      -9.522  -3.116 -18.379  1.00  0.00     0.055 A 
ATOM     87  C   UNL     1      -7.935  -3.670 -20.101  1.00  0.00     0.041 A 
ATOM     88  F   UNL     1      -5.660  -3.214 -19.778  1.00  0.00    -0.206 F 
ATOM     89  C   UNL     1      -9.246  -3.665 -19.634  1.00  0.00     0.022 A 
BRANCH  86  90
ATOM     90  S   UNL     1     -11.198  -3.216 -17.693  1.00  0.00     0.124 S 
ATOM     91  O   UNL     1     -10.984  -4.003 -16.483  1.00  0.00    -0.237 OA
ATOM     92  O   UNL     1     -11.536  -1.811 -17.488  1.00  0.00    -0.237 OA
ATOM     93  O   UNL     1     -11.960  -3.888 -18.744  1.00  0.00    -0.744 OA
ENDBRANCH  86  90
ENDBRANCH  60  83
ENDBRANCH  34  35
ENDBRANCH  26  29
ENDBRANCH  24  25
ENDBRANCH   1  24
TORSDOF 17
