REMARK SMILES CC[C@H](C)[N@@H+]1[C@@H](C(=O)NCCCNC(=O)c2ccc(-c3c4nc(c(-c5cc(S(=O)(=O)[O-])ccc5F)c5ccc([nH]5)c(-c5cc(S(=O)(=O)[O-])ccc5F)c5nc(c(-c6cc(S(=O)(=O)[O-])ccc6F)c6ccc3[nH]6)C=C5)C=C4)cc2)CC[C@H]2CCCC[C@H]21
REMARK SMILES IDX 11 1 10 2 9 3 7 4 8 5 6 7 5 8 86 9 79 11 81 12 85 13 80 14
REMARK SMILES IDX 82 15 84 16 83 17 3 18 4 19 2 20 1 21 12 22 13 23 14 24
REMARK SMILES IDX 15 26 16 27 17 28 78 29 18 30 77 31 19 32 20 33 21 34 71 35
REMARK SMILES IDX 22 36 76 37 70 38 72 39 23 40 75 41 69 42 68 43 24 45 56 46
REMARK SMILES IDX 36 47 55 48 37 49 40 50 54 51 73 52 38 53 39 54 53 56 74 57
REMARK SMILES IDX 41 58 25 59 26 60 34 61 27 62 33 63 35 64 32 65 28 66 29 67
REMARK SMILES IDX 30 68 31 69 57 70 58 71 66 72 59 73 65 74 67 75 64 76 60 77
REMARK SMILES IDX 61 78 62 79 63 80 42 81 43 82 51 83 44 84 50 85 52 86 49 87
REMARK SMILES IDX 45 88 46 89 47 90 48 91
REMARK H PARENT 9 6 5 10 13 25 72 44 40 55
REMARK Flexibility Score: inf
ROOT
ATOM      1  C   UNL     1       3.409   0.513  -6.685  1.00  0.00     0.042 C 
ENDROOT
BRANCH   1   2
ATOM      2  C   UNL     1       3.038   0.080  -5.272  1.00  0.00     0.118 C 
BRANCH   2   3
ATOM      3  N   UNL     1       3.231   1.146  -4.307  1.00  0.00    -0.351 N 
ATOM      4  C   UNL     1       2.310   1.850  -3.587  1.00  0.00     0.278 C 
ATOM      5  O   UNL     1       2.735   2.716  -2.814  1.00  0.00    -0.268 OA
ATOM      6  H   UNL     1       4.169   1.399  -4.147  1.00  0.00     0.163 HD
BRANCH   4   7
ATOM      7  C   UNL     1       0.788   1.599  -3.735  1.00  0.00     0.274 C 
ATOM      8  N   UNL     1       0.430   0.152  -3.486  1.00  0.00    -0.320 N 
ATOM      9  C   UNL     1      -0.960  -0.172  -3.904  1.00  0.00     0.187 C 
ATOM     10  H   UNL     1       0.951  -0.471  -4.103  1.00  0.00     0.349 HD
ATOM     11  C   UNL     1       0.332   2.245  -5.046  1.00  0.00     0.076 C 
ATOM     12  C   UNL     1      -1.360   0.434  -5.294  1.00  0.00     0.048 C 
ATOM     13  C   UNL     1      -1.293  -1.677  -4.066  1.00  0.00     0.065 C 
ATOM     14  C   UNL     1      -1.124   1.941  -5.327  1.00  0.00     0.016 C 
ATOM     15  C   UNL     1      -0.688  -0.249  -6.512  1.00  0.00     0.010 C 
ATOM     16  C   UNL     1      -0.422  -2.354  -5.117  1.00  0.00     0.006 C 
ATOM     17  C   UNL     1      -0.702  -1.773  -6.492  1.00  0.00     0.001 C 
BRANCH   8  18
ATOM     18  C   UNL     1       0.887  -0.249  -2.102  1.00  0.00     0.181 C 
ATOM     19  C   UNL     1       0.522   0.726  -0.962  1.00  0.00     0.075 C 
BRANCH  18  20
ATOM     20  C   UNL     1       0.671  -1.707  -1.620  1.00  0.00     0.061 C 
ATOM     21  C   UNL     1      -0.578  -1.951  -0.773  1.00  0.00     0.010 C 
ENDBRANCH  18  20
ENDBRANCH   8  18
ENDBRANCH   4   7
ENDBRANCH   2   3
ENDBRANCH   1   2
BRANCH   1  22
ATOM     22  C   UNL     1       4.898   0.773  -6.869  1.00  0.00     0.118 C 
BRANCH  22  23
ATOM     23  N   UNL     1       5.689  -0.448  -6.806  1.00  0.00    -0.352 N 
ATOM     24  C   UNL     1       6.567  -0.959  -7.733  1.00  0.00     0.251 C 
ATOM     25  H   UNL     1       5.579  -0.983  -5.987  1.00  0.00     0.163 HD
ATOM     26  O   UNL     1       7.011  -2.095  -7.594  1.00  0.00    -0.269 OA
BRANCH  24  27
ATOM     27  C   UNL     1       6.944  -0.143  -8.907  1.00  0.00     0.039 A 
ATOM     28  C   UNL     1       6.906  -0.720 -10.179  1.00  0.00     0.014 A 
ATOM     29  C   UNL     1       7.308   1.197  -8.751  1.00  0.00     0.014 A 
ATOM     30  C   UNL     1       7.154   0.071 -11.304  1.00  0.00     0.010 A 
ATOM     31  C   UNL     1       7.483   1.998  -9.874  1.00  0.00     0.010 A 
ATOM     32  C   UNL     1       7.402   1.445 -11.163  1.00  0.00    -0.014 A 
BRANCH  32  33
ATOM     33  C   UNL     1       7.583   2.339 -12.337  1.00  0.00     0.031 A 
ATOM     34  C   UNL     1       8.893   3.052 -12.530  1.00  0.00     0.074 A 
ATOM     35  C   UNL     1       6.546   2.588 -13.160  1.00  0.00     0.049 A 
ATOM     36  N   UNL     1       9.201   4.009 -13.366  1.00  0.00    -0.248 NA
ATOM     37  C   UNL     1       9.989   2.656 -11.634  1.00  0.00     0.031 C 
ATOM     38  C   UNL     1       5.219   1.976 -13.060  1.00  0.00     0.029 A 
ATOM     39  N   UNL     1       6.435   3.444 -14.228  1.00  0.00    -0.354 N 
ATOM     40  C   UNL     1      10.518   4.352 -13.079  1.00  0.00     0.074 A 
ATOM     41  C   UNL     1      10.930   3.530 -11.959  1.00  0.00     0.031 C 
ATOM     42  C   UNL     1       4.432   2.471 -14.029  1.00  0.00     0.029 A 
ATOM     43  C   UNL     1       5.177   3.474 -14.784  1.00  0.00     0.049 A 
ATOM     44  H   UNL     1       7.185   3.986 -14.564  1.00  0.00     0.167 HD
ATOM     45  C   UNL     1      11.313   5.257 -13.701  1.00  0.00     0.034 A 
ATOM     46  C   UNL     1       4.672   4.242 -15.770  1.00  0.00     0.034 A 
ATOM     47  C   UNL     1      10.891   6.052 -14.829  1.00  0.00     0.049 A 
ATOM     48  C   UNL     1       5.567   5.257 -16.436  1.00  0.00     0.074 A 
ATOM     49  C   UNL     1      11.628   6.962 -15.567  1.00  0.00     0.029 A 
ATOM     50  N   UNL     1       9.616   6.034 -15.380  1.00  0.00    -0.354 N 
ATOM     51  N   UNL     1       6.818   5.553 -16.170  1.00  0.00    -0.248 NA
ATOM     52  C   UNL     1       4.985   6.035 -17.538  1.00  0.00     0.031 C 
ATOM     53  C   UNL     1      10.785   7.534 -16.526  1.00  0.00     0.029 A 
ATOM     54  C   UNL     1       9.540   6.931 -16.433  1.00  0.00     0.049 A 
ATOM     55  H   UNL     1       8.875   5.466 -15.068  1.00  0.00     0.167 HD
ATOM     56  C   UNL     1       7.183   6.525 -17.097  1.00  0.00     0.074 A 
ATOM     57  C   UNL     1       6.021   6.766 -17.927  1.00  0.00     0.031 C 
ATOM     58  C   UNL     1       8.374   7.154 -17.254  1.00  0.00     0.034 A 
BRANCH  45  59
ATOM     59  C   UNL     1      12.706   5.451 -13.151  1.00  0.00     0.023 A 
ATOM     60  C   UNL     1      13.651   4.411 -13.151  1.00  0.00     0.031 A 
ATOM     61  C   UNL     1      13.083   6.682 -12.586  1.00  0.00     0.131 A 
ATOM     62  C   UNL     1      14.894   4.593 -12.526  1.00  0.00     0.055 A 
ATOM     63  C   UNL     1      14.353   6.884 -12.041  1.00  0.00     0.041 A 
ATOM     64  F   UNL     1      12.217   7.707 -12.540  1.00  0.00    -0.206 F 
ATOM     65  C   UNL     1      15.261   5.831 -11.994  1.00  0.00     0.022 A 
BRANCH  62  66
ATOM     66  S   UNL     1      15.962   3.147 -12.289  1.00  0.00     0.124 S 
ATOM     67  O   UNL     1      15.103   2.275 -11.491  1.00  0.00    -0.237 OA
ATOM     68  O   UNL     1      16.218   2.715 -13.657  1.00  0.00    -0.237 OA
ATOM     69  O   UNL     1      17.119   3.688 -11.578  1.00  0.00    -0.744 OA
ENDBRANCH  62  66
ENDBRANCH  45  59
BRANCH  46  70
ATOM     70  C   UNL     1       3.245   4.103 -16.178  1.00  0.00     0.023 A 
ATOM     71  C   UNL     1       2.902   3.628 -17.454  1.00  0.00     0.031 A 
ATOM     72  C   UNL     1       2.203   4.474 -15.310  1.00  0.00     0.131 A 
ATOM     73  C   UNL     1       1.555   3.577 -17.842  1.00  0.00     0.055 A 
ATOM     74  C   UNL     1       0.861   4.375 -15.683  1.00  0.00     0.041 A 
ATOM     75  F   UNL     1       2.476   4.928 -14.076  1.00  0.00    -0.206 F 
ATOM     76  C   UNL     1       0.531   3.935 -16.961  1.00  0.00     0.022 A 
BRANCH  73  77
ATOM     77  S   UNL     1       1.161   3.104 -19.548  1.00  0.00     0.124 S 
ATOM     78  O   UNL     1       1.887   4.113 -20.311  1.00  0.00    -0.237 OA
ATOM     79  O   UNL     1       1.688   1.745 -19.615  1.00  0.00    -0.237 OA
ATOM     80  O   UNL     1      -0.296   3.208 -19.602  1.00  0.00    -0.744 OA
ENDBRANCH  73  77
ENDBRANCH  46  70
BRANCH  58  81
ATOM     81  C   UNL     1       8.501   8.111 -18.412  1.00  0.00     0.023 A 
ATOM     82  C   UNL     1       7.842   9.352 -18.428  1.00  0.00     0.031 A 
ATOM     83  C   UNL     1       9.313   7.774 -19.510  1.00  0.00     0.131 A 
ATOM     84  C   UNL     1       7.979  10.197 -19.540  1.00  0.00     0.055 A 
ATOM     85  C   UNL     1       9.483   8.639 -20.590  1.00  0.00     0.041 A 
ATOM     86  F   UNL     1       9.963   6.599 -19.542  1.00  0.00    -0.206 F 
ATOM     87  C   UNL     1       8.807   9.855 -20.613  1.00  0.00     0.022 A 
BRANCH  84  88
ATOM     88  S   UNL     1       7.015  11.733 -19.595  1.00  0.00     0.124 S 
ATOM     89  O   UNL     1       5.644  11.232 -19.570  1.00  0.00    -0.237 OA
ATOM     90  O   UNL     1       7.462  12.427 -18.391  1.00  0.00    -0.237 OA
ATOM     91  O   UNL     1       7.426  12.352 -20.854  1.00  0.00    -0.744 OA
ENDBRANCH  84  88
ENDBRANCH  58  81
ENDBRANCH  32  33
ENDBRANCH  24  27
ENDBRANCH  22  23
ENDBRANCH   1  22
TORSDOF 15
