REMARK SMILES O=C(NCCCNC(=O)c1cccn1CC(=O)N1CCS(=O)CC1)c1ccc(-c2c3nc(c(-c4cc(S(=O)(=O)[O-])ccc4F)c4ccc([nH]4)c(-c4cc(S(=O)(=O)[O-])ccc4F)c4nc(c(-c5cc(S(=O)(=O)[O-])ccc5F)c5ccc2[nH]5)C=C4)C=C3)cc1
REMARK SMILES IDX 4 1 3 2 1 3 2 4 25 6 26 7 87 8 27 9 86 10 28 11 29 12 30 13
REMARK SMILES IDX 80 14 31 15 85 16 79 17 81 18 32 19 84 20 78 21 77 22 33 24
REMARK SMILES IDX 65 25 45 26 64 27 46 28 49 29 63 30 82 31 47 32 48 33 62 35
REMARK SMILES IDX 83 36 50 37 34 38 35 39 43 40 36 41 42 42 44 43 41 44 37 45
REMARK SMILES IDX 38 46 39 47 40 48 66 49 67 50 75 51 68 52 74 53 76 54 73 55
REMARK SMILES IDX 69 56 70 57 71 58 72 59 51 60 52 61 60 62 53 63 59 64 61 65
REMARK SMILES IDX 58 66 54 67 55 68 56 69 57 70 5 71 6 72 7 73 8 74 9 76 10 77
REMARK SMILES IDX 11 78 14 79 12 80 13 81 15 82 16 83 17 84 18 85 19 86 24 87
REMARK SMILES IDX 20 88 23 89 21 90 22 91
REMARK H PARENT 3 5 81 23 49 34 7 75
REMARK Flexibility Score: inf
ROOT
ATOM      1  C   UNL     1       3.889   0.390  -1.571  1.00  0.00     0.118 C 
ENDROOT
BRANCH   1   2
ATOM      2  N   UNL     1       2.563   0.612  -1.036  1.00  0.00    -0.352 N 
ATOM      3  O   UNL     1       0.850   0.547   0.402  1.00  0.00    -0.269 OA
ATOM      4  C   UNL     1       1.916   0.054   0.041  1.00  0.00     0.251 C 
ATOM      5  H   UNL     1       2.032   1.278  -1.528  1.00  0.00     0.163 HD
BRANCH   4   6
ATOM      6  C   UNL     1       2.414  -1.181   0.695  1.00  0.00     0.039 A 
ATOM      7  C   UNL     1       3.761  -1.412   0.995  1.00  0.00     0.014 A 
ATOM      8  C   UNL     1       1.457  -2.160   1.000  1.00  0.00     0.014 A 
ATOM      9  C   UNL     1       4.165  -2.646   1.501  1.00  0.00     0.010 A 
ATOM     10  C   UNL     1       1.849  -3.382   1.547  1.00  0.00     0.010 A 
ATOM     11  C   UNL     1       3.207  -3.625   1.800  1.00  0.00    -0.014 A 
BRANCH  11  12
ATOM     12  C   UNL     1       3.606  -4.736   2.703  1.00  0.00     0.031 A 
ATOM     13  C   UNL     1       3.632  -4.237   4.188  1.00  0.00     0.074 A 
ATOM     14  C   UNL     1       3.877  -5.958   2.135  1.00  0.00     0.049 A 
ATOM     15  N   UNL     1       4.176  -4.754   5.247  1.00  0.00    -0.248 NA
ATOM     16  C   UNL     1       2.996  -2.924   4.535  1.00  0.00     0.031 C 
ATOM     17  C   UNL     1       3.813  -6.271   0.683  1.00  0.00     0.029 A 
ATOM     18  N   UNL     1       4.254  -7.189   2.643  1.00  0.00    -0.354 N 
ATOM     19  C   UNL     1       3.717  -4.016   6.374  1.00  0.00     0.074 A 
ATOM     20  C   UNL     1       3.122  -2.827   5.859  1.00  0.00     0.031 C 
ATOM     21  C   UNL     1       4.213  -7.544   0.430  1.00  0.00     0.029 A 
ATOM     22  C   UNL     1       4.521  -8.217   1.679  1.00  0.00     0.049 A 
ATOM     23  H   UNL     1       4.335  -7.350   3.611  1.00  0.00     0.167 HD
ATOM     24  C   UNL     1       3.709  -4.510   7.650  1.00  0.00     0.034 A 
ATOM     25  C   UNL     1       4.957  -9.507   1.888  1.00  0.00     0.034 A 
ATOM     26  C   UNL     1       4.302  -5.800   7.658  1.00  0.00     0.049 A 
ATOM     27  C   UNL     1       4.787  -9.689   3.335  1.00  0.00     0.074 A 
ATOM     28  C   UNL     1       5.590  -6.218   7.469  1.00  0.00     0.029 A 
ATOM     29  N   UNL     1       3.448  -6.872   7.539  1.00  0.00    -0.354 N 
ATOM     30  N   UNL     1       3.638  -9.821   3.923  1.00  0.00    -0.248 NA
ATOM     31  C   UNL     1       5.975  -9.712   4.197  1.00  0.00     0.031 C 
ATOM     32  C   UNL     1       5.417  -7.387   6.709  1.00  0.00     0.029 A 
ATOM     33  C   UNL     1       4.064  -7.761   6.702  1.00  0.00     0.049 A 
ATOM     34  H   UNL     1       2.569  -6.977   7.970  1.00  0.00     0.167 HD
ATOM     35  C   UNL     1       3.953  -9.603   5.236  1.00  0.00     0.074 A 
ATOM     36  C   UNL     1       5.370  -9.885   5.370  1.00  0.00     0.031 C 
ATOM     37  C   UNL     1       3.249  -8.675   5.931  1.00  0.00     0.034 A 
BRANCH  24  38
ATOM     38  C   UNL     1       3.021  -4.101   8.930  1.00  0.00     0.023 A 
ATOM     39  C   UNL     1       3.451  -4.765  10.111  1.00  0.00     0.031 A 
ATOM     40  C   UNL     1       1.803  -3.418   9.012  1.00  0.00     0.131 A 
ATOM     41  C   UNL     1       2.630  -4.865  11.241  1.00  0.00     0.055 A 
ATOM     42  C   UNL     1       1.012  -3.459  10.172  1.00  0.00     0.041 A 
ATOM     43  F   UNL     1       1.291  -2.769   7.957  1.00  0.00    -0.206 F 
ATOM     44  C   UNL     1       1.402  -4.217  11.277  1.00  0.00     0.022 A 
BRANCH  41  45
ATOM     45  S   UNL     1       3.118  -6.017  12.561  1.00  0.00     0.124 S 
ATOM     46  O   UNL     1       3.333  -7.259  11.828  1.00  0.00    -0.237 OA
ATOM     47  O   UNL     1       4.316  -5.376  13.096  1.00  0.00    -0.237 OA
ATOM     48  O   UNL     1       1.962  -6.016  13.456  1.00  0.00    -0.744 OA
ENDBRANCH  41  45
ENDBRANCH  24  38
BRANCH  25  49
ATOM     49  C   UNL     1       5.509 -10.756   1.181  1.00  0.00     0.023 A 
ATOM     50  C   UNL     1       5.822 -10.907  -0.182  1.00  0.00     0.031 A 
ATOM     51  C   UNL     1       5.892 -11.884   1.991  1.00  0.00     0.131 A 
ATOM     52  C   UNL     1       6.547 -12.060  -0.629  1.00  0.00     0.055 A 
ATOM     53  C   UNL     1       6.694 -12.943   1.570  1.00  0.00     0.041 A 
ATOM     54  F   UNL     1       5.505 -12.016   3.267  1.00  0.00    -0.206 F 
ATOM     55  C   UNL     1       7.043 -13.029   0.249  1.00  0.00     0.022 A 
BRANCH  52  56
ATOM     56  S   UNL     1       6.892 -12.359  -2.393  1.00  0.00     0.124 S 
ATOM     57  O   UNL     1       5.707 -13.101  -2.810  1.00  0.00    -0.237 OA
ATOM     58  O   UNL     1       7.029 -11.011  -2.933  1.00  0.00    -0.237 OA
ATOM     59  O   UNL     1       8.131 -13.138  -2.367  1.00  0.00    -0.744 OA
ENDBRANCH  52  56
ENDBRANCH  25  49
BRANCH  37  60
ATOM     60  C   UNL     1       1.808  -8.461   5.458  1.00  0.00     0.023 A 
ATOM     61  C   UNL     1       0.938  -9.562   5.317  1.00  0.00     0.031 A 
ATOM     62  C   UNL     1       1.281  -7.221   5.054  1.00  0.00     0.131 A 
ATOM     63  C   UNL     1      -0.356  -9.409   4.775  1.00  0.00     0.055 A 
ATOM     64  C   UNL     1      -0.004  -7.063   4.513  1.00  0.00     0.041 A 
ATOM     65  F   UNL     1       1.991  -6.102   5.170  1.00  0.00    -0.206 F 
ATOM     66  C   UNL     1      -0.831  -8.164   4.367  1.00  0.00     0.022 A 
BRANCH  63  67
ATOM     67  S   UNL     1      -1.443 -10.857   4.641  1.00  0.00     0.124 S 
ATOM     68  O   UNL     1      -0.815 -11.633   3.579  1.00  0.00    -0.237 OA
ATOM     69  O   UNL     1      -1.372 -11.429   5.982  1.00  0.00    -0.237 OA
ATOM     70  O   UNL     1      -2.742 -10.278   4.294  1.00  0.00    -0.744 OA
ENDBRANCH  63  67
ENDBRANCH  37  60
ENDBRANCH  11  12
ENDBRANCH   4   6
ENDBRANCH   1   2
BRANCH   1  71
ATOM     71  C   UNL     1       4.165  -1.012  -2.111  1.00  0.00     0.042 C 
BRANCH  71  72
ATOM     72  C   UNL     1       3.934  -1.235  -3.601  1.00  0.00     0.118 C 
BRANCH  72  73
ATOM     73  N   UNL     1       4.686  -0.314  -4.435  1.00  0.00    -0.351 N 
ATOM     74  C   UNL     1       5.694  -0.508  -5.343  1.00  0.00     0.267 C 
ATOM     75  H   UNL     1       4.421   0.628  -4.329  1.00  0.00     0.163 HD
ATOM     76  O   UNL     1       6.220   0.509  -5.793  1.00  0.00    -0.268 OA
BRANCH  74  77
ATOM     77  C   UNL     1       6.109  -1.843  -5.727  1.00  0.00     0.107 A 
ATOM     78  C   UNL     1       5.320  -2.946  -6.033  1.00  0.00     0.033 A 
ATOM     79  N   UNL     1       7.421  -2.232  -5.985  1.00  0.00    -0.334 N 
ATOM     80  C   UNL     1       6.153  -3.994  -6.483  1.00  0.00     0.020 A 
ATOM     81  C   UNL     1       7.441  -3.515  -6.479  1.00  0.00     0.087 A 
BRANCH  79  82
ATOM     82  C   UNL     1       8.604  -1.387  -5.900  1.00  0.00     0.222 C 
BRANCH  82  83
ATOM     83  C   UNL     1       9.763  -1.789  -4.998  1.00  0.00     0.242 C 
ATOM     84  O   UNL     1      10.911  -1.557  -5.402  1.00  0.00    -0.273 OA
ATOM     85  N   UNL     1       9.552  -2.107  -3.667  1.00  0.00    -0.339 N 
ATOM     86  C   UNL     1      10.498  -1.631  -2.655  1.00  0.00     0.133 C 
ATOM     87  C   UNL     1       8.475  -2.926  -3.118  1.00  0.00     0.133 C 
ATOM     88  C   UNL     1       9.808  -0.635  -1.726  1.00  0.00     0.126 C 
ATOM     89  C   UNL     1       7.570  -2.100  -2.234  1.00  0.00     0.126 C 
ATOM     90  S   UNL     1       8.438  -1.398  -0.798  1.00  0.00     0.025 S 
ATOM     91  O   UNL     1       9.000  -2.526   0.011  1.00  0.00    -0.259 OA
ENDBRANCH  82  83
ENDBRANCH  79  82
ENDBRANCH  74  77
ENDBRANCH  72  73
ENDBRANCH  71  72
ENDBRANCH   1  71
TORSDOF 15
