REMARK SMILES O=C(C[C@@H](C(=O)NCCCNC(=O)c1ccc(-c2c3nc(c(-c4cc(S(=O)(=O)[O-])ccc4F)c4ccc([nH]4)c(-c4cc(S(=O)(=O)[O-])ccc4F)c4nc(c(-c5cc(S(=O)(=O)[O-])ccc5F)c5ccc2[nH]5)C=C4)C=C3)cc1)c1ccccc1)Nc1cc(C(F)(F)F)ccc1-n1cncn1
REMARK SMILES IDX 8 1 7 2 5 3 6 4 4 6 3 7 2 8 1 9 83 10 84 12 85 13 93 14
REMARK SMILES IDX 86 15 92 16 91 17 94 18 95 19 98 20 96 21 97 22 87 23 88 24
REMARK SMILES IDX 89 25 90 26 77 27 78 28 82 29 79 30 81 31 80 32 9 33 10 34
REMARK SMILES IDX 11 35 12 36 13 38 14 39 15 40 76 41 16 42 75 43 17 44 18 45
REMARK SMILES IDX 19 46 69 47 20 48 74 49 68 50 70 51 21 52 73 53 67 54 66 55
REMARK SMILES IDX 22 57 54 58 34 59 53 60 35 61 38 62 52 63 71 64 36 65 37 66
REMARK SMILES IDX 51 68 72 69 39 70 23 71 24 72 32 73 25 74 31 75 33 76 30 77
REMARK SMILES IDX 26 78 27 79 28 80 29 81 55 82 56 83 64 84 57 85 63 86 65 87
REMARK SMILES IDX 62 88 58 89 59 90 60 91 61 92 40 93 41 94 49 95 42 96 48 97
REMARK SMILES IDX 50 98 47 99 43 100 44 101 45 102 46 103
REMARK H PARENT 7 5 83 11 11 37 70 56 38 67
REMARK Flexibility Score: inf
ROOT
ATOM      1  C   UNL     1       3.974  -2.924  -1.613  1.00  0.00     0.117 C 
ENDROOT
BRANCH   1   2
ATOM      2  N   UNL     1       4.904  -2.591  -0.476  1.00  0.00    -0.355 N 
ATOM      3  C   UNL     1       4.834  -1.520   0.395  1.00  0.00     0.228 C 
ATOM      4  O   UNL     1       5.694  -0.640   0.296  1.00  0.00    -0.274 OA
ATOM      5  H   UNL     1       5.654  -3.213  -0.336  1.00  0.00     0.163 HD
BRANCH   3   6
ATOM      6  C   UNL     1       3.809  -1.498   1.552  1.00  0.00     0.118 C 
BRANCH   6   7
ATOM      7  C   UNL     1       2.998  -0.195   1.570  1.00  0.00     0.118 C 
BRANCH   7   8
ATOM      8  C   UNL     1       2.198   0.026   0.329  1.00  0.00     0.225 C 
ATOM      9  O   UNL     1       1.246  -0.689   0.005  1.00  0.00    -0.275 OA
ATOM     10  N   UNL     1       2.709   1.075  -0.402  1.00  0.00    -0.324 N 
ATOM     11  H   UNL     1       3.483   1.566  -0.043  1.00  0.00     0.170 HD
BRANCH  10  12
ATOM     12  C   UNL     1       2.178   1.471  -1.624  1.00  0.00     0.067 A 
ATOM     13  C   UNL     1       2.924   1.036  -2.678  1.00  0.00     0.041 A 
ATOM     14  C   UNL     1       0.954   2.034  -1.911  1.00  0.00     0.090 A 
ATOM     15  C   UNL     1       2.912   1.703  -3.870  1.00  0.00     0.058 A 
ATOM     16  C   UNL     1       0.623   2.268  -3.249  1.00  0.00     0.031 A 
ATOM     17  C   UNL     1       1.655   2.197  -4.212  1.00  0.00     0.015 A 
BRANCH  14  18
ATOM     18  N   UNL     1       0.175   2.561  -0.880  1.00  0.00    -0.219 N 
ATOM     19  C   UNL     1       0.653   3.216   0.229  1.00  0.00     0.226 A 
ATOM     20  N   UNL     1      -1.171   2.572  -0.873  1.00  0.00    -0.155 NA
ATOM     21  N   UNL     1      -0.330   3.515   1.040  1.00  0.00    -0.223 NA
ATOM     22  C   UNL     1      -1.419   3.092   0.333  1.00  0.00     0.246 A 
ENDBRANCH  14  18
BRANCH  15  23
ATOM     23  C   UNL     1       4.236   1.630  -4.581  1.00  0.00     0.416 C 
ATOM     24  F   UNL     1       5.284   1.578  -3.698  1.00  0.00    -0.166 F 
ATOM     25  F   UNL     1       4.419   0.497  -5.310  1.00  0.00    -0.166 F 
ATOM     26  F   UNL     1       4.505   2.674  -5.400  1.00  0.00    -0.166 F 
ENDBRANCH  15  23
ENDBRANCH  10  12
ENDBRANCH   7   8
ENDBRANCH   6   7
BRANCH   6  27
ATOM     27  C   UNL     1       4.541  -1.609   2.915  1.00  0.00    -0.035 A 
ATOM     28  C   UNL     1       4.747  -2.864   3.501  1.00  0.00     0.004 A 
ATOM     29  C   UNL     1       5.035  -0.480   3.611  1.00  0.00     0.004 A 
ATOM     30  C   UNL     1       5.404  -2.981   4.734  1.00  0.00     0.000 A 
ATOM     31  C   UNL     1       5.672  -0.595   4.848  1.00  0.00     0.000 A 
ATOM     32  C   UNL     1       5.860  -1.849   5.410  1.00  0.00     0.000 A 
ENDBRANCH   6  27
ENDBRANCH   3   6
ENDBRANCH   1   2
BRANCH   1  33
ATOM     33  C   UNL     1       4.175  -1.904  -2.775  1.00  0.00     0.042 C 
BRANCH  33  34
ATOM     34  C   UNL     1       3.696  -2.056  -4.312  1.00  0.00     0.118 C 
BRANCH  34  35
ATOM     35  N   UNL     1       2.392  -1.416  -4.835  1.00  0.00    -0.352 N 
ATOM     36  C   UNL     1       1.944  -1.255  -6.202  1.00  0.00     0.251 C 
ATOM     37  H   UNL     1       1.782  -1.069  -4.144  1.00  0.00     0.163 HD
ATOM     38  O   UNL     1       1.427  -2.246  -6.727  1.00  0.00    -0.269 OA
BRANCH  36  39
ATOM     39  C   UNL     1       1.668   0.133  -6.901  1.00  0.00     0.039 A 
ATOM     40  C   UNL     1       0.415   0.445  -7.478  1.00  0.00     0.014 A 
ATOM     41  C   UNL     1       2.612   1.127  -7.139  1.00  0.00     0.014 A 
ATOM     42  C   UNL     1       0.084   1.760  -8.000  1.00  0.00     0.010 A 
ATOM     43  C   UNL     1       2.263   2.466  -7.513  1.00  0.00     0.010 A 
ATOM     44  C   UNL     1       0.977   2.844  -7.913  1.00  0.00    -0.014 A 
BRANCH  44  45
ATOM     45  C   UNL     1       0.641   4.329  -8.134  1.00  0.00     0.031 A 
ATOM     46  C   UNL     1       1.513   5.245  -9.008  1.00  0.00     0.074 A 
ATOM     47  C   UNL     1      -0.285   4.961  -7.364  1.00  0.00     0.049 A 
ATOM     48  N   UNL     1       1.422   6.541  -9.235  1.00  0.00    -0.248 NA
ATOM     49  C   UNL     1       2.682   4.631  -9.650  1.00  0.00     0.031 C 
ATOM     50  C   UNL     1      -1.092   4.321  -6.325  1.00  0.00     0.029 A 
ATOM     51  N   UNL     1      -0.668   6.292  -7.279  1.00  0.00    -0.354 N 
ATOM     52  C   UNL     1       2.524   6.885 -10.026  1.00  0.00     0.074 A 
ATOM     53  C   UNL     1       3.322   5.684 -10.137  1.00  0.00     0.031 C 
ATOM     54  C   UNL     1      -1.851   5.243  -5.706  1.00  0.00     0.029 A 
ATOM     55  C   UNL     1      -1.619   6.553  -6.308  1.00  0.00     0.049 A 
ATOM     56  H   UNL     1      -0.294   6.992  -7.862  1.00  0.00     0.167 HD
ATOM     57  C   UNL     1       2.840   8.059 -10.644  1.00  0.00     0.034 A 
ATOM     58  C   UNL     1      -2.256   7.694  -5.948  1.00  0.00     0.034 A 
ATOM     59  C   UNL     1       2.062   9.270 -10.523  1.00  0.00     0.049 A 
ATOM     60  C   UNL     1      -1.961   8.981  -6.689  1.00  0.00     0.074 A 
ATOM     61  C   UNL     1       2.194  10.465 -11.214  1.00  0.00     0.029 A 
ATOM     62  N   UNL     1       1.022   9.452  -9.622  1.00  0.00    -0.354 N 
ATOM     63  N   UNL     1      -1.059   9.214  -7.614  1.00  0.00    -0.248 NA
ATOM     64  C   UNL     1      -2.796  10.150  -6.365  1.00  0.00     0.031 C 
ATOM     65  C   UNL     1       1.285  11.387 -10.682  1.00  0.00     0.029 A 
ATOM     66  C   UNL     1       0.529  10.745  -9.716  1.00  0.00     0.049 A 
ATOM     67  H   UNL     1       0.684   8.764  -9.006  1.00  0.00     0.167 HD
ATOM     68  C   UNL     1      -1.250  10.537  -8.010  1.00  0.00     0.074 A 
ATOM     69  C   UNL     1      -2.362  11.047  -7.237  1.00  0.00     0.031 C 
ATOM     70  C   UNL     1      -0.571  11.261  -8.937  1.00  0.00     0.034 A 
BRANCH  57  71
ATOM     71  C   UNL     1       4.061   8.081 -11.553  1.00  0.00     0.023 A 
ATOM     72  C   UNL     1       4.163   7.202 -12.648  1.00  0.00     0.031 A 
ATOM     73  C   UNL     1       5.121   8.986 -11.356  1.00  0.00     0.131 A 
ATOM     74  C   UNL     1       5.322   7.177 -13.438  1.00  0.00     0.055 A 
ATOM     75  C   UNL     1       6.236   9.019 -12.203  1.00  0.00     0.041 A 
ATOM     76  F   UNL     1       5.099   9.857 -10.334  1.00  0.00    -0.206 F 
ATOM     77  C   UNL     1       6.350   8.098 -13.241  1.00  0.00     0.022 A 
BRANCH  74  78
ATOM     78  S   UNL     1       5.517   5.828 -14.635  1.00  0.00     0.124 S 
ATOM     79  O   UNL     1       5.439   4.654 -13.770  1.00  0.00    -0.237 OA
ATOM     80  O   UNL     1       4.387   6.037 -15.532  1.00  0.00    -0.237 OA
ATOM     81  O   UNL     1       6.834   6.075 -15.219  1.00  0.00    -0.744 OA
ENDBRANCH  74  78
ENDBRANCH  57  71
BRANCH  58  82
ATOM     82  C   UNL     1      -3.316   7.679  -4.886  1.00  0.00     0.023 A 
ATOM     83  C   UNL     1      -4.662   7.921  -5.216  1.00  0.00     0.031 A 
ATOM     84  C   UNL     1      -3.008   7.469  -3.530  1.00  0.00     0.131 A 
ATOM     85  C   UNL     1      -5.641   7.990  -4.210  1.00  0.00     0.055 A 
ATOM     86  C   UNL     1      -3.994   7.485  -2.536  1.00  0.00     0.041 A 
ATOM     87  F   UNL     1      -1.742   7.235  -3.150  1.00  0.00    -0.206 F 
ATOM     88  C   UNL     1      -5.318   7.758  -2.872  1.00  0.00     0.022 A 
BRANCH  85  89
ATOM     89  S   UNL     1      -7.330   8.474  -4.668  1.00  0.00     0.124 S 
ATOM     90  O   UNL     1      -7.109   9.772  -5.295  1.00  0.00    -0.237 OA
ATOM     91  O   UNL     1      -7.723   7.389  -5.561  1.00  0.00    -0.237 OA
ATOM     92  O   UNL     1      -8.034   8.510  -3.388  1.00  0.00    -0.744 OA
ENDBRANCH  85  89
ENDBRANCH  58  82
BRANCH  70  93
ATOM     93  C   UNL     1      -1.034  12.676  -9.196  1.00  0.00     0.023 A 
ATOM     94  C   UNL     1      -0.955  13.673  -8.208  1.00  0.00     0.031 A 
ATOM     95  C   UNL     1      -1.569  13.030 -10.448  1.00  0.00     0.131 A 
ATOM     96  C   UNL     1      -1.457  14.957  -8.468  1.00  0.00     0.055 A 
ATOM     97  C   UNL     1      -2.004  14.328 -10.723  1.00  0.00     0.041 A 
ATOM     98  F   UNL     1      -1.675  12.119 -11.429  1.00  0.00    -0.206 F 
ATOM     99  C   UNL     1      -1.963  15.297  -9.725  1.00  0.00     0.022 A 
BRANCH  96 100
ATOM    100  S   UNL     1      -1.537  16.151  -7.105  1.00  0.00     0.124 S 
ATOM    101  O   UNL     1      -2.374  15.448  -6.137  1.00  0.00    -0.237 OA
ATOM    102  O   UNL     1      -0.133  16.305  -6.741  1.00  0.00    -0.237 OA
ATOM    103  O   UNL     1      -2.151  17.329  -7.715  1.00  0.00    -0.744 OA
ENDBRANCH  96 100
ENDBRANCH  70  93
ENDBRANCH  44  45
ENDBRANCH  36  39
ENDBRANCH  34  35
ENDBRANCH  33  34
ENDBRANCH   1  33
TORSDOF 19
