REMARK SMILES Cc1cc(C)c(C#N)c(NC[C@H](CC(C)C)C(=O)NCCCNC(=O)c2ccc(-c3c4nc(c(-c5cc(S(=O)(=O)[O-])ccc5F)c5ccc([nH]5)c(-c5cc(S(=O)(=O)[O-])ccc5F)c5nc(c(-c6cc(S(=O)(=O)[O-])ccc6F)c6ccc3[nH]6)C=C5)C=C4)cc2)n1
REMARK SMILES IDX 20 1 19 2 17 3 18 4 12 6 11 7 10 8 9 10 1 11 2 12 3 13 89 14
REMARK SMILES IDX 4 15 5 16 6 17 7 18 8 19 13 20 14 21 15 22 16 23 21 24 22 25
REMARK SMILES IDX 23 26 24 27 25 29 26 30 27 31 88 32 28 33 87 34 29 35 30 36
REMARK SMILES IDX 31 37 81 38 32 39 86 40 80 41 82 42 33 43 85 44 79 45 78 46
REMARK SMILES IDX 34 48 66 49 46 50 65 51 47 52 50 53 64 54 83 55 48 56 49 57
REMARK SMILES IDX 63 59 84 60 51 61 35 62 36 63 44 64 37 65 43 66 45 67 42 68
REMARK SMILES IDX 38 69 39 70 40 71 41 72 67 73 68 74 76 75 69 76 75 77 77 78
REMARK SMILES IDX 74 79 70 80 71 81 72 82 73 83 52 84 53 85 61 86 54 87 60 88
REMARK SMILES IDX 62 89 59 90 55 91 56 92 57 93 58 94
REMARK H PARENT 19 5 10 9 23 28 82 47 50 58
REMARK Flexibility Score: inf
ROOT
ATOM      1  C   UNL     1       4.570   5.312   0.338  1.00  0.00     0.117 C 
ENDROOT
BRANCH   1   2
ATOM      2  N   UNL     1       4.672   4.370  -0.755  1.00  0.00    -0.356 N 
ATOM      3  C   UNL     1       3.740   3.655  -1.429  1.00  0.00     0.224 C 
ATOM      4  O   UNL     1       4.174   2.972  -2.369  1.00  0.00    -0.275 OA
ATOM      5  H   UNL     1       5.593   4.221  -1.069  1.00  0.00     0.163 HD
BRANCH   3   6
ATOM      6  C   UNL     1       2.234   3.631  -1.122  1.00  0.00     0.098 C 
BRANCH   6   7
ATOM      7  C   UNL     1       1.404   4.819  -1.632  1.00  0.00     0.128 C 
BRANCH   7   8
ATOM      8  N   UNL     1       1.759   6.147  -1.185  1.00  0.00    -0.368 N 
ATOM      9  H   UNL     1       2.224   6.188  -0.318  1.00  0.00     0.162 HD
BRANCH   8  10
ATOM     10  C   UNL     1       1.544   7.357  -1.793  1.00  0.00     0.144 A 
ATOM     11  C   UNL     1       1.799  10.739  -0.304  1.00  0.00     0.067 C 
ATOM     12  C   UNL     1       1.595   9.662  -1.330  1.00  0.00     0.040 A 
ATOM     13  C   UNL     1       1.289   9.989  -2.640  1.00  0.00     0.028 A 
ATOM     14  N   UNL     1       1.724   8.377  -0.915  1.00  0.00    -0.235 NA
ATOM     15  C   UNL     1       1.095   8.959  -3.560  1.00  0.00    -0.028 A 
ATOM     16  C   UNL     1       0.764   9.298  -4.990  1.00  0.00     0.046 C 
ATOM     17  C   UNL     1       1.216   7.618  -3.128  1.00  0.00     0.097 A 
BRANCH  17  18
ATOM     18  C   UNL     1       0.971   6.590  -4.092  1.00  0.00     0.103 C 
ATOM     19  N   UNL     1       0.731   5.803  -4.916  1.00  0.00    -0.192 NA
ENDBRANCH  17  18
ENDBRANCH   8  10
ENDBRANCH   7   8
ENDBRANCH   6   7
BRANCH   6  20
ATOM     20  C   UNL     1       1.722   2.816   0.090  1.00  0.00     0.018 C 
BRANCH  20  21
ATOM     21  C   UNL     1       2.090   3.217   1.516  1.00  0.00    -0.017 C 
ATOM     22  C   UNL     1       1.363   4.447   2.040  1.00  0.00     0.007 C 
ATOM     23  C   UNL     1       1.903   2.058   2.501  1.00  0.00     0.007 C 
ENDBRANCH  20  21
ENDBRANCH   6  20
ENDBRANCH   3   6
ENDBRANCH   1   2
BRANCH   1  24
ATOM     24  C   UNL     1       5.074   4.726   1.647  1.00  0.00     0.042 C 
BRANCH  24  25
ATOM     25  C   UNL     1       6.492   5.085   2.010  1.00  0.00     0.118 C 
BRANCH  25  26
ATOM     26  N   UNL     1       6.643   6.491   2.333  1.00  0.00    -0.352 N 
ATOM     27  C   UNL     1       6.949   7.114   3.517  1.00  0.00     0.251 C 
ATOM     28  H   UNL     1       6.500   7.102   1.574  1.00  0.00     0.163 HD
ATOM     29  O   UNL     1       6.804   8.333   3.587  1.00  0.00    -0.269 OA
BRANCH  27  30
ATOM     30  C   UNL     1       7.417   6.351   4.702  1.00  0.00     0.039 A 
ATOM     31  C   UNL     1       7.163   6.875   5.972  1.00  0.00     0.014 A 
ATOM     32  C   UNL     1       8.132   5.156   4.593  1.00  0.00     0.014 A 
ATOM     33  C   UNL     1       7.595   6.188   7.107  1.00  0.00     0.010 A 
ATOM     34  C   UNL     1       8.411   4.393   5.721  1.00  0.00     0.010 A 
ATOM     35  C   UNL     1       8.191   4.921   6.995  1.00  0.00    -0.014 A 
BRANCH  35  36
ATOM     36  C   UNL     1       8.635   4.180   8.204  1.00  0.00     0.031 A 
ATOM     37  C   UNL     1      10.084   3.796   8.376  1.00  0.00     0.074 A 
ATOM     38  C   UNL     1       7.728   3.863   9.149  1.00  0.00     0.049 A 
ATOM     39  N   UNL     1      10.666   3.204   9.387  1.00  0.00    -0.248 NA
ATOM     40  C   UNL     1      10.994   4.083   7.255  1.00  0.00     0.031 C 
ATOM     41  C   UNL     1       6.289   4.130   9.058  1.00  0.00     0.029 A 
ATOM     42  N   UNL     1       7.877   3.275  10.378  1.00  0.00    -0.354 N 
ATOM     43  C   UNL     1      12.000   3.050   9.023  1.00  0.00     0.074 A 
ATOM     44  C   UNL     1      12.122   3.526   7.665  1.00  0.00     0.031 C 
ATOM     45  C   UNL     1       5.703   3.777  10.211  1.00  0.00     0.029 A 
ATOM     46  C   UNL     1       6.707   3.202  11.099  1.00  0.00     0.049 A 
ATOM     47  H   UNL     1       8.738   2.937  10.713  1.00  0.00     0.167 HD
ATOM     48  C   UNL     1      13.036   2.588   9.765  1.00  0.00     0.034 A 
ATOM     49  C   UNL     1       6.471   2.728  12.338  1.00  0.00     0.034 A 
ATOM     50  C   UNL     1      12.893   2.122  11.121  1.00  0.00     0.049 A 
ATOM     51  C   UNL     1       7.635   2.197  13.134  1.00  0.00     0.074 A 
ATOM     52  C   UNL     1      13.874   1.672  11.986  1.00  0.00     0.029 A 
ATOM     53  N   UNL     1      11.688   2.033  11.808  1.00  0.00    -0.354 N 
ATOM     54  N   UNL     1       8.903   2.120  12.796  1.00  0.00    -0.248 NA
ATOM     55  C   UNL     1       7.338   1.708  14.483  1.00  0.00     0.031 C 
ATOM     56  C   UNL     1      13.254   1.227  13.158  1.00  0.00     0.029 A 
ATOM     57  C   UNL     1      11.897   1.498  13.070  1.00  0.00     0.049 A 
ATOM     58  H   UNL     1      10.813   2.309  11.451  1.00  0.00     0.167 HD
ATOM     59  C   UNL     1       9.559   1.599  13.908  1.00  0.00     0.074 A 
ATOM     60  C   UNL     1       8.549   1.415  14.931  1.00  0.00     0.031 C 
ATOM     61  C   UNL     1      10.874   1.300  14.072  1.00  0.00     0.034 A 
BRANCH  48  62
ATOM     62  C   UNL     1      14.400   2.542   9.112  1.00  0.00     0.023 A 
ATOM     63  C   UNL     1      15.038   3.704   8.639  1.00  0.00     0.031 A 
ATOM     64  C   UNL     1      15.066   1.315   8.938  1.00  0.00     0.131 A 
ATOM     65  C   UNL     1      16.257   3.607   7.950  1.00  0.00     0.055 A 
ATOM     66  C   UNL     1      16.323   1.236   8.335  1.00  0.00     0.041 A 
ATOM     67  F   UNL     1      14.499   0.167   9.341  1.00  0.00    -0.206 F 
ATOM     68  C   UNL     1      16.919   2.384   7.823  1.00  0.00     0.022 A 
BRANCH  65  69
ATOM     69  S   UNL     1      16.884   5.073   7.086  1.00  0.00     0.124 S 
ATOM     70  O   UNL     1      15.775   5.382   6.186  1.00  0.00    -0.237 OA
ATOM     71  O   UNL     1      17.102   6.015   8.177  1.00  0.00    -0.237 OA
ATOM     72  O   UNL     1      18.095   4.590   6.425  1.00  0.00    -0.744 OA
ENDBRANCH  65  69
ENDBRANCH  48  62
BRANCH  49  73
ATOM     73  C   UNL     1       5.088   2.729  12.900  1.00  0.00     0.023 A 
ATOM     74  C   UNL     1       4.774   3.449  14.063  1.00  0.00     0.031 A 
ATOM     75  C   UNL     1       4.066   1.968  12.303  1.00  0.00     0.131 A 
ATOM     76  C   UNL     1       3.491   3.348  14.624  1.00  0.00     0.055 A 
ATOM     77  C   UNL     1       2.773   1.926  12.825  1.00  0.00     0.041 A 
ATOM     78  F   UNL     1       4.309   1.259  11.188  1.00  0.00    -0.206 F 
ATOM     79  C   UNL     1       2.484   2.606  14.003  1.00  0.00     0.022 A 
BRANCH  76  80
ATOM     80  S   UNL     1       3.188   4.109  16.243  1.00  0.00     0.124 S 
ATOM     81  O   UNL     1       4.205   3.467  17.067  1.00  0.00    -0.237 OA
ATOM     82  O   UNL     1       3.392   5.524  15.956  1.00  0.00    -0.237 OA
ATOM     83  O   UNL     1       1.809   3.728  16.544  1.00  0.00    -0.744 OA
ENDBRANCH  76  80
ENDBRANCH  49  73
BRANCH  61  84
ATOM     84  C   UNL     1      11.290   0.780  15.428  1.00  0.00     0.023 A 
ATOM     85  C   UNL     1      10.777  -0.421  15.948  1.00  0.00     0.031 A 
ATOM     86  C   UNL     1      12.173   1.523  16.233  1.00  0.00     0.131 A 
ATOM     87  C   UNL     1      11.070  -0.791  17.268  1.00  0.00     0.055 A 
ATOM     88  C   UNL     1      12.535   1.100  17.512  1.00  0.00     0.041 A 
ATOM     89  F   UNL     1      12.692   2.680  15.793  1.00  0.00    -0.206 F 
ATOM     90  C   UNL     1      11.963  -0.051  18.046  1.00  0.00     0.022 A 
BRANCH  87  91
ATOM     91  S   UNL     1      10.136  -2.158  18.008  1.00  0.00     0.124 S 
ATOM     92  O   UNL     1       8.758  -1.720  17.816  1.00  0.00    -0.237 OA
ATOM     93  O   UNL     1      10.561  -3.298  17.202  1.00  0.00    -0.237 OA
ATOM     94  O   UNL     1      10.595  -2.174  19.396  1.00  0.00    -0.744 OA
ENDBRANCH  87  91
ENDBRANCH  61  84
ENDBRANCH  35  36
ENDBRANCH  27  30
ENDBRANCH  25  26
ENDBRANCH  24  25
ENDBRANCH   1  24
TORSDOF 19
