REMARK SMILES Cc1ccc(Cl)c(Nc2ccccc2C(=O)NCC(=O)NCCCNC(=O)c2ccc(-c3c4nc(c(-c5cc(S(=O)(=O)[O-])ccc5F)c5ccc([nH]5)c(-c5cc(S(=O)(=O)[O-])ccc5F)c5nc(c(-c6cc(S(=O)(=O)[O-])ccc6F)c6ccc3[nH]6)C=C5)C=C4)cc2)c1Cl
REMARK SMILES IDX 22 1 21 2 19 3 20 4 18 6 17 7 15 8 16 9 14 11 9 12 10 13
REMARK SMILES IDX 11 14 13 15 12 16 8 17 7 19 1 20 2 21 3 22 91 23 4 24 92 25
REMARK SMILES IDX 5 26 6 27 23 28 24 29 25 30 26 31 27 33 28 34 29 35 90 36
REMARK SMILES IDX 30 37 89 38 31 39 32 40 33 41 83 42 34 43 88 44 82 45 84 46
REMARK SMILES IDX 35 47 87 48 81 49 80 50 36 52 68 53 48 54 67 55 49 56 52 57
REMARK SMILES IDX 66 58 85 59 50 60 51 61 65 63 86 64 53 65 37 66 38 67 46 68
REMARK SMILES IDX 39 69 45 70 47 71 44 72 40 73 41 74 42 75 43 76 69 77 70 78
REMARK SMILES IDX 78 79 71 80 77 81 79 82 76 83 72 84 73 85 74 86 75 87 54 88
REMARK SMILES IDX 55 89 63 90 56 91 62 92 64 93 61 94 57 95 58 96 59 97 60 98
REMARK H PARENT 21 5 17 10 8 18 25 32 84 51 52 62
REMARK Flexibility Score: inf
ROOT
ATOM      1  C   UNL     1      -1.740  -3.596   2.307  1.00  0.00     0.117 C 
ENDROOT
BRANCH   1   2
ATOM      2  N   UNL     1      -2.603  -2.439   2.321  1.00  0.00    -0.355 N 
ATOM      3  C   UNL     1      -2.220  -1.132   2.325  1.00  0.00     0.239 C 
ATOM      4  O   UNL     1      -3.087  -0.267   2.461  1.00  0.00    -0.273 OA
ATOM      5  H   UNL     1      -3.572  -2.613   2.328  1.00  0.00     0.163 HD
BRANCH   3   6
ATOM      6  C   UNL     1      -0.808  -0.775   1.874  1.00  0.00     0.216 C 
BRANCH   6   7
ATOM      7  N   UNL     1       0.410  -1.310   2.440  1.00  0.00    -0.343 N 
ATOM      8  C   UNL     1       1.512  -1.874   1.835  1.00  0.00     0.253 C 
ATOM      9  O   UNL     1       2.588  -1.662   2.405  1.00  0.00    -0.269 OA
ATOM     10  H   UNL     1       0.461  -1.263   3.422  1.00  0.00     0.164 HD
BRANCH   8  11
ATOM     11  C   UNL     1       1.496  -2.891   0.720  1.00  0.00     0.063 A 
ATOM     12  C   UNL     1       0.794  -2.933  -0.508  1.00  0.00     0.051 A 
ATOM     13  C   UNL     1       0.914  -4.103  -1.306  1.00  0.00     0.027 A 
ATOM     14  C   UNL     1       1.752  -5.164  -0.969  1.00  0.00     0.002 A 
ATOM     15  C   UNL     1       2.351  -3.986   1.029  1.00  0.00     0.016 A 
ATOM     16  C   UNL     1       2.493  -5.095   0.195  1.00  0.00     0.001 A 
BRANCH  12  17
ATOM     17  N   UNL     1       0.067  -1.903  -1.145  1.00  0.00    -0.352 N 
ATOM     18  H   UNL     1      -0.693  -2.234  -1.676  1.00  0.00     0.167 HD
BRANCH  17  19
ATOM     19  C   UNL     1       0.206  -0.493  -1.181  1.00  0.00     0.077 A 
ATOM     20  C   UNL     1       2.679   2.226  -0.124  1.00  0.00     0.046 C 
ATOM     21  C   UNL     1       1.415   1.541  -0.565  1.00  0.00    -0.030 A 
ATOM     22  C   UNL     1       0.206   2.252  -0.552  1.00  0.00     0.006 A 
ATOM     23  C   UNL     1       1.415   0.180  -0.927  1.00  0.00     0.069 A 
ATOM     24  C   UNL     1      -0.981   1.638  -0.938  1.00  0.00     0.023 A 
ATOM     25  Cl  UNL     1       2.938  -0.627  -1.160  1.00  0.00    -0.082 Cl
ATOM     26  C   UNL     1      -0.978   0.284  -1.262  1.00  0.00     0.066 A 
ATOM     27  Cl  UNL     1      -2.503  -0.463  -1.626  1.00  0.00    -0.082 Cl
ENDBRANCH  17  19
ENDBRANCH  12  17
ENDBRANCH   8  11
ENDBRANCH   6   7
ENDBRANCH   3   6
ENDBRANCH   1   2
BRANCH   1  28
ATOM     28  C   UNL     1      -1.249  -3.908   3.710  1.00  0.00     0.042 C 
BRANCH  28  29
ATOM     29  C   UNL     1      -2.401  -4.226   4.649  1.00  0.00     0.118 C 
BRANCH  29  30
ATOM     30  N   UNL     1      -3.106  -5.433   4.245  1.00  0.00    -0.352 N 
ATOM     31  C   UNL     1      -3.394  -6.544   4.995  1.00  0.00     0.251 C 
ATOM     32  H   UNL     1      -3.418  -5.454   3.311  1.00  0.00     0.163 HD
ATOM     33  O   UNL     1      -3.772  -7.571   4.448  1.00  0.00    -0.269 OA
BRANCH  31  34
ATOM     34  C   UNL     1      -3.215  -6.476   6.458  1.00  0.00     0.039 A 
ATOM     35  C   UNL     1      -2.584  -7.534   7.111  1.00  0.00     0.014 A 
ATOM     36  C   UNL     1      -3.644  -5.351   7.171  1.00  0.00     0.014 A 
ATOM     37  C   UNL     1      -2.344  -7.442   8.481  1.00  0.00     0.010 A 
ATOM     38  C   UNL     1      -3.317  -5.221   8.513  1.00  0.00     0.010 A 
ATOM     39  C   UNL     1      -2.680  -6.274   9.186  1.00  0.00    -0.014 A 
BRANCH  39  40
ATOM     40  C   UNL     1      -2.401  -6.149  10.637  1.00  0.00     0.031 A 
ATOM     41  C   UNL     1      -3.542  -5.985  11.605  1.00  0.00     0.074 A 
ATOM     42  C   UNL     1      -1.126  -6.138  11.072  1.00  0.00     0.049 A 
ATOM     43  N   UNL     1      -3.509  -5.811  12.900  1.00  0.00    -0.248 NA
ATOM     44  C   UNL     1      -4.899  -5.982  11.034  1.00  0.00     0.031 C 
ATOM     45  C   UNL     1       0.058  -6.245  10.216  1.00  0.00     0.029 A 
ATOM     46  N   UNL     1      -0.611  -6.032  12.338  1.00  0.00    -0.354 N 
ATOM     47  C   UNL     1      -4.835  -5.669  13.296  1.00  0.00     0.074 A 
ATOM     48  C   UNL     1      -5.638  -5.701  12.094  1.00  0.00     0.031 C 
ATOM     49  C   UNL     1       1.158  -6.237  10.985  1.00  0.00     0.029 A 
ATOM     50  C   UNL     1       0.764  -6.072  12.380  1.00  0.00     0.049 A 
ATOM     51  H   UNL     1      -1.172  -5.937  13.141  1.00  0.00     0.167 HD
ATOM     52  C   UNL     1      -5.336  -5.553  14.550  1.00  0.00     0.034 A 
ATOM     53  C   UNL     1       1.608  -5.975  13.426  1.00  0.00     0.034 A 
ATOM     54  C   UNL     1      -4.515  -5.533  15.736  1.00  0.00     0.049 A 
ATOM     55  C   UNL     1       1.028  -5.816  14.809  1.00  0.00     0.074 A 
ATOM     56  C   UNL     1      -4.913  -5.470  17.059  1.00  0.00     0.029 A 
ATOM     57  N   UNL     1      -3.125  -5.568  15.741  1.00  0.00    -0.354 N 
ATOM     58  N   UNL     1      -0.231  -5.739  15.174  1.00  0.00    -0.248 NA
ATOM     59  C   UNL     1       1.983  -5.744  15.921  1.00  0.00     0.031 C 
ATOM     60  C   UNL     1      -3.768  -5.388  17.858  1.00  0.00     0.029 A 
ATOM     61  C   UNL     1      -2.652  -5.492  17.042  1.00  0.00     0.049 A 
ATOM     62  H   UNL     1      -2.559  -5.636  14.938  1.00  0.00     0.167 HD
ATOM     63  C   UNL     1      -0.218  -5.643  16.563  1.00  0.00     0.074 A 
ATOM     64  C   UNL     1       1.172  -5.690  16.967  1.00  0.00     0.031 C 
ATOM     65  C   UNL     1      -1.260  -5.530  17.427  1.00  0.00     0.034 A 
BRANCH  52  66
ATOM     66  C   UNL     1      -6.834  -5.412  14.691  1.00  0.00     0.023 A 
ATOM     67  C   UNL     1      -7.716  -6.418  14.257  1.00  0.00     0.031 A 
ATOM     68  C   UNL     1      -7.391  -4.244  15.240  1.00  0.00     0.131 A 
ATOM     69  C   UNL     1      -9.102  -6.205  14.305  1.00  0.00     0.055 A 
ATOM     70  C   UNL     1      -8.772  -4.075  15.367  1.00  0.00     0.041 A 
ATOM     71  F   UNL     1      -6.604  -3.237  15.650  1.00  0.00    -0.206 F 
ATOM     72  C   UNL     1      -9.637  -5.052  14.883  1.00  0.00     0.022 A 
BRANCH  69  73
ATOM     73  S   UNL     1     -10.189  -7.386  13.461  1.00  0.00     0.124 S 
ATOM     74  O   UNL     1      -9.688  -7.321  12.090  1.00  0.00    -0.237 OA
ATOM     75  O   UNL     1      -9.925  -8.627  14.179  1.00  0.00    -0.237 OA
ATOM     76  O   UNL     1     -11.524  -6.823  13.655  1.00  0.00    -0.744 OA
ENDBRANCH  69  73
ENDBRANCH  52  66
BRANCH  53  77
ATOM     77  C   UNL     1       3.084  -6.019  13.214  1.00  0.00     0.023 A 
ATOM     78  C   UNL     1       3.864  -7.049  13.761  1.00  0.00     0.031 A 
ATOM     79  C   UNL     1       3.744  -5.005  12.496  1.00  0.00     0.131 A 
ATOM     80  C   UNL     1       5.261  -7.016  13.629  1.00  0.00     0.055 A 
ATOM     81  C   UNL     1       5.128  -5.009  12.315  1.00  0.00     0.041 A 
ATOM     82  F   UNL     1       3.047  -3.997  11.948  1.00  0.00    -0.206 F 
ATOM     83  C   UNL     1       5.897  -6.011  12.897  1.00  0.00     0.022 A 
BRANCH  80  84
ATOM     84  S   UNL     1       6.246  -8.256  14.513  1.00  0.00     0.124 S 
ATOM     85  O   UNL     1       5.826  -8.039  15.893  1.00  0.00    -0.237 OA
ATOM     86  O   UNL     1       5.797  -9.498  13.893  1.00  0.00    -0.237 OA
ATOM     87  O   UNL     1       7.624  -7.874  14.212  1.00  0.00    -0.744 OA
ENDBRANCH  80  84
ENDBRANCH  53  77
BRANCH  65  88
ATOM     88  C   UNL     1      -0.928  -5.500  18.900  1.00  0.00     0.023 A 
ATOM     89  C   UNL     1      -0.205  -4.442  19.477  1.00  0.00     0.031 A 
ATOM     90  C   UNL     1      -1.335  -6.556  19.736  1.00  0.00     0.131 A 
ATOM     91  C   UNL     1       0.143  -4.493  20.835  1.00  0.00     0.055 A 
ATOM     92  C   UNL     1      -1.047  -6.566  21.101  1.00  0.00     0.041 A 
ATOM     93  F   UNL     1      -2.026  -7.595  19.239  1.00  0.00    -0.206 F 
ATOM     94  C   UNL     1      -0.291  -5.538  21.655  1.00  0.00     0.022 A 
BRANCH  91  95
ATOM     95  S   UNL     1       1.261  -3.226  21.494  1.00  0.00     0.124 S 
ATOM     96  O   UNL     1       2.432  -3.381  20.638  1.00  0.00    -0.237 OA
ATOM     97  O   UNL     1       0.491  -2.001  21.306  1.00  0.00    -0.237 OA
ATOM     98  O   UNL     1       1.452  -3.629  22.886  1.00  0.00    -0.744 OA
ENDBRANCH  91  95
ENDBRANCH  65  88
ENDBRANCH  39  40
ENDBRANCH  31  34
ENDBRANCH  29  30
ENDBRANCH  28  29
ENDBRANCH   1  28
TORSDOF 17
