REMARK SMILES Cc1ccccc1CCNS(=O)(=O)c1ccc(C(=O)NCCCNC(=O)c2ccc(-c3c4nc(c(-c5cc(S(=O)(=O)[O-])ccc5F)c5ccc([nH]5)c(-c5cc(S(=O)(=O)[O-])ccc5F)c5nc(c(-c6cc(S(=O)(=O)[O-])ccc6F)c6ccc3[nH]6)C=C5)C=C4)cc2)o1
REMARK SMILES IDX 21 1 20 2 18 3 19 4 17 6 14 7 15 8 90 9 16 10 11 11 12 12
REMARK SMILES IDX 13 13 10 14 9 16 8 17 7 18 1 19 2 20 3 21 4 22 6 23 5 24
REMARK SMILES IDX 22 25 23 26 24 27 25 28 26 30 27 31 28 32 89 33 29 34 88 35
REMARK SMILES IDX 30 36 31 37 32 38 82 39 33 40 87 41 81 42 83 43 34 44 86 45
REMARK SMILES IDX 80 46 79 47 35 49 67 50 47 51 66 52 48 53 51 54 65 55 84 56
REMARK SMILES IDX 49 57 50 58 64 60 85 61 52 62 36 63 37 64 45 65 38 66 44 67
REMARK SMILES IDX 46 68 43 69 39 70 40 71 41 72 42 73 68 74 69 75 77 76 70 77
REMARK SMILES IDX 76 78 78 79 75 80 71 81 72 82 73 83 74 84 53 85 54 86 62 87
REMARK SMILES IDX 55 88 61 89 63 90 60 91 56 92 57 93 58 94 59 95
REMARK H PARENT 20 5 10 15 24 29 83 48 51 59
REMARK Flexibility Score: inf
ROOT
ATOM      1  C   UNL     1       1.791  10.389  -3.495  1.00  0.00     0.118 C 
ENDROOT
BRANCH   1   2
ATOM      2  N   UNL     1       2.670   9.284  -3.146  1.00  0.00    -0.349 N 
ATOM      3  C   UNL     1       2.376   7.974  -2.849  1.00  0.00     0.287 C 
ATOM      4  O   UNL     1       3.328   7.212  -2.665  1.00  0.00    -0.266 OA
ATOM      5  H   UNL     1       3.627   9.510  -3.118  1.00  0.00     0.163 HD
BRANCH   3   6
ATOM      6  C   UNL     1       0.997   7.516  -2.765  1.00  0.00     0.193 A 
ATOM      7  C   UNL     1      -0.549   5.896  -2.831  1.00  0.00     0.234 A 
ATOM      8  C   UNL     1      -1.208   7.091  -2.592  1.00  0.00     0.065 A 
ATOM      9  O   UNL     1       0.796   6.167  -2.912  1.00  0.00    -0.438 OA
ATOM     10  C   UNL     1      -0.230   8.109  -2.537  1.00  0.00     0.058 A 
BRANCH   7  11
ATOM     11  S   UNL     1      -1.170   4.235  -2.987  1.00  0.00     0.273 S 
ATOM     12  O   UNL     1      -0.463   3.622  -4.090  1.00  0.00    -0.204 OA
ATOM     13  O   UNL     1      -2.611   4.356  -2.987  1.00  0.00    -0.204 OA
BRANCH  11  14
ATOM     14  N   UNL     1      -0.771   3.389  -1.583  1.00  0.00    -0.208 NA
ATOM     15  H   UNL     1      -1.170   3.900  -0.795  1.00  0.00     0.141 HD
BRANCH  14  16
ATOM     16  C   UNL     1       0.673   3.182  -1.295  1.00  0.00     0.104 C 
BRANCH  16  17
ATOM     17  C   UNL     1       0.843   2.542   0.098  1.00  0.00     0.052 C 
BRANCH  17  18
ATOM     18  C   UNL     1       0.253   1.144   0.181  1.00  0.00    -0.044 A 
ATOM     19  C   UNL     1       2.497  -0.086  -0.134  1.00  0.00     0.044 C 
ATOM     20  C   UNL     1       0.998  -0.037  -0.007  1.00  0.00    -0.048 A 
ATOM     21  C   UNL     1       0.319  -1.271  -0.038  1.00  0.00     0.004 A 
ATOM     22  C   UNL     1      -1.066  -1.344   0.107  1.00  0.00     0.000 A 
ATOM     23  C   UNL     1      -1.139   1.040   0.390  1.00  0.00     0.004 A 
ATOM     24  C   UNL     1      -1.796  -0.186   0.331  1.00  0.00     0.000 A 
ENDBRANCH  17  18
ENDBRANCH  16  17
ENDBRANCH  14  16
ENDBRANCH  11  14
ENDBRANCH   7  11
ENDBRANCH   3   6
ENDBRANCH   1   2
BRANCH   1  25
ATOM     25  C   UNL     1       1.296  11.109  -2.246  1.00  0.00     0.042 C 
BRANCH  25  26
ATOM     26  C   UNL     1       2.197  12.258  -1.839  1.00  0.00     0.118 C 
BRANCH  26  27
ATOM     27  N   UNL     1       1.807  13.536  -2.423  1.00  0.00    -0.352 N 
ATOM     28  C   UNL     1       2.156  14.822  -2.052  1.00  0.00     0.251 C 
ATOM     29  H   UNL     1       1.204  13.473  -3.199  1.00  0.00     0.163 HD
ATOM     30  O   UNL     1       1.525  15.792  -2.464  1.00  0.00    -0.269 OA
BRANCH  28  31
ATOM     31  C   UNL     1       3.436  15.045  -1.336  1.00  0.00     0.039 A 
ATOM     32  C   UNL     1       4.292  15.996  -1.914  1.00  0.00     0.014 A 
ATOM     33  C   UNL     1       3.936  14.078  -0.479  1.00  0.00     0.014 A 
ATOM     34  C   UNL     1       5.657  15.766  -1.907  1.00  0.00     0.010 A 
ATOM     35  C   UNL     1       5.250  13.737  -0.630  1.00  0.00     0.010 A 
ATOM     36  C   UNL     1       6.087  14.553  -1.396  1.00  0.00    -0.014 A 
BRANCH  36  37
ATOM     37  C   UNL     1       7.430  14.040  -1.501  1.00  0.00     0.031 A 
ATOM     38  C   UNL     1       8.281  14.225  -0.321  1.00  0.00     0.074 A 
ATOM     39  C   UNL     1       7.700  13.203  -2.524  1.00  0.00     0.049 A 
ATOM     40  N   UNL     1       9.536  13.983  -0.284  1.00  0.00    -0.248 NA
ATOM     41  C   UNL     1       7.762  14.749   0.943  1.00  0.00     0.031 C 
ATOM     42  C   UNL     1       8.779  12.234  -2.652  1.00  0.00     0.029 A 
ATOM     43  N   UNL     1       7.138  13.261  -3.800  1.00  0.00    -0.354 N 
ATOM     44  C   UNL     1       9.909  13.976   1.041  1.00  0.00     0.074 A 
ATOM     45  C   UNL     1       8.811  14.578   1.748  1.00  0.00     0.031 C 
ATOM     46  C   UNL     1       8.999  12.006  -3.960  1.00  0.00     0.029 A 
ATOM     47  C   UNL     1       8.184  12.956  -4.699  1.00  0.00     0.049 A 
ATOM     48  H   UNL     1       6.204  13.471  -4.027  1.00  0.00     0.167 HD
ATOM     49  C   UNL     1      11.044  13.304   1.371  1.00  0.00     0.034 A 
ATOM     50  C   UNL     1       8.669  13.955  -5.502  1.00  0.00     0.034 A 
ATOM     51  C   UNL     1      11.726  12.858   0.152  1.00  0.00     0.049 A 
ATOM     52  C   UNL     1      10.092  14.364  -5.142  1.00  0.00     0.074 A 
ATOM     53  C   UNL     1      11.777  11.669  -0.555  1.00  0.00     0.029 A 
ATOM     54  N   UNL     1      12.194  13.830  -0.706  1.00  0.00    -0.354 N 
ATOM     55  N   UNL     1      10.723  13.964  -4.068  1.00  0.00    -0.248 NA
ATOM     56  C   UNL     1      10.903  15.278  -5.942  1.00  0.00     0.031 C 
ATOM     57  C   UNL     1      12.206  11.976  -1.887  1.00  0.00     0.029 A 
ATOM     58  C   UNL     1      12.449  13.337  -1.965  1.00  0.00     0.049 A 
ATOM     59  H   UNL     1      12.330  14.771  -0.447  1.00  0.00     0.167 HD
ATOM     60  C   UNL     1      11.968  14.531  -4.012  1.00  0.00     0.074 A 
ATOM     61  C   UNL     1      12.020  15.374  -5.197  1.00  0.00     0.031 C 
ATOM     62  C   UNL     1      12.855  14.279  -2.998  1.00  0.00     0.034 A 
BRANCH  49  63
ATOM     63  C   UNL     1      11.447  12.846   2.748  1.00  0.00     0.023 A 
ATOM     64  C   UNL     1      12.438  11.848   2.825  1.00  0.00     0.031 A 
ATOM     65  C   UNL     1      10.918  13.261   3.986  1.00  0.00     0.131 A 
ATOM     66  C   UNL     1      12.815  11.271   4.046  1.00  0.00     0.055 A 
ATOM     67  C   UNL     1      11.282  12.676   5.207  1.00  0.00     0.041 A 
ATOM     68  F   UNL     1      10.049  14.269   4.099  1.00  0.00    -0.206 F 
ATOM     69  C   UNL     1      12.232  11.669   5.243  1.00  0.00     0.022 A 
BRANCH  66  70
ATOM     70  S   UNL     1      14.080   9.979   4.029  1.00  0.00     0.124 S 
ATOM     71  O   UNL     1      13.444   8.941   3.224  1.00  0.00    -0.237 OA
ATOM     72  O   UNL     1      15.214  10.666   3.421  1.00  0.00    -0.237 OA
ATOM     73  O   UNL     1      14.244   9.650   5.444  1.00  0.00    -0.744 OA
ENDBRANCH  66  70
ENDBRANCH  49  63
BRANCH  50  74
ATOM     74  C   UNL     1       7.555  14.860  -5.960  1.00  0.00     0.023 A 
ATOM     75  C   UNL     1       6.463  14.225  -6.603  1.00  0.00     0.031 A 
ATOM     76  C   UNL     1       7.312  16.092  -5.338  1.00  0.00     0.131 A 
ATOM     77  C   UNL     1       5.152  14.679  -6.380  1.00  0.00     0.055 A 
ATOM     78  C   UNL     1       6.009  16.601  -5.221  1.00  0.00     0.041 A 
ATOM     79  F   UNL     1       8.296  16.743  -4.699  1.00  0.00    -0.206 F 
ATOM     80  C   UNL     1       4.917  15.862  -5.681  1.00  0.00     0.022 A 
BRANCH  77  81
ATOM     81  S   UNL     1       3.783  13.527  -6.724  1.00  0.00     0.124 S 
ATOM     82  O   UNL     1       3.703  13.573  -8.180  1.00  0.00    -0.237 OA
ATOM     83  O   UNL     1       4.273  12.275  -6.147  1.00  0.00    -0.237 OA
ATOM     84  O   UNL     1       2.641  14.098  -6.012  1.00  0.00    -0.744 OA
ENDBRANCH  77  81
ENDBRANCH  50  74
BRANCH  62  85
ATOM     85  C   UNL     1      14.206  14.942  -2.890  1.00  0.00     0.023 A 
ATOM     86  C   UNL     1      14.989  15.181  -4.022  1.00  0.00     0.031 A 
ATOM     87  C   UNL     1      14.781  15.312  -1.648  1.00  0.00     0.131 A 
ATOM     88  C   UNL     1      16.212  15.863  -3.914  1.00  0.00     0.055 A 
ATOM     89  C   UNL     1      16.052  15.876  -1.534  1.00  0.00     0.041 A 
ATOM     90  F   UNL     1      14.117  15.204  -0.489  1.00  0.00    -0.206 F 
ATOM     91  C   UNL     1      16.767  16.182  -2.677  1.00  0.00     0.022 A 
BRANCH  88  92
ATOM     92  S   UNL     1      16.989  16.449  -5.436  1.00  0.00     0.124 S 
ATOM     93  O   UNL     1      17.110  15.227  -6.223  1.00  0.00    -0.237 OA
ATOM     94  O   UNL     1      16.002  17.415  -5.913  1.00  0.00    -0.237 OA
ATOM     95  O   UNL     1      18.251  17.026  -4.978  1.00  0.00    -0.744 OA
ENDBRANCH  88  92
ENDBRANCH  62  85
ENDBRANCH  36  37
ENDBRANCH  28  31
ENDBRANCH  26  27
ENDBRANCH  25  26
ENDBRANCH   1  25
TORSDOF 18
