REMARK SMILES Nc1nccc(N2CCC[C@@](Cc3ccc(F)cc3F)(C(=O)NCCCNC(=O)c3ccc(-c4c5nc(c(-c6cc(S(=O)(=O)[O-])ccc6F)c6ccc([nH]6)c(-c6cc(S(=O)(=O)[O-])ccc6F)c6nc(c(-c7cc(S(=O)(=O)[O-])ccc7F)c7ccc4[nH]7)C=C6)C=C5)cc3)C2)n1
REMARK SMILES IDX 25 1 24 2 23 3 21 4 22 5 11 7 7 8 8 9 93 10 9 11 10 12 6 13
REMARK SMILES IDX 2 14 3 15 94 16 4 17 5 18 1 19 12 22 13 23 14 24 19 25 15 26
REMARK SMILES IDX 18 27 20 28 16 29 17 30 26 31 27 32 28 33 29 35 30 36 31 37
REMARK SMILES IDX 92 38 32 39 91 40 33 41 34 42 35 43 85 44 36 45 90 46 84 47
REMARK SMILES IDX 86 48 37 49 89 50 83 51 82 52 38 54 70 55 50 56 69 57 51 58
REMARK SMILES IDX 54 59 68 60 87 61 52 62 53 63 67 65 88 66 55 67 39 68 40 69
REMARK SMILES IDX 48 70 41 71 47 72 49 73 46 74 42 75 43 76 44 77 45 78 71 79
REMARK SMILES IDX 72 80 80 81 73 82 79 83 81 84 78 85 74 86 75 87 76 88 77 89
REMARK SMILES IDX 56 90 57 91 65 92 58 93 64 94 66 95 63 96 59 97 60 98 61 99
REMARK SMILES IDX 62 100
REMARK H PARENT 23 6 1 20 1 21 27 34 86 53 54 64
REMARK Flexibility Score: inf
ROOT
ATOM      1  C   UNL     1       5.467  -7.112  -2.821  1.00  0.00     0.042 C 
ENDROOT
BRANCH   1   2
ATOM      2  C   UNL     1       4.835  -5.773  -3.107  1.00  0.00     0.117 C 
BRANCH   2   3
ATOM      3  N   UNL     1       3.392  -5.762  -3.143  1.00  0.00    -0.355 N 
ATOM      4  C   UNL     1       2.527  -4.800  -2.714  1.00  0.00     0.228 C 
ATOM      5  O   UNL     1       1.400  -4.834  -3.218  1.00  0.00    -0.274 OA
ATOM      6  H   UNL     1       2.973  -6.562  -3.533  1.00  0.00     0.163 HD
BRANCH   4   7
ATOM      7  C   UNL     1       2.913  -3.734  -1.663  1.00  0.00     0.071 C 
ATOM      8  N   UNL     1       1.806  -2.292  -0.014  1.00  0.00    -0.355 N 
ATOM      9  C   UNL     1       2.342  -2.899   1.187  1.00  0.00     0.118 C 
ATOM     10  C   UNL     1       1.539  -3.185  -1.136  1.00  0.00     0.135 C 
ATOM     11  C   UNL     1       3.684  -3.516   0.827  1.00  0.00     0.023 C 
ATOM     12  C   UNL     1       3.611  -4.390  -0.430  1.00  0.00     0.021 C 
BRANCH   8  13
ATOM     13  C   UNL     1       1.081  -1.125   0.091  1.00  0.00     0.134 A 
ATOM     14  C   UNL     1      -0.900   0.008   0.024  1.00  0.00     0.221 A 
ATOM     15  N   UNL     1      -0.322   1.206   0.147  1.00  0.00    -0.222 NA
ATOM     16  N   UNL     1      -0.253  -1.159  -0.028  1.00  0.00    -0.196 NA
ATOM     17  C   UNL     1       1.016   1.206   0.244  1.00  0.00     0.119 A 
ATOM     18  C   UNL     1       1.769   0.062   0.243  1.00  0.00     0.067 A 
BRANCH  14  19
ATOM     19  N   UNL     1      -2.262  -0.025  -0.046  1.00  0.00    -0.368 N 
ATOM     20  H   UNL     1      -2.777   0.813  -0.011  1.00  0.00     0.159 HD
ATOM     21  H   UNL     1      -2.730  -0.888  -0.132  1.00  0.00     0.159 HD
ENDBRANCH  14  19
ENDBRANCH   8  13
BRANCH   7  22
ATOM     22  C   UNL     1       3.638  -2.497  -2.306  1.00  0.00     0.057 C 
BRANCH  22  23
ATOM     23  C   UNL     1       4.978  -2.644  -2.987  1.00  0.00    -0.011 A 
ATOM     24  C   UNL     1       5.059  -2.861  -4.373  1.00  0.00     0.010 A 
ATOM     25  C   UNL     1       6.170  -2.599  -2.250  1.00  0.00     0.129 A 
ATOM     26  C   UNL     1       6.295  -3.125  -4.973  1.00  0.00     0.040 A 
ATOM     27  C   UNL     1       7.402  -2.858  -2.839  1.00  0.00     0.078 A 
ATOM     28  F   UNL     1       6.132  -2.345  -0.935  1.00  0.00    -0.207 F 
ATOM     29  C   UNL     1       7.450  -3.141  -4.196  1.00  0.00     0.126 A 
ATOM     30  F   UNL     1       8.623  -3.448  -4.763  1.00  0.00    -0.207 F 
ENDBRANCH  22  23
ENDBRANCH   7  22
ENDBRANCH   4   7
ENDBRANCH   2   3
ENDBRANCH   1   2
BRANCH   1  31
ATOM     31  C   UNL     1       5.449  -8.032  -4.028  1.00  0.00     0.118 C 
BRANCH  31  32
ATOM     32  N   UNL     1       6.108  -7.455  -5.201  1.00  0.00    -0.352 N 
ATOM     33  C   UNL     1       7.227  -7.853  -5.889  1.00  0.00     0.251 C 
ATOM     34  H   UNL     1       5.675  -6.646  -5.557  1.00  0.00     0.163 HD
ATOM     35  O   UNL     1       7.717  -7.102  -6.730  1.00  0.00    -0.269 OA
BRANCH  33  36
ATOM     36  C   UNL     1       7.838  -9.164  -5.603  1.00  0.00     0.039 A 
ATOM     37  C   UNL     1       9.227  -9.291  -5.592  1.00  0.00     0.014 A 
ATOM     38  C   UNL     1       7.031 -10.267  -5.322  1.00  0.00     0.014 A 
ATOM     39  C   UNL     1       9.799 -10.505  -5.210  1.00  0.00     0.010 A 
ATOM     40  C   UNL     1       7.597 -11.422  -4.809  1.00  0.00     0.010 A 
ATOM     41  C   UNL     1       8.989 -11.562  -4.761  1.00  0.00    -0.014 A 
BRANCH  41  42
ATOM     42  C   UNL     1       9.575 -12.824  -4.243  1.00  0.00     0.031 A 
ATOM     43  C   UNL     1       9.229 -14.137  -4.896  1.00  0.00     0.074 A 
ATOM     44  C   UNL     1      10.357 -12.784  -3.145  1.00  0.00     0.049 A 
ATOM     45  N   UNL     1       9.592 -15.347  -4.557  1.00  0.00    -0.248 NA
ATOM     46  C   UNL     1       8.324 -14.092  -6.058  1.00  0.00     0.031 C 
ATOM     47  C   UNL     1      10.693 -11.574  -2.387  1.00  0.00     0.029 A 
ATOM     48  N   UNL     1      11.010 -13.783  -2.469  1.00  0.00    -0.354 N 
ATOM     49  C   UNL     1       8.946 -16.200  -5.446  1.00  0.00     0.074 A 
ATOM     50  C   UNL     1       8.116 -15.377  -6.296  1.00  0.00     0.031 C 
ATOM     51  C   UNL     1      11.521 -11.897  -1.381  1.00  0.00     0.029 A 
ATOM     52  C   UNL     1      11.732 -13.339  -1.384  1.00  0.00     0.049 A 
ATOM     53  H   UNL     1      10.966 -14.730  -2.735  1.00  0.00     0.167 HD
ATOM     54  C   UNL     1       9.059 -17.545  -5.558  1.00  0.00     0.034 A 
ATOM     55  C   UNL     1      12.473 -14.021  -0.487  1.00  0.00     0.034 A 
ATOM     56  C   UNL     1       9.921 -18.341  -4.722  1.00  0.00     0.049 A 
ATOM     57  C   UNL     1      12.594 -15.516  -0.652  1.00  0.00     0.074 A 
ATOM     58  C   UNL     1      10.183 -19.697  -4.803  1.00  0.00     0.029 A 
ATOM     59  N   UNL     1      10.657 -17.856  -3.649  1.00  0.00    -0.354 N 
ATOM     60  N   UNL     1      12.045 -16.295  -1.556  1.00  0.00    -0.248 NA
ATOM     61  C   UNL     1      13.447 -16.220   0.312  1.00  0.00     0.031 C 
ATOM     62  C   UNL     1      11.010 -20.045  -3.731  1.00  0.00     0.029 A 
ATOM     63  C   UNL     1      11.340 -18.893  -3.035  1.00  0.00     0.049 A 
ATOM     64  H   UNL     1      10.689 -16.913  -3.366  1.00  0.00     0.167 HD
ATOM     65  C   UNL     1      12.512 -17.578  -1.283  1.00  0.00     0.074 A 
ATOM     66  C   UNL     1      13.412 -17.458  -0.155  1.00  0.00     0.031 C 
ATOM     67  C   UNL     1      12.223 -18.752  -1.901  1.00  0.00     0.034 A 
BRANCH  54  68
ATOM     68  C   UNL     1       8.223 -18.242  -6.605  1.00  0.00     0.023 A 
ATOM     69  C   UNL     1       8.397 -18.004  -7.979  1.00  0.00     0.031 A 
ATOM     70  C   UNL     1       7.245 -19.177  -6.218  1.00  0.00     0.131 A 
ATOM     71  C   UNL     1       7.576 -18.654  -8.913  1.00  0.00     0.055 A 
ATOM     72  C   UNL     1       6.483 -19.876  -7.155  1.00  0.00     0.041 A 
ATOM     73  F   UNL     1       7.014 -19.426  -4.920  1.00  0.00    -0.206 F 
ATOM     74  C   UNL     1       6.640 -19.610  -8.512  1.00  0.00     0.022 A 
BRANCH  71  75
ATOM     75  S   UNL     1       7.671 -18.152 -10.653  1.00  0.00     0.124 S 
ATOM     76  O   UNL     1       7.298 -16.742 -10.575  1.00  0.00    -0.237 OA
ATOM     77  O   UNL     1       9.064 -18.427 -10.986  1.00  0.00    -0.237 OA
ATOM     78  O   UNL     1       6.691 -19.013 -11.313  1.00  0.00    -0.744 OA
ENDBRANCH  71  75
ENDBRANCH  54  68
BRANCH  55  79
ATOM     79  C   UNL     1      13.142 -13.319   0.648  1.00  0.00     0.023 A 
ATOM     80  C   UNL     1      14.538 -13.351   0.800  1.00  0.00     0.031 A 
ATOM     81  C   UNL     1      12.390 -12.664   1.640  1.00  0.00     0.131 A 
ATOM     82  C   UNL     1      15.131 -12.807   1.951  1.00  0.00     0.055 A 
ATOM     83  C   UNL     1      12.991 -12.062   2.747  1.00  0.00     0.041 A 
ATOM     84  F   UNL     1      11.053 -12.597   1.546  1.00  0.00    -0.206 F 
ATOM     85  C   UNL     1      14.369 -12.149   2.918  1.00  0.00     0.022 A 
BRANCH  82  86
ATOM     86  S   UNL     1      16.902 -13.090   2.229  1.00  0.00     0.124 S 
ATOM     87  O   UNL     1      16.987 -14.543   2.143  1.00  0.00    -0.237 OA
ATOM     88  O   UNL     1      17.503 -12.345   1.128  1.00  0.00    -0.237 OA
ATOM     89  O   UNL     1      17.129 -12.528   3.559  1.00  0.00    -0.744 OA
ENDBRANCH  82  86
ENDBRANCH  55  79
BRANCH  67  90
ATOM     90  C   UNL     1      12.922 -19.985  -1.383  1.00  0.00     0.023 A 
ATOM     91  C   UNL     1      12.701 -20.462  -0.079  1.00  0.00     0.031 A 
ATOM     92  C   UNL     1      13.844 -20.672  -2.191  1.00  0.00     0.131 A 
ATOM     93  C   UNL     1      13.452 -21.543   0.404  1.00  0.00     0.055 A 
ATOM     94  C   UNL     1      14.530 -21.795  -1.731  1.00  0.00     0.041 A 
ATOM     95  F   UNL     1      14.097 -20.259  -3.444  1.00  0.00    -0.206 F 
ATOM     96  C   UNL     1      14.351 -22.225  -0.419  1.00  0.00     0.022 A 
BRANCH  93  97
ATOM     97  S   UNL     1      13.333 -21.960   2.165  1.00  0.00     0.124 S 
ATOM     98  O   UNL     1      13.703 -20.699   2.800  1.00  0.00    -0.237 OA
ATOM     99  O   UNL     1      11.935 -22.354   2.298  1.00  0.00    -0.237 OA
ATOM    100  O   UNL     1      14.301 -23.043   2.326  1.00  0.00    -0.744 OA
ENDBRANCH  93  97
ENDBRANCH  67  90
ENDBRANCH  41  42
ENDBRANCH  33  36
ENDBRANCH  31  32
ENDBRANCH   1  31
TORSDOF 17
