REMARK SMILES O=C(NCCCNC(=O)c1ccc(-c2c3nc(c(-c4cc(S(=O)(=O)[O-])ccc4F)c4ccc([nH]4)c(-c4cc(S(=O)(=O)[O-])ccc4F)c4nc(c(-c5cc(S(=O)(=O)[O-])ccc5F)c5ccc2[nH]5)C=C4)C=C3)cc1)c1ccc(NS(=O)(=O)Cc2c(Cl)cccc2Cl)cc1
REMARK SMILES IDX 4 1 3 2 1 3 2 4 73 6 74 7 91 8 75 9 90 10 76 11 77 12 78 14
REMARK SMILES IDX 79 15 80 16 81 17 82 18 83 19 88 20 84 21 85 22 87 23 89 24
REMARK SMILES IDX 86 25 5 26 6 27 7 28 8 29 9 31 10 32 11 33 72 34 12 35 71 36
REMARK SMILES IDX 13 37 14 38 15 39 65 40 16 41 70 42 64 43 66 44 17 45 69 46
REMARK SMILES IDX 63 47 62 48 18 50 50 51 30 52 49 53 31 54 34 55 48 56 67 57
REMARK SMILES IDX 32 58 33 59 47 61 68 62 35 63 19 64 20 65 28 66 21 67 27 68
REMARK SMILES IDX 29 69 26 70 22 71 23 72 24 73 25 74 51 75 52 76 60 77 53 78
REMARK SMILES IDX 59 79 61 80 58 81 54 82 55 83 56 84 57 85 36 86 37 87 45 88
REMARK SMILES IDX 38 89 44 90 46 91 43 92 39 93 40 94 41 95 42 96
REMARK H PARENT 3 5 77 13 7 30 66 49 34 60
REMARK Flexibility Score: inf
ROOT
ATOM      1  C   UNL     1       4.206   0.613   0.975  1.00  0.00     0.118 C 
ENDROOT
BRANCH   1   2
ATOM      2  N   UNL     1       2.754   0.570   0.861  1.00  0.00    -0.352 N 
ATOM      3  O   UNL     1       0.767  -0.013  -0.056  1.00  0.00    -0.269 OA
ATOM      4  C   UNL     1       1.977  -0.188   0.022  1.00  0.00     0.251 C 
ATOM      5  H   UNL     1       2.263   1.167   1.471  1.00  0.00     0.163 HD
BRANCH   4   6
ATOM      6  C   UNL     1       2.626  -1.205  -0.820  1.00  0.00     0.039 A 
ATOM      7  C   UNL     1       3.308  -2.282  -0.243  1.00  0.00     0.016 A 
ATOM      8  C   UNL     1       2.572  -1.054  -2.203  1.00  0.00     0.016 A 
ATOM      9  C   UNL     1       4.033  -3.158  -1.053  1.00  0.00     0.027 A 
ATOM     10  C   UNL     1       3.311  -1.921  -3.003  1.00  0.00     0.027 A 
ATOM     11  C   UNL     1       4.098  -2.928  -2.426  1.00  0.00     0.049 A 
BRANCH  11  12
ATOM     12  N   UNL     1       4.942  -3.633  -3.316  1.00  0.00    -0.283 N 
ATOM     13  H   UNL     1       4.804  -3.460  -4.275  1.00  0.00     0.180 HD
BRANCH  12  14
ATOM     14  S   UNL     1       6.126  -4.710  -2.934  1.00  0.00     0.237 S 
ATOM     15  O   UNL     1       5.495  -5.826  -2.256  1.00  0.00    -0.206 OA
ATOM     16  O   UNL     1       6.823  -4.949  -4.185  1.00  0.00    -0.206 OA
BRANCH  14  17
ATOM     17  C   UNL     1       7.313  -3.993  -1.798  1.00  0.00     0.198 C 
BRANCH  17  18
ATOM     18  C   UNL     1       7.412  -2.506  -1.515  1.00  0.00     0.006 A 
ATOM     19  C   UNL     1       7.862  -2.131  -0.215  1.00  0.00     0.046 A 
ATOM     20  C   UNL     1       7.276  -1.454  -2.436  1.00  0.00     0.046 A 
ATOM     21  Cl  UNL     1       8.297  -3.302   0.995  1.00  0.00    -0.084 Cl
ATOM     22  C   UNL     1       8.057  -0.796   0.161  1.00  0.00     0.021 A 
ATOM     23  C   UNL     1       7.420  -0.110  -2.038  1.00  0.00     0.021 A 
ATOM     24  Cl  UNL     1       7.065  -1.684  -4.134  1.00  0.00    -0.084 Cl
ATOM     25  C   UNL     1       7.812   0.220  -0.746  1.00  0.00     0.003 A 
ENDBRANCH  17  18
ENDBRANCH  14  17
ENDBRANCH  12  14
ENDBRANCH  11  12
ENDBRANCH   4   6
ENDBRANCH   1   2
BRANCH   1  26
ATOM     26  C   UNL     1       4.774   1.992   0.665  1.00  0.00     0.042 C 
BRANCH  26  27
ATOM     27  C   UNL     1       4.367   3.081   1.648  1.00  0.00     0.118 C 
BRANCH  27  28
ATOM     28  N   UNL     1       4.899   2.860   2.986  1.00  0.00    -0.352 N 
ATOM     29  C   UNL     1       5.682   3.678   3.768  1.00  0.00     0.251 C 
ATOM     30  H   UNL     1       4.662   1.995   3.392  1.00  0.00     0.163 HD
ATOM     31  O   UNL     1       6.171   3.231   4.802  1.00  0.00    -0.269 OA
BRANCH  29  32
ATOM     32  C   UNL     1       5.962   5.069   3.348  1.00  0.00     0.039 A 
ATOM     33  C   UNL     1       7.258   5.575   3.486  1.00  0.00     0.014 A 
ATOM     34  C   UNL     1       4.954   5.875   2.814  1.00  0.00     0.014 A 
ATOM     35  C   UNL     1       7.561   6.855   3.009  1.00  0.00     0.010 A 
ATOM     36  C   UNL     1       5.274   7.113   2.266  1.00  0.00     0.010 A 
ATOM     37  C   UNL     1       6.582   7.616   2.353  1.00  0.00    -0.014 A 
BRANCH  37  38
ATOM     38  C   UNL     1       6.876   8.947   1.758  1.00  0.00     0.031 A 
ATOM     39  C   UNL     1       6.148  10.163   2.262  1.00  0.00     0.074 A 
ATOM     40  C   UNL     1       7.709   9.048   0.704  1.00  0.00     0.049 A 
ATOM     41  N   UNL     1       6.101  11.371   1.764  1.00  0.00    -0.248 NA
ATOM     42  C   UNL     1       5.332   9.976   3.470  1.00  0.00     0.031 C 
ATOM     43  C   UNL     1       8.465   7.943   0.111  1.00  0.00     0.029 A 
ATOM     44  N   UNL     1       8.043  10.131  -0.071  1.00  0.00    -0.354 N 
ATOM     45  C   UNL     1       5.228  12.083   2.580  1.00  0.00     0.074 A 
ATOM     46  C   UNL     1       4.726  11.149   3.567  1.00  0.00     0.031 C 
ATOM     47  C   UNL     1       9.182   8.408  -0.925  1.00  0.00     0.029 A 
ATOM     48  C   UNL     1       8.895   9.827  -1.108  1.00  0.00     0.049 A 
ATOM     49  H   UNL     1       7.705  11.040   0.099  1.00  0.00     0.167 HD
ATOM     50  C   UNL     1       4.891  13.396   2.525  1.00  0.00     0.034 A 
ATOM     51  C   UNL     1       9.371  10.597  -2.107  1.00  0.00     0.034 A 
ATOM     52  C   UNL     1       5.413  14.315   1.542  1.00  0.00     0.049 A 
ATOM     53  C   UNL     1       8.955  12.044  -2.178  1.00  0.00     0.074 A 
ATOM     54  C   UNL     1       5.171  15.672   1.413  1.00  0.00     0.029 A 
ATOM     55  N   UNL     1       6.282  13.970   0.514  1.00  0.00    -0.354 N 
ATOM     56  N   UNL     1       8.138  12.708  -1.393  1.00  0.00    -0.248 NA
ATOM     57  C   UNL     1       9.528  12.846  -3.266  1.00  0.00     0.031 C 
ATOM     58  C   UNL     1       5.843  16.133   0.275  1.00  0.00     0.029 A 
ATOM     59  C   UNL     1       6.567  15.082  -0.265  1.00  0.00     0.049 A 
ATOM     60  H   UNL     1       6.644  13.067   0.361  1.00  0.00     0.167 HD
ATOM     61  C   UNL     1       8.132  14.016  -1.870  1.00  0.00     0.074 A 
ATOM     62  C   UNL     1       9.025  14.046  -3.010  1.00  0.00     0.031 C 
ATOM     63  C   UNL     1       7.460  15.097  -1.400  1.00  0.00     0.034 A 
BRANCH  50  64
ATOM     64  C   UNL     1       3.889  13.894   3.541  1.00  0.00     0.023 A 
ATOM     65  C   UNL     1       4.148  13.833   4.921  1.00  0.00     0.031 A 
ATOM     66  C   UNL     1       2.635  14.381   3.130  1.00  0.00     0.131 A 
ATOM     67  C   UNL     1       3.136  14.151   5.839  1.00  0.00     0.055 A 
ATOM     68  C   UNL     1       1.666  14.789   4.049  1.00  0.00     0.041 A 
ATOM     69  F   UNL     1       2.320  14.446   1.827  1.00  0.00    -0.206 F 
ATOM     70  C   UNL     1       1.905  14.654   5.414  1.00  0.00     0.022 A 
BRANCH  67  71
ATOM     71  S   UNL     1       3.391  13.722   7.583  1.00  0.00     0.124 S 
ATOM     72  O   UNL     1       3.632  12.283   7.499  1.00  0.00    -0.237 OA
ATOM     73  O   UNL     1       4.540  14.542   7.946  1.00  0.00    -0.237 OA
ATOM     74  O   UNL     1       2.128  14.097   8.217  1.00  0.00    -0.744 OA
ENDBRANCH  67  71
ENDBRANCH  50  64
BRANCH  51  75
ATOM     75  C   UNL     1      10.286  10.019  -3.131  1.00  0.00     0.023 A 
ATOM     76  C   UNL     1      11.621  10.444  -3.221  1.00  0.00     0.031 A 
ATOM     77  C   UNL     1       9.836   9.054  -4.050  1.00  0.00     0.131 A 
ATOM     78  C   UNL     1      12.449   9.936  -4.234  1.00  0.00     0.055 A 
ATOM     79  C   UNL     1      10.677   8.517  -5.025  1.00  0.00     0.041 A 
ATOM     80  F   UNL     1       8.571   8.607  -4.000  1.00  0.00    -0.206 F 
ATOM     81  C   UNL     1      11.990   8.966  -5.128  1.00  0.00     0.022 A 
BRANCH  78  82
ATOM     82  S   UNL     1      14.123  10.612  -4.406  1.00  0.00     0.124 S 
ATOM     83  O   UNL     1      13.848  12.022  -4.654  1.00  0.00    -0.237 OA
ATOM     84  O   UNL     1      14.713  10.290  -3.111  1.00  0.00    -0.237 OA
ATOM     85  O   UNL     1      14.673   9.872  -5.539  1.00  0.00    -0.744 OA
ENDBRANCH  78  82
ENDBRANCH  51  75
BRANCH  63  86
ATOM     86  C   UNL     1       7.720  16.419  -2.078  1.00  0.00     0.023 A 
ATOM     87  C   UNL     1       7.292  16.683  -3.390  1.00  0.00     0.031 A 
ATOM     88  C   UNL     1       8.407  17.435  -1.388  1.00  0.00     0.131 A 
ATOM     89  C   UNL     1       7.594  17.917  -3.988  1.00  0.00     0.055 A 
ATOM     90  C   UNL     1       8.657  18.679  -1.968  1.00  0.00     0.041 A 
ATOM     91  F   UNL     1       8.840  17.234  -0.133  1.00  0.00    -0.206 F 
ATOM     92  C   UNL     1       8.258  18.922  -3.279  1.00  0.00     0.022 A 
BRANCH  89  93
ATOM     93  S   UNL     1       7.169  18.170  -5.733  1.00  0.00     0.124 S 
ATOM     94  O   UNL     1       7.927  17.108  -6.387  1.00  0.00    -0.237 OA
ATOM     95  O   UNL     1       5.718  18.009  -5.728  1.00  0.00    -0.237 OA
ATOM     96  O   UNL     1       7.639  19.527  -6.008  1.00  0.00    -0.744 OA
ENDBRANCH  89  93
ENDBRANCH  63  86
ENDBRANCH  37  38
ENDBRANCH  29  32
ENDBRANCH  27  28
ENDBRANCH  26  27
ENDBRANCH   1  26
TORSDOF 17
