REMARK SMILES COc1ccc(NC(=O)NCc2ccc(C(=O)NCCCNC(=O)c3ccc(-c4c5nc(c(-c6cc(S(=O)(=O)[O-])ccc6F)c6ccc([nH]6)c(-c6cc(S(=O)(=O)[O-])ccc6F)c6nc(c(-c7cc(S(=O)(=O)[O-])ccc7F)c7ccc4[nH]7)C=C6)C=C5)cc3)cc2)c(OC)c1
REMARK SMILES IDX 19 1 18 2 16 3 17 4 15 6 12 7 13 8 89 9 14 10 88 11 11 12
REMARK SMILES IDX 10 13 7 14 8 15 9 17 6 19 3 20 4 21 93 22 5 23 90 24 2 25
REMARK SMILES IDX 1 26 91 27 92 28 20 29 21 30 22 31 23 32 24 34 25 35 26 36
REMARK SMILES IDX 87 37 27 38 86 39 28 40 29 41 30 42 80 43 31 44 85 45 79 46
REMARK SMILES IDX 81 47 32 48 84 49 78 50 77 51 33 53 65 54 45 55 64 56 46 57
REMARK SMILES IDX 49 58 63 59 82 60 47 61 48 62 62 64 83 65 50 66 34 67 35 68
REMARK SMILES IDX 43 69 36 70 42 71 44 72 41 73 37 74 38 75 39 76 40 77 66 78
REMARK SMILES IDX 67 79 75 80 68 81 74 82 76 83 73 84 69 85 70 86 71 87 72 88
REMARK SMILES IDX 51 89 52 90 60 91 53 92 59 93 61 94 58 95 54 96 55 97 56 98
REMARK SMILES IDX 57 99
REMARK H PARENT 18 5 7 16 10 18 22 33 81 52 49 63
REMARK Flexibility Score: inf
ROOT
ATOM      1  C   UNL     1      -5.644   2.851   0.549  1.00  0.00     0.118 C 
ENDROOT
BRANCH   1   2
ATOM      2  N   UNL     1      -5.553   4.174   1.146  1.00  0.00    -0.352 N 
ATOM      3  C   UNL     1      -4.803   5.283   0.838  1.00  0.00     0.251 C 
ATOM      4  O   UNL     1      -5.045   6.323   1.452  1.00  0.00    -0.269 OA
ATOM      5  H   UNL     1      -6.144   4.299   1.923  1.00  0.00     0.163 HD
BRANCH   3   6
ATOM      6  C   UNL     1      -3.750   5.301  -0.218  1.00  0.00     0.039 A 
ATOM      7  C   UNL     1      -1.824   5.466  -2.292  1.00  0.00    -0.029 A 
ATOM      8  C   UNL     1      -2.469   6.619  -1.838  1.00  0.00     0.006 A 
ATOM      9  C   UNL     1      -2.117   4.247  -1.659  1.00  0.00     0.006 A 
ATOM     10  C   UNL     1      -3.425   6.533  -0.812  1.00  0.00     0.014 A 
ATOM     11  C   UNL     1      -3.044   4.172  -0.620  1.00  0.00     0.014 A 
BRANCH   7  12
ATOM     12  C   UNL     1      -0.949   5.427  -3.515  1.00  0.00     0.153 C 
BRANCH  12  13
ATOM     13  N   UNL     1       0.134   6.375  -3.592  1.00  0.00    -0.334 N 
ATOM     14  N   UNL     1       2.229   5.276  -3.192  1.00  0.00    -0.305 N 
ATOM     15  C   UNL     1       1.471   6.328  -3.544  1.00  0.00     0.319 C 
ATOM     16  H   UNL     1       3.176   5.529  -3.096  1.00  0.00     0.172 HD
ATOM     17  O   UNL     1       2.055   7.400  -3.751  1.00  0.00    -0.248 OA
ATOM     18  H   UNL     1      -0.195   7.296  -3.712  1.00  0.00     0.165 HD
BRANCH  14  19
ATOM     19  C   UNL     1       2.028   3.915  -2.925  1.00  0.00     0.085 A 
ATOM     20  C   UNL     1       1.396   1.362  -1.967  1.00  0.00     0.122 A 
ATOM     21  C   UNL     1       0.851   1.823  -3.166  1.00  0.00     0.049 A 
ATOM     22  C   UNL     1       2.410   2.096  -1.360  1.00  0.00     0.095 A 
ATOM     23  C   UNL     1       1.195   3.084  -3.660  1.00  0.00     0.034 A 
ATOM     24  C   UNL     1       2.768   3.345  -1.878  1.00  0.00     0.146 A 
BRANCH  20  25
ATOM     25  O   UNL     1       0.886   0.181  -1.506  1.00  0.00    -0.497 OA
ATOM     26  C   UNL     1       1.123  -0.104  -0.128  1.00  0.00     0.278 C 
ENDBRANCH  20  25
BRANCH  24  27
ATOM     27  O   UNL     1       3.800   4.085  -1.349  1.00  0.00    -0.494 OA
ATOM     28  C   UNL     1       4.982   3.304  -1.149  1.00  0.00     0.278 C 
ENDBRANCH  24  27
ENDBRANCH  14  19
ENDBRANCH  12  13
ENDBRANCH   7  12
ENDBRANCH   3   6
ENDBRANCH   1   2
BRANCH   1  29
ATOM     29  C   UNL     1      -4.892   1.801   1.370  1.00  0.00     0.042 C 
BRANCH  29  30
ATOM     30  C   UNL     1      -5.622   1.375   2.642  1.00  0.00     0.118 C 
BRANCH  30  31
ATOM     31  N   UNL     1      -6.852   0.658   2.342  1.00  0.00    -0.352 N 
ATOM     32  C   UNL     1      -7.319  -0.538   2.813  1.00  0.00     0.251 C 
ATOM     33  H   UNL     1      -7.444   1.107   1.695  1.00  0.00     0.163 HD
ATOM     34  O   UNL     1      -8.277  -1.060   2.233  1.00  0.00    -0.269 OA
BRANCH  32  35
ATOM     35  C   UNL     1      -6.704  -1.212   3.977  1.00  0.00     0.039 A 
ATOM     36  C   UNL     1      -6.670  -2.610   3.992  1.00  0.00     0.014 A 
ATOM     37  C   UNL     1      -6.230  -0.496   5.082  1.00  0.00     0.014 A 
ATOM     38  C   UNL     1      -6.139  -3.284   5.092  1.00  0.00     0.010 A 
ATOM     39  C   UNL     1      -5.638  -1.169   6.151  1.00  0.00     0.010 A 
ATOM     40  C   UNL     1      -5.600  -2.570   6.174  1.00  0.00    -0.014 A 
BRANCH  40  41
ATOM     41  C   UNL     1      -5.003  -3.293   7.327  1.00  0.00     0.031 A 
ATOM     42  C   UNL     1      -5.639  -3.222   8.688  1.00  0.00     0.074 A 
ATOM     43  C   UNL     1      -3.874  -4.004   7.141  1.00  0.00     0.049 A 
ATOM     44  N   UNL     1      -5.277  -3.807   9.803  1.00  0.00    -0.248 NA
ATOM     45  C   UNL     1      -6.820  -2.358   8.820  1.00  0.00     0.031 C 
ATOM     46  C   UNL     1      -3.142  -4.104   5.875  1.00  0.00     0.029 A 
ATOM     47  N   UNL     1      -3.150  -4.783   8.005  1.00  0.00    -0.354 N 
ATOM     48  C   UNL     1      -6.184  -3.381  10.768  1.00  0.00     0.074 A 
ATOM     49  C   UNL     1      -7.066  -2.433  10.119  1.00  0.00     0.031 C 
ATOM     50  C   UNL     1      -2.098  -4.932   6.037  1.00  0.00     0.029 A 
ATOM     51  C   UNL     1      -2.064  -5.393   7.421  1.00  0.00     0.049 A 
ATOM     52  H   UNL     1      -3.384  -4.895   8.955  1.00  0.00     0.167 HD
ATOM     53  C   UNL     1      -6.287  -3.764  12.067  1.00  0.00     0.034 A 
ATOM     54  C   UNL     1      -1.150  -6.234   7.940  1.00  0.00     0.034 A 
ATOM     55  C   UNL     1      -5.393  -4.709  12.695  1.00  0.00     0.049 A 
ATOM     56  C   UNL     1      -1.283  -6.645   9.382  1.00  0.00     0.074 A 
ATOM     57  C   UNL     1      -5.422  -5.199  13.990  1.00  0.00     0.029 A 
ATOM     58  N   UNL     1      -4.301  -5.305  12.074  1.00  0.00    -0.354 N 
ATOM     59  N   UNL     1      -2.179  -6.276  10.270  1.00  0.00    -0.248 NA
ATOM     60  C   UNL     1      -0.293  -7.604   9.884  1.00  0.00     0.031 C 
ATOM     61  C   UNL     1      -4.314  -6.037  14.169  1.00  0.00     0.029 A 
ATOM     62  C   UNL     1      -3.635  -6.135  12.966  1.00  0.00     0.049 A 
ATOM     63  H   UNL     1      -4.038  -5.159  11.137  1.00  0.00     0.167 HD
ATOM     64  C   UNL     1      -1.872  -6.979  11.431  1.00  0.00     0.074 A 
ATOM     65  C   UNL     1      -0.729  -7.813  11.117  1.00  0.00     0.031 C 
ATOM     66  C   UNL     1      -2.477  -6.940  12.647  1.00  0.00     0.034 A 
BRANCH  53  67
ATOM     67  C   UNL     1      -7.389  -3.132  12.889  1.00  0.00     0.023 A 
ATOM     68  C   UNL     1      -8.746  -3.294  12.553  1.00  0.00     0.031 A 
ATOM     69  C   UNL     1      -7.083  -2.320  13.996  1.00  0.00     0.131 A 
ATOM     70  C   UNL     1      -9.735  -2.587  13.255  1.00  0.00     0.055 A 
ATOM     71  C   UNL     1      -8.079  -1.689  14.746  1.00  0.00     0.041 A 
ATOM     72  F   UNL     1      -5.808  -2.109  14.357  1.00  0.00    -0.206 F 
ATOM     73  C   UNL     1      -9.413  -1.805  14.366  1.00  0.00     0.022 A 
BRANCH  70  74
ATOM     74  S   UNL     1     -11.424  -2.572  12.593  1.00  0.00     0.124 S 
ATOM     75  O   UNL     1     -11.212  -2.026  11.255  1.00  0.00    -0.237 OA
ATOM     76  O   UNL     1     -11.799  -3.981  12.656  1.00  0.00    -0.237 OA
ATOM     77  O   UNL     1     -12.145  -1.693  13.510  1.00  0.00    -0.744 OA
ENDBRANCH  70  74
ENDBRANCH  53  67
BRANCH  54  78
ATOM     78  C   UNL     1      -0.043  -6.759   7.091  1.00  0.00     0.023 A 
ATOM     79  C   UNL     1       0.044  -8.125   6.780  1.00  0.00     0.031 A 
ATOM     80  C   UNL     1       0.960  -5.904   6.601  1.00  0.00     0.131 A 
ATOM     81  C   UNL     1       1.134  -8.605   6.038  1.00  0.00     0.055 A 
ATOM     82  C   UNL     1       2.016  -6.379   5.821  1.00  0.00     0.041 A 
ATOM     83  F   UNL     1       0.917  -4.588   6.859  1.00  0.00    -0.206 F 
ATOM     84  C   UNL     1       2.114  -7.739   5.546  1.00  0.00     0.022 A 
BRANCH  81  85
ATOM     85  S   UNL     1       1.292 -10.394   5.783  1.00  0.00     0.124 S 
ATOM     86  O   UNL     1       1.345 -10.887   7.154  1.00  0.00    -0.237 OA
ATOM     87  O   UNL     1       0.075 -10.700   5.037  1.00  0.00    -0.237 OA
ATOM     88  O   UNL     1       2.534 -10.520   5.023  1.00  0.00    -0.744 OA
ENDBRANCH  81  85
ENDBRANCH  54  78
BRANCH  66  89
ATOM     89  C   UNL     1      -1.915  -7.855  13.709  1.00  0.00     0.023 A 
ATOM     90  C   UNL     1      -0.605  -7.699  14.198  1.00  0.00     0.031 A 
ATOM     91  C   UNL     1      -2.676  -8.932  14.195  1.00  0.00     0.131 A 
ATOM     92  C   UNL     1      -0.067  -8.653  15.074  1.00  0.00     0.055 A 
ATOM     93  C   UNL     1      -2.159  -9.837  15.124  1.00  0.00     0.041 A 
ATOM     94  F   UNL     1      -3.932  -9.133  13.764  1.00  0.00    -0.206 F 
ATOM     95  C   UNL     1      -0.841  -9.713  15.553  1.00  0.00     0.022 A 
BRANCH  92  96
ATOM     96  S   UNL     1       1.703  -8.570  15.465  1.00  0.00     0.124 S 
ATOM     97  O   UNL     1       2.308  -8.580  14.136  1.00  0.00    -0.237 OA
ATOM     98  O   UNL     1       1.800  -7.314  16.200  1.00  0.00    -0.237 OA
ATOM     99  O   UNL     1       1.935  -9.775  16.260  1.00  0.00    -0.744 OA
ENDBRANCH  92  96
ENDBRANCH  66  89
ENDBRANCH  40  41
ENDBRANCH  32  35
ENDBRANCH  30  31
ENDBRANCH  29  30
ENDBRANCH   1  29
TORSDOF 18
