REMARK SMILES O=C(NCCCNC(=O)c1csc(CNc2ccc(-n3cccn3)nc2)c1)c1ccc(-c2c3nc(c(-c4cc(S(=O)(=O)[O-])ccc4F)c4ccc([nH]4)c(-c4cc(S(=O)(=O)[O-])ccc4F)c4nc(c(-c5cc(S(=O)(=O)[O-])ccc5F)c5ccc2[nH]5)C=C4)C=C3)cc1
REMARK SMILES IDX 5 1 4 2 3 3 1 4 2 5 28 7 29 8 90 9 30 10 89 11 31 12 32 13
REMARK SMILES IDX 33 14 83 15 34 16 88 17 82 18 84 19 35 20 87 21 81 22 80 23
REMARK SMILES IDX 36 25 68 26 48 27 67 28 49 29 52 30 66 31 85 32 50 33 51 34
REMARK SMILES IDX 65 36 86 37 53 38 37 39 38 40 46 41 39 42 45 43 47 44 44 45
REMARK SMILES IDX 40 46 41 47 42 48 43 49 69 50 70 51 78 52 71 53 77 54 79 55
REMARK SMILES IDX 76 56 72 57 73 58 74 59 75 60 54 61 55 62 63 63 56 64 62 65
REMARK SMILES IDX 64 66 61 67 57 68 58 69 59 70 60 71 6 72 7 73 8 74 9 76
REMARK SMILES IDX 10 77 11 78 27 79 12 80 13 81 14 82 15 83 16 85 17 86 26 87
REMARK SMILES IDX 18 88 25 89 19 90 20 91 21 92 24 93 22 94 23 95
REMARK H PARENT 3 6 84 24 52 35 7 75 15 84
REMARK Flexibility Score: inf
ROOT
ATOM      1  C   UNL     1       4.848   2.272   0.027  1.00  0.00     0.042 C 
ENDROOT
BRANCH   1   2
ATOM      2  C   UNL     1       4.563   0.899   0.634  1.00  0.00     0.118 C 
BRANCH   2   3
ATOM      3  N   UNL     1       3.161   0.595   0.836  1.00  0.00    -0.352 N 
ATOM      4  O   UNL     1       1.096  -0.142   0.638  1.00  0.00    -0.269 OA
ATOM      5  C   UNL     1       2.147   0.123   0.046  1.00  0.00     0.251 C 
ATOM      6  H   UNL     1       2.868   0.769   1.760  1.00  0.00     0.163 HD
BRANCH   5   7
ATOM      7  C   UNL     1       2.202  -0.048  -1.434  1.00  0.00     0.039 A 
ATOM      8  C   UNL     1       3.356  -0.042  -2.218  1.00  0.00     0.014 A 
ATOM      9  C   UNL     1       0.962  -0.237  -2.076  1.00  0.00     0.014 A 
ATOM     10  C   UNL     1       3.269  -0.169  -3.608  1.00  0.00     0.010 A 
ATOM     11  C   UNL     1       0.872  -0.376  -3.461  1.00  0.00     0.010 A 
ATOM     12  C   UNL     1       2.028  -0.322  -4.235  1.00  0.00    -0.014 A 
BRANCH  12  13
ATOM     13  C   UNL     1       1.999  -0.558  -5.683  1.00  0.00     0.031 A 
ATOM     14  C   UNL     1       2.634  -1.829  -6.150  1.00  0.00     0.074 A 
ATOM     15  C   UNL     1       1.312   0.195  -6.568  1.00  0.00     0.049 A 
ATOM     16  N   UNL     1       3.588  -1.990  -7.010  1.00  0.00    -0.248 NA
ATOM     17  C   UNL     1       2.178  -3.084  -5.532  1.00  0.00     0.031 C 
ATOM     18  C   UNL     1       0.384   1.291  -6.288  1.00  0.00     0.029 A 
ATOM     19  N   UNL     1       1.231   0.058  -7.926  1.00  0.00    -0.354 N 
ATOM     20  C   UNL     1       3.745  -3.366  -7.177  1.00  0.00     0.074 A 
ATOM     21  C   UNL     1       2.930  -3.986  -6.163  1.00  0.00     0.031 C 
ATOM     22  C   UNL     1      -0.320   1.577  -7.407  1.00  0.00     0.029 A 
ATOM     23  C   UNL     1       0.200   0.784  -8.511  1.00  0.00     0.049 A 
ATOM     24  H   UNL     1       1.850  -0.505  -8.444  1.00  0.00     0.167 HD
ATOM     25  C   UNL     1       4.424  -3.906  -8.230  1.00  0.00     0.034 A 
ATOM     26  C   UNL     1      -0.240   0.708  -9.794  1.00  0.00     0.034 A 
ATOM     27  C   UNL     1       5.301  -2.942  -8.843  1.00  0.00     0.049 A 
ATOM     28  C   UNL     1       0.857   0.140 -10.610  1.00  0.00     0.074 A 
ATOM     29  C   UNL     1       6.375  -2.194  -8.399  1.00  0.00     0.029 A 
ATOM     30  N   UNL     1       4.926  -2.362 -10.031  1.00  0.00    -0.354 N 
ATOM     31  N   UNL     1       1.988   0.750 -10.825  1.00  0.00    -0.248 NA
ATOM     32  C   UNL     1       0.875  -1.294 -10.850  1.00  0.00     0.031 C 
ATOM     33  C   UNL     1       6.235  -0.931  -9.046  1.00  0.00     0.029 A 
ATOM     34  C   UNL     1       5.121  -1.009  -9.884  1.00  0.00     0.049 A 
ATOM     35  H   UNL     1       4.583  -2.824 -10.830  1.00  0.00     0.167 HD
ATOM     36  C   UNL     1       2.946  -0.249 -10.803  1.00  0.00     0.074 A 
ATOM     37  C   UNL     1       2.193  -1.493 -10.930  1.00  0.00     0.031 C 
ATOM     38  C   UNL     1       4.231   0.006 -10.413  1.00  0.00     0.034 A 
BRANCH  25  39
ATOM     39  C   UNL     1       4.128  -5.247  -8.864  1.00  0.00     0.023 A 
ATOM     40  C   UNL     1       4.988  -5.718  -9.879  1.00  0.00     0.031 A 
ATOM     41  C   UNL     1       2.917  -5.957  -8.711  1.00  0.00     0.131 A 
ATOM     42  C   UNL     1       4.614  -6.795 -10.707  1.00  0.00     0.055 A 
ATOM     43  C   UNL     1       2.579  -7.068  -9.491  1.00  0.00     0.041 A 
ATOM     44  F   UNL     1       1.956  -5.560  -7.867  1.00  0.00    -0.206 F 
ATOM     45  C   UNL     1       3.418  -7.479 -10.513  1.00  0.00     0.022 A 
BRANCH  42  46
ATOM     46  S   UNL     1       5.637  -7.181 -12.155  1.00  0.00     0.124 S 
ATOM     47  O   UNL     1       5.758  -5.876 -12.795  1.00  0.00    -0.237 OA
ATOM     48  O   UNL     1       6.848  -7.710 -11.536  1.00  0.00    -0.237 OA
ATOM     49  O   UNL     1       4.834  -8.160 -12.886  1.00  0.00    -0.744 OA
ENDBRANCH  42  46
ENDBRANCH  25  39
BRANCH  26  50
ATOM     50  C   UNL     1      -1.646   0.808 -10.270  1.00  0.00     0.023 A 
ATOM     51  C   UNL     1      -1.985   1.120 -11.602  1.00  0.00     0.031 A 
ATOM     52  C   UNL     1      -2.692   0.348  -9.438  1.00  0.00     0.131 A 
ATOM     53  C   UNL     1      -3.321   0.976 -12.047  1.00  0.00     0.055 A 
ATOM     54  C   UNL     1      -4.008   0.215  -9.880  1.00  0.00     0.041 A 
ATOM     55  F   UNL     1      -2.449  -0.073  -8.186  1.00  0.00    -0.206 F 
ATOM     56  C   UNL     1      -4.328   0.523 -11.192  1.00  0.00     0.022 A 
BRANCH  53  57
ATOM     57  S   UNL     1      -3.751   1.283 -13.792  1.00  0.00     0.124 S 
ATOM     58  O   UNL     1      -3.592   2.728 -13.901  1.00  0.00    -0.237 OA
ATOM     59  O   UNL     1      -2.774   0.467 -14.504  1.00  0.00    -0.237 OA
ATOM     60  O   UNL     1      -5.131   0.807 -13.892  1.00  0.00    -0.744 OA
ENDBRANCH  53  57
ENDBRANCH  26  50
BRANCH  38  61
ATOM     61  C   UNL     1       4.671   1.452 -10.274  1.00  0.00     0.023 A 
ATOM     62  C   UNL     1       4.032   2.407  -9.451  1.00  0.00     0.031 A 
ATOM     63  C   UNL     1       5.864   1.839 -10.911  1.00  0.00     0.131 A 
ATOM     64  C   UNL     1       4.580   3.696  -9.304  1.00  0.00     0.055 A 
ATOM     65  C   UNL     1       6.415   3.111 -10.747  1.00  0.00     0.041 A 
ATOM     66  F   UNL     1       6.539   0.970 -11.681  1.00  0.00    -0.206 F 
ATOM     67  C   UNL     1       5.770   4.047  -9.947  1.00  0.00     0.022 A 
BRANCH  64  68
ATOM     68  S   UNL     1       3.744   4.944  -8.274  1.00  0.00     0.124 S 
ATOM     69  O   UNL     1       2.358   4.889  -8.725  1.00  0.00    -0.237 OA
ATOM     70  O   UNL     1       3.998   4.457  -6.920  1.00  0.00    -0.237 OA
ATOM     71  O   UNL     1       4.444   6.186  -8.611  1.00  0.00    -0.744 OA
ENDBRANCH  64  68
ENDBRANCH  38  61
ENDBRANCH  12  13
ENDBRANCH   5   7
ENDBRANCH   2   3
ENDBRANCH   1   2
BRANCH   1  72
ATOM     72  C   UNL     1       4.310   3.462   0.828  1.00  0.00     0.118 C 
BRANCH  72  73
ATOM     73  N   UNL     1       4.823   3.501   2.190  1.00  0.00    -0.352 N 
ATOM     74  C   UNL     1       5.696   4.358   2.811  1.00  0.00     0.252 C 
ATOM     75  H   UNL     1       4.482   2.783   2.771  1.00  0.00     0.163 HD
ATOM     76  O   UNL     1       6.145   4.027   3.906  1.00  0.00    -0.269 OA
BRANCH  74  77
ATOM     77  C   UNL     1       6.084   5.620   2.190  1.00  0.00     0.050 A 
ATOM     78  C   UNL     1       5.232   6.494   1.543  1.00  0.00     0.079 A 
ATOM     79  C   UNL     1       7.402   6.192   2.287  1.00  0.00     0.031 A 
ATOM     80  S   UNL     1       6.012   7.918   1.010  1.00  0.00    -0.146 S 
ATOM     81  C   UNL     1       7.513   7.422   1.669  1.00  0.00     0.024 A 
BRANCH  81  82
ATOM     82  C   UNL     1       8.723   8.307   1.536  1.00  0.00     0.159 C 
BRANCH  82  83
ATOM     83  N   UNL     1       9.152   8.483   0.155  1.00  0.00    -0.379 N 
ATOM     84  H   UNL     1       9.345   7.696  -0.404  1.00  0.00     0.160 HD
BRANCH  83  85
ATOM     85  C   UNL     1       9.290   9.757  -0.375  1.00  0.00     0.053 A 
ATOM     86  C   UNL     1      10.039  10.752   0.250  1.00  0.00     0.031 A 
ATOM     87  C   UNL     1       8.615  10.133  -1.537  1.00  0.00     0.139 A 
ATOM     88  C   UNL     1      10.135  12.027  -0.316  1.00  0.00     0.051 A 
ATOM     89  N   UNL     1       8.635  11.374  -2.079  1.00  0.00    -0.235 NA
ATOM     90  C   UNL     1       9.416  12.302  -1.477  1.00  0.00     0.153 A 
BRANCH  90  91
ATOM     91  N   UNL     1       9.498  13.605  -2.057  1.00  0.00    -0.223 N 
ATOM     92  C   UNL     1      10.554  14.495  -1.968  1.00  0.00     0.117 A 
ATOM     93  N   UNL     1       8.478  14.135  -2.783  1.00  0.00    -0.175 NA
ATOM     94  C   UNL     1      10.183  15.634  -2.643  1.00  0.00     0.042 A 
ATOM     95  C   UNL     1       8.884  15.364  -3.097  1.00  0.00     0.135 A 
ENDBRANCH  90  91
ENDBRANCH  83  85
ENDBRANCH  82  83
ENDBRANCH  81  82
ENDBRANCH  74  77
ENDBRANCH  72  73
ENDBRANCH   1  72
TORSDOF 17
