REMARK SMILES Cc1cccc(NC(=O)C[C@H]([NH2+]C(C)C)C(=O)NCCCNC(=O)c2ccc(-c3c4nc(c(-c5cc(S(=O)(=O)[O-])ccc5F)c5ccc([nH]5)c(-c5cc(S(=O)(=O)[O-])ccc5F)c5nc(c(-c6cc(S(=O)(=O)[O-])ccc6F)c6ccc3[nH]6)C=C5)C=C4)cc2)c1
REMARK SMILES IDX 20 1 19 2 18 3 16 4 17 5 11 7 10 8 8 9 7 10 9 12 6 13 1 14
REMARK SMILES IDX 2 15 3 16 88 17 4 18 5 19 12 20 13 23 14 24 15 25 21 26
REMARK SMILES IDX 22 27 23 28 24 30 25 31 26 32 87 33 27 34 86 35 28 36 29 37
REMARK SMILES IDX 30 38 80 39 31 40 85 41 79 42 81 43 32 44 84 45 78 46 77 47
REMARK SMILES IDX 33 49 65 50 45 51 64 52 46 53 49 54 63 55 82 56 47 57 48 58
REMARK SMILES IDX 62 60 83 61 50 62 34 63 35 64 43 65 36 66 42 67 44 68 41 69
REMARK SMILES IDX 37 70 38 71 39 72 40 73 66 74 67 75 75 76 68 77 74 78 76 79
REMARK SMILES IDX 73 80 69 81 70 82 71 83 72 84 51 85 52 86 60 87 53 88 59 89
REMARK SMILES IDX 61 90 58 91 54 92 55 93 56 94 57 95
REMARK H PARENT 18 6 7 11 12 21 12 22 22 29 81 48 49 59
REMARK Flexibility Score: inf
ROOT
ATOM      1  C   UNL     1      -3.010  -1.939   3.405  1.00  0.00     0.042 C 
ENDROOT
BRANCH   1   2
ATOM      2  C   UNL     1      -2.868  -2.267   1.697  1.00  0.00     0.118 C 
BRANCH   2   3
ATOM      3  N   UNL     1      -4.006  -1.672   0.059  1.00  0.00    -0.351 N 
ATOM      4  C   UNL     1      -4.362  -0.918  -1.054  1.00  0.00     0.278 C 
ATOM      5  O   UNL     1      -5.266  -1.452  -1.729  1.00  0.00    -0.268 OA
ATOM      6  H   UNL     1      -4.744  -2.323   0.093  1.00  0.00     0.163 HD
BRANCH   4   7
ATOM      7  C   UNL     1      -3.893   0.461  -1.528  1.00  0.00     0.282 C 
BRANCH   7   8
ATOM      8  C   UNL     1      -2.401   0.589  -1.933  1.00  0.00     0.175 C 
BRANCH   8   9
ATOM      9  C   UNL     1      -1.647  -0.679  -2.369  1.00  0.00     0.230 C 
ATOM     10  N   UNL     1      -1.428  -1.735  -1.525  1.00  0.00    -0.326 N 
ATOM     11  H   UNL     1      -0.792  -2.426  -1.819  1.00  0.00     0.169 HD
ATOM     12  O   UNL     1      -1.194  -0.743  -3.518  1.00  0.00    -0.274 OA
BRANCH  10  13
ATOM     13  C   UNL     1      -2.038  -1.909  -0.277  1.00  0.00     0.041 A 
ATOM     14  C   UNL     1      -5.298  -4.697   0.938  1.00  0.00     0.044 C 
ATOM     15  C   UNL     1      -4.464  -3.481   0.946  1.00  0.00    -0.049 A 
ATOM     16  C   UNL     1      -5.000  -1.972   1.791  1.00  0.00     0.003 A 
ATOM     17  C   UNL     1      -2.989  -3.438  -0.120  1.00  0.00     0.029 A 
ATOM     18  C   UNL     1      -3.994  -0.467   1.683  1.00  0.00     0.002 A 
ATOM     19  C   UNL     1      -2.492  -0.445   0.696  1.00  0.00     0.026 A 
ENDBRANCH  10  13
ENDBRANCH   8   9
ENDBRANCH   7   8
BRANCH   7  20
ATOM     20  N   UNL     1      -4.469   1.592  -0.696  1.00  0.00    -0.334 N 
ATOM     21  H   UNL     1      -4.594   2.400  -1.305  1.00  0.00     0.347 HD
ATOM     22  H   UNL     1      -3.806   1.753   0.062  1.00  0.00     0.347 HD
BRANCH  20  23
ATOM     23  C   UNL     1      -5.775   1.296  -0.049  1.00  0.00     0.176 C 
ATOM     24  C   UNL     1      -5.985   2.229   1.153  1.00  0.00     0.075 C 
ATOM     25  C   UNL     1      -7.014   1.281  -0.937  1.00  0.00     0.075 C 
ENDBRANCH  20  23
ENDBRANCH   7  20
ENDBRANCH   4   7
ENDBRANCH   2   3
ENDBRANCH   1   2
BRANCH   1  26
ATOM     26  C   UNL     1      -3.771  -2.994   4.201  1.00  0.00     0.118 C 
BRANCH  26  27
ATOM     27  N   UNL     1      -2.998  -4.143   4.612  1.00  0.00    -0.352 N 
ATOM     28  C   UNL     1      -3.385  -5.242   5.354  1.00  0.00     0.251 C 
ATOM     29  H   UNL     1      -2.058  -4.142   4.321  1.00  0.00     0.163 HD
ATOM     30  O   UNL     1      -2.523  -5.939   5.885  1.00  0.00    -0.269 OA
BRANCH  28  31
ATOM     31  C   UNL     1      -4.799  -5.726   5.334  1.00  0.00     0.039 A 
ATOM     32  C   UNL     1      -4.939  -7.121   5.295  1.00  0.00     0.014 A 
ATOM     33  C   UNL     1      -5.820  -4.933   4.842  1.00  0.00     0.014 A 
ATOM     34  C   UNL     1      -5.844  -7.688   4.412  1.00  0.00     0.010 A 
ATOM     35  C   UNL     1      -6.586  -5.461   3.838  1.00  0.00     0.010 A 
ATOM     36  C   UNL     1      -6.536  -6.831   3.575  1.00  0.00    -0.014 A 
BRANCH  36  37
ATOM     37  C   UNL     1      -7.443  -7.260   2.535  1.00  0.00     0.031 A 
ATOM     38  C   UNL     1      -8.845  -7.291   2.981  1.00  0.00     0.074 A 
ATOM     39  C   UNL     1      -7.009  -7.518   1.279  1.00  0.00     0.049 A 
ATOM     40  N   UNL     1      -9.746  -8.000   2.428  1.00  0.00    -0.248 NA
ATOM     41  C   UNL     1      -9.342  -6.596   4.176  1.00  0.00     0.031 C 
ATOM     42  C   UNL     1      -7.783  -7.718   0.056  1.00  0.00     0.029 A 
ATOM     43  N   UNL     1      -5.713  -7.853   0.898  1.00  0.00    -0.354 N 
ATOM     44  C   UNL     1     -10.959  -7.623   2.958  1.00  0.00     0.074 A 
ATOM     45  C   UNL     1     -10.652  -6.841   4.117  1.00  0.00     0.031 C 
ATOM     46  C   UNL     1      -7.034  -8.396  -0.837  1.00  0.00     0.029 A 
ATOM     47  C   UNL     1      -5.786  -8.747  -0.183  1.00  0.00     0.049 A 
ATOM     48  H   UNL     1      -4.886  -7.521   1.315  1.00  0.00     0.167 HD
ATOM     49  C   UNL     1     -12.063  -7.922   2.232  1.00  0.00     0.034 A 
ATOM     50  C   UNL     1      -5.279 -10.004  -0.027  1.00  0.00     0.034 A 
ATOM     51  C   UNL     1     -11.660  -8.707   1.070  1.00  0.00     0.049 A 
ATOM     52  C   UNL     1      -6.414 -11.010   0.020  1.00  0.00     0.074 A 
ATOM     53  C   UNL     1     -11.362  -8.377  -0.240  1.00  0.00     0.029 A 
ATOM     54  N   UNL     1     -11.097  -9.948   1.305  1.00  0.00    -0.354 N 
ATOM     55  N   UNL     1      -7.653 -10.707   0.320  1.00  0.00    -0.248 NA
ATOM     56  C   UNL     1      -6.268 -12.401  -0.386  1.00  0.00     0.031 C 
ATOM     57  C   UNL     1     -10.577  -9.438  -0.779  1.00  0.00     0.029 A 
ATOM     58  C   UNL     1     -10.426 -10.408   0.198  1.00  0.00     0.049 A 
ATOM     59  H   UNL     1     -11.168 -10.438   2.155  1.00  0.00     0.167 HD
ATOM     60  C   UNL     1      -8.469 -11.788   0.089  1.00  0.00     0.074 A 
ATOM     61  C   UNL     1      -7.544 -12.825  -0.340  1.00  0.00     0.031 C 
ATOM     62  C   UNL     1      -9.833 -11.734   0.240  1.00  0.00     0.034 A 
BRANCH  49  63
ATOM     63  C   UNL     1     -13.443  -7.364   2.397  1.00  0.00     0.023 A 
ATOM     64  C   UNL     1     -14.305  -7.488   1.291  1.00  0.00     0.031 A 
ATOM     65  C   UNL     1     -13.982  -6.704   3.517  1.00  0.00     0.131 A 
ATOM     66  C   UNL     1     -15.599  -6.955   1.296  1.00  0.00     0.055 A 
ATOM     67  C   UNL     1     -15.275  -6.160   3.522  1.00  0.00     0.041 A 
ATOM     68  F   UNL     1     -13.310  -6.574   4.665  1.00  0.00    -0.206 F 
ATOM     69  C   UNL     1     -16.092  -6.282   2.407  1.00  0.00     0.022 A 
BRANCH  66  70
ATOM     70  S   UNL     1     -16.606  -7.167  -0.190  1.00  0.00     0.124 S 
ATOM     71  O   UNL     1     -15.827  -6.444  -1.191  1.00  0.00    -0.237 OA
ATOM     72  O   UNL     1     -16.650  -8.618  -0.329  1.00  0.00    -0.237 OA
ATOM     73  O   UNL     1     -17.876  -6.542   0.174  1.00  0.00    -0.744 OA
ENDBRANCH  66  70
ENDBRANCH  49  63
BRANCH  50  74
ATOM     74  C   UNL     1      -4.014  -9.955   0.795  1.00  0.00     0.023 A 
ATOM     75  C   UNL     1      -2.942  -9.210   0.231  1.00  0.00     0.031 A 
ATOM     76  C   UNL     1      -4.074 -10.034   2.193  1.00  0.00     0.131 A 
ATOM     77  C   UNL     1      -2.159  -8.366   1.042  1.00  0.00     0.055 A 
ATOM     78  C   UNL     1      -3.245  -9.235   2.996  1.00  0.00     0.041 A 
ATOM     79  F   UNL     1      -5.051 -10.727   2.798  1.00  0.00    -0.206 F 
ATOM     80  C   UNL     1      -2.345  -8.337   2.422  1.00  0.00     0.022 A 
BRANCH  77  81
ATOM     81  S   UNL     1      -1.092  -7.117   0.256  1.00  0.00     0.124 S 
ATOM     82  O   UNL     1       0.113  -7.885  -0.035  1.00  0.00    -0.237 OA
ATOM     83  O   UNL     1      -1.879  -6.705  -0.903  1.00  0.00    -0.237 OA
ATOM     84  O   UNL     1      -0.949  -6.082   1.279  1.00  0.00    -0.744 OA
ENDBRANCH  77  81
ENDBRANCH  50  74
BRANCH  62  85
ATOM     85  C   UNL     1     -10.778 -12.918   0.407  1.00  0.00     0.023 A 
ATOM     86  C   UNL     1     -10.338 -14.239   0.401  1.00  0.00     0.031 A 
ATOM     87  C   UNL     1     -12.170 -12.759   0.670  1.00  0.00     0.131 A 
ATOM     88  C   UNL     1     -11.226 -15.313   0.566  1.00  0.00     0.055 A 
ATOM     89  C   UNL     1     -13.036 -13.822   0.935  1.00  0.00     0.041 A 
ATOM     90  F   UNL     1     -12.775 -11.565   0.706  1.00  0.00    -0.206 F 
ATOM     91  C   UNL     1     -12.569 -15.119   0.863  1.00  0.00     0.022 A 
BRANCH  88  92
ATOM     92  S   UNL     1     -10.568 -16.972   0.298  1.00  0.00     0.124 S 
ATOM     93  O   UNL     1     -10.121 -16.895  -1.091  1.00  0.00    -0.237 OA
ATOM     94  O   UNL     1      -9.508 -17.049   1.298  1.00  0.00    -0.237 OA
ATOM     95  O   UNL     1     -11.717 -17.841   0.536  1.00  0.00    -0.744 OA
ENDBRANCH  88  92
ENDBRANCH  62  85
ENDBRANCH  36  37
ENDBRANCH  28  31
ENDBRANCH  26  27
ENDBRANCH   1  26
TORSDOF 18
