REMARK SMILES CC[C@@](C)(NC(=O)c1cccc(Br)c1C)C(=O)NCCCNC(=O)c1ccc(-c2c3nc(c(-c4cc(S(=O)(=O)[O-])ccc4F)c4ccc([nH]4)c(-c4cc(S(=O)(=O)[O-])ccc4F)c4nc(c(-c5cc(S(=O)(=O)[O-])ccc5F)c5ccc2[nH]5)C=C4)C=C3)cc1
REMARK SMILES IDX 20 1 19 2 18 3 16 4 17 5 3 7 4 8 2 9 1 10 5 11 6 12 7 14
REMARK SMILES IDX 8 15 9 16 14 17 10 18 12 19 15 20 11 21 13 22 21 23 22 24
REMARK SMILES IDX 23 25 24 27 25 28 26 29 87 30 27 31 86 32 28 33 29 34 30 35
REMARK SMILES IDX 80 36 31 37 85 38 79 39 81 40 32 41 84 42 78 43 77 44 33 46
REMARK SMILES IDX 65 47 45 48 64 49 46 50 49 51 63 52 82 53 47 54 48 55 62 57
REMARK SMILES IDX 83 58 50 59 34 60 35 61 43 62 36 63 42 64 44 65 41 66 37 67
REMARK SMILES IDX 38 68 39 69 40 70 66 71 67 72 75 73 68 74 74 75 76 76 73 77
REMARK SMILES IDX 69 78 70 79 71 80 72 81 51 82 52 83 60 84 53 85 59 86 61 87
REMARK SMILES IDX 58 88 54 89 55 90 56 91 57 92
REMARK H PARENT 18 6 5 13 22 26 81 45 49 56
REMARK Flexibility Score: inf
ROOT
ATOM      1  C   UNL     1       2.956   3.384   5.431  1.00  0.00     0.042 C 
ENDROOT
BRANCH   1   2
ATOM      2  C   UNL     1       2.600   3.222   3.910  1.00  0.00     0.117 C 
BRANCH   2   3
ATOM      3  N   UNL     1       3.097   2.087   3.118  1.00  0.00    -0.354 N 
ATOM      4  C   UNL     1       2.609   1.130   2.263  1.00  0.00     0.245 C 
ATOM      5  O   UNL     1       3.473   0.724   1.465  1.00  0.00    -0.272 OA
ATOM      6  H   UNL     1       4.069   1.983   3.235  1.00  0.00     0.163 HD
BRANCH   4   7
ATOM      7  C   UNL     1       1.148   0.484   2.178  1.00  0.00     0.116 C 
ATOM      8  C   UNL     1       0.106   1.600   1.974  1.00  0.00     0.045 C 
BRANCH   7   9
ATOM      9  C   UNL     1       1.069  -0.498   0.941  1.00  0.00     0.035 C 
ATOM     10  C   UNL     1       1.181   0.084  -0.466  1.00  0.00     0.007 C 
ENDBRANCH   7   9
BRANCH   7  11
ATOM     11  N   UNL     1       0.653  -0.351   3.337  1.00  0.00    -0.338 N 
ATOM     12  C   UNL     1       1.112  -1.581   3.791  1.00  0.00     0.252 C 
ATOM     13  H   UNL     1      -0.102   0.030   3.840  1.00  0.00     0.164 HD
ATOM     14  O   UNL     1       0.300  -2.471   4.029  1.00  0.00    -0.269 OA
BRANCH  12  15
ATOM     15  C   UNL     1       2.553  -1.800   4.076  1.00  0.00     0.043 A 
ATOM     16  C   UNL     1       3.106  -3.084   4.094  1.00  0.00     0.014 A 
ATOM     17  C   UNL     1       3.325  -0.752   4.572  1.00  0.00    -0.024 A 
ATOM     18  C   UNL     1       4.457  -3.265   4.408  1.00  0.00     0.002 A 
ATOM     19  C   UNL     1       4.718  -0.891   4.546  1.00  0.00     0.021 A 
ATOM     20  C   UNL     1       2.599   0.177   5.513  1.00  0.00     0.046 C 
ATOM     21  C   UNL     1       5.281  -2.157   4.540  1.00  0.00     0.016 A 
ATOM     22  Br  UNL     1       5.917   0.501   4.057  1.00  0.00    -0.051 Br
ENDBRANCH  12  15
ENDBRANCH   7  11
ENDBRANCH   4   7
ENDBRANCH   2   3
ENDBRANCH   1   2
BRANCH   1  23
ATOM     23  C   UNL     1       4.273   2.917   6.087  1.00  0.00     0.118 C 
BRANCH  23  24
ATOM     24  N   UNL     1       5.344   3.886   6.156  1.00  0.00    -0.352 N 
ATOM     25  C   UNL     1       6.190   4.176   7.210  1.00  0.00     0.251 C 
ATOM     26  H   UNL     1       5.491   4.414   5.338  1.00  0.00     0.163 HD
ATOM     27  O   UNL     1       6.897   5.180   7.129  1.00  0.00    -0.269 OA
BRANCH  25  28
ATOM     28  C   UNL     1       6.279   3.333   8.442  1.00  0.00     0.039 A 
ATOM     29  C   UNL     1       6.265   3.974   9.688  1.00  0.00     0.014 A 
ATOM     30  C   UNL     1       6.549   1.960   8.397  1.00  0.00     0.014 A 
ATOM     31  C   UNL     1       6.510   3.256  10.871  1.00  0.00     0.010 A 
ATOM     32  C   UNL     1       6.771   1.236   9.589  1.00  0.00     0.010 A 
ATOM     33  C   UNL     1       6.775   1.876  10.842  1.00  0.00    -0.014 A 
BRANCH  33  34
ATOM     34  C   UNL     1       7.094   1.151  12.118  1.00  0.00     0.031 A 
ATOM     35  C   UNL     1       8.487   0.625  12.387  1.00  0.00     0.074 A 
ATOM     36  C   UNL     1       6.144   0.993  13.065  1.00  0.00     0.049 A 
ATOM     37  N   UNL     1       8.973   0.066  13.470  1.00  0.00    -0.248 NA
ATOM     38  C   UNL     1       9.451   0.721  11.284  1.00  0.00     0.031 C 
ATOM     39  C   UNL     1       4.747   1.407  12.927  1.00  0.00     0.029 A 
ATOM     40  N   UNL     1       6.204   0.457  14.331  1.00  0.00    -0.354 N 
ATOM     41  C   UNL     1      10.299  -0.254  13.179  1.00  0.00     0.074 A 
ATOM     42  C   UNL     1      10.513   0.115  11.795  1.00  0.00     0.031 C 
ATOM     43  C   UNL     1       4.095   1.148  14.072  1.00  0.00     0.029 A 
ATOM     44  C   UNL     1       5.015   0.530  15.024  1.00  0.00     0.049 A 
ATOM     45  H   UNL     1       7.022   0.059  14.708  1.00  0.00     0.167 HD
ATOM     46  C   UNL     1      11.255  -0.782  13.990  1.00  0.00     0.034 A 
ATOM     47  C   UNL     1       4.700   0.161  16.284  1.00  0.00     0.034 A 
ATOM     48  C   UNL     1      11.034  -1.144  15.372  1.00  0.00     0.049 A 
ATOM     49  C   UNL     1       5.779  -0.408  17.173  1.00  0.00     0.074 A 
ATOM     50  C   UNL     1      11.941  -1.644  16.293  1.00  0.00     0.029 A 
ATOM     51  N   UNL     1       9.815  -1.053  16.034  1.00  0.00    -0.354 N 
ATOM     52  N   UNL     1       7.043  -0.638  16.898  1.00  0.00    -0.248 NA
ATOM     53  C   UNL     1       5.394  -0.742  18.551  1.00  0.00     0.031 C 
ATOM     54  C   UNL     1      11.259  -1.912  17.487  1.00  0.00     0.029 A 
ATOM     55  C   UNL     1       9.942  -1.509  17.339  1.00  0.00     0.049 A 
ATOM     56  H   UNL     1       8.982  -0.713  15.635  1.00  0.00     0.167 HD
ATOM     57  C   UNL     1       7.607  -1.117  18.078  1.00  0.00     0.074 A 
ATOM     58  C   UNL     1       6.553  -1.115  19.072  1.00  0.00     0.031 C 
ATOM     59  C   UNL     1       8.881  -1.522  18.320  1.00  0.00     0.034 A 
BRANCH  46  60
ATOM     60  C   UNL     1      12.626  -1.018  13.389  1.00  0.00     0.023 A 
ATOM     61  C   UNL     1      13.408   0.042  12.895  1.00  0.00     0.031 A 
ATOM     62  C   UNL     1      13.149  -2.320  13.283  1.00  0.00     0.131 A 
ATOM     63  C   UNL     1      14.623  -0.224  12.243  1.00  0.00     0.055 A 
ATOM     64  C   UNL     1      14.399  -2.569  12.709  1.00  0.00     0.041 A 
ATOM     65  F   UNL     1      12.449  -3.377  13.724  1.00  0.00    -0.206 F 
ATOM     66  C   UNL     1      15.136  -1.520  12.168  1.00  0.00     0.022 A 
BRANCH  63  67
ATOM     67  S   UNL     1      15.446   1.131  11.360  1.00  0.00     0.124 S 
ATOM     68  O   UNL     1      14.415   1.528  10.405  1.00  0.00    -0.237 OA
ATOM     69  O   UNL     1      15.729   2.079  12.429  1.00  0.00    -0.237 OA
ATOM     70  O   UNL     1      16.620   0.489  10.767  1.00  0.00    -0.744 OA
ENDBRANCH  63  67
ENDBRANCH  46  60
BRANCH  47  71
ATOM     71  C   UNL     1       3.307   0.329  16.799  1.00  0.00     0.023 A 
ATOM     72  C   UNL     1       3.021   1.206  17.859  1.00  0.00     0.031 A 
ATOM     73  C   UNL     1       2.245  -0.423  16.265  1.00  0.00     0.131 A 
ATOM     74  C   UNL     1       1.718   1.278  18.379  1.00  0.00     0.055 A 
ATOM     75  C   UNL     1       0.941  -0.310  16.751  1.00  0.00     0.041 A 
ATOM     76  F   UNL     1       2.460  -1.275  15.250  1.00  0.00    -0.206 F 
ATOM     77  C   UNL     1       0.674   0.536  17.823  1.00  0.00     0.022 A 
BRANCH  74  78
ATOM     78  S   UNL     1       1.419   2.301  19.848  1.00  0.00     0.124 S 
ATOM     79  O   UNL     1       2.349   1.721  20.810  1.00  0.00    -0.237 OA
ATOM     80  O   UNL     1       1.750   3.636  19.359  1.00  0.00    -0.237 OA
ATOM     81  O   UNL     1       0.003   2.079  20.135  1.00  0.00    -0.744 OA
ENDBRANCH  74  78
ENDBRANCH  47  71
BRANCH  59  82
ATOM     82  C   UNL     1       9.201  -1.964  19.729  1.00  0.00     0.023 A 
ATOM     83  C   UNL     1       8.604  -3.103  20.299  1.00  0.00     0.031 A 
ATOM     84  C   UNL     1      10.083  -1.214  20.526  1.00  0.00     0.131 A 
ATOM     85  C   UNL     1       8.836  -3.414  21.648  1.00  0.00     0.055 A 
ATOM     86  C   UNL     1      10.363  -1.567  21.848  1.00  0.00     0.041 A 
ATOM     87  F   UNL     1      10.682  -0.116  20.037  1.00  0.00    -0.206 F 
ATOM     88  C   UNL     1       9.723  -2.663  22.422  1.00  0.00     0.022 A 
BRANCH  85  89
ATOM     89  S   UNL     1       7.864  -4.742  22.413  1.00  0.00     0.124 S 
ATOM     90  O   UNL     1       6.496  -4.306  22.154  1.00  0.00    -0.237 OA
ATOM     91  O   UNL     1       8.309  -5.919  21.673  1.00  0.00    -0.237 OA
ATOM     92  O   UNL     1       8.273  -4.702  23.816  1.00  0.00    -0.744 OA
ENDBRANCH  85  89
ENDBRANCH  59  82
ENDBRANCH  33  34
ENDBRANCH  25  28
ENDBRANCH  23  24
ENDBRANCH   1  23
TORSDOF 16
