REMARK SMILES CC[NH2+][C@]1(C(=O)NCCCNC(=O)c2ccc(-c3c4nc(c(-c5cc(S(=O)(=O)[O-])ccc5F)c5ccc([nH]5)c(-c5cc(S(=O)(=O)[O-])ccc5F)c5nc(c(-c6cc(S(=O)(=O)[O-])ccc6F)c6ccc3[nH]6)C=C5)C=C4)cc2)CCC[C@H]1CC[N@H+]1CCC[C@@H](CC)C1
REMARK SMILES IDX 8 1 7 2 5 3 6 4 4 6 77 7 80 8 78 9 79 10 3 11 2 14 1 15
REMARK SMILES IDX 81 16 82 17 83 18 84 19 90 20 85 22 87 23 86 24 88 25 89 26
REMARK SMILES IDX 9 27 10 28 11 29 12 30 13 32 14 33 15 34 76 35 16 36 75 37
REMARK SMILES IDX 17 38 18 39 19 40 69 41 20 42 74 43 68 44 70 45 21 46 73 47
REMARK SMILES IDX 67 48 66 49 22 51 54 52 34 53 53 54 35 55 38 56 52 57 71 58
REMARK SMILES IDX 36 59 37 60 51 62 72 63 39 64 23 65 24 66 32 67 25 68 31 69
REMARK SMILES IDX 33 70 30 71 26 72 27 73 28 74 29 75 55 76 56 77 64 78 57 79
REMARK SMILES IDX 63 80 65 81 62 82 58 83 59 84 60 85 61 86 40 87 41 88 49 89
REMARK SMILES IDX 42 90 48 91 50 92 47 93 43 94 44 95 45 96 46 97
REMARK H PARENT 7 5 3 12 3 13 83 21 11 31 70 50 38 61
REMARK Flexibility Score: inf
ROOT
ATOM      1  C   UNL     1       2.378   4.141  -2.380  1.00  0.00     0.118 C 
ENDROOT
BRANCH   1   2
ATOM      2  N   UNL     1       2.029   2.984  -1.579  1.00  0.00    -0.351 N 
ATOM      3  C   UNL     1       1.296   2.773  -0.455  1.00  0.00     0.281 C 
ATOM      4  O   UNL     1       1.235   1.571  -0.157  1.00  0.00    -0.268 OA
ATOM      5  H   UNL     1       2.416   2.151  -1.935  1.00  0.00     0.163 HD
BRANCH   3   6
ATOM      6  C   UNL     1       0.485   3.877   0.315  1.00  0.00     0.178 C 
ATOM      7  C   UNL     1       1.111   5.287   0.353  1.00  0.00     0.079 C 
ATOM      8  C   UNL     1      -0.936   4.142  -0.296  1.00  0.00     0.066 C 
ATOM      9  C   UNL     1      -0.031   6.234   0.693  1.00  0.00     0.008 C 
ATOM     10  C   UNL     1      -1.249   5.631   0.010  1.00  0.00     0.011 C 
BRANCH   6  11
ATOM     11  N   UNL     1       0.305   3.598   1.792  1.00  0.00    -0.334 N 
ATOM     12  H   UNL     1       0.726   4.378   2.297  1.00  0.00     0.347 HD
ATOM     13  H   UNL     1      -0.703   3.476   1.895  1.00  0.00     0.347 HD
BRANCH  11  14
ATOM     14  C   UNL     1       0.862   2.376   2.354  1.00  0.00     0.257 C 
ATOM     15  C   UNL     1       0.728   2.407   3.872  1.00  0.00     0.071 C 
ENDBRANCH  11  14
ENDBRANCH   6  11
BRANCH   8  16
ATOM     16  C   UNL     1      -1.182   3.877  -1.801  1.00  0.00     0.072 C 
BRANCH  16  17
ATOM     17  C   UNL     1      -1.298   2.405  -2.235  1.00  0.00     0.262 C 
BRANCH  17  18
ATOM     18  N   UNL     1      -2.207   1.600  -1.404  1.00  0.00    -0.335 N 
ATOM     19  C   UNL     1      -3.601   2.035  -1.544  1.00  0.00     0.262 C 
ATOM     20  C   UNL     1      -2.049   0.173  -1.741  1.00  0.00     0.265 C 
ATOM     21  H   UNL     1      -1.958   1.737  -0.424  1.00  0.00     0.348 HD
ATOM     22  C   UNL     1      -4.526   1.207  -0.658  1.00  0.00     0.062 C 
ATOM     23  C   UNL     1      -2.960  -0.736  -0.894  1.00  0.00     0.044 C 
ATOM     24  C   UNL     1      -4.420  -0.275  -0.996  1.00  0.00     0.015 C 
BRANCH  23  25
ATOM     25  C   UNL     1      -2.822  -2.235  -1.233  1.00  0.00     0.006 C 
ATOM     26  C   UNL     1      -2.686  -2.568  -2.712  1.00  0.00     0.004 C 
ENDBRANCH  23  25
ENDBRANCH  17  18
ENDBRANCH  16  17
ENDBRANCH   8  16
ENDBRANCH   3   6
ENDBRANCH   1   2
BRANCH   1  27
ATOM     27  C   UNL     1       3.696   4.753  -1.930  1.00  0.00     0.042 C 
BRANCH  27  28
ATOM     28  C   UNL     1       4.877   3.827  -2.186  1.00  0.00     0.118 C 
BRANCH  28  29
ATOM     29  N   UNL     1       5.156   3.693  -3.609  1.00  0.00    -0.352 N 
ATOM     30  C   UNL     1       6.149   4.273  -4.362  1.00  0.00     0.251 C 
ATOM     31  H   UNL     1       4.544   3.102  -4.104  1.00  0.00     0.163 HD
ATOM     32  O   UNL     1       6.044   4.295  -5.584  1.00  0.00    -0.269 OA
BRANCH  30  33
ATOM     33  C   UNL     1       7.324   4.873  -3.695  1.00  0.00     0.039 A 
ATOM     34  C   UNL     1       7.860   6.065  -4.189  1.00  0.00     0.014 A 
ATOM     35  C   UNL     1       7.914   4.243  -2.597  1.00  0.00     0.014 A 
ATOM     36  C   UNL     1       8.955   6.648  -3.547  1.00  0.00     0.010 A 
ATOM     37  C   UNL     1       8.933   4.877  -1.898  1.00  0.00     0.010 A 
ATOM     38  C   UNL     1       9.483   6.072  -2.380  1.00  0.00    -0.014 A 
BRANCH  38  39
ATOM     39  C   UNL     1      10.646   6.667  -1.674  1.00  0.00     0.031 A 
ATOM     40  C   UNL     1      11.923   5.879  -1.551  1.00  0.00     0.074 A 
ATOM     41  C   UNL     1      10.529   7.872  -1.085  1.00  0.00     0.049 A 
ATOM     42  N   UNL     1      13.018   6.166  -0.895  1.00  0.00    -0.248 NA
ATOM     43  C   UNL     1      11.952   4.569  -2.220  1.00  0.00     0.031 C 
ATOM     44  C   UNL     1       9.325   8.706  -1.095  1.00  0.00     0.029 A 
ATOM     45  N   UNL     1      11.432   8.603  -0.356  1.00  0.00    -0.354 N 
ATOM     46  C   UNL     1      13.851   5.063  -1.050  1.00  0.00     0.074 A 
ATOM     47  C   UNL     1      13.103   4.075  -1.796  1.00  0.00     0.031 C 
ATOM     48  C   UNL     1       9.575   9.847  -0.433  1.00  0.00     0.029 A 
ATOM     49  C   UNL     1      10.939   9.809   0.085  1.00  0.00     0.049 A 
ATOM     50  H   UNL     1      12.347   8.294  -0.167  1.00  0.00     0.167 HD
ATOM     51  C   UNL     1      15.133   4.900  -0.634  1.00  0.00     0.034 A 
ATOM     52  C   UNL     1      11.521  10.770   0.828  1.00  0.00     0.034 A 
ATOM     53  C   UNL     1      15.867   5.911   0.086  1.00  0.00     0.049 A 
ATOM     54  C   UNL     1      12.943  10.572   1.282  1.00  0.00     0.074 A 
ATOM     55  C   UNL     1      17.187   5.892   0.499  1.00  0.00     0.029 A 
ATOM     56  N   UNL     1      15.338   7.126   0.507  1.00  0.00    -0.354 N 
ATOM     57  N   UNL     1      13.740   9.547   1.083  1.00  0.00    -0.248 NA
ATOM     58  C   UNL     1      13.547  11.666   2.052  1.00  0.00     0.031 C 
ATOM     59  C   UNL     1      17.438   7.065   1.222  1.00  0.00     0.029 A 
ATOM     60  C   UNL     1      16.296   7.851   1.200  1.00  0.00     0.049 A 
ATOM     61  H   UNL     1      14.416   7.428   0.338  1.00  0.00     0.167 HD
ATOM     62  C   UNL     1      14.950   9.886   1.681  1.00  0.00     0.074 A 
ATOM     63  C   UNL     1      14.779  11.214   2.235  1.00  0.00     0.031 C 
ATOM     64  C   UNL     1      16.100   9.168   1.760  1.00  0.00     0.034 A 
BRANCH  51  65
ATOM     65  C   UNL     1      15.793   3.573  -0.932  1.00  0.00     0.023 A 
ATOM     66  C   UNL     1      15.963   3.110  -2.250  1.00  0.00     0.031 A 
ATOM     67  C   UNL     1      16.200   2.726   0.114  1.00  0.00     0.131 A 
ATOM     68  C   UNL     1      16.422   1.805  -2.484  1.00  0.00     0.055 A 
ATOM     69  C   UNL     1      16.746   1.464  -0.129  1.00  0.00     0.041 A 
ATOM     70  F   UNL     1      16.048   3.099   1.395  1.00  0.00    -0.206 F 
ATOM     71  C   UNL     1      16.839   0.987  -1.433  1.00  0.00     0.022 A 
BRANCH  68  72
ATOM     72  S   UNL     1      16.290   1.132  -4.164  1.00  0.00     0.124 S 
ATOM     73  O   UNL     1      14.859   1.272  -4.426  1.00  0.00    -0.237 OA
ATOM     74  O   UNL     1      17.169   2.012  -4.926  1.00  0.00    -0.237 OA
ATOM     75  O   UNL     1      16.756  -0.245  -4.019  1.00  0.00    -0.744 OA
ENDBRANCH  68  72
ENDBRANCH  51  65
BRANCH  52  76
ATOM     76  C   UNL     1      10.767  12.007   1.177  1.00  0.00     0.023 A 
ATOM     77  C   UNL     1      11.142  13.251   0.645  1.00  0.00     0.031 A 
ATOM     78  C   UNL     1       9.669  11.965   2.053  1.00  0.00     0.131 A 
ATOM     79  C   UNL     1      10.444  14.409   1.020  1.00  0.00     0.055 A 
ATOM     80  C   UNL     1       8.951  13.115   2.389  1.00  0.00     0.041 A 
ATOM     81  F   UNL     1       9.264  10.798   2.579  1.00  0.00    -0.206 F 
ATOM     82  C   UNL     1       9.344  14.348   1.878  1.00  0.00     0.022 A 
BRANCH  79  83
ATOM     83  S   UNL     1      11.030  16.012   0.406  1.00  0.00     0.124 S 
ATOM     84  O   UNL     1      12.384  16.062   0.947  1.00  0.00    -0.237 OA
ATOM     85  O   UNL     1      10.922  15.841  -1.039  1.00  0.00    -0.237 OA
ATOM     86  O   UNL     1      10.088  16.965   0.990  1.00  0.00    -0.744 OA
ENDBRANCH  79  83
ENDBRANCH  52  76
BRANCH  64  87
ATOM     87  C   UNL     1      17.271   9.832   2.440  1.00  0.00     0.023 A 
ATOM     88  C   UNL     1      17.268  10.104   3.819  1.00  0.00     0.031 A 
ATOM     89  C   UNL     1      18.400  10.209   1.692  1.00  0.00     0.131 A 
ATOM     90  C   UNL     1      18.350  10.784   4.398  1.00  0.00     0.055 A 
ATOM     91  C   UNL     1      19.499  10.832   2.284  1.00  0.00     0.041 A 
ATOM     92  F   UNL     1      18.454   9.975   0.371  1.00  0.00    -0.206 F 
ATOM     93  C   UNL     1      19.472  11.135   3.643  1.00  0.00     0.022 A 
BRANCH  90  94
ATOM     94  S   UNL     1      18.232  11.287   6.137  1.00  0.00     0.124 S 
ATOM     95  O   UNL     1      17.041  12.130   6.129  1.00  0.00    -0.237 OA
ATOM     96  O   UNL     1      18.102  10.006   6.824  1.00  0.00    -0.237 OA
ATOM     97  O   UNL     1      19.490  11.992   6.376  1.00  0.00    -0.744 OA
ENDBRANCH  90  94
ENDBRANCH  64  87
ENDBRANCH  38  39
ENDBRANCH  30  33
ENDBRANCH  28  29
ENDBRANCH  27  28
ENDBRANCH   1  27
TORSDOF 19
