REMARK SMILES C[C@H](C(=O)NCCCNC(=O)c1ccc(-c2c3nc(c(-c4cc(S(=O)(=O)[O-])ccc4F)c4ccc([nH]4)c(-c4cc(S(=O)(=O)[O-])ccc4F)c4nc(c(-c5cc(S(=O)(=O)[O-])ccc5F)c5ccc2[nH]5)C=C4)C=C3)cc1)c1cccc(C(=O)c2ccccc2)c1
REMARK SMILES IDX 7 1 6 2 5 3 3 4 4 5 2 7 1 8 75 9 76 10 88 11 77 12 79 13
REMARK SMILES IDX 78 14 80 15 81 16 82 17 83 18 87 19 84 20 86 21 85 22 8 23
REMARK SMILES IDX 9 24 10 25 11 27 12 28 13 29 74 30 14 31 73 32 15 33 16 34
REMARK SMILES IDX 17 35 67 36 18 37 72 38 66 39 68 40 19 41 71 42 65 43 64 44
REMARK SMILES IDX 20 46 52 47 32 48 51 49 33 50 36 51 50 52 69 53 34 54 35 55
REMARK SMILES IDX 49 57 70 58 37 59 21 60 22 61 30 62 23 63 29 64 31 65 28 66
REMARK SMILES IDX 24 67 25 68 26 69 27 70 53 71 54 72 62 73 55 74 61 75 63 76
REMARK SMILES IDX 60 77 56 78 57 79 58 80 59 81 38 82 39 83 47 84 40 85 46 86
REMARK SMILES IDX 48 87 45 88 41 89 42 90 43 91 44 92
REMARK H PARENT 5 6 9 26 68 45 36 56
REMARK Flexibility Score: inf
ROOT
ATOM      1  C   UNL     1      -0.495   2.815   1.100  1.00  0.00     0.042 C 
ENDROOT
BRANCH   1   2
ATOM      2  C   UNL     1       0.783   2.402   0.374  1.00  0.00     0.117 C 
BRANCH   2   3
ATOM      3  N   UNL     1       1.144   1.018   0.622  1.00  0.00    -0.356 N 
ATOM      4  C   UNL     1       1.043  -0.074  -0.192  1.00  0.00     0.227 C 
ATOM      5  O   UNL     1       1.404  -1.163   0.262  1.00  0.00    -0.274 OA
ATOM      6  H   UNL     1       1.518   0.839   1.514  1.00  0.00     0.163 HD
BRANCH   4   7
ATOM      7  C   UNL     1       0.479   0.069  -1.613  1.00  0.00     0.105 C 
ATOM      8  C   UNL     1       1.135  -0.969  -2.536  1.00  0.00     0.023 C 
BRANCH   7   9
ATOM      9  C   UNL     1      -1.041  -0.035  -1.601  1.00  0.00    -0.035 A 
ATOM     10  C   UNL     1      -1.830   1.117  -1.730  1.00  0.00     0.004 A 
ATOM     11  C   UNL     1      -1.686  -1.268  -1.404  1.00  0.00     0.016 A 
ATOM     12  C   UNL     1      -3.219   1.047  -1.617  1.00  0.00     0.001 A 
ATOM     13  C   UNL     1      -3.082  -1.352  -1.304  1.00  0.00     0.023 A 
ATOM     14  C   UNL     1      -3.842  -0.181  -1.400  1.00  0.00     0.012 A 
BRANCH  13  15
ATOM     15  C   UNL     1      -3.804  -2.651  -1.157  1.00  0.00     0.193 C 
ATOM     16  O   UNL     1      -5.029  -2.693  -1.226  1.00  0.00    -0.289 OA
BRANCH  15  17
ATOM     17  C   UNL     1      -3.074  -3.930  -1.028  1.00  0.00     0.022 A 
ATOM     18  C   UNL     1      -3.326  -4.928  -1.976  1.00  0.00     0.012 A 
ATOM     19  C   UNL     1      -2.155  -4.149   0.003  1.00  0.00     0.012 A 
ATOM     20  C   UNL     1      -2.617  -6.127  -1.924  1.00  0.00     0.001 A 
ATOM     21  C   UNL     1      -1.443  -5.349   0.045  1.00  0.00     0.001 A 
ATOM     22  C   UNL     1      -1.669  -6.332  -0.921  1.00  0.00     0.000 A 
ENDBRANCH  15  17
ENDBRANCH  13  15
ENDBRANCH   7   9
ENDBRANCH   4   7
ENDBRANCH   2   3
ENDBRANCH   1   2
BRANCH   1  23
ATOM     23  C   UNL     1      -0.365   2.904   2.618  1.00  0.00     0.118 C 
BRANCH  23  24
ATOM     24  N   UNL     1       0.603   3.906   3.037  1.00  0.00    -0.352 N 
ATOM     25  C   UNL     1       0.473   4.994   3.859  1.00  0.00     0.251 C 
ATOM     26  H   UNL     1       1.506   3.780   2.665  1.00  0.00     0.163 HD
ATOM     27  O   UNL     1       1.401   5.806   3.894  1.00  0.00    -0.269 OA
BRANCH  25  28
ATOM     28  C   UNL     1      -0.738   5.224   4.681  1.00  0.00     0.039 A 
ATOM     29  C   UNL     1      -1.149   6.544   4.897  1.00  0.00     0.014 A 
ATOM     30  C   UNL     1      -1.434   4.179   5.298  1.00  0.00     0.014 A 
ATOM     31  C   UNL     1      -2.271   6.811   5.685  1.00  0.00     0.010 A 
ATOM     32  C   UNL     1      -2.597   4.442   6.026  1.00  0.00     0.010 A 
ATOM     33  C   UNL     1      -3.024   5.761   6.234  1.00  0.00    -0.014 A 
BRANCH  33  34
ATOM     34  C   UNL     1      -4.254   6.047   7.021  1.00  0.00     0.031 A 
ATOM     35  C   UNL     1      -4.324   5.722   8.489  1.00  0.00     0.074 A 
ATOM     36  C   UNL     1      -5.323   6.584   6.399  1.00  0.00     0.049 A 
ATOM     37  N   UNL     1      -5.303   5.919   9.335  1.00  0.00    -0.248 NA
ATOM     38  C   UNL     1      -3.147   5.067   9.078  1.00  0.00     0.031 C 
ATOM     39  C   UNL     1      -5.397   6.894   4.969  1.00  0.00     0.029 A 
ATOM     40  N   UNL     1      -6.546   6.970   6.885  1.00  0.00    -0.354 N 
ATOM     41  C   UNL     1      -4.865   5.410  10.553  1.00  0.00     0.074 A 
ATOM     42  C   UNL     1      -3.555   4.840  10.317  1.00  0.00     0.031 C 
ATOM     43  C   UNL     1      -6.588   7.452   4.701  1.00  0.00     0.029 A 
ATOM     44  C   UNL     1      -7.375   7.510   5.929  1.00  0.00     0.049 A 
ATOM     45  H   UNL     1      -6.807   6.869   7.829  1.00  0.00     0.167 HD
ATOM     46  C   UNL     1      -5.486   5.437  11.760  1.00  0.00     0.034 A 
ATOM     47  C   UNL     1      -8.627   7.999   6.028  1.00  0.00     0.034 A 
ATOM     48  C   UNL     1      -6.792   6.014  11.981  1.00  0.00     0.049 A 
ATOM     49  C   UNL     1      -9.294   8.021   7.378  1.00  0.00     0.074 A 
ATOM     50  C   UNL     1      -7.490   6.142  13.170  1.00  0.00     0.029 A 
ATOM     51  N   UNL     1      -7.603   6.552  10.989  1.00  0.00    -0.354 N 
ATOM     52  N   UNL     1      -8.839   7.593   8.533  1.00  0.00    -0.248 NA
ATOM     53  C   UNL     1     -10.637   8.611   7.439  1.00  0.00     0.031 C 
ATOM     54  C   UNL     1      -8.743   6.699  12.889  1.00  0.00     0.029 A 
ATOM     55  C   UNL     1      -8.803   6.986  11.535  1.00  0.00     0.049 A 
ATOM     56  H   UNL     1      -7.361   6.617  10.037  1.00  0.00     0.167 HD
ATOM     57  C   UNL     1      -9.835   7.881   9.462  1.00  0.00     0.074 A 
ATOM     58  C   UNL     1     -10.899   8.545   8.735  1.00  0.00     0.031 C 
ATOM     59  C   UNL     1      -9.868   7.622  10.795  1.00  0.00     0.034 A 
BRANCH  46  60
ATOM     60  C   UNL     1      -4.763   4.801  12.926  1.00  0.00     0.023 A 
ATOM     61  C   UNL     1      -3.530   5.294  13.388  1.00  0.00     0.031 A 
ATOM     62  C   UNL     1      -5.300   3.670  13.569  1.00  0.00     0.131 A 
ATOM     63  C   UNL     1      -2.839   4.617  14.405  1.00  0.00     0.055 A 
ATOM     64  C   UNL     1      -4.645   3.048  14.634  1.00  0.00     0.041 A 
ATOM     65  F   UNL     1      -6.464   3.141  13.162  1.00  0.00    -0.206 F 
ATOM     66  C   UNL     1      -3.399   3.511  15.048  1.00  0.00     0.022 A 
BRANCH  63  67
ATOM     67  S   UNL     1      -1.134   5.115  14.775  1.00  0.00     0.124 S 
ATOM     68  O   UNL     1      -0.483   4.922  13.481  1.00  0.00    -0.237 OA
ATOM     69  O   UNL     1      -1.297   6.498  15.208  1.00  0.00    -0.237 OA
ATOM     70  O   UNL     1      -0.721   4.179  15.818  1.00  0.00    -0.744 OA
ENDBRANCH  63  67
ENDBRANCH  46  60
BRANCH  47  71
ATOM     71  C   UNL     1      -9.332   8.513   4.821  1.00  0.00     0.023 A 
ATOM     72  C   UNL     1      -9.664   9.871   4.699  1.00  0.00     0.031 A 
ATOM     73  C   UNL     1      -9.717   7.643   3.785  1.00  0.00     0.131 A 
ATOM     74  C   UNL     1     -10.398  10.315   3.588  1.00  0.00     0.055 A 
ATOM     75  C   UNL     1     -10.405   8.098   2.659  1.00  0.00     0.041 A 
ATOM     76  F   UNL     1      -9.415   6.337   3.848  1.00  0.00    -0.206 F 
ATOM     77  C   UNL     1     -10.760   9.440   2.562  1.00  0.00     0.022 A 
BRANCH  74  78
ATOM     78  S   UNL     1     -10.938  12.046   3.540  1.00  0.00     0.124 S 
ATOM     79  O   UNL     1     -11.720  12.149   4.766  1.00  0.00    -0.237 OA
ATOM     80  O   UNL     1      -9.665  12.759   3.529  1.00  0.00    -0.237 OA
ATOM     81  O   UNL     1     -11.706  12.128   2.299  1.00  0.00    -0.744 OA
ENDBRANCH  74  78
ENDBRANCH  47  71
BRANCH  59  82
ATOM     82  C   UNL     1     -11.095   8.086  11.543  1.00  0.00     0.023 A 
ATOM     83  C   UNL     1     -12.364   7.536  11.290  1.00  0.00     0.031 A 
ATOM     84  C   UNL     1     -11.001   9.123  12.488  1.00  0.00     0.131 A 
ATOM     85  C   UNL     1     -13.498   8.074  11.918  1.00  0.00     0.055 A 
ATOM     86  C   UNL     1     -12.124   9.610  13.158  1.00  0.00     0.041 A 
ATOM     87  F   UNL     1      -9.815   9.687  12.768  1.00  0.00    -0.206 F 
ATOM     88  C   UNL     1     -13.384   9.098  12.862  1.00  0.00     0.022 A 
BRANCH  85  89
ATOM     89  S   UNL     1     -15.136   7.497  11.396  1.00  0.00     0.124 S 
ATOM     90  O   UNL     1     -15.110   7.765   9.961  1.00  0.00    -0.237 OA
ATOM     91  O   UNL     1     -15.110   6.090  11.782  1.00  0.00    -0.237 OA
ATOM     92  O   UNL     1     -16.056   8.334  12.165  1.00  0.00    -0.744 OA
ENDBRANCH  85  89
ENDBRANCH  59  82
ENDBRANCH  33  34
ENDBRANCH  25  28
ENDBRANCH  23  24
ENDBRANCH   1  23
TORSDOF 16
