REMARK SMILES C[C@]12C(=O)N(c3ccc(C(=O)NCCCNC(=O)c4ccc(-c5c6nc(c(-c7cc(S(=O)(=O)[O-])ccc7F)c7ccc([nH]7)c(-c7cc(S(=O)(=O)[O-])ccc7F)c7nc(c(-c8cc(S(=O)(=O)[O-])ccc8F)c8ccc5[nH]8)C=C7)C=C6)cc4)cc3)C(=O)C1[C@H]1c3ccccc3[C@@H]2c2ccccc21
REMARK SMILES IDX 15 1 14 2 13 3 12 4 10 5 11 6 9 8 6 9 7 10 83 11 8 12 82 13
REMARK SMILES IDX 5 14 1 15 2 16 3 17 86 18 94 19 4 20 84 21 87 22 93 23 95 24
REMARK SMILES IDX 85 25 88 26 100 27 92 28 96 29 89 30 99 31 91 32 97 33 90 34
REMARK SMILES IDX 98 35 16 36 17 37 18 39 19 40 20 41 81 42 21 43 80 44 22 45
REMARK SMILES IDX 23 46 24 47 74 48 25 49 79 50 73 51 75 52 26 53 78 54 72 55
REMARK SMILES IDX 71 56 27 58 59 59 39 60 58 61 40 62 43 63 57 64 76 65 41 66
REMARK SMILES IDX 42 67 56 69 77 70 44 71 28 72 29 73 37 74 30 75 36 76 38 77
REMARK SMILES IDX 35 78 31 79 32 80 33 81 34 82 60 83 61 84 69 85 62 86 68 87
REMARK SMILES IDX 70 88 67 89 63 90 64 91 65 92 66 93 45 94 46 95 54 96 47 97
REMARK SMILES IDX 53 98 55 99 52 100 48 101 49 102 50 103 51 104
REMARK H PARENT 12 7 16 38 75 57 43 68
REMARK Flexibility Score: inf
ROOT
ATOM      1  C   UNL     1      -6.560   2.058   9.454  1.00  0.00     0.118 C 
ENDROOT
BRANCH   1   2
ATOM      2  C   UNL     1      -5.257   2.102   8.666  1.00  0.00     0.042 C 
BRANCH   2   3
ATOM      3  C   UNL     1      -4.513   0.775   8.654  1.00  0.00     0.118 C 
BRANCH   3   4
ATOM      4  N   UNL     1      -5.203  -0.259   7.899  1.00  0.00    -0.352 N 
ATOM      5  C   UNL     1      -5.065  -0.722   6.617  1.00  0.00     0.251 C 
ATOM      6  O   UNL     1      -5.882  -1.550   6.211  1.00  0.00    -0.269 OA
ATOM      7  H   UNL     1      -5.910  -0.716   8.410  1.00  0.00     0.163 HD
BRANCH   5   8
ATOM      8  C   UNL     1      -3.997  -0.259   5.693  1.00  0.00     0.039 A 
ATOM      9  C   UNL     1      -1.998   0.401   3.764  1.00  0.00     0.052 A 
ATOM     10  C   UNL     1      -3.323   0.120   3.386  1.00  0.00     0.027 A 
ATOM     11  C   UNL     1      -1.713   0.384   5.138  1.00  0.00     0.027 A 
ATOM     12  C   UNL     1      -4.305  -0.210   4.332  1.00  0.00     0.016 A 
ATOM     13  C   UNL     1      -2.686   0.010   6.082  1.00  0.00     0.016 A 
BRANCH   9  14
ATOM     14  N   UNL     1      -0.928   0.411   2.797  1.00  0.00    -0.250 N 
ATOM     15  C   UNL     1       0.911  -0.062   0.179  1.00  0.00     0.024 C 
ATOM     16  C   UNL     1       0.171  -0.930   1.220  1.00  0.00     0.071 C 
ATOM     17  C   UNL     1      -1.107  -0.201   1.555  1.00  0.00     0.241 C 
ATOM     18  C   UNL     1       0.869  -0.951   2.594  1.00  0.00     0.107 C 
ATOM     19  C   UNL     1      -0.033  -2.420   0.798  1.00  0.00     0.066 C 
ATOM     20  O   UNL     1      -2.067  -0.176   0.797  1.00  0.00    -0.273 OA
ATOM     21  C   UNL     1       0.437   0.355   3.186  1.00  0.00     0.238 C 
ATOM     22  C   UNL     1       1.723  -2.240   2.801  1.00  0.00     0.063 C 
ATOM     23  C   UNL     1      -0.439  -3.243   2.047  1.00  0.00    -0.036 A 
ATOM     24  C   UNL     1       1.371  -2.909   0.437  1.00  0.00    -0.036 A 
ATOM     25  O   UNL     1       1.082   1.077   3.923  1.00  0.00    -0.274 OA
ATOM     26  C   UNL     1       0.560  -3.268   3.087  1.00  0.00    -0.036 A 
ATOM     27  C   UNL     1       2.321  -2.759   1.489  1.00  0.00    -0.036 A 
ATOM     28  C   UNL     1      -1.714  -3.722   2.301  1.00  0.00     0.005 A 
ATOM     29  C   UNL     1       1.710  -3.515  -0.765  1.00  0.00     0.005 A 
ATOM     30  C   UNL     1       0.281  -3.792   4.343  1.00  0.00     0.004 A 
ATOM     31  C   UNL     1       3.610  -3.248   1.325  1.00  0.00     0.004 A 
ATOM     32  C   UNL     1      -1.993  -4.229   3.574  1.00  0.00     0.000 A 
ATOM     33  C   UNL     1       3.008  -3.994  -0.921  1.00  0.00     0.000 A 
ATOM     34  C   UNL     1      -1.008  -4.272   4.578  1.00  0.00     0.000 A 
ATOM     35  C   UNL     1       3.947  -3.864   0.114  1.00  0.00     0.000 A 
ENDBRANCH   9  14
ENDBRANCH   5   8
ENDBRANCH   3   4
ENDBRANCH   2   3
ENDBRANCH   1   2
BRANCH   1  36
ATOM     36  N   UNL     1      -6.354   1.805  10.878  1.00  0.00    -0.352 N 
ATOM     37  C   UNL     1      -6.221   2.658  11.949  1.00  0.00     0.251 C 
ATOM     38  H   UNL     1      -6.300   0.850  11.114  1.00  0.00     0.163 HD
ATOM     39  O   UNL     1      -5.826   2.204  13.021  1.00  0.00    -0.269 OA
BRANCH  37  40
ATOM     40  C   UNL     1      -6.508   4.105  11.818  1.00  0.00     0.039 A 
ATOM     41  C   UNL     1      -7.580   4.558  11.054  1.00  0.00     0.014 A 
ATOM     42  C   UNL     1      -5.710   5.031  12.499  1.00  0.00     0.014 A 
ATOM     43  C   UNL     1      -7.721   5.916  10.791  1.00  0.00     0.010 A 
ATOM     44  C   UNL     1      -5.926   6.404  12.327  1.00  0.00     0.010 A 
ATOM     45  C   UNL     1      -6.896   6.861  11.422  1.00  0.00    -0.014 A 
BRANCH  45  46
ATOM     46  C   UNL     1      -7.084   8.307  11.121  1.00  0.00     0.031 A 
ATOM     47  C   UNL     1      -5.980   9.119  10.496  1.00  0.00     0.074 A 
ATOM     48  C   UNL     1      -8.284   8.877  11.355  1.00  0.00     0.049 A 
ATOM     49  N   UNL     1      -5.993  10.374  10.128  1.00  0.00    -0.248 NA
ATOM     50  C   UNL     1      -4.693   8.444  10.258  1.00  0.00     0.031 C 
ATOM     51  C   UNL     1      -9.425   8.195  11.969  1.00  0.00     0.029 A 
ATOM     52  N   UNL     1      -8.758  10.139  11.090  1.00  0.00    -0.354 N 
ATOM     53  C   UNL     1      -4.719  10.647   9.642  1.00  0.00     0.074 A 
ATOM     54  C   UNL     1      -3.946   9.434   9.786  1.00  0.00     0.031 C 
ATOM     55  C   UNL     1     -10.478   9.022  11.980  1.00  0.00     0.029 A 
ATOM     56  C   UNL     1     -10.073  10.322  11.451  1.00  0.00     0.049 A 
ATOM     57  H   UNL     1      -8.208  10.845  10.680  1.00  0.00     0.167 HD
ATOM     58  C   UNL     1      -4.246  11.799   9.112  1.00  0.00     0.034 A 
ATOM     59  C   UNL     1     -10.867  11.411  11.386  1.00  0.00     0.034 A 
ATOM     60  C   UNL     1      -5.040  12.988   8.932  1.00  0.00     0.049 A 
ATOM     61  C   UNL     1     -10.317  12.677  10.783  1.00  0.00     0.074 A 
ATOM     62  C   UNL     1      -4.658  14.184   8.351  1.00  0.00     0.029 A 
ATOM     63  N   UNL     1      -6.363  13.136   9.319  1.00  0.00    -0.354 N 
ATOM     64  N   UNL     1      -9.128  12.892  10.271  1.00  0.00    -0.248 NA
ATOM     65  C   UNL     1     -11.207  13.845  10.739  1.00  0.00     0.031 C 
ATOM     66  C   UNL     1      -5.726  15.075   8.443  1.00  0.00     0.029 A 
ATOM     67  C   UNL     1      -6.801  14.415   9.015  1.00  0.00     0.049 A 
ATOM     68  H   UNL     1      -6.909  12.438   9.746  1.00  0.00     0.167 HD
ATOM     69  C   UNL     1      -9.130  14.215   9.839  1.00  0.00     0.074 A 
ATOM     70  C   UNL     1     -10.451  14.739  10.114  1.00  0.00     0.031 C 
ATOM     71  C   UNL     1      -8.124  14.930   9.277  1.00  0.00     0.034 A 
BRANCH  58  72
ATOM     72  C   UNL     1      -2.808  11.862   8.657  1.00  0.00     0.023 A 
ATOM     73  C   UNL     1      -1.919  12.758   9.281  1.00  0.00     0.031 A 
ATOM     74  C   UNL     1      -2.369  11.175   7.512  1.00  0.00     0.131 A 
ATOM     75  C   UNL     1      -0.653  12.982   8.726  1.00  0.00     0.055 A 
ATOM     76  C   UNL     1      -1.091  11.371   6.987  1.00  0.00     0.041 A 
ATOM     77  F   UNL     1      -3.181  10.311   6.882  1.00  0.00    -0.206 F 
ATOM     78  C   UNL     1      -0.233  12.290   7.585  1.00  0.00     0.022 A 
BRANCH  75  79
ATOM     79  S   UNL     1       0.466  14.231   9.417  1.00  0.00     0.124 S 
ATOM     80  O   UNL     1       1.669  13.444   9.680  1.00  0.00    -0.237 OA
ATOM     81  O   UNL     1       0.573  15.185   8.318  1.00  0.00    -0.237 OA
ATOM     82  O   UNL     1      -0.233  14.708  10.605  1.00  0.00    -0.744 OA
ENDBRANCH  75  79
ENDBRANCH  58  72
BRANCH  59  83
ATOM     83  C   UNL     1     -12.268  11.317  11.895  1.00  0.00     0.023 A 
ATOM     84  C   UNL     1     -12.520  10.977  13.238  1.00  0.00     0.031 A 
ATOM     85  C   UNL     1     -13.368  11.443  11.031  1.00  0.00     0.131 A 
ATOM     86  C   UNL     1     -13.826  10.694  13.655  1.00  0.00     0.055 A 
ATOM     87  C   UNL     1     -14.677  11.239  11.471  1.00  0.00     0.041 A 
ATOM     88  F   UNL     1     -13.181  11.753   9.738  1.00  0.00    -0.206 F 
ATOM     89  C   UNL     1     -14.909  10.840  12.784  1.00  0.00     0.022 A 
BRANCH  86  90
ATOM     90  S   UNL     1     -14.137   9.964  15.287  1.00  0.00     0.124 S 
ATOM     91  O   UNL     1     -14.920  11.007  15.941  1.00  0.00    -0.237 OA
ATOM     92  O   UNL     1     -14.870   8.748  14.938  1.00  0.00    -0.237 OA
ATOM     93  O   UNL     1     -12.799   9.743  15.826  1.00  0.00    -0.744 OA
ENDBRANCH  86  90
ENDBRANCH  59  83
BRANCH  71  94
ATOM     94  C   UNL     1      -8.375  16.372   8.912  1.00  0.00     0.023 A 
ATOM     95  C   UNL     1      -8.283  16.785   7.569  1.00  0.00     0.031 A 
ATOM     96  C   UNL     1      -8.536  17.357   9.902  1.00  0.00     0.131 A 
ATOM     97  C   UNL     1      -8.303  18.150   7.256  1.00  0.00     0.055 A 
ATOM     98  C   UNL     1      -8.605  18.713   9.580  1.00  0.00     0.041 A 
ATOM     99  F   UNL     1      -8.618  17.014  11.197  1.00  0.00    -0.206 F 
ATOM    100  C   UNL     1      -8.471  19.116   8.254  1.00  0.00     0.022 A 
BRANCH  97 101
ATOM    101  S   UNL     1      -8.015  18.727   5.561  1.00  0.00     0.124 S 
ATOM    102  O   UNL     1      -9.264  19.424   5.263  1.00  0.00    -0.237 OA
ATOM    103  O   UNL     1      -6.845  19.586   5.722  1.00  0.00    -0.237 OA
ATOM    104  O   UNL     1      -7.793  17.500   4.803  1.00  0.00    -0.744 OA
ENDBRANCH  97 101
ENDBRANCH  71  94
ENDBRANCH  45  46
ENDBRANCH  37  40
ENDBRANCH   1  36
TORSDOF 14
