REMARK SMILES CCc1cc2c(C)cc(=O)oc2cc1O[C@H](C)C(=O)NCCCNC(=O)c1ccc(-c2c3nc(c(-c4cc(S(=O)(=O)[O-])ccc4F)c4ccc([nH]4)c(-c4cc(S(=O)(=O)[O-])ccc4F)c4nc(c(-c5cc(S(=O)(=O)[O-])ccc5F)c5ccc2[nH]5)C=C4)C=C3)cc1
REMARK SMILES IDX 22 1 21 2 20 3 18 4 19 5 16 7 17 8 15 9 14 10 3 11 4 12 5 13
REMARK SMILES IDX 13 14 6 15 12 16 7 17 8 18 11 19 9 20 10 21 2 22 1 23 23 24
REMARK SMILES IDX 24 25 25 26 26 28 27 29 28 30 89 31 29 32 88 33 30 34 31 35
REMARK SMILES IDX 32 36 82 37 33 38 87 39 81 40 83 41 34 42 86 43 80 44 79 45
REMARK SMILES IDX 35 47 67 48 47 49 66 50 48 51 51 52 65 53 84 54 49 55 50 56
REMARK SMILES IDX 64 58 85 59 52 60 36 61 37 62 45 63 38 64 44 65 46 66 43 67
REMARK SMILES IDX 39 68 40 69 41 70 42 71 68 72 69 73 77 74 70 75 76 76 78 77
REMARK SMILES IDX 75 78 71 79 72 80 73 81 74 82 53 83 54 84 62 85 55 86 61 87
REMARK SMILES IDX 63 88 60 89 56 90 57 91 58 92 59 93
REMARK H PARENT 20 6 24 27 83 46 51 57
REMARK Flexibility Score: inf
ROOT
ATOM      1  C   UNL     1       1.042  -1.390   5.010  1.00  0.00     0.042 C 
ENDROOT
BRANCH   1   2
ATOM      2  C   UNL     1       1.581  -2.812   4.999  1.00  0.00     0.118 C 
BRANCH   2   3
ATOM      3  N   UNL     1       0.510  -3.770   4.810  1.00  0.00    -0.353 N 
ATOM      4  C   UNL     1       0.404  -4.771   3.897  1.00  0.00     0.260 C 
ATOM      5  O   UNL     1      -0.626  -5.450   3.896  1.00  0.00    -0.271 OA
ATOM      6  H   UNL     1      -0.249  -3.682   5.431  1.00  0.00     0.163 HD
BRANCH   4   7
ATOM      7  C   UNL     1       1.544  -5.064   2.895  1.00  0.00     0.258 C 
ATOM      8  C   UNL     1       1.502  -3.975   1.812  1.00  0.00     0.064 C 
BRANCH   7   9
ATOM      9  O   UNL     1       2.904  -5.204   3.296  1.00  0.00    -0.480 OA
BRANCH   9  10
ATOM     10  C   UNL     1       3.246  -5.739   4.507  1.00  0.00     0.127 A 
ATOM     11  C   UNL     1       4.575  -5.517   4.929  1.00  0.00    -0.005 A 
ATOM     12  C   UNL     1       4.950  -5.876   6.243  1.00  0.00     0.019 A 
ATOM     13  C   UNL     1       4.048  -6.477   7.126  1.00  0.00     0.021 A 
ATOM     14  C   UNL     1       2.374  -6.426   5.349  1.00  0.00     0.094 A 
ATOM     15  C   UNL     1       4.375  -6.841   8.510  1.00  0.00    -0.033 A 
ATOM     16  C   UNL     1       2.767  -6.738   6.651  1.00  0.00     0.142 A 
ATOM     17  C   UNL     1       5.784  -6.724   9.011  1.00  0.00     0.045 C 
ATOM     18  C   UNL     1       3.386  -7.286   9.300  1.00  0.00     0.098 A 
ATOM     19  O   UNL     1       1.769  -7.278   7.486  1.00  0.00    -0.423 OA
ATOM     20  C   UNL     1       2.003  -7.474   8.836  1.00  0.00     0.336 A 
ATOM     21  O   UNL     1       1.126  -7.832   9.613  1.00  0.00    -0.246 OA
BRANCH  11  22
ATOM     22  C   UNL     1       5.585  -4.840   4.019  1.00  0.00     0.036 C 
ATOM     23  C   UNL     1       6.963  -5.498   4.017  1.00  0.00     0.009 C 
ENDBRANCH  11  22
ENDBRANCH   9  10
ENDBRANCH   7   9
ENDBRANCH   4   7
ENDBRANCH   2   3
ENDBRANCH   1   2
BRANCH   1  24
ATOM     24  C   UNL     1       0.152  -1.087   6.209  1.00  0.00     0.118 C 
BRANCH  24  25
ATOM     25  N   UNL     1       0.887  -1.093   7.466  1.00  0.00    -0.352 N 
ATOM     26  C   UNL     1       0.958  -0.115   8.429  1.00  0.00     0.251 C 
ATOM     27  H   UNL     1       1.405  -1.909   7.651  1.00  0.00     0.163 HD
ATOM     28  O   UNL     1       1.782  -0.209   9.334  1.00  0.00    -0.269 OA
BRANCH  26  29
ATOM     29  C   UNL     1       0.062   1.058   8.344  1.00  0.00     0.039 A 
ATOM     30  C   UNL     1       0.595   2.334   8.540  1.00  0.00     0.014 A 
ATOM     31  C   UNL     1      -1.294   0.901   8.042  1.00  0.00     0.014 A 
ATOM     32  C   UNL     1      -0.217   3.455   8.360  1.00  0.00     0.010 A 
ATOM     33  C   UNL     1      -2.078   2.019   7.781  1.00  0.00     0.010 A 
ATOM     34  C   UNL     1      -1.549   3.309   7.938  1.00  0.00    -0.014 A 
BRANCH  34  35
ATOM     35  C   UNL     1      -2.402   4.493   7.652  1.00  0.00     0.031 A 
ATOM     36  C   UNL     1      -3.647   4.738   8.460  1.00  0.00     0.074 A 
ATOM     37  C   UNL     1      -2.089   5.307   6.624  1.00  0.00     0.049 A 
ATOM     38  N   UNL     1      -4.555   5.669   8.320  1.00  0.00    -0.248 NA
ATOM     39  C   UNL     1      -3.924   3.788   9.547  1.00  0.00     0.031 C 
ATOM     40  C   UNL     1      -0.933   5.143   5.739  1.00  0.00     0.029 A 
ATOM     41  N   UNL     1      -2.717   6.428   6.143  1.00  0.00    -0.354 N 
ATOM     42  C   UNL     1      -5.517   5.410   9.291  1.00  0.00     0.074 A 
ATOM     43  C   UNL     1      -5.112   4.195   9.965  1.00  0.00     0.031 C 
ATOM     44  C   UNL     1      -0.921   6.141   4.842  1.00  0.00     0.029 A 
ATOM     45  C   UNL     1      -2.091   6.988   5.053  1.00  0.00     0.049 A 
ATOM     46  H   UNL     1      -3.539   6.797   6.540  1.00  0.00     0.167 HD
ATOM     47  C   UNL     1      -6.621   6.132   9.606  1.00  0.00     0.034 A 
ATOM     48  C   UNL     1      -2.427   8.054   4.300  1.00  0.00     0.034 A 
ATOM     49  C   UNL     1      -7.002   7.347   8.927  1.00  0.00     0.049 A 
ATOM     50  C   UNL     1      -3.671   8.829   4.653  1.00  0.00     0.074 A 
ATOM     51  C   UNL     1      -8.062   8.193   9.203  1.00  0.00     0.029 A 
ATOM     52  N   UNL     1      -6.345   7.885   7.827  1.00  0.00    -0.354 N 
ATOM     53  N   UNL     1      -4.538   8.607   5.614  1.00  0.00    -0.248 NA
ATOM     54  C   UNL     1      -3.974  10.005   3.828  1.00  0.00     0.031 C 
ATOM     55  C   UNL     1      -8.090   9.195   8.227  1.00  0.00     0.029 A 
ATOM     56  C   UNL     1      -6.998   9.028   7.390  1.00  0.00     0.049 A 
ATOM     57  H   UNL     1      -5.533   7.508   7.416  1.00  0.00     0.167 HD
ATOM     58  C   UNL     1      -5.476   9.632   5.524  1.00  0.00     0.074 A 
ATOM     59  C   UNL     1      -5.056  10.480   4.426  1.00  0.00     0.031 C 
ATOM     60  C   UNL     1      -6.580   9.855   6.282  1.00  0.00     0.034 A 
BRANCH  47  61
ATOM     61  C   UNL     1      -7.502   5.604  10.716  1.00  0.00     0.023 A 
ATOM     62  C   UNL     1      -7.024   5.448  12.029  1.00  0.00     0.031 A 
ATOM     63  C   UNL     1      -8.828   5.217  10.451  1.00  0.00     0.131 A 
ATOM     64  C   UNL     1      -7.831   4.839  13.002  1.00  0.00     0.055 A 
ATOM     65  C   UNL     1      -9.656   4.695  11.447  1.00  0.00     0.041 A 
ATOM     66  F   UNL     1      -9.337   5.323   9.213  1.00  0.00    -0.206 F 
ATOM     67  C   UNL     1      -9.153   4.486  12.727  1.00  0.00     0.022 A 
BRANCH  64  68
ATOM     68  S   UNL     1      -7.074   4.370  14.583  1.00  0.00     0.124 S 
ATOM     69  O   UNL     1      -5.990   3.494  14.142  1.00  0.00    -0.237 OA
ATOM     70  O   UNL     1      -6.670   5.658  15.134  1.00  0.00    -0.237 OA
ATOM     71  O   UNL     1      -8.158   3.697  15.296  1.00  0.00    -0.744 OA
ENDBRANCH  64  68
ENDBRANCH  47  61
BRANCH  48  72
ATOM     72  C   UNL     1      -1.585   8.447   3.134  1.00  0.00     0.023 A 
ATOM     73  C   UNL     1      -0.897   9.671   3.115  1.00  0.00     0.031 A 
ATOM     74  C   UNL     1      -1.479   7.614   2.006  1.00  0.00     0.131 A 
ATOM     75  C   UNL     1      -0.167  10.045   1.976  1.00  0.00     0.055 A 
ATOM     76  C   UNL     1      -0.709   7.968   0.896  1.00  0.00     0.041 A 
ATOM     77  F   UNL     1      -2.112   6.430   1.974  1.00  0.00    -0.206 F 
ATOM     78  C   UNL     1      -0.056   9.196   0.873  1.00  0.00     0.022 A 
BRANCH  75  79
ATOM     79  S   UNL     1       0.581  11.697   1.928  1.00  0.00     0.124 S 
ATOM     80  O   UNL     1      -0.586  12.556   2.094  1.00  0.00    -0.237 OA
ATOM     81  O   UNL     1       1.506  11.645   3.055  1.00  0.00    -0.237 OA
ATOM     82  O   UNL     1       1.211  11.747   0.610  1.00  0.00    -0.744 OA
ENDBRANCH  75  79
ENDBRANCH  48  72
BRANCH  60  83
ATOM     83  C   UNL     1      -7.388  11.091   5.968  1.00  0.00     0.023 A 
ATOM     84  C   UNL     1      -8.084  11.234   4.754  1.00  0.00     0.031 A 
ATOM     85  C   UNL     1      -7.454  12.147   6.895  1.00  0.00     0.131 A 
ATOM     86  C   UNL     1      -8.765  12.428   4.475  1.00  0.00     0.055 A 
ATOM     87  C   UNL     1      -8.187  13.306   6.639  1.00  0.00     0.041 A 
ATOM     88  F   UNL     1      -6.806  12.068   8.068  1.00  0.00    -0.206 F 
ATOM     89  C   UNL     1      -8.837  13.457   5.418  1.00  0.00     0.022 A 
BRANCH  86  90
ATOM     90  S   UNL     1      -9.477  12.660   2.823  1.00  0.00     0.124 S 
ATOM     91  O   UNL     1      -8.305  12.515   1.966  1.00  0.00    -0.237 OA
ATOM     92  O   UNL     1     -10.457  11.581   2.751  1.00  0.00    -0.237 OA
ATOM     93  O   UNL     1     -10.042  14.007   2.879  1.00  0.00    -0.744 OA
ENDBRANCH  86  90
ENDBRANCH  60  83
ENDBRANCH  34  35
ENDBRANCH  26  29
ENDBRANCH  24  25
ENDBRANCH   1  24
TORSDOF 16
