REMARK SMILES Cc1c(CC(=O)NCCCNC(=O)c2ccc(-c3c4nc(c(-c5cc(S(=O)(=O)[O-])ccc5F)c5ccc([nH]5)c(-c5cc(S(=O)(=O)[O-])ccc5F)c5nc(c(-c6cc(S(=O)(=O)[O-])ccc6F)c6ccc3[nH]6)C=C5)C=C4)cc2)cccc1-c1ccn(C(F)F)c(=O)c1
REMARK SMILES IDX 9 1 8 2 7 3 5 4 6 5 4 7 3 8 1 9 2 10 80 11 77 12 79 13 78 14
REMARK SMILES IDX 81 15 82 16 90 17 83 18 88 19 84 20 89 21 85 22 86 23 87 24
REMARK SMILES IDX 10 25 11 26 12 27 13 29 14 30 15 31 76 32 16 33 75 34 17 35
REMARK SMILES IDX 18 36 19 37 69 38 20 39 74 40 68 41 70 42 21 43 73 44 67 45
REMARK SMILES IDX 66 46 22 48 54 49 34 50 53 51 35 52 38 53 52 54 71 55 36 56
REMARK SMILES IDX 37 57 51 59 72 60 39 61 23 62 24 63 32 64 25 65 31 66 33 67
REMARK SMILES IDX 30 68 26 69 27 70 28 71 29 72 55 73 56 74 64 75 57 76 63 77
REMARK SMILES IDX 65 78 62 79 58 80 59 81 60 82 61 83 40 84 41 85 49 86 42 87
REMARK SMILES IDX 48 88 50 89 47 90 43 91 44 92 45 93 46 94
REMARK H PARENT 7 6 11 28 70 47 38 58
REMARK Flexibility Score: inf
ROOT
ATOM      1  C   UNL     1       1.580  -0.648   3.025  1.00  0.00     0.042 C 
ENDROOT
BRANCH   1   2
ATOM      2  C   UNL     1       2.166  -2.029   2.735  1.00  0.00     0.117 C 
BRANCH   2   3
ATOM      3  N   UNL     1       1.152  -3.011   2.372  1.00  0.00    -0.356 N 
ATOM      4  C   UNL     1       0.609  -3.295   1.151  1.00  0.00     0.224 C 
ATOM      5  O   UNL     1      -0.230  -4.195   1.060  1.00  0.00    -0.275 OA
ATOM      6  H   UNL     1       0.806  -3.551   3.119  1.00  0.00     0.163 HD
BRANCH   4   7
ATOM      7  C   UNL     1       1.028  -2.507  -0.086  1.00  0.00     0.135 C 
BRANCH   7   8
ATOM      8  C   UNL     1       0.356  -1.148  -0.198  1.00  0.00    -0.035 A 
ATOM      9  C   UNL     1       2.578   0.067  -0.441  1.00  0.00     0.045 C 
ATOM     10  C   UNL     1       1.075   0.072  -0.286  1.00  0.00    -0.040 A 
ATOM     11  C   UNL     1       0.355   1.296  -0.247  1.00  0.00    -0.015 A 
ATOM     12  C   UNL     1      -1.053  -1.118  -0.160  1.00  0.00     0.004 A 
ATOM     13  C   UNL     1      -1.049   1.286  -0.189  1.00  0.00     0.009 A 
ATOM     14  C   UNL     1      -1.749   0.086  -0.159  1.00  0.00     0.001 A 
BRANCH  11  15
ATOM     15  C   UNL     1       1.038   2.609  -0.190  1.00  0.00    -0.011 A 
ATOM     16  C   UNL     1       1.811   3.150  -1.291  1.00  0.00     0.027 A 
ATOM     17  C   UNL     1       0.999   3.282   0.975  1.00  0.00     0.080 A 
ATOM     18  C   UNL     1       2.559   4.246  -1.118  1.00  0.00     0.095 A 
ATOM     19  C   UNL     1       1.749   4.556   1.149  1.00  0.00     0.255 A 
ATOM     20  N   UNL     1       2.560   4.925   0.087  1.00  0.00    -0.258 N 
ATOM     21  O   UNL     1       1.619   5.184   2.193  1.00  0.00    -0.269 OA
BRANCH  20  22
ATOM     22  C   UNL     1       3.388   6.086   0.274  1.00  0.00     0.451 C 
ATOM     23  F   UNL     1       2.639   7.208   0.401  1.00  0.00    -0.185 F 
ATOM     24  F   UNL     1       4.167   5.972   1.377  1.00  0.00    -0.185 F 
ENDBRANCH  20  22
ENDBRANCH  11  15
ENDBRANCH   7   8
ENDBRANCH   4   7
ENDBRANCH   2   3
ENDBRANCH   1   2
BRANCH   1  25
ATOM     25  C   UNL     1       1.089  -0.487   4.458  1.00  0.00     0.118 C 
BRANCH  25  26
ATOM     26  N   UNL     1       1.852   0.486   5.237  1.00  0.00    -0.352 N 
ATOM     27  C   UNL     1       1.641   0.901   6.541  1.00  0.00     0.251 C 
ATOM     28  H   UNL     1       2.616   0.900   4.775  1.00  0.00     0.163 HD
ATOM     29  O   UNL     1       2.349   1.741   7.073  1.00  0.00    -0.269 OA
BRANCH  27  30
ATOM     30  C   UNL     1       0.608   0.198   7.335  1.00  0.00     0.039 A 
ATOM     31  C   UNL     1       1.036  -0.465   8.490  1.00  0.00     0.014 A 
ATOM     32  C   UNL     1      -0.664  -0.024   6.814  1.00  0.00     0.014 A 
ATOM     33  C   UNL     1       0.280  -1.524   8.983  1.00  0.00     0.010 A 
ATOM     34  C   UNL     1      -1.369  -1.131   7.247  1.00  0.00     0.010 A 
ATOM     35  C   UNL     1      -0.863  -1.920   8.287  1.00  0.00    -0.014 A 
BRANCH  35  36
ATOM     36  C   UNL     1      -1.474  -3.233   8.472  1.00  0.00     0.031 A 
ATOM     37  C   UNL     1      -2.779  -3.389   9.144  1.00  0.00     0.074 A 
ATOM     38  C   UNL     1      -0.845  -4.337   8.012  1.00  0.00     0.049 A 
ATOM     39  N   UNL     1      -3.129  -4.441   9.806  1.00  0.00    -0.248 NA
ATOM     40  C   UNL     1      -3.790  -2.340   9.151  1.00  0.00     0.031 C 
ATOM     41  C   UNL     1      -1.389  -5.688   7.903  1.00  0.00     0.029 A 
ATOM     42  N   UNL     1       0.518  -4.494   7.779  1.00  0.00    -0.354 N 
ATOM     43  C   UNL     1      -4.474  -4.340  10.066  1.00  0.00     0.074 A 
ATOM     44  C   UNL     1      -4.824  -2.985   9.702  1.00  0.00     0.031 C 
ATOM     45  C   UNL     1      -0.373  -6.564   7.883  1.00  0.00     0.029 A 
ATOM     46  C   UNL     1       0.852  -5.818   8.104  1.00  0.00     0.049 A 
ATOM     47  H   UNL     1       1.135  -3.802   7.447  1.00  0.00     0.167 HD
ATOM     48  C   UNL     1      -5.185  -5.448  10.422  1.00  0.00     0.034 A 
ATOM     49  C   UNL     1       1.793  -6.098   9.051  1.00  0.00     0.034 A 
ATOM     50  C   UNL     1      -4.343  -6.640  10.500  1.00  0.00     0.049 A 
ATOM     51  C   UNL     1       1.258  -6.907  10.212  1.00  0.00     0.074 A 
ATOM     52  C   UNL     1      -4.135  -7.699   9.631  1.00  0.00     0.029 A 
ATOM     53  N   UNL     1      -3.356  -6.733  11.474  1.00  0.00    -0.354 N 
ATOM     54  N   UNL     1      -0.011  -7.075  10.462  1.00  0.00    -0.248 NA
ATOM     55  C   UNL     1       2.108  -7.573  11.193  1.00  0.00     0.031 C 
ATOM     56  C   UNL     1      -2.986  -8.408  10.066  1.00  0.00     0.029 A 
ATOM     57  C   UNL     1      -2.512  -7.796  11.213  1.00  0.00     0.049 A 
ATOM     58  H   UNL     1      -3.270  -6.125  12.244  1.00  0.00     0.167 HD
ATOM     59  C   UNL     1      -0.166  -7.823  11.604  1.00  0.00     0.074 A 
ATOM     60  C   UNL     1       1.195  -8.132  12.007  1.00  0.00     0.031 C 
ATOM     61  C   UNL     1      -1.406  -8.109  12.110  1.00  0.00     0.034 A 
BRANCH  48  62
ATOM     62  C   UNL     1      -6.695  -5.501  10.384  1.00  0.00     0.023 A 
ATOM     63  C   UNL     1      -7.343  -6.697  10.011  1.00  0.00     0.031 A 
ATOM     64  C   UNL     1      -7.544  -4.413  10.661  1.00  0.00     0.131 A 
ATOM     65  C   UNL     1      -8.735  -6.746   9.810  1.00  0.00     0.055 A 
ATOM     66  C   UNL     1      -8.920  -4.440  10.399  1.00  0.00     0.041 A 
ATOM     67  F   UNL     1      -7.079  -3.294  11.236  1.00  0.00    -0.206 F 
ATOM     68  C   UNL     1      -9.522  -5.608   9.953  1.00  0.00     0.022 A 
BRANCH  65  69
ATOM     69  S   UNL     1      -9.508  -8.328   9.368  1.00  0.00     0.124 S 
ATOM     70  O   UNL     1      -8.796  -8.694   8.148  1.00  0.00    -0.237 OA
ATOM     71  O   UNL     1      -9.233  -9.144  10.546  1.00  0.00    -0.237 OA
ATOM     72  O   UNL     1     -10.915  -7.976   9.178  1.00  0.00    -0.744 OA
ENDBRANCH  65  69
ENDBRANCH  48  62
BRANCH  49  73
ATOM     73  C   UNL     1       2.882  -5.082   9.113  1.00  0.00     0.023 A 
ATOM     74  C   UNL     1       3.607  -4.853   7.922  1.00  0.00     0.031 A 
ATOM     75  C   UNL     1       2.939  -4.104  10.114  1.00  0.00     0.131 A 
ATOM     76  C   UNL     1       4.204  -3.608   7.684  1.00  0.00     0.055 A 
ATOM     77  C   UNL     1       3.605  -2.889   9.901  1.00  0.00     0.041 A 
ATOM     78  F   UNL     1       2.251  -4.252  11.255  1.00  0.00    -0.206 F 
ATOM     79  C   UNL     1       4.198  -2.617   8.666  1.00  0.00     0.022 A 
BRANCH  76  80
ATOM     80  S   UNL     1       4.726  -3.198   5.990  1.00  0.00     0.124 S 
ATOM     81  O   UNL     1       6.152  -3.494   6.024  1.00  0.00    -0.237 OA
ATOM     82  O   UNL     1       3.912  -4.090   5.167  1.00  0.00    -0.237 OA
ATOM     83  O   UNL     1       4.373  -1.786   5.853  1.00  0.00    -0.744 OA
ENDBRANCH  76  80
ENDBRANCH  49  73
BRANCH  61  84
ATOM     84  C   UNL     1      -1.714  -8.780  13.438  1.00  0.00     0.023 A 
ATOM     85  C   UNL     1      -0.776  -8.949  14.467  1.00  0.00     0.031 A 
ATOM     86  C   UNL     1      -3.028  -9.224  13.739  1.00  0.00     0.131 A 
ATOM     87  C   UNL     1      -1.120  -9.589  15.675  1.00  0.00     0.055 A 
ATOM     88  C   UNL     1      -3.386  -9.793  14.966  1.00  0.00     0.041 A 
ATOM     89  F   UNL     1      -4.033  -9.118  12.857  1.00  0.00    -0.206 F 
ATOM     90  C   UNL     1      -2.425  -9.993  15.941  1.00  0.00     0.022 A 
BRANCH  87  91
ATOM     91  S   UNL     1       0.195  -9.930  16.875  1.00  0.00     0.124 S 
ATOM     92  O   UNL     1       1.049 -10.852  16.131  1.00  0.00    -0.237 OA
ATOM     93  O   UNL     1       0.754  -8.603  17.113  1.00  0.00    -0.237 OA
ATOM     94  O   UNL     1      -0.514 -10.518  18.009  1.00  0.00    -0.744 OA
ENDBRANCH  87  91
ENDBRANCH  61  84
ENDBRANCH  35  36
ENDBRANCH  27  30
ENDBRANCH  25  26
ENDBRANCH   1  25
TORSDOF 16
