REMARK SMILES CC(C)CN(C)c1ccc([N+](=O)[O-])cc1C(=O)NCCCNC(=O)c1ccc(-c2c3nc(c(-c4cc(S(=O)(=O)[O-])ccc4F)c4ccc([nH]4)c(-c4cc(S(=O)(=O)[O-])ccc4F)c4nc(c(-c5cc(S(=O)(=O)[O-])ccc5F)c5ccc2[nH]5)C=C4)C=C3)cc1
REMARK SMILES IDX 20 1 19 2 18 3 16 4 17 5 15 7 7 8 8 9 9 10 14 11 10 12 5 13
REMARK SMILES IDX 6 14 4 15 2 16 1 17 3 18 11 19 12 20 13 21 21 22 22 23 23 24
REMARK SMILES IDX 24 26 25 27 26 28 87 29 27 30 86 31 28 32 29 33 30 34 80 35
REMARK SMILES IDX 31 36 85 37 79 38 81 39 32 40 84 41 78 42 77 43 33 45 65 46
REMARK SMILES IDX 45 47 64 48 46 49 49 50 63 51 82 52 47 53 48 54 62 56 83 57
REMARK SMILES IDX 50 58 34 59 35 60 43 61 36 62 42 63 44 64 41 65 37 66 38 67
REMARK SMILES IDX 39 68 40 69 66 70 67 71 75 72 68 73 74 74 76 75 73 76 69 77
REMARK SMILES IDX 70 78 71 79 72 80 51 81 52 82 60 83 53 84 59 85 61 86 58 87
REMARK SMILES IDX 54 88 55 89 56 90 57 91
REMARK H PARENT 18 6 22 25 81 44 49 55
REMARK Flexibility Score: inf
ROOT
ATOM      1  C   UNL     1       0.273  -0.227   4.558  1.00  0.00     0.042 C 
ENDROOT
BRANCH   1   2
ATOM      2  C   UNL     1      -0.107  -0.736   3.179  1.00  0.00     0.118 C 
BRANCH   2   3
ATOM      3  N   UNL     1       1.033  -1.025   2.338  1.00  0.00    -0.352 N 
ATOM      4  C   UNL     1       1.081  -1.472   1.045  1.00  0.00     0.253 C 
ATOM      5  O   UNL     1       2.190  -1.533   0.509  1.00  0.00    -0.269 OA
ATOM      6  H   UNL     1       1.910  -0.877   2.760  1.00  0.00     0.163 HD
BRANCH   4   7
ATOM      7  C   UNL     1      -0.100  -1.980   0.287  1.00  0.00     0.069 A 
ATOM      8  C   UNL     1      -1.384  -1.390   0.178  1.00  0.00     0.050 A 
ATOM      9  C   UNL     1      -2.352  -2.074  -0.596  1.00  0.00     0.034 A 
ATOM     10  C   UNL     1      -2.062  -3.248  -1.294  1.00  0.00     0.088 A 
ATOM     11  C   UNL     1       0.200  -3.149  -0.452  1.00  0.00     0.101 A 
ATOM     12  C   UNL     1      -0.771  -3.763  -1.243  1.00  0.00     0.270 A 
BRANCH   8  13
ATOM     13  N   UNL     1      -1.744  -0.161   0.740  1.00  0.00    -0.374 N 
ATOM     14  C   UNL     1      -2.972  -0.157   1.550  1.00  0.00     0.143 C 
BRANCH  13  15
ATOM     15  C   UNL     1      -1.496   1.075  -0.037  1.00  0.00     0.119 C 
BRANCH  15  16
ATOM     16  C   UNL     1      -0.011   1.485  -0.099  1.00  0.00     0.002 C 
ATOM     17  C   UNL     1       0.646   1.024  -1.402  1.00  0.00     0.009 C 
ATOM     18  C   UNL     1       0.151   3.003   0.028  1.00  0.00     0.009 C 
ENDBRANCH  15  16
ENDBRANCH  13  15
ENDBRANCH   8  13
BRANCH  12  19
ATOM     19  N   UNL     1      -0.423  -4.934  -2.051  1.00  0.00     0.062 N 
ATOM     20  O   UNL     1      -1.354  -5.623  -2.492  1.00  0.00    -0.258 OA
ATOM     21  O   UNL     1       0.777  -5.156  -2.262  1.00  0.00    -0.258 OA
ENDBRANCH  12  19
ENDBRANCH   4   7
ENDBRANCH   2   3
ENDBRANCH   1   2
BRANCH   1  22
ATOM     22  C   UNL     1       1.049   1.089   4.511  1.00  0.00     0.118 C 
BRANCH  22  23
ATOM     23  N   UNL     1       0.287   2.228   4.001  1.00  0.00    -0.352 N 
ATOM     24  C   UNL     1      -0.226   3.352   4.615  1.00  0.00     0.251 C 
ATOM     25  H   UNL     1       0.107   2.185   3.034  1.00  0.00     0.163 HD
ATOM     26  O   UNL     1      -0.903   4.137   3.960  1.00  0.00    -0.269 OA
BRANCH  24  27
ATOM     27  C   UNL     1      -0.032   3.570   6.068  1.00  0.00     0.039 A 
ATOM     28  C   UNL     1      -1.100   4.039   6.838  1.00  0.00     0.014 A 
ATOM     29  C   UNL     1       1.171   3.254   6.689  1.00  0.00     0.014 A 
ATOM     30  C   UNL     1      -1.005   4.031   8.233  1.00  0.00     0.010 A 
ATOM     31  C   UNL     1       1.209   3.095   8.068  1.00  0.00     0.010 A 
ATOM     32  C   UNL     1       0.116   3.466   8.864  1.00  0.00    -0.014 A 
BRANCH  32  33
ATOM     33  C   UNL     1       0.166   3.224  10.335  1.00  0.00     0.031 A 
ATOM     34  C   UNL     1       1.333   3.728  11.147  1.00  0.00     0.074 A 
ATOM     35  C   UNL     1      -0.768   2.444  10.920  1.00  0.00     0.049 A 
ATOM     36  N   UNL     1       1.660   3.464  12.387  1.00  0.00    -0.248 NA
ATOM     37  C   UNL     1       2.296   4.592  10.448  1.00  0.00     0.031 C 
ATOM     38  C   UNL     1      -1.904   1.816  10.238  1.00  0.00     0.029 A 
ATOM     39  N   UNL     1      -0.906   2.033  12.223  1.00  0.00    -0.354 N 
ATOM     40  C   UNL     1       2.890   4.081  12.595  1.00  0.00     0.074 A 
ATOM     41  C   UNL     1       3.280   4.667  11.330  1.00  0.00     0.031 C 
ATOM     42  C   UNL     1      -2.645   1.145  11.134  1.00  0.00     0.029 A 
ATOM     43  C   UNL     1      -2.011   1.242  12.443  1.00  0.00     0.049 A 
ATOM     44  H   UNL     1      -0.273   2.281  12.935  1.00  0.00     0.167 HD
ATOM     45  C   UNL     1       3.613   4.181  13.739  1.00  0.00     0.034 A 
ATOM     46  C   UNL     1      -2.462   0.655  13.569  1.00  0.00     0.034 A 
ATOM     47  C   UNL     1       3.177   3.649  15.007  1.00  0.00     0.049 A 
ATOM     48  C   UNL     1      -1.685   0.840  14.845  1.00  0.00     0.074 A 
ATOM     49  C   UNL     1       3.785   3.759  16.246  1.00  0.00     0.029 A 
ATOM     50  N   UNL     1       2.012   2.919  15.201  1.00  0.00    -0.354 N 
ATOM     51  N   UNL     1      -0.545   1.465  15.034  1.00  0.00    -0.248 NA
ATOM     52  C   UNL     1      -2.260   0.253  16.061  1.00  0.00     0.031 C 
ATOM     53  C   UNL     1       3.010   3.062  17.180  1.00  0.00     0.029 A 
ATOM     54  C   UNL     1       1.887   2.566  16.536  1.00  0.00     0.049 A 
ATOM     55  H   UNL     1       1.368   2.685  14.494  1.00  0.00     0.167 HD
ATOM     56  C   UNL     1      -0.284   1.369  16.397  1.00  0.00     0.074 A 
ATOM     57  C   UNL     1      -1.391   0.642  16.982  1.00  0.00     0.031 C 
ATOM     58  C   UNL     1       0.776   1.839  17.102  1.00  0.00     0.034 A 
BRANCH  45  59
ATOM     59  C   UNL     1       4.947   4.888  13.656  1.00  0.00     0.023 A 
ATOM     60  C   UNL     1       5.043   6.235  13.265  1.00  0.00     0.031 A 
ATOM     61  C   UNL     1       6.142   4.195  13.917  1.00  0.00     0.131 A 
ATOM     62  C   UNL     1       6.301   6.814  13.042  1.00  0.00     0.055 A 
ATOM     63  C   UNL     1       7.392   4.807  13.787  1.00  0.00     0.041 A 
ATOM     64  F   UNL     1       6.120   2.903  14.280  1.00  0.00    -0.206 F 
ATOM     65  C   UNL     1       7.477   6.118  13.327  1.00  0.00     0.022 A 
BRANCH  62  66
ATOM     66  S   UNL     1       6.372   8.425  12.213  1.00  0.00     0.124 S 
ATOM     67  O   UNL     1       5.724   8.125  10.937  1.00  0.00    -0.237 OA
ATOM     68  O   UNL     1       5.622   9.282  13.123  1.00  0.00    -0.237 OA
ATOM     69  O   UNL     1       7.804   8.704  12.127  1.00  0.00    -0.744 OA
ENDBRANCH  62  66
ENDBRANCH  45  59
BRANCH  46  70
ATOM     70  C   UNL     1      -3.717  -0.150  13.554  1.00  0.00     0.023 A 
ATOM     71  C   UNL     1      -4.859   0.292  14.240  1.00  0.00     0.031 A 
ATOM     72  C   UNL     1      -3.785  -1.383  12.883  1.00  0.00     0.131 A 
ATOM     73  C   UNL     1      -6.007  -0.515  14.283  1.00  0.00     0.055 A 
ATOM     74  C   UNL     1      -4.945  -2.161  12.889  1.00  0.00     0.041 A 
ATOM     75  F   UNL     1      -2.726  -1.844  12.200  1.00  0.00    -0.206 F 
ATOM     76  C   UNL     1      -6.061  -1.734  13.604  1.00  0.00     0.022 A 
BRANCH  73  77
ATOM     77  S   UNL     1      -7.406   0.021  15.305  1.00  0.00     0.124 S 
ATOM     78  O   UNL     1      -6.788   0.133  16.621  1.00  0.00    -0.237 OA
ATOM     79  O   UNL     1      -7.785   1.276  14.664  1.00  0.00    -0.237 OA
ATOM     80  O   UNL     1      -8.370  -1.067  15.158  1.00  0.00    -0.744 OA
ENDBRANCH  73  77
ENDBRANCH  46  70
BRANCH  58  81
ATOM     81  C   UNL     1       0.750   1.623  18.593  1.00  0.00     0.023 A 
ATOM     82  C   UNL     1       0.873   0.340  19.155  1.00  0.00     0.031 A 
ATOM     83  C   UNL     1       0.580   2.715  19.460  1.00  0.00     0.131 A 
ATOM     84  C   UNL     1       0.766   0.175  20.543  1.00  0.00     0.055 A 
ATOM     85  C   UNL     1       0.529   2.551  20.845  1.00  0.00     0.041 A 
ATOM     86  F   UNL     1       0.456   3.961  18.974  1.00  0.00    -0.206 F 
ATOM     87  C   UNL     1       0.609   1.274  21.393  1.00  0.00     0.022 A 
BRANCH  84  88
ATOM     88  S   UNL     1       0.743  -1.507  21.220  1.00  0.00     0.124 S 
ATOM     89  O   UNL     1      -0.397  -2.098  20.528  1.00  0.00    -0.237 OA
ATOM     90  O   UNL     1       2.056  -2.015  20.835  1.00  0.00    -0.237 OA
ATOM     91  O   UNL     1       0.557  -1.298  22.655  1.00  0.00    -0.744 OA
ENDBRANCH  84  88
ENDBRANCH  58  81
ENDBRANCH  32  33
ENDBRANCH  24  27
ENDBRANCH  22  23
ENDBRANCH   1  22
TORSDOF 17
