REMARK SMILES O=C(NCCCNC(=O)c1cc(S(=O)(=O)NNC(=O)[C@H]2C=C(c3ccccc3)N=N2)ccc1F)c1ccc(-c2c3nc(c(-c4cc(S(=O)(=O)[O-])ccc4F)c4ccc([nH]4)c(-c4cc(S(=O)(=O)[O-])ccc4F)c4nc(c(-c5cc(S(=O)(=O)[O-])ccc5F)c5ccc2[nH]5)C=C4)C=C3)cc1
REMARK SMILES IDX 6 1 5 2 4 3 3 4 1 5 2 6 35 8 36 9 97 10 37 11 96 12 38 13
REMARK SMILES IDX 39 14 40 15 90 16 41 17 95 18 89 19 91 20 42 21 94 22 88 23
REMARK SMILES IDX 87 24 43 26 75 27 55 28 74 29 56 30 59 31 73 32 92 33 57 34
REMARK SMILES IDX 58 35 72 37 93 38 60 39 44 40 45 41 53 42 46 43 52 44 54 45
REMARK SMILES IDX 51 46 47 47 48 48 49 49 50 50 76 51 77 52 85 53 78 54 84 55
REMARK SMILES IDX 86 56 83 57 79 58 80 59 81 60 82 61 61 62 62 63 70 64 63 65
REMARK SMILES IDX 69 66 71 67 68 68 64 69 65 70 66 71 67 72 7 73 8 74 9 76
REMARK SMILES IDX 10 77 11 78 33 79 12 80 32 81 34 82 31 83 13 84 14 85 15 86
REMARK SMILES IDX 16 87 17 89 18 90 19 92 20 93 21 94 30 95 22 96 29 97 23 98
REMARK SMILES IDX 24 99 28 100 25 101 27 102 26 103
REMARK H PARENT 3 7 91 25 59 36 7 75 16 88 17 91
REMARK Flexibility Score: inf
ROOT
ATOM      1  C   UNL     1      14.385 -18.027  10.908  1.00  0.00     0.118 C 
ENDROOT
BRANCH   1   2
ATOM      2  C   UNL     1      14.153 -19.367  10.223  1.00  0.00     0.042 C 
BRANCH   2   3
ATOM      3  C   UNL     1      15.201 -20.432  10.535  1.00  0.00     0.118 C 
BRANCH   3   4
ATOM      4  N   UNL     1      15.435 -20.685  11.945  1.00  0.00    -0.352 N 
ATOM      5  O   UNL     1      15.333 -21.423  14.023  1.00  0.00    -0.269 OA
ATOM      6  C   UNL     1      14.743 -21.315  12.944  1.00  0.00     0.251 C 
ATOM      7  H   UNL     1      16.294 -20.318  12.255  1.00  0.00     0.163 HD
BRANCH   6   8
ATOM      8  C   UNL     1      13.348 -21.821  12.833  1.00  0.00     0.039 A 
ATOM      9  C   UNL     1      12.664 -22.054  11.639  1.00  0.00     0.014 A 
ATOM     10  C   UNL     1      12.690 -22.102  14.046  1.00  0.00     0.014 A 
ATOM     11  C   UNL     1      11.338 -22.487  11.652  1.00  0.00     0.010 A 
ATOM     12  C   UNL     1      11.378 -22.571  14.063  1.00  0.00     0.010 A 
ATOM     13  C   UNL     1      10.693 -22.750  12.862  1.00  0.00    -0.014 A 
BRANCH  13  14
ATOM     14  C   UNL     1       9.383 -23.407  12.814  1.00  0.00     0.031 A 
ATOM     15  C   UNL     1       9.377 -24.797  12.264  1.00  0.00     0.074 A 
ATOM     16  C   UNL     1       8.272 -22.933  13.415  1.00  0.00     0.049 A 
ATOM     17  N   UNL     1       8.635 -25.301  11.331  1.00  0.00    -0.248 NA
ATOM     18  C   UNL     1      10.370 -25.739  12.811  1.00  0.00     0.031 C 
ATOM     19  C   UNL     1       8.169 -21.756  14.277  1.00  0.00     0.029 A 
ATOM     20  N   UNL     1       7.024 -23.489  13.486  1.00  0.00    -0.354 N 
ATOM     21  C   UNL     1       8.916 -26.666  11.316  1.00  0.00     0.074 A 
ATOM     22  C   UNL     1      10.071 -26.858  12.153  1.00  0.00     0.031 C 
ATOM     23  C   UNL     1       7.001 -21.808  14.953  1.00  0.00     0.029 A 
ATOM     24  C   UNL     1       6.233 -22.958  14.499  1.00  0.00     0.049 A 
ATOM     25  H   UNL     1       6.714 -24.198  12.877  1.00  0.00     0.167 HD
ATOM     26  C   UNL     1       8.064 -27.587  10.788  1.00  0.00     0.034 A 
ATOM     27  C   UNL     1       5.074 -23.468  14.990  1.00  0.00     0.034 A 
ATOM     28  C   UNL     1       7.159 -27.016   9.829  1.00  0.00     0.049 A 
ATOM     29  C   UNL     1       4.505 -24.358  13.947  1.00  0.00     0.074 A 
ATOM     30  C   UNL     1       7.313 -26.269   8.676  1.00  0.00     0.029 A 
ATOM     31  N   UNL     1       5.829 -26.910  10.155  1.00  0.00    -0.354 N 
ATOM     32  N   UNL     1       4.077 -23.953  12.781  1.00  0.00    -0.248 NA
ATOM     33  C   UNL     1       4.722 -25.791  14.066  1.00  0.00     0.031 C 
ATOM     34  C   UNL     1       6.212 -25.365   8.669  1.00  0.00     0.029 A 
ATOM     35  C   UNL     1       5.442 -25.641   9.801  1.00  0.00     0.049 A 
ATOM     36  H   UNL     1       5.264 -27.606  10.562  1.00  0.00     0.167 HD
ATOM     37  C   UNL     1       4.338 -25.005  11.919  1.00  0.00     0.074 A 
ATOM     38  C   UNL     1       4.625 -26.143  12.783  1.00  0.00     0.031 C 
ATOM     39  C   UNL     1       4.563 -24.801  10.589  1.00  0.00     0.034 A 
BRANCH  26  40
ATOM     40  C   UNL     1       7.868 -28.962  11.380  1.00  0.00     0.023 A 
ATOM     41  C   UNL     1       7.148 -29.927  10.653  1.00  0.00     0.031 A 
ATOM     42  C   UNL     1       8.127 -29.272  12.737  1.00  0.00     0.131 A 
ATOM     43  C   UNL     1       6.699 -31.107  11.275  1.00  0.00     0.055 A 
ATOM     44  C   UNL     1       7.744 -30.477  13.329  1.00  0.00     0.041 A 
ATOM     45  F   UNL     1       8.675 -28.384  13.578  1.00  0.00    -0.206 F 
ATOM     46  C   UNL     1       7.008 -31.396  12.603  1.00  0.00     0.022 A 
BRANCH  43  47
ATOM     47  S   UNL     1       5.565 -32.192  10.368  1.00  0.00     0.124 S 
ATOM     48  O   UNL     1       4.458 -31.287  10.078  1.00  0.00    -0.237 OA
ATOM     49  O   UNL     1       6.380 -32.599   9.228  1.00  0.00    -0.237 OA
ATOM     50  O   UNL     1       5.268 -33.253  11.328  1.00  0.00    -0.744 OA
ENDBRANCH  43  47
ENDBRANCH  26  40
BRANCH  27  51
ATOM     51  C   UNL     1       4.562 -23.422  16.391  1.00  0.00     0.023 A 
ATOM     52  C   UNL     1       3.247 -23.824  16.710  1.00  0.00     0.031 A 
ATOM     53  C   UNL     1       5.429 -23.202  17.486  1.00  0.00     0.131 A 
ATOM     54  C   UNL     1       2.852 -23.986  18.057  1.00  0.00     0.055 A 
ATOM     55  C   UNL     1       5.026 -23.336  18.817  1.00  0.00     0.041 A 
ATOM     56  F   UNL     1       6.731 -22.936  17.309  1.00  0.00    -0.206 F 
ATOM     57  C   UNL     1       3.735 -23.741  19.109  1.00  0.00     0.022 A 
BRANCH  54  58
ATOM     58  S   UNL     1       1.215 -24.672  18.465  1.00  0.00     0.124 S 
ATOM     59  O   UNL     1       0.369 -23.485  18.419  1.00  0.00    -0.237 OA
ATOM     60  O   UNL     1       1.007 -25.658  17.410  1.00  0.00    -0.237 OA
ATOM     61  O   UNL     1       1.415 -25.239  19.799  1.00  0.00    -0.744 OA
ENDBRANCH  54  58
ENDBRANCH  27  51
BRANCH  39  62
ATOM     62  C   UNL     1       4.120 -23.508   9.950  1.00  0.00     0.023 A 
ATOM     63  C   UNL     1       4.624 -22.233  10.282  1.00  0.00     0.031 A 
ATOM     64  C   UNL     1       3.269 -23.611   8.834  1.00  0.00     0.131 A 
ATOM     65  C   UNL     1       4.266 -21.115   9.502  1.00  0.00     0.055 A 
ATOM     66  C   UNL     1       2.931 -22.506   8.056  1.00  0.00     0.041 A 
ATOM     67  F   UNL     1       2.792 -24.808   8.450  1.00  0.00    -0.206 F 
ATOM     68  C   UNL     1       3.429 -21.252   8.387  1.00  0.00     0.022 A 
BRANCH  65  69
ATOM     69  S   UNL     1       4.936 -19.466   9.892  1.00  0.00     0.124 S 
ATOM     70  O   UNL     1       4.380 -19.186  11.210  1.00  0.00    -0.237 OA
ATOM     71  O   UNL     1       6.380 -19.676   9.833  1.00  0.00    -0.237 OA
ATOM     72  O   UNL     1       4.410 -18.618   8.819  1.00  0.00    -0.744 OA
ENDBRANCH  65  69
ENDBRANCH  39  62
ENDBRANCH  13  14
ENDBRANCH   6   8
ENDBRANCH   3   4
ENDBRANCH   2   3
ENDBRANCH   1   2
BRANCH   1  73
ATOM     73  N   UNL     1      15.592 -17.353  10.448  1.00  0.00    -0.352 N 
ATOM     74  C   UNL     1      15.728 -16.217   9.692  1.00  0.00     0.254 C 
ATOM     75  H   UNL     1      16.437 -17.778  10.720  1.00  0.00     0.163 HD
ATOM     76  O   UNL     1      16.840 -15.845   9.328  1.00  0.00    -0.269 OA
BRANCH  74  77
ATOM     77  C   UNL     1      14.540 -15.471   9.247  1.00  0.00     0.076 A 
ATOM     78  C   UNL     1      14.403 -15.190   7.886  1.00  0.00     0.038 A 
ATOM     79  C   UNL     1      13.582 -15.010  10.147  1.00  0.00     0.136 A 
ATOM     80  C   UNL     1      13.254 -14.530   7.431  1.00  0.00     0.085 A 
ATOM     81  C   UNL     1      12.418 -14.397   9.690  1.00  0.00     0.041 A 
ATOM     82  F   UNL     1      13.751 -15.161  11.469  1.00  0.00    -0.206 F 
ATOM     83  C   UNL     1      12.236 -14.178   8.323  1.00  0.00     0.025 A 
BRANCH  80  84
ATOM     84  S   UNL     1      13.237 -14.050   5.724  1.00  0.00     0.257 S 
ATOM     85  O   UNL     1      14.367 -13.153   5.543  1.00  0.00    -0.205 OA
ATOM     86  O   UNL     1      13.072 -15.242   4.939  1.00  0.00    -0.205 OA
BRANCH  84  87
ATOM     87  N   UNL     1      11.836 -13.115   5.514  1.00  0.00    -0.123 NA
ATOM     88  H   UNL     1      11.056 -13.662   5.880  1.00  0.00     0.167 HD
BRANCH  87  89
ATOM     89  N   UNL     1      11.755 -11.811   6.122  1.00  0.00    -0.275 N 
ATOM     90  C   UNL     1      11.134 -10.712   5.598  1.00  0.00     0.265 C 
ATOM     91  H   UNL     1      12.190 -11.701   6.998  1.00  0.00     0.186 HD
ATOM     92  O   UNL     1      10.961  -9.742   6.350  1.00  0.00    -0.271 OA
BRANCH  90  93
ATOM     93  C   UNL     1      10.732 -10.632   4.120  1.00  0.00     0.244 C 
ATOM     94  C   UNL     1      11.392  -9.420   3.562  1.00  0.00     0.042 C 
ATOM     95  N   UNL     1      11.334 -11.715   3.295  1.00  0.00    -0.171 NA
ATOM     96  C   UNL     1      12.285  -9.874   2.683  1.00  0.00     0.091 C 
ATOM     97  N   UNL     1      12.206 -11.233   2.514  1.00  0.00    -0.155 NA
BRANCH  96  98
ATOM     98  C   UNL     1      13.279  -9.043   2.006  1.00  0.00     0.002 A 
ATOM     99  C   UNL     1      13.397  -9.062   0.612  1.00  0.00     0.010 A 
ATOM    100  C   UNL     1      14.144  -8.225   2.751  1.00  0.00     0.010 A 
ATOM    101  C   UNL     1      14.342  -8.256  -0.028  1.00  0.00     0.001 A 
ATOM    102  C   UNL     1      15.096  -7.428   2.111  1.00  0.00     0.001 A 
ATOM    103  C   UNL     1      15.189  -7.439   0.721  1.00  0.00     0.000 A 
ENDBRANCH  96  98
ENDBRANCH  90  93
ENDBRANCH  87  89
ENDBRANCH  84  87
ENDBRANCH  80  84
ENDBRANCH  74  77
ENDBRANCH   1  73
TORSDOF 18
