REMARK SMILES Cc1nc([C@H](C)[NH2+]CC(=O)NCCCNC(=O)c2ccc(-c3c4nc(c(-c5cc(S(=O)(=O)[O-])ccc5F)c5ccc([nH]5)c(-c5cc(S(=O)(=O)[O-])ccc5F)c5nc(c(-c6cc(S(=O)(=O)[O-])ccc6F)c6ccc3[nH]6)C=C5)C=C4)cc2)cs1
REMARK SMILES IDX 13 1 12 2 11 3 9 4 10 5 8 7 7 8 5 11 6 12 4 13 1 14 2 15
REMARK SMILES IDX 3 16 82 17 81 18 14 19 15 20 16 21 17 23 18 24 19 25 80 26
REMARK SMILES IDX 20 27 79 28 21 29 22 30 23 31 73 32 24 33 78 34 72 35 74 36
REMARK SMILES IDX 25 37 77 38 71 39 70 40 26 42 58 43 38 44 57 45 39 46 42 47
REMARK SMILES IDX 56 48 75 49 40 50 41 51 55 53 76 54 43 55 27 56 28 57 36 58
REMARK SMILES IDX 29 59 35 60 37 61 34 62 30 63 31 64 32 65 33 66 59 67 60 68
REMARK SMILES IDX 68 69 61 70 67 71 69 72 66 73 62 74 63 75 64 76 65 77 44 78
REMARK SMILES IDX 45 79 53 80 46 81 52 82 54 83 51 84 47 85 48 86 49 87 50 88
REMARK H PARENT 11 6 7 9 7 10 15 22 74 41 42 52
REMARK Flexibility Score: inf
ROOT
ATOM      1  C   UNL     1       1.101  -3.772  -2.353  1.00  0.00     0.042 C 
ENDROOT
BRANCH   1   2
ATOM      2  C   UNL     1       1.754  -4.869  -1.485  1.00  0.00     0.118 C 
BRANCH   2   3
ATOM      3  N   UNL     1       3.173  -4.775  -1.159  1.00  0.00    -0.351 N 
ATOM      4  C   UNL     1       3.810  -4.506   0.024  1.00  0.00     0.275 C 
ATOM      5  O   UNL     1       4.982  -4.881   0.141  1.00  0.00    -0.269 OA
ATOM      6  H   UNL     1       3.777  -4.931  -1.921  1.00  0.00     0.163 HD
BRANCH   4   7
ATOM      7  C   UNL     1       3.163  -3.646   1.116  1.00  0.00     0.362 C 
BRANCH   7   8
ATOM      8  N   UNL     1       3.560  -2.222   0.993  1.00  0.00    -0.331 N 
ATOM      9  H   UNL     1       3.235  -1.716   1.817  1.00  0.00     0.347 HD
ATOM     10  H   UNL     1       4.576  -2.180   0.916  1.00  0.00     0.347 HD
BRANCH   8  11
ATOM     11  C   UNL     1       2.983  -1.599  -0.207  1.00  0.00     0.230 C 
ATOM     12  C   UNL     1       2.053  -0.451   0.176  1.00  0.00     0.082 C 
BRANCH  11  13
ATOM     13  C   UNL     1       4.022  -1.253  -1.258  1.00  0.00     0.108 A 
ATOM     14  C   UNL     1       4.897   1.102  -3.923  1.00  0.00     0.079 C 
ATOM     15  C   UNL     1       4.782  -0.009  -2.944  1.00  0.00     0.090 A 
ATOM     16  N   UNL     1       3.863  -0.092  -2.006  1.00  0.00    -0.240 NA
ATOM     17  S   UNL     1       5.875  -1.326  -3.026  1.00  0.00    -0.127 S 
ATOM     18  C   UNL     1       5.087  -2.031  -1.684  1.00  0.00     0.096 A 
ENDBRANCH  11  13
ENDBRANCH   8  11
ENDBRANCH   7   8
ENDBRANCH   4   7
ENDBRANCH   2   3
ENDBRANCH   1   2
BRANCH   1  19
ATOM     19  C   UNL     1       1.880  -3.187  -3.539  1.00  0.00     0.118 C 
BRANCH  19  20
ATOM     20  N   UNL     1       1.828  -4.021  -4.727  1.00  0.00    -0.352 N 
ATOM     21  C   UNL     1       1.449  -3.713  -6.011  1.00  0.00     0.251 C 
ATOM     22  H   UNL     1       2.108  -4.955  -4.590  1.00  0.00     0.163 HD
ATOM     23  O   UNL     1       1.389  -4.628  -6.841  1.00  0.00    -0.269 OA
BRANCH  21  24
ATOM     24  C   UNL     1       1.079  -2.337  -6.430  1.00  0.00     0.039 A 
ATOM     25  C   UNL     1      -0.138  -2.154  -7.097  1.00  0.00     0.014 A 
ATOM     26  C   UNL     1       1.942  -1.247  -6.272  1.00  0.00     0.014 A 
ATOM     27  C   UNL     1      -0.516  -0.882  -7.551  1.00  0.00     0.010 A 
ATOM     28  C   UNL     1       1.550   0.033  -6.711  1.00  0.00     0.010 A 
ATOM     29  C   UNL     1       0.309   0.235  -7.340  1.00  0.00    -0.014 A 
BRANCH  29  30
ATOM     30  C   UNL     1      -0.173   1.605  -7.703  1.00  0.00     0.031 A 
ATOM     31  C   UNL     1       0.431   2.390  -8.840  1.00  0.00     0.074 A 
ATOM     32  C   UNL     1      -1.174   2.159  -6.987  1.00  0.00     0.049 A 
ATOM     33  N   UNL     1       0.119   3.586  -9.278  1.00  0.00    -0.248 NA
ATOM     34  C   UNL     1       1.533   1.753  -9.572  1.00  0.00     0.031 C 
ATOM     35  C   UNL     1      -1.845   1.520  -5.853  1.00  0.00     0.029 A 
ATOM     36  N   UNL     1      -1.804   3.376  -7.098  1.00  0.00    -0.354 N 
ATOM     37  C   UNL     1       0.979   3.848 -10.341  1.00  0.00     0.074 A 
ATOM     38  C   UNL     1       1.856   2.697 -10.447  1.00  0.00     0.031 C 
ATOM     39  C   UNL     1      -2.801   2.338  -5.389  1.00  0.00     0.029 A 
ATOM     40  C   UNL     1      -2.786   3.582  -6.154  1.00  0.00     0.049 A 
ATOM     41  H   UNL     1      -1.575   4.039  -7.789  1.00  0.00     0.167 HD
ATOM     42  C   UNL     1       1.025   4.934 -11.157  1.00  0.00     0.034 A 
ATOM     43  C   UNL     1      -3.575   4.650  -5.912  1.00  0.00     0.034 A 
ATOM     44  C   UNL     1       0.153   6.084 -11.038  1.00  0.00     0.049 A 
ATOM     45  C   UNL     1      -3.456   5.871  -6.789  1.00  0.00     0.074 A 
ATOM     46  C   UNL     1       0.092   7.206 -11.851  1.00  0.00     0.029 A 
ATOM     47  N   UNL     1      -0.793   6.276 -10.040  1.00  0.00    -0.354 N 
ATOM     48  N   UNL     1      -2.672   6.075  -7.822  1.00  0.00    -0.248 NA
ATOM     49  C   UNL     1      -4.335   7.005  -6.470  1.00  0.00     0.031 C 
ATOM     50  C   UNL     1      -0.825   8.107 -11.297  1.00  0.00     0.029 A 
ATOM     51  C   UNL     1      -1.404   7.515 -10.188  1.00  0.00     0.049 A 
ATOM     52  H   UNL     1      -1.001   5.627  -9.329  1.00  0.00     0.167 HD
ATOM     53  C   UNL     1      -2.983   7.350  -8.288  1.00  0.00     0.074 A 
ATOM     54  C   UNL     1      -4.041   7.857  -7.440  1.00  0.00     0.031 C 
ATOM     55  C   UNL     1      -2.442   8.036  -9.328  1.00  0.00     0.034 A 
BRANCH  42  56
ATOM     56  C   UNL     1       2.082   4.953 -12.240  1.00  0.00     0.023 A 
ATOM     57  C   UNL     1       2.088   4.015 -13.287  1.00  0.00     0.031 A 
ATOM     58  C   UNL     1       3.094   5.931 -12.232  1.00  0.00     0.131 A 
ATOM     59  C   UNL     1       3.119   4.032 -14.239  1.00  0.00     0.055 A 
ATOM     60  C   UNL     1       4.072   5.992 -13.228  1.00  0.00     0.041 A 
ATOM     61  F   UNL     1       3.152   6.847 -11.252  1.00  0.00    -0.206 F 
ATOM     62  C   UNL     1       4.097   5.029 -14.232  1.00  0.00     0.022 A 
BRANCH  59  63
ATOM     63  S   UNL     1       3.246   2.649 -15.407  1.00  0.00     0.124 S 
ATOM     64  O   UNL     1       3.338   1.506 -14.502  1.00  0.00    -0.237 OA
ATOM     65  O   UNL     1       2.002   2.764 -16.165  1.00  0.00    -0.237 OA
ATOM     66  O   UNL     1       4.462   2.942 -16.156  1.00  0.00    -0.744 OA
ENDBRANCH  59  63
ENDBRANCH  42  56
BRANCH  43  67
ATOM     67  C   UNL     1      -4.531   4.635  -4.766  1.00  0.00     0.023 A 
ATOM     68  C   UNL     1      -5.916   4.734  -4.971  1.00  0.00     0.031 A 
ATOM     69  C   UNL     1      -4.065   4.576  -3.440  1.00  0.00     0.131 A 
ATOM     70  C   UNL     1      -6.783   4.816  -3.870  1.00  0.00     0.055 A 
ATOM     71  C   UNL     1      -4.935   4.598  -2.349  1.00  0.00     0.041 A 
ATOM     72  F   UNL     1      -2.750   4.485  -3.185  1.00  0.00    -0.206 F 
ATOM     73  C   UNL     1      -6.303   4.733  -2.561  1.00  0.00     0.022 A 
BRANCH  70  74
ATOM     74  S   UNL     1      -8.545   5.129  -4.169  1.00  0.00     0.124 S 
ATOM     75  O   UNL     1      -8.501   6.390  -4.904  1.00  0.00    -0.237 OA
ATOM     76  O   UNL     1      -8.934   3.952  -4.939  1.00  0.00    -0.237 OA
ATOM     77  O   UNL     1      -9.110   5.208  -2.826  1.00  0.00    -0.744 OA
ENDBRANCH  70  74
ENDBRANCH  43  67
BRANCH  55  78
ATOM     78  C   UNL     1      -3.012   9.406  -9.621  1.00  0.00     0.023 A 
ATOM     79  C   UNL     1      -2.882  10.473  -8.713  1.00  0.00     0.031 A 
ATOM     80  C   UNL     1      -3.717   9.643 -10.815  1.00  0.00     0.131 A 
ATOM     81  C   UNL     1      -3.496  11.706  -8.985  1.00  0.00     0.055 A 
ATOM     82  C   UNL     1      -4.270  10.891 -11.110  1.00  0.00     0.041 A 
ATOM     83  F   UNL     1      -3.881   8.663 -11.718  1.00  0.00    -0.206 F 
ATOM     84  C   UNL     1      -4.173  11.927 -10.187  1.00  0.00     0.022 A 
BRANCH  81  85
ATOM     85  S   UNL     1      -3.483  12.990  -7.703  1.00  0.00     0.124 S 
ATOM     86  O   UNL     1      -4.150  12.317  -6.593  1.00  0.00    -0.237 OA
ATOM     87  O   UNL     1      -2.057  13.245  -7.530  1.00  0.00    -0.237 OA
ATOM     88  O   UNL     1      -4.239  14.086  -8.307  1.00  0.00    -0.744 OA
ENDBRANCH  81  85
ENDBRANCH  55  78
ENDBRANCH  29  30
ENDBRANCH  21  24
ENDBRANCH  19  20
ENDBRANCH   1  19
TORSDOF 16
