REMARK SMILES CCCCCCNC(=O)Oc1cccc(-c2ccc([C@@H](C)C(=O)NCCCNC(=O)c3ccc(-c4c5nc(c(-c6cc(S(=O)(=O)[O-])ccc6F)c6ccc([nH]6)c(-c6cc(S(=O)(=O)[O-])ccc6F)c6nc(c(-c7cc(S(=O)(=O)[O-])ccc7F)c7ccc4[nH]7)C=C6)C=C5)cc3)cc2O)c1
REMARK SMILES IDX 20 1 21 2 19 3 16 4 17 5 95 6 18 7 94 8 15 9 11 10 12 11
REMARK SMILES IDX 97 12 13 13 14 14 10 15 8 16 7 17 9 19 6 20 5 21 4 22 3 23
REMARK SMILES IDX 2 24 1 25 96 26 22 28 23 29 24 30 25 32 26 33 27 34 28 35
REMARK SMILES IDX 29 36 30 38 31 39 32 40 93 41 33 42 92 43 34 44 35 45 36 46
REMARK SMILES IDX 86 47 37 48 91 49 85 50 87 51 38 52 90 53 84 54 83 55 39 57
REMARK SMILES IDX 71 58 51 59 70 60 52 61 55 62 69 63 88 64 53 65 54 66 68 68
REMARK SMILES IDX 89 69 56 70 40 71 41 72 49 73 42 74 48 75 50 76 47 77 43 78
REMARK SMILES IDX 44 79 45 80 46 81 72 82 73 83 81 84 74 85 80 86 82 87 79 88
REMARK SMILES IDX 75 89 76 90 77 91 78 92 57 93 58 94 66 95 59 96 65 97 67 98
REMARK SMILES IDX 64 99 60 100 61 101 62 102 63 103
REMARK H PARENT 7 18 96 27 24 31 28 37 87 56 55 67
REMARK Flexibility Score: inf
ROOT
ATOM      1  C   UNL     1      -4.965 -13.555   0.899  1.00  0.00     0.105 C 
ATOM      2  C   UNL     1      -6.259 -14.359   1.020  1.00  0.00     0.023 C 
ENDROOT
BRANCH   1   3
ATOM      3  C   UNL     1      -5.091 -12.240   0.148  1.00  0.00    -0.032 A 
ATOM      4  C   UNL     1      -5.187  -9.745  -1.263  1.00  0.00     0.024 A 
ATOM      5  C   UNL     1      -5.688 -10.934  -1.817  1.00  0.00     0.013 A 
ATOM      6  C   UNL     1      -4.682  -9.836   0.046  1.00  0.00     0.123 A 
ATOM      7  C   UNL     1      -5.687 -12.141  -1.109  1.00  0.00     0.005 A 
ATOM      8  C   UNL     1      -4.594 -11.061   0.720  1.00  0.00     0.051 A 
BRANCH   4   9
ATOM      9  C   UNL     1      -5.217  -8.498  -2.065  1.00  0.00    -0.011 A 
ATOM     10  C   UNL     1      -4.209  -6.418  -2.819  1.00  0.00     0.133 A 
ATOM     11  C   UNL     1      -5.319  -6.122  -3.603  1.00  0.00     0.047 A 
ATOM     12  C   UNL     1      -4.140  -7.595  -2.071  1.00  0.00     0.056 A 
ATOM     13  C   UNL     1      -6.379  -7.019  -3.641  1.00  0.00     0.004 A 
ATOM     14  C   UNL     1      -6.333  -8.183  -2.869  1.00  0.00     0.009 A 
BRANCH  10  15
ATOM     15  O   UNL     1      -3.244  -5.404  -2.697  1.00  0.00    -0.410 OA
BRANCH  15  16
ATOM     16  C   UNL     1      -1.896  -5.715  -2.796  1.00  0.00     0.412 C 
ATOM     17  N   UNL     1      -1.089  -4.646  -2.526  1.00  0.00    -0.321 N 
ATOM     18  H   UNL     1      -0.121  -4.782  -2.644  1.00  0.00     0.167 HD
ATOM     19  O   UNL     1      -1.430  -6.811  -3.075  1.00  0.00    -0.224 OA
BRANCH  17  20
ATOM     20  C   UNL     1      -1.511  -3.332  -2.082  1.00  0.00     0.119 C 
BRANCH  20  21
ATOM     21  C   UNL     1      -0.943  -2.995  -0.703  1.00  0.00     0.021 C 
BRANCH  21  22
ATOM     22  C   UNL     1       0.586  -2.884  -0.651  1.00  0.00     0.002 C 
BRANCH  22  23
ATOM     23  C   UNL     1       1.200  -1.840  -1.590  1.00  0.00    -0.000 C 
BRANCH  23  24
ATOM     24  C   UNL     1       0.713  -0.405  -1.380  1.00  0.00    -0.003 C 
ATOM     25  C   UNL     1       1.070   0.155  -0.012  1.00  0.00     0.004 C 
ENDBRANCH  23  24
ENDBRANCH  22  23
ENDBRANCH  21  22
ENDBRANCH  20  21
ENDBRANCH  17  20
ENDBRANCH  15  16
ENDBRANCH  10  15
ENDBRANCH   4   9
BRANCH   6  26
ATOM     26  O   UNL     1      -4.283  -8.744   0.774  1.00  0.00    -0.507 OA
ATOM     27  H   UNL     1      -4.312  -7.890   0.391  1.00  0.00     0.293 HD
ENDBRANCH   6  26
ENDBRANCH   1   3
BRANCH   1  28
ATOM     28  C   UNL     1      -3.733 -14.389   0.516  1.00  0.00     0.227 C 
ATOM     29  O   UNL     1      -2.763 -14.440   1.283  1.00  0.00    -0.274 OA
ATOM     30  N   UNL     1      -3.632 -15.127  -0.623  1.00  0.00    -0.356 N 
ATOM     31  H   UNL     1      -2.800 -15.650  -0.686  1.00  0.00     0.163 HD
BRANCH  30  32
ATOM     32  C   UNL     1      -4.516 -15.290  -1.760  1.00  0.00     0.117 C 
BRANCH  32  33
ATOM     33  C   UNL     1      -4.117 -14.401  -2.933  1.00  0.00     0.042 C 
BRANCH  33  34
ATOM     34  C   UNL     1      -3.013 -14.994  -3.795  1.00  0.00     0.118 C 
BRANCH  34  35
ATOM     35  N   UNL     1      -3.486 -16.122  -4.589  1.00  0.00    -0.352 N 
ATOM     36  C   UNL     1      -3.592 -16.255  -5.954  1.00  0.00     0.251 C 
ATOM     37  H   UNL     1      -3.774 -16.907  -4.070  1.00  0.00     0.163 HD
ATOM     38  O   UNL     1      -4.235 -17.193  -6.417  1.00  0.00    -0.269 OA
BRANCH  36  39
ATOM     39  C   UNL     1      -2.955 -15.267  -6.855  1.00  0.00     0.039 A 
ATOM     40  C   UNL     1      -3.632 -14.850  -8.006  1.00  0.00     0.014 A 
ATOM     41  C   UNL     1      -1.682 -14.766  -6.577  1.00  0.00     0.014 A 
ATOM     42  C   UNL     1      -3.062 -13.881  -8.837  1.00  0.00     0.010 A 
ATOM     43  C   UNL     1      -1.157 -13.739  -7.353  1.00  0.00     0.010 A 
ATOM     44  C   UNL     1      -1.835 -13.291  -8.498  1.00  0.00    -0.014 A 
BRANCH  44  45
ATOM     45  C   UNL     1      -1.196 -12.240  -9.334  1.00  0.00     0.031 A 
ATOM     46  C   UNL     1       0.157 -12.506  -9.939  1.00  0.00     0.074 A 
ATOM     47  C   UNL     1      -1.770 -11.027  -9.461  1.00  0.00     0.049 A 
ATOM     48  N   UNL     1       0.989 -11.679 -10.516  1.00  0.00    -0.248 NA
ATOM     49  C   UNL     1       0.653 -13.888  -9.841  1.00  0.00     0.031 C 
ATOM     50  C   UNL     1      -3.070 -10.643  -8.909  1.00  0.00     0.029 A 
ATOM     51  N   UNL     1      -1.319  -9.884 -10.074  1.00  0.00    -0.354 N 
ATOM     52  C   UNL     1       2.120 -12.431 -10.818  1.00  0.00     0.074 A 
ATOM     53  C   UNL     1       1.885 -13.765 -10.309  1.00  0.00     0.031 C 
ATOM     54  C   UNL     1      -3.315  -9.358  -9.215  1.00  0.00     0.029 A 
ATOM     55  C   UNL     1      -2.167  -8.809  -9.930  1.00  0.00     0.049 A 
ATOM     56  H   UNL     1      -0.470  -9.837 -10.571  1.00  0.00     0.167 HD
ATOM     57  C   UNL     1       3.243 -12.047 -11.474  1.00  0.00     0.034 A 
ATOM     58  C   UNL     1      -2.020  -7.521 -10.302  1.00  0.00     0.034 A 
ATOM     59  C   UNL     1       3.447 -10.716 -11.992  1.00  0.00     0.049 A 
ATOM     60  C   UNL     1      -0.749  -7.106 -11.004  1.00  0.00     0.074 A 
ATOM     61  C   UNL     1       4.524 -10.226 -12.709  1.00  0.00     0.029 A 
ATOM     62  N   UNL     1       2.554  -9.662 -11.845  1.00  0.00    -0.354 N 
ATOM     63  N   UNL     1       0.306  -7.830 -11.300  1.00  0.00    -0.248 NA
ATOM     64  C   UNL     1      -0.651  -5.703 -11.429  1.00  0.00     0.031 C 
ATOM     65  C   UNL     1       4.312  -8.863 -12.939  1.00  0.00     0.029 A 
ATOM     66  C   UNL     1       3.065  -8.520 -12.441  1.00  0.00     0.049 A 
ATOM     67  H   UNL     1       1.685  -9.718 -11.386  1.00  0.00     0.167 HD
ATOM     68  C   UNL     1       1.171  -6.980 -11.985  1.00  0.00     0.074 A 
ATOM     69  C   UNL     1       0.516  -5.691 -12.057  1.00  0.00     0.031 C 
ATOM     70  C   UNL     1       2.391  -7.245 -12.516  1.00  0.00     0.034 A 
BRANCH  57  71
ATOM     71  C   UNL     1       4.338 -13.074 -11.639  1.00  0.00     0.023 A 
ATOM     72  C   UNL     1       4.133 -14.266 -12.356  1.00  0.00     0.031 A 
ATOM     73  C   UNL     1       5.596 -12.878 -11.040  1.00  0.00     0.131 A 
ATOM     74  C   UNL     1       5.132 -15.250 -12.384  1.00  0.00     0.055 A 
ATOM     75  C   UNL     1       6.619 -13.823 -11.148  1.00  0.00     0.041 A 
ATOM     76  F   UNL     1       5.848 -11.771 -10.325  1.00  0.00    -0.206 F 
ATOM     77  C   UNL     1       6.384 -15.025 -11.808  1.00  0.00     0.022 A 
BRANCH  74  78
ATOM     78  S   UNL     1       4.715 -16.886 -13.045  1.00  0.00     0.124 S 
ATOM     79  O   UNL     1       3.613 -17.284 -12.173  1.00  0.00    -0.237 OA
ATOM     80  O   UNL     1       4.359 -16.587 -14.427  1.00  0.00    -0.237 OA
ATOM     81  O   UNL     1       5.947 -17.652 -12.869  1.00  0.00    -0.744 OA
ENDBRANCH  74  78
ENDBRANCH  57  71
BRANCH  58  82
ATOM     82  C   UNL     1      -3.088  -6.521 -10.009  1.00  0.00     0.023 A 
ATOM     83  C   UNL     1      -3.781  -5.880 -11.048  1.00  0.00     0.031 A 
ATOM     84  C   UNL     1      -3.403  -6.158  -8.687  1.00  0.00     0.131 A 
ATOM     85  C   UNL     1      -4.717  -4.876 -10.753  1.00  0.00     0.055 A 
ATOM     86  C   UNL     1      -4.376  -5.200  -8.396  1.00  0.00     0.041 A 
ATOM     87  F   UNL     1      -2.773  -6.739  -7.654  1.00  0.00    -0.206 F 
ATOM     88  C   UNL     1      -5.030  -4.542  -9.433  1.00  0.00     0.022 A 
BRANCH  85  89
ATOM     89  S   UNL     1      -5.454  -3.945 -12.124  1.00  0.00     0.124 S 
ATOM     90  O   UNL     1      -4.271  -3.397 -12.779  1.00  0.00    -0.237 OA
ATOM     91  O   UNL     1      -6.167  -4.989 -12.851  1.00  0.00    -0.237 OA
ATOM     92  O   UNL     1      -6.304  -2.966 -11.450  1.00  0.00    -0.744 OA
ENDBRANCH  85  89
ENDBRANCH  58  82
BRANCH  70  93
ATOM     93  C   UNL     1       3.062  -6.144 -13.299  1.00  0.00     0.023 A 
ATOM     94  C   UNL     1       3.558  -4.982 -12.684  1.00  0.00     0.031 A 
ATOM     95  C   UNL     1       3.229  -6.283 -14.689  1.00  0.00     0.131 A 
ATOM     96  C   UNL     1       4.166  -3.986 -13.466  1.00  0.00     0.055 A 
ATOM     97  C   UNL     1       3.883  -5.316 -15.452  1.00  0.00     0.041 A 
ATOM     98  F   UNL     1       2.772  -7.373 -15.326  1.00  0.00    -0.206 F 
ATOM     99  C   UNL     1       4.348  -4.155 -14.841  1.00  0.00     0.022 A 
BRANCH  96 100
ATOM    100  S   UNL     1       4.663  -2.433 -12.672  1.00  0.00     0.124 S 
ATOM    101  O   UNL     1       3.392  -1.934 -12.157  1.00  0.00    -0.237 OA
ATOM    102  O   UNL     1       5.623  -2.885 -11.670  1.00  0.00    -0.237 OA
ATOM    103  O   UNL     1       5.235  -1.654 -13.769  1.00  0.00    -0.744 OA
ENDBRANCH  96 100
ENDBRANCH  70  93
ENDBRANCH  44  45
ENDBRANCH  36  39
ENDBRANCH  34  35
ENDBRANCH  33  34
ENDBRANCH  32  33
ENDBRANCH  30  32
ENDBRANCH   1  28
TORSDOF 23
