REMARK SMILES COc1ncccc1CS[C@@H](C)C(=O)NCCCNC(=O)c1ccc(-c2c3nc(c(-c4cc(S(=O)(=O)[O-])ccc4F)c4ccc([nH]4)c(-c4cc(S(=O)(=O)[O-])ccc4F)c4nc(c(-c5cc(S(=O)(=O)[O-])ccc5F)c5ccc2[nH]5)C=C4)C=C3)cc1
REMARK SMILES IDX 16 1 15 2 13 3 14 4 11 6 12 7 10 8 9 9 8 10 3 11 4 12 5 13
REMARK SMILES IDX 7 14 6 15 2 16 1 17 17 18 18 19 19 20 20 21 21 23 22 24
REMARK SMILES IDX 23 25 84 26 24 27 83 28 25 29 26 30 27 31 77 32 28 33 82 34
REMARK SMILES IDX 76 35 78 36 29 37 81 38 75 39 74 40 30 42 62 43 42 44 61 45
REMARK SMILES IDX 43 46 46 47 60 48 79 49 44 50 45 51 59 53 80 54 47 55 31 56
REMARK SMILES IDX 32 57 40 58 33 59 39 60 41 61 38 62 34 63 35 64 36 65 37 66
REMARK SMILES IDX 63 67 64 68 72 69 65 70 71 71 73 72 70 73 66 74 67 75 68 76
REMARK SMILES IDX 69 77 48 78 49 79 57 80 50 81 56 82 58 83 55 84 51 85 52 86
REMARK SMILES IDX 53 87 54 88
REMARK H PARENT 15 5 19 22 78 41 46 52
REMARK Flexibility Score: inf
ROOT
ATOM      1  C   UNL     1       4.494   1.982   3.525  1.00  0.00     0.117 C 
ENDROOT
BRANCH   1   2
ATOM      2  N   UNL     1       3.326   1.267   4.006  1.00  0.00    -0.355 N 
ATOM      3  C   UNL     1       2.766   0.048   3.769  1.00  0.00     0.232 C 
ATOM      4  O   UNL     1       1.882  -0.283   4.574  1.00  0.00    -0.274 OA
ATOM      5  H   UNL     1       2.814   1.790   4.664  1.00  0.00     0.163 HD
BRANCH   3   6
ATOM      6  C   UNL     1       3.123  -0.912   2.646  1.00  0.00     0.133 C 
ATOM      7  C   UNL     1       4.556  -1.431   2.662  1.00  0.00     0.030 C 
BRANCH   6   8
ATOM      8  S   UNL     1       2.517  -0.537   0.963  1.00  0.00    -0.144 SA
BRANCH   8   9
ATOM      9  C   UNL     1       1.901   1.164   0.986  1.00  0.00     0.111 C 
BRANCH   9  10
ATOM     10  C   UNL     1       0.534   1.451   1.547  1.00  0.00     0.024 A 
ATOM     11  C   UNL     1      -0.627   1.403   0.781  1.00  0.00     0.217 A 
ATOM     12  N   UNL     1      -1.840   1.830   1.208  1.00  0.00    -0.222 NA
ATOM     13  C   UNL     1      -1.919   2.342   2.454  1.00  0.00     0.115 A 
ATOM     14  C   UNL     1       0.377   1.968   2.839  1.00  0.00     0.012 A 
ATOM     15  C   UNL     1      -0.845   2.427   3.307  1.00  0.00     0.021 A 
BRANCH  11  16
ATOM     16  O   UNL     1      -0.575   1.110  -0.555  1.00  0.00    -0.481 OA
ATOM     17  C   UNL     1      -0.483  -0.290  -0.782  1.00  0.00     0.280 C 
ENDBRANCH  11  16
ENDBRANCH   9  10
ENDBRANCH   8   9
ENDBRANCH   6   8
ENDBRANCH   3   6
ENDBRANCH   1   2
BRANCH   1  18
ATOM     18  C   UNL     1       4.322   3.271   2.692  1.00  0.00     0.042 C 
BRANCH  18  19
ATOM     19  C   UNL     1       3.151   4.246   2.869  1.00  0.00     0.118 C 
BRANCH  19  20
ATOM     20  N   UNL     1       2.958   4.785   4.196  1.00  0.00    -0.352 N 
ATOM     21  C   UNL     1       2.294   5.952   4.531  1.00  0.00     0.251 C 
ATOM     22  H   UNL     1       3.338   4.266   4.941  1.00  0.00     0.163 HD
ATOM     23  O   UNL     1       2.196   6.286   5.702  1.00  0.00    -0.269 OA
BRANCH  21  24
ATOM     24  C   UNL     1       1.724   6.813   3.463  1.00  0.00     0.039 A 
ATOM     25  C   UNL     1       2.393   7.986   3.103  1.00  0.00     0.014 A 
ATOM     26  C   UNL     1       0.513   6.482   2.848  1.00  0.00     0.014 A 
ATOM     27  C   UNL     1       1.879   8.800   2.084  1.00  0.00     0.010 A 
ATOM     28  C   UNL     1       0.011   7.291   1.816  1.00  0.00     0.010 A 
ATOM     29  C   UNL     1       0.698   8.447   1.407  1.00  0.00    -0.014 A 
BRANCH  29  30
ATOM     30  C   UNL     1       0.235   9.230   0.221  1.00  0.00     0.031 A 
ATOM     31  C   UNL     1      -1.004  10.085   0.276  1.00  0.00     0.074 A 
ATOM     32  C   UNL     1       0.924   9.140  -0.935  1.00  0.00     0.049 A 
ATOM     33  N   UNL     1      -1.564  10.793  -0.674  1.00  0.00    -0.248 NA
ATOM     34  C   UNL     1      -1.705  10.144   1.564  1.00  0.00     0.031 C 
ATOM     35  C   UNL     1       2.139   8.346  -1.124  1.00  0.00     0.029 A 
ATOM     36  N   UNL     1       0.705   9.706  -2.168  1.00  0.00    -0.354 N 
ATOM     37  C   UNL     1      -2.684  11.389  -0.102  1.00  0.00     0.074 A 
ATOM     38  C   UNL     1      -2.742  10.917   1.269  1.00  0.00     0.031 C 
ATOM     39  C   UNL     1       2.563   8.486  -2.390  1.00  0.00     0.029 A 
ATOM     40  C   UNL     1       1.626   9.334  -3.121  1.00  0.00     0.049 A 
ATOM     41  H   UNL     1      -0.042  10.321  -2.353  1.00  0.00     0.167 HD
ATOM     42  C   UNL     1      -3.570  12.255  -0.661  1.00  0.00     0.034 A 
ATOM     43  C   UNL     1       1.701   9.618  -4.438  1.00  0.00     0.034 A 
ATOM     44  C   UNL     1      -3.513  12.699  -2.036  1.00  0.00     0.049 A 
ATOM     45  C   UNL     1       0.648  10.500  -5.061  1.00  0.00     0.074 A 
ATOM     46  C   UNL     1      -4.336  13.606  -2.684  1.00  0.00     0.029 A 
ATOM     47  N   UNL     1      -2.602  12.251  -2.984  1.00  0.00    -0.354 N 
ATOM     48  N   UNL     1      -0.374  11.095  -4.490  1.00  0.00    -0.248 NA
ATOM     49  C   UNL     1       0.757  10.748  -6.505  1.00  0.00     0.031 C 
ATOM     50  C   UNL     1      -3.977  13.642  -4.037  1.00  0.00     0.029 A 
ATOM     51  C   UNL     1      -2.875  12.822  -4.220  1.00  0.00     0.049 A 
ATOM     52  H   UNL     1      -1.868  11.620  -2.806  1.00  0.00     0.167 HD
ATOM     53  C   UNL     1      -1.015  11.804  -5.503  1.00  0.00     0.074 A 
ATOM     54  C   UNL     1      -0.255  11.578  -6.715  1.00  0.00     0.031 C 
ATOM     55  C   UNL     1      -2.129  12.576  -5.433  1.00  0.00     0.034 A 
BRANCH  42  56
ATOM     56  C   UNL     1      -4.704  12.750   0.209  1.00  0.00     0.023 A 
ATOM     57  C   UNL     1      -4.467  13.513   1.366  1.00  0.00     0.031 A 
ATOM     58  C   UNL     1      -6.039  12.445  -0.111  1.00  0.00     0.131 A 
ATOM     59  C   UNL     1      -5.535  13.873   2.201  1.00  0.00     0.055 A 
ATOM     60  C   UNL     1      -7.106  12.879   0.679  1.00  0.00     0.041 A 
ATOM     61  F   UNL     1      -6.332  11.710  -1.196  1.00  0.00    -0.206 F 
ATOM     62  C   UNL     1      -6.856  13.583   1.854  1.00  0.00     0.022 A 
BRANCH  59  63
ATOM     63  S   UNL     1      -5.160  14.591   3.825  1.00  0.00     0.124 S 
ATOM     64  O   UNL     1      -4.302  13.563   4.411  1.00  0.00    -0.237 OA
ATOM     65  O   UNL     1      -4.506  15.845   3.472  1.00  0.00    -0.237 OA
ATOM     66  O   UNL     1      -6.473  14.726   4.452  1.00  0.00    -0.744 OA
ENDBRANCH  59  63
ENDBRANCH  42  56
BRANCH  43  67
ATOM     67  C   UNL     1       2.791   9.035  -5.273  1.00  0.00     0.023 A 
ATOM     68  C   UNL     1       3.741   9.855  -5.903  1.00  0.00     0.031 A 
ATOM     69  C   UNL     1       2.876   7.646  -5.487  1.00  0.00     0.131 A 
ATOM     70  C   UNL     1       4.710   9.286  -6.744  1.00  0.00     0.055 A 
ATOM     71  C   UNL     1       3.875   7.080  -6.280  1.00  0.00     0.041 A 
ATOM     72  F   UNL     1       1.993   6.815  -4.911  1.00  0.00    -0.206 F 
ATOM     73  C   UNL     1       4.793   7.903  -6.924  1.00  0.00     0.022 A 
BRANCH  70  74
ATOM     74  S   UNL     1       5.817  10.388  -7.666  1.00  0.00     0.124 S 
ATOM     75  O   UNL     1       4.869  11.181  -8.440  1.00  0.00    -0.237 OA
ATOM     76  O   UNL     1       6.513  11.086  -6.591  1.00  0.00    -0.237 OA
ATOM     77  O   UNL     1       6.643   9.466  -8.444  1.00  0.00    -0.744 OA
ENDBRANCH  70  74
ENDBRANCH  43  67
BRANCH  55  78
ATOM     78  C   UNL     1      -2.581  13.255  -6.704  1.00  0.00     0.023 A 
ATOM     79  C   UNL     1      -3.083  12.524  -7.795  1.00  0.00     0.031 A 
ATOM     80  C   UNL     1      -2.516  14.656  -6.822  1.00  0.00     0.131 A 
ATOM     81  C   UNL     1      -3.465  13.192  -8.970  1.00  0.00     0.055 A 
ATOM     82  C   UNL     1      -2.951  15.319  -7.971  1.00  0.00     0.041 A 
ATOM     83  F   UNL     1      -2.039  15.405  -5.815  1.00  0.00    -0.206 F 
ATOM     84  C   UNL     1      -3.420  14.586  -9.057  1.00  0.00     0.022 A 
BRANCH  81  85
ATOM     85  S   UNL     1      -3.957  12.211 -10.414  1.00  0.00     0.124 S 
ATOM     86  O   UNL     1      -2.745  11.446 -10.688  1.00  0.00    -0.237 OA
ATOM     87  O   UNL     1      -5.091  11.448  -9.904  1.00  0.00    -0.237 OA
ATOM     88  O   UNL     1      -4.293  13.220 -11.417  1.00  0.00    -0.744 OA
ENDBRANCH  81  85
ENDBRANCH  55  78
ENDBRANCH  29  30
ENDBRANCH  21  24
ENDBRANCH  19  20
ENDBRANCH  18  19
ENDBRANCH   1  18
TORSDOF 17
