REMARK SMILES C/C(=N\NC(N)=O)c1nnn(-c2ccc(C(=O)NCCCNC(=O)c3ccc(-c4c5nc(c(-c6cc(S(=O)(=O)[O-])ccc6F)c6ccc([nH]6)c(-c6cc(S(=O)(=O)[O-])ccc6F)c6nc(c(-c7cc(S(=O)(=O)[O-])ccc7F)c7ccc4[nH]7)C=C6)C=C5)cc3)cc2)c1C
REMARK SMILES IDX 20 1 19 2 18 3 16 4 17 5 15 7 12 8 13 9 89 10 14 11 88 12
REMARK SMILES IDX 11 13 8 14 9 15 90 16 10 17 91 18 2 19 1 20 3 21 4 22 5 23
REMARK SMILES IDX 6 25 7 26 21 29 22 30 23 31 24 33 25 34 26 35 87 36 27 37
REMARK SMILES IDX 86 38 28 39 29 40 30 41 80 42 31 43 85 44 79 45 81 46 32 47
REMARK SMILES IDX 84 48 78 49 77 50 33 52 65 53 45 54 64 55 46 56 49 57 63 58
REMARK SMILES IDX 82 59 47 60 48 61 62 63 83 64 50 65 34 66 35 67 43 68 36 69
REMARK SMILES IDX 42 70 44 71 41 72 37 73 38 74 39 75 40 76 66 77 67 78 75 79
REMARK SMILES IDX 68 80 74 81 76 82 73 83 69 84 70 85 71 86 72 87 51 88 52 89
REMARK SMILES IDX 60 90 53 91 59 92 61 93 58 94 54 95 55 96 56 97 57 98
REMARK H PARENT 18 6 4 24 6 27 6 28 22 32 81 51 49 62
REMARK Flexibility Score: inf
ROOT
ATOM      1  C   UNL     1       8.274   5.989  -2.994  1.00  0.00     0.042 C 
ENDROOT
BRANCH   1   2
ATOM      2  C   UNL     1       8.275   5.629  -1.500  1.00  0.00     0.118 C 
BRANCH   2   3
ATOM      3  N   UNL     1       7.925   6.764  -0.654  1.00  0.00    -0.352 N 
ATOM      4  C   UNL     1       6.732   7.172  -0.100  1.00  0.00     0.251 C 
ATOM      5  O   UNL     1       6.750   8.109   0.697  1.00  0.00    -0.269 OA
ATOM      6  H   UNL     1       8.685   7.351  -0.439  1.00  0.00     0.163 HD
BRANCH   4   7
ATOM      7  C   UNL     1       5.436   6.487  -0.372  1.00  0.00     0.039 A 
ATOM      8  C   UNL     1       3.095   4.998  -0.646  1.00  0.00     0.067 A 
ATOM      9  C   UNL     1       3.229   5.846   0.453  1.00  0.00     0.029 A 
ATOM     10  C   UNL     1       4.045   4.985  -1.663  1.00  0.00     0.029 A 
ATOM     11  C   UNL     1       4.420   6.570   0.598  1.00  0.00     0.016 A 
ATOM     12  C   UNL     1       5.184   5.766  -1.539  1.00  0.00     0.016 A 
BRANCH   8  13
ATOM     13  N   UNL     1       2.067   4.046  -0.692  1.00  0.00    -0.217 N 
ATOM     14  C   UNL     1       0.922   2.206  -0.802  1.00  0.00     0.132 A 
ATOM     15  N   UNL     1       0.053   3.266  -0.755  1.00  0.00    -0.128 NA
ATOM     16  C   UNL     1       2.220   2.672  -0.740  1.00  0.00     0.071 A 
ATOM     17  N   UNL     1       0.764   4.377  -0.604  1.00  0.00    -0.061 NA
ATOM     18  C   UNL     1       3.515   1.964  -0.586  1.00  0.00     0.069 C 
BRANCH  14  19
ATOM     19  C   UNL     1       0.482   0.826  -0.702  1.00  0.00     0.087 C 
ATOM     20  C   UNL     1       0.697   0.175   0.639  1.00  0.00     0.071 C 
ATOM     21  N   UNL     1      -0.074   0.333  -1.769  1.00  0.00    -0.174 NA
BRANCH  21  22
ATOM     22  N   UNL     1      -0.521  -0.956  -1.853  1.00  0.00    -0.229 N 
ATOM     23  C   UNL     1       0.074  -2.093  -1.356  1.00  0.00     0.332 C 
ATOM     24  H   UNL     1      -1.374  -1.087  -2.328  1.00  0.00     0.195 HD
ATOM     25  N   UNL     1      -0.668  -3.212  -1.594  1.00  0.00    -0.350 N 
ATOM     26  O   UNL     1       1.131  -2.184  -0.748  1.00  0.00    -0.247 OA
ATOM     27  H   UNL     1      -1.520  -3.144  -2.083  1.00  0.00     0.161 HD
ATOM     28  H   UNL     1      -0.352  -4.089  -1.276  1.00  0.00     0.161 HD
ENDBRANCH  21  22
ENDBRANCH  14  19
ENDBRANCH   8  13
ENDBRANCH   4   7
ENDBRANCH   2   3
ENDBRANCH   1   2
BRANCH   1  29
ATOM     29  C   UNL     1       9.587   6.594  -3.450  1.00  0.00     0.118 C 
BRANCH  29  30
ATOM     30  N   UNL     1      10.661   5.603  -3.532  1.00  0.00    -0.352 N 
ATOM     31  C   UNL     1      11.987   5.811  -3.882  1.00  0.00     0.251 C 
ATOM     32  H   UNL     1      10.412   4.676  -3.312  1.00  0.00     0.163 HD
ATOM     33  O   UNL     1      12.668   4.889  -4.292  1.00  0.00    -0.269 OA
BRANCH  31  34
ATOM     34  C   UNL     1      12.538   7.174  -3.744  1.00  0.00     0.039 A 
ATOM     35  C   UNL     1      13.426   7.716  -4.676  1.00  0.00     0.014 A 
ATOM     36  C   UNL     1      12.100   7.929  -2.660  1.00  0.00     0.014 A 
ATOM     37  C   UNL     1      13.797   9.055  -4.542  1.00  0.00     0.010 A 
ATOM     38  C   UNL     1      12.297   9.281  -2.650  1.00  0.00     0.010 A 
ATOM     39  C   UNL     1      13.209   9.837  -3.534  1.00  0.00    -0.014 A 
BRANCH  39  40
ATOM     40  C   UNL     1      13.407  11.281  -3.455  1.00  0.00     0.031 A 
ATOM     41  C   UNL     1      13.039  11.987  -4.708  1.00  0.00     0.074 A 
ATOM     42  C   UNL     1      13.641  11.934  -2.293  1.00  0.00     0.049 A 
ATOM     43  N   UNL     1      13.836  12.478  -5.597  1.00  0.00    -0.248 NA
ATOM     44  C   UNL     1      11.629  11.953  -5.139  1.00  0.00     0.031 C 
ATOM     45  C   UNL     1      13.700  11.375  -0.935  1.00  0.00     0.029 A 
ATOM     46  N   UNL     1      13.775  13.268  -2.059  1.00  0.00    -0.354 N 
ATOM     47  C   UNL     1      13.013  13.087  -6.538  1.00  0.00     0.074 A 
ATOM     48  C   UNL     1      11.718  12.494  -6.357  1.00  0.00     0.031 C 
ATOM     49  C   UNL     1      13.625  12.370  -0.023  1.00  0.00     0.029 A 
ATOM     50  C   UNL     1      13.695  13.644  -0.716  1.00  0.00     0.049 A 
ATOM     51  H   UNL     1      13.917  13.920  -2.783  1.00  0.00     0.167 HD
ATOM     52  C   UNL     1      13.399  14.242  -7.150  1.00  0.00     0.034 A 
ATOM     53  C   UNL     1      13.686  14.908  -0.207  1.00  0.00     0.034 A 
ATOM     54  C   UNL     1      14.817  14.470  -6.948  1.00  0.00     0.049 A 
ATOM     55  C   UNL     1      14.289  15.776  -1.247  1.00  0.00     0.074 A 
ATOM     56  C   UNL     1      15.968  13.759  -7.229  1.00  0.00     0.029 A 
ATOM     57  N   UNL     1      15.180  15.392  -5.989  1.00  0.00    -0.354 N 
ATOM     58  N   UNL     1      15.529  15.665  -1.639  1.00  0.00    -0.248 NA
ATOM     59  C   UNL     1      13.394  16.414  -2.200  1.00  0.00     0.031 C 
ATOM     60  C   UNL     1      16.807  13.950  -6.090  1.00  0.00     0.029 A 
ATOM     61  C   UNL     1      16.179  14.846  -5.221  1.00  0.00     0.049 A 
ATOM     62  H   UNL     1      14.790  16.288  -5.875  1.00  0.00     0.167 HD
ATOM     63  C   UNL     1      15.480  15.791  -3.019  1.00  0.00     0.074 A 
ATOM     64  C   UNL     1      14.158  16.354  -3.296  1.00  0.00     0.031 C 
ATOM     65  C   UNL     1      16.393  15.159  -3.817  1.00  0.00     0.034 A 
BRANCH  52  66
ATOM     66  C   UNL     1      12.461  15.371  -7.545  1.00  0.00     0.023 A 
ATOM     67  C   UNL     1      13.056  16.522  -8.099  1.00  0.00     0.031 A 
ATOM     68  C   UNL     1      11.107  15.514  -7.162  1.00  0.00     0.131 A 
ATOM     69  C   UNL     1      12.374  17.750  -8.127  1.00  0.00     0.055 A 
ATOM     70  C   UNL     1      10.412  16.725  -7.252  1.00  0.00     0.041 A 
ATOM     71  F   UNL     1      10.394  14.532  -6.604  1.00  0.00    -0.206 F 
ATOM     72  C   UNL     1      11.056  17.862  -7.702  1.00  0.00     0.022 A 
BRANCH  69  73
ATOM     73  S   UNL     1      13.311  19.237  -8.560  1.00  0.00     0.124 S 
ATOM     74  O   UNL     1      14.405  19.180  -7.597  1.00  0.00    -0.237 OA
ATOM     75  O   UNL     1      13.661  18.974  -9.952  1.00  0.00    -0.237 OA
ATOM     76  O   UNL     1      12.348  20.315  -8.352  1.00  0.00    -0.744 OA
ENDBRANCH  69  73
ENDBRANCH  52  66
BRANCH  53  77
ATOM     77  C   UNL     1      12.879  15.441   0.933  1.00  0.00     0.023 A 
ATOM     78  C   UNL     1      13.180  16.651   1.603  1.00  0.00     0.031 A 
ATOM     79  C   UNL     1      11.613  14.873   1.202  1.00  0.00     0.131 A 
ATOM     80  C   UNL     1      12.235  17.239   2.483  1.00  0.00     0.055 A 
ATOM     81  C   UNL     1      10.684  15.461   2.064  1.00  0.00     0.041 A 
ATOM     82  F   UNL     1      11.201  13.768   0.561  1.00  0.00    -0.206 F 
ATOM     83  C   UNL     1      10.986  16.653   2.702  1.00  0.00     0.022 A 
BRANCH  80  84
ATOM     84  S   UNL     1      12.580  18.833   3.309  1.00  0.00     0.124 S 
ATOM     85  O   UNL     1      13.676  18.488   4.207  1.00  0.00    -0.237 OA
ATOM     86  O   UNL     1      12.909  19.704   2.187  1.00  0.00    -0.237 OA
ATOM     87  O   UNL     1      11.318  19.153   3.980  1.00  0.00    -0.744 OA
ENDBRANCH  80  84
ENDBRANCH  53  77
BRANCH  65  88
ATOM     88  C   UNL     1      17.648  14.600  -3.168  1.00  0.00     0.023 A 
ATOM     89  C   UNL     1      17.688  13.623  -2.144  1.00  0.00     0.031 A 
ATOM     90  C   UNL     1      18.877  15.025  -3.705  1.00  0.00     0.131 A 
ATOM     91  C   UNL     1      18.929  13.123  -1.693  1.00  0.00     0.055 A 
ATOM     92  C   UNL     1      20.098  14.512  -3.274  1.00  0.00     0.041 A 
ATOM     93  F   UNL     1      18.908  15.936  -4.693  1.00  0.00    -0.206 F 
ATOM     94  C   UNL     1      20.129  13.562  -2.261  1.00  0.00     0.022 A 
BRANCH  91  95
ATOM     95  S   UNL     1      19.019  11.906  -0.336  1.00  0.00     0.124 S 
ATOM     96  O   UNL     1      18.139  12.463   0.684  1.00  0.00    -0.237 OA
ATOM     97  O   UNL     1      18.558  10.678  -0.979  1.00  0.00    -0.237 OA
ATOM     98  O   UNL     1      20.439  11.902   0.024  1.00  0.00    -0.744 OA
ENDBRANCH  91  95
ENDBRANCH  65  88
ENDBRANCH  39  40
ENDBRANCH  31  34
ENDBRANCH  29  30
ENDBRANCH   1  29
TORSDOF 16
