REMARK SMILES Cc1cc([C@@H]2[C@H](C(=O)NCCCNC(=O)c3ccc(-c4c5nc(c(-c6cc(S(=O)(=O)[O-])ccc6F)c6ccc([nH]6)c(-c6cc(S(=O)(=O)[O-])ccc6F)c6nc(c(-c7cc(S(=O)(=O)[O-])ccc7F)c7ccc4[nH]7)C=C6)C=C5)cc3)CCCC(=O)N2C)ccc1Br
REMARK SMILES IDX 11 1 10 2 9 3 7 4 8 5 6 7 5 8 4 9 1 10 2 11 3 12 88 13 87 14
REMARK SMILES IDX 89 15 86 16 84 17 85 18 82 19 83 20 79 22 80 23 81 24 12 26
REMARK SMILES IDX 13 27 14 28 15 30 16 31 17 32 78 33 18 34 77 35 19 36 20 37
REMARK SMILES IDX 21 38 71 39 22 40 76 41 70 42 72 43 23 44 75 45 69 46 68 47
REMARK SMILES IDX 24 49 56 50 36 51 55 52 37 53 40 54 54 55 73 56 38 57 39 58
REMARK SMILES IDX 53 60 74 61 41 62 25 63 26 64 34 65 27 66 33 67 35 68 32 69
REMARK SMILES IDX 28 70 29 71 30 72 31 73 57 74 58 75 66 76 59 77 65 78 67 79
REMARK SMILES IDX 64 80 60 81 61 82 62 83 63 84 42 85 43 86 51 87 44 88 50 89
REMARK SMILES IDX 52 90 49 91 45 92 46 93 47 94 48 95
REMARK H PARENT 9 6 13 29 72 48 40 59
REMARK Flexibility Score: 90.00
ROOT
ATOM      1  C   UNL     1       6.063  -2.741   2.112  1.00  0.00     0.042 C 
ENDROOT
BRANCH   1   2
ATOM      2  C   UNL     1       6.506  -2.718   0.665  1.00  0.00     0.117 C 
BRANCH   2   3
ATOM      3  N   UNL     1       5.449  -2.874  -0.305  1.00  0.00    -0.356 N 
ATOM      4  C   UNL     1       5.019  -2.053  -1.294  1.00  0.00     0.225 C 
ATOM      5  O   UNL     1       4.420  -2.615  -2.222  1.00  0.00    -0.275 OA
ATOM      6  H   UNL     1       4.955  -3.723  -0.236  1.00  0.00     0.163 HD
BRANCH   4   7
ATOM      7  C   UNL     1       5.177  -0.527  -1.334  1.00  0.00     0.105 C 
BRANCH   7   8
ATOM      8  C   UNL     1       4.606   0.325  -0.184  1.00  0.00     0.127 C 
BRANCH   8   9
ATOM      9  C   UNL     1       3.062   0.268  -0.135  1.00  0.00    -0.024 A 
ATOM     10  C   UNL     1       0.227  -2.297  -0.007  1.00  0.00     0.045 C 
ATOM     11  C   UNL     1       0.931  -0.968  -0.044  1.00  0.00    -0.037 A 
ATOM     12  C   UNL     1       2.339  -0.939  -0.066  1.00  0.00     0.010 A 
ATOM     13  C   UNL     1       0.237   0.248  -0.058  1.00  0.00     0.020 A 
ATOM     14  C   UNL     1       0.934   1.457  -0.095  1.00  0.00     0.016 A 
ATOM     15  Br  UNL     1      -1.660   0.326  -0.020  1.00  0.00    -0.051 Br
ATOM     16  C   UNL     1       2.331   1.466  -0.137  1.00  0.00     0.007 A 
ENDBRANCH   8   9
BRANCH   8  17
ATOM     17  N   UNL     1       5.275   0.251   1.124  1.00  0.00    -0.338 N 
ATOM     18  C   UNL     1       4.423   0.224   2.322  1.00  0.00     0.147 C 
BRANCH  17  19
ATOM     19  C   UNL     1       6.573   0.682   1.349  1.00  0.00     0.222 CG0
ATOM     20  O   UNL     1       6.892   1.138   2.457  1.00  0.00    -0.275 OA
ATOM     21  G   UNL     1       7.701   0.622   0.320  1.00  0.00     0.000 G0
ENDBRANCH  17  19
ENDBRANCH   8  17
ENDBRANCH   7   8
BRANCH   7  22
ATOM     22  C   UNL     1       6.489   0.013  -1.898  1.00  0.00     0.016 C 
BRANCH  22  23
ATOM     23  C   UNL     1       7.717  -0.076  -1.031  1.00  0.00     0.011 C 
BRANCH  23  24
ATOM     24  C   UNL     1       7.701   0.622   0.320  1.00  0.00     0.100 CG0
ATOM     25  G   UNL     1       6.573   0.682   1.349  1.00  0.00     0.000 G0
ENDBRANCH  23  24
ENDBRANCH  22  23
ENDBRANCH   7  22
ENDBRANCH   4   7
ENDBRANCH   2   3
ENDBRANCH   1   2
BRANCH   1  26
ATOM     26  C   UNL     1       6.344  -4.056   2.808  1.00  0.00     0.118 C 
BRANCH  26  27
ATOM     27  N   UNL     1       7.769  -4.342   2.940  1.00  0.00    -0.352 N 
ATOM     28  C   UNL     1       8.540  -4.562   4.062  1.00  0.00     0.251 C 
ATOM     29  H   UNL     1       8.261  -4.385   2.088  1.00  0.00     0.163 HD
ATOM     30  O   UNL     1       9.754  -4.639   3.945  1.00  0.00    -0.269 OA
BRANCH  28  31
ATOM     31  C   UNL     1       7.903  -4.670   5.396  1.00  0.00     0.039 A 
ATOM     32  C   UNL     1       8.551  -4.129   6.509  1.00  0.00     0.014 A 
ATOM     33  C   UNL     1       6.664  -5.290   5.552  1.00  0.00     0.014 A 
ATOM     34  C   UNL     1       7.917  -4.146   7.755  1.00  0.00     0.010 A 
ATOM     35  C   UNL     1       5.977  -5.176   6.752  1.00  0.00     0.010 A 
ATOM     36  C   UNL     1       6.604  -4.628   7.879  1.00  0.00    -0.014 A 
BRANCH  36  37
ATOM     37  C   UNL     1       5.879  -4.625   9.178  1.00  0.00     0.031 A 
ATOM     38  C   UNL     1       5.362  -5.925   9.743  1.00  0.00     0.074 A 
ATOM     39  C   UNL     1       5.624  -3.461   9.808  1.00  0.00     0.049 A 
ATOM     40  N   UNL     1       4.611  -6.134  10.793  1.00  0.00    -0.248 NA
ATOM     41  C   UNL     1       5.695  -7.150   8.997  1.00  0.00     0.031 C 
ATOM     42  C   UNL     1       6.026  -2.135   9.335  1.00  0.00     0.029 A 
ATOM     43  N   UNL     1       4.962  -3.204  10.982  1.00  0.00    -0.354 N 
ATOM     44  C   UNL     1       4.365  -7.504  10.816  1.00  0.00     0.074 A 
ATOM     45  C   UNL     1       4.969  -8.059   9.626  1.00  0.00     0.031 C 
ATOM     46  C   UNL     1       5.641  -1.211  10.230  1.00  0.00     0.029 A 
ATOM     47  C   UNL     1       4.916  -1.868  11.312  1.00  0.00     0.049 A 
ATOM     48  H   UNL     1       4.557  -3.909  11.537  1.00  0.00     0.167 HD
ATOM     49  C   UNL     1       3.727  -8.239  11.760  1.00  0.00     0.034 A 
ATOM     50  C   UNL     1       4.346  -1.245  12.363  1.00  0.00     0.034 A 
ATOM     51  C   UNL     1       3.159  -7.670  12.957  1.00  0.00     0.049 A 
ATOM     52  C   UNL     1       3.631  -2.079  13.397  1.00  0.00     0.074 A 
ATOM     53  C   UNL     1       2.539  -8.319  14.009  1.00  0.00     0.029 A 
ATOM     54  N   UNL     1       3.143  -6.314  13.261  1.00  0.00    -0.354 N 
ATOM     55  N   UNL     1       3.446  -3.380  13.426  1.00  0.00    -0.248 NA
ATOM     56  C   UNL     1       3.059  -1.364  14.544  1.00  0.00     0.031 C 
ATOM     57  C   UNL     1       2.087  -7.353  14.913  1.00  0.00     0.029 A 
ATOM     58  C   UNL     1       2.499  -6.106  14.470  1.00  0.00     0.049 A 
ATOM     59  H   UNL     1       3.532  -5.606  12.699  1.00  0.00     0.167 HD
ATOM     60  C   UNL     1       2.764  -3.639  14.612  1.00  0.00     0.074 A 
ATOM     61  C   UNL     1       2.588  -2.363  15.275  1.00  0.00     0.031 C 
ATOM     62  C   UNL     1       2.326  -4.824  15.112  1.00  0.00     0.034 A 
BRANCH  49  63
ATOM     63  C   UNL     1       3.606  -9.726  11.520  1.00  0.00     0.023 A 
ATOM     64  C   UNL     1       4.741 -10.549  11.391  1.00  0.00     0.031 A 
ATOM     65  C   UNL     1       2.343 -10.328  11.380  1.00  0.00     0.131 A 
ATOM     66  C   UNL     1       4.594 -11.899  11.040  1.00  0.00     0.055 A 
ATOM     67  C   UNL     1       2.202 -11.694  11.125  1.00  0.00     0.041 A 
ATOM     68  F   UNL     1       1.222  -9.595  11.470  1.00  0.00    -0.206 F 
ATOM     69  C   UNL     1       3.331 -12.485  10.935  1.00  0.00     0.022 A 
BRANCH  66  70
ATOM     70  S   UNL     1       6.073 -12.834  10.564  1.00  0.00     0.124 S 
ATOM     71  O   UNL     1       6.564 -12.050   9.433  1.00  0.00    -0.237 OA
ATOM     72  O   UNL     1       6.883 -12.784  11.776  1.00  0.00    -0.237 OA
ATOM     73  O   UNL     1       5.548 -14.153  10.216  1.00  0.00    -0.744 OA
ENDBRANCH  66  70
ENDBRANCH  49  63
BRANCH  50  74
ATOM     74  C   UNL     1       4.424   0.239  12.498  1.00  0.00     0.023 A 
ATOM     75  C   UNL     1       5.101   0.834  13.575  1.00  0.00     0.031 A 
ATOM     76  C   UNL     1       3.789   1.087  11.573  1.00  0.00     0.131 A 
ATOM     77  C   UNL     1       5.087   2.229  13.728  1.00  0.00     0.055 A 
ATOM     78  C   UNL     1       3.827   2.477  11.697  1.00  0.00     0.041 A 
ATOM     79  F   UNL     1       3.129   0.574  10.522  1.00  0.00    -0.206 F 
ATOM     80  C   UNL     1       4.468   3.056  12.788  1.00  0.00     0.022 A 
BRANCH  77  81
ATOM     81  S   UNL     1       5.812   2.946  15.228  1.00  0.00     0.124 S 
ATOM     82  O   UNL     1       5.043   2.284  16.276  1.00  0.00    -0.237 OA
ATOM     83  O   UNL     1       7.211   2.547  15.110  1.00  0.00    -0.237 OA
ATOM     84  O   UNL     1       5.559   4.378  15.078  1.00  0.00    -0.744 OA
ENDBRANCH  77  81
ENDBRANCH  50  74
BRANCH  62  85
ATOM     85  C   UNL     1       1.658  -4.793  16.465  1.00  0.00     0.023 A 
ATOM     86  C   UNL     1       0.426  -4.150  16.669  1.00  0.00     0.031 A 
ATOM     87  C   UNL     1       2.270  -5.417  17.567  1.00  0.00     0.131 A 
ATOM     88  C   UNL     1      -0.127  -4.093  17.957  1.00  0.00     0.055 A 
ATOM     89  C   UNL     1       1.681  -5.417  18.832  1.00  0.00     0.041 A 
ATOM     90  F   UNL     1       3.449  -6.045  17.430  1.00  0.00    -0.206 F 
ATOM     91  C   UNL     1       0.483  -4.739  19.035  1.00  0.00     0.022 A 
BRANCH  88  92
ATOM     92  S   UNL     1      -1.605  -3.078  18.224  1.00  0.00     0.124 S 
ATOM     93  O   UNL     1      -1.152  -1.762  17.786  1.00  0.00    -0.237 OA
ATOM     94  O   UNL     1      -2.592  -3.730  17.369  1.00  0.00    -0.237 OA
ATOM     95  O   UNL     1      -1.852  -3.202  19.660  1.00  0.00    -0.744 OA
ENDBRANCH  88  92
ENDBRANCH  62  85
ENDBRANCH  36  37
ENDBRANCH  28  31
ENDBRANCH  26  27
ENDBRANCH   1  26
TORSDOF 14
