REMARK SMILES Cc1c(C(=O)N[C@H]2C=C[C@@H](C(=O)NCCCNC(=O)c3ccc(-c4c5nc(c(-c6cc(S(=O)(=O)[O-])ccc6F)c6ccc([nH]6)c(-c6cc(S(=O)(=O)[O-])ccc6F)c6nc(c(-c7cc(S(=O)(=O)[O-])ccc7F)c7ccc4[nH]7)C=C6)C=C5)cc3)C2)oc2ccccc12
REMARK SMILES IDX 15 1 14 2 13 3 11 4 12 5 10 7 7 8 8 9 83 10 9 11 6 12 4 13
REMARK SMILES IDX 5 14 3 16 1 17 2 18 90 19 84 20 85 21 89 22 86 23 88 24
REMARK SMILES IDX 87 25 16 26 17 27 18 28 19 30 20 31 21 32 82 33 22 34 81 35
REMARK SMILES IDX 23 36 24 37 25 38 75 39 26 40 80 41 74 42 76 43 27 44 79 45
REMARK SMILES IDX 73 46 72 47 28 49 60 50 40 51 59 52 41 53 44 54 58 55 77 56
REMARK SMILES IDX 42 57 43 58 57 60 78 61 45 62 29 63 30 64 38 65 31 66 37 67
REMARK SMILES IDX 39 68 36 69 32 70 33 71 34 72 35 73 61 74 62 75 70 76 63 77
REMARK SMILES IDX 69 78 71 79 68 80 64 81 65 82 66 83 67 84 46 85 47 86 55 87
REMARK SMILES IDX 48 88 54 89 56 90 53 91 49 92 50 93 51 94 52 95
REMARK H PARENT 13 6 6 15 17 29 76 48 44 59
REMARK Flexibility Score: inf
ROOT
ATOM      1  C   UNL     1       8.143  -1.925   2.067  1.00  0.00     0.042 C 
ENDROOT
BRANCH   1   2
ATOM      2  C   UNL     1       7.570  -2.909   1.069  1.00  0.00     0.117 C 
BRANCH   2   3
ATOM      3  N   UNL     1       6.699  -3.875   1.713  1.00  0.00    -0.356 N 
ATOM      4  C   UNL     1       5.366  -4.080   1.568  1.00  0.00     0.227 C 
ATOM      5  O   UNL     1       4.819  -4.909   2.299  1.00  0.00    -0.274 OA
ATOM      6  H   UNL     1       7.145  -4.475   2.353  1.00  0.00     0.163 HD
BRANCH   4   7
ATOM      7  C   UNL     1       4.548  -3.286   0.563  1.00  0.00     0.103 C 
ATOM      8  C   UNL     1       3.994  -1.167  -0.313  1.00  0.00     0.106 C 
ATOM      9  C   UNL     1       4.972  -1.807  -1.226  1.00  0.00    -0.006 C 
ATOM     10  C   UNL     1       4.287  -1.849   1.014  1.00  0.00     0.047 C 
ATOM     11  C   UNL     1       5.170  -3.068  -0.800  1.00  0.00    -0.016 C 
BRANCH   8  12
ATOM     12  N   UNL     1       3.962   0.240  -0.250  1.00  0.00    -0.343 N 
ATOM     13  C   UNL     1       2.830   1.015  -0.067  1.00  0.00     0.287 C 
ATOM     14  O   UNL     1       3.070   2.224   0.037  1.00  0.00    -0.266 OA
ATOM     15  H   UNL     1       4.820   0.713  -0.344  1.00  0.00     0.164 HD
BRANCH  13  16
ATOM     16  C   UNL     1       1.442   0.493  -0.029  1.00  0.00     0.195 A 
ATOM     17  C   UNL     1       1.078  -2.165  -0.023  1.00  0.00     0.049 C 
ATOM     18  C   UNL     1       0.712  -0.718  -0.030  1.00  0.00     0.008 A 
ATOM     19  C   UNL     1      -0.678  -0.364  -0.035  1.00  0.00     0.024 A 
ATOM     20  O   UNL     1       0.512   1.523   0.022  1.00  0.00    -0.451 OA
ATOM     21  C   UNL     1      -0.736   1.010   0.020  1.00  0.00     0.135 A 
ATOM     22  C   UNL     1      -1.885  -1.090  -0.065  1.00  0.00     0.012 A 
ATOM     23  C   UNL     1      -1.920   1.739   0.065  1.00  0.00     0.048 A 
ATOM     24  C   UNL     1      -3.095  -0.394  -0.026  1.00  0.00     0.001 A 
ATOM     25  C   UNL     1      -3.110   0.999   0.043  1.00  0.00     0.004 A 
ENDBRANCH  13  16
ENDBRANCH   8  12
ENDBRANCH   4   7
ENDBRANCH   2   3
ENDBRANCH   1   2
BRANCH   1  26
ATOM     26  C   UNL     1       9.049  -2.602   3.075  1.00  0.00     0.118 C 
BRANCH  26  27
ATOM     27  N   UNL     1      10.143  -3.304   2.416  1.00  0.00    -0.352 N 
ATOM     28  C   UNL     1      11.467  -2.958   2.330  1.00  0.00     0.251 C 
ATOM     29  H   UNL     1       9.896  -4.145   1.969  1.00  0.00     0.163 HD
ATOM     30  O   UNL     1      12.164  -3.446   1.448  1.00  0.00    -0.269 OA
BRANCH  28  31
ATOM     31  C   UNL     1      12.028  -2.008   3.310  1.00  0.00     0.039 A 
ATOM     32  C   UNL     1      13.044  -1.135   2.923  1.00  0.00     0.014 A 
ATOM     33  C   UNL     1      11.566  -2.011   4.629  1.00  0.00     0.014 A 
ATOM     34  C   UNL     1      13.581  -0.255   3.862  1.00  0.00     0.010 A 
ATOM     35  C   UNL     1      11.995  -1.042   5.517  1.00  0.00     0.010 A 
ATOM     36  C   UNL     1      13.052  -0.199   5.162  1.00  0.00    -0.014 A 
BRANCH  36  37
ATOM     37  C   UNL     1      13.659   0.654   6.209  1.00  0.00     0.031 A 
ATOM     38  C   UNL     1      14.256   0.005   7.431  1.00  0.00     0.074 A 
ATOM     39  C   UNL     1      13.631   1.991   6.078  1.00  0.00     0.049 A 
ATOM     40  N   UNL     1      14.808   0.558   8.480  1.00  0.00    -0.248 NA
ATOM     41  C   UNL     1      14.171  -1.463   7.508  1.00  0.00     0.031 C 
ATOM     42  C   UNL     1      13.027   2.721   4.961  1.00  0.00     0.029 A 
ATOM     43  N   UNL     1      14.134   2.975   6.886  1.00  0.00    -0.354 N 
ATOM     44  C   UNL     1      15.109  -0.491   9.344  1.00  0.00     0.074 A 
ATOM     45  C   UNL     1      14.585  -1.695   8.741  1.00  0.00     0.031 C 
ATOM     46  C   UNL     1      13.249   4.034   5.125  1.00  0.00     0.029 A 
ATOM     47  C   UNL     1      13.973   4.240   6.375  1.00  0.00     0.049 A 
ATOM     48  H   UNL     1      14.568   2.793   7.751  1.00  0.00     0.167 HD
ATOM     49  C   UNL     1      15.798  -0.459  10.511  1.00  0.00     0.034 A 
ATOM     50  C   UNL     1      14.384   5.427   6.859  1.00  0.00     0.034 A 
ATOM     51  C   UNL     1      16.333   0.756  11.072  1.00  0.00     0.049 A 
ATOM     52  C   UNL     1      15.155   5.445   8.153  1.00  0.00     0.074 A 
ATOM     53  C   UNL     1      17.095   0.922  12.214  1.00  0.00     0.029 A 
ATOM     54  N   UNL     1      16.157   2.023  10.524  1.00  0.00    -0.354 N 
ATOM     55  N   UNL     1      15.490   4.442   8.934  1.00  0.00    -0.248 NA
ATOM     56  C   UNL     1      15.620   6.755   8.618  1.00  0.00     0.031 C 
ATOM     57  C   UNL     1      17.323   2.292  12.391  1.00  0.00     0.029 A 
ATOM     58  C   UNL     1      16.773   2.977  11.317  1.00  0.00     0.049 A 
ATOM     59  H   UNL     1      15.665   2.213   9.693  1.00  0.00     0.167 HD
ATOM     60  C   UNL     1      16.243   4.998   9.964  1.00  0.00     0.074 A 
ATOM     61  C   UNL     1      16.318   6.421   9.693  1.00  0.00     0.031 C 
ATOM     62  C   UNL     1      16.826   4.393  11.031  1.00  0.00     0.034 A 
BRANCH  49  63
ATOM     63  C   UNL     1      15.972  -1.772  11.246  1.00  0.00     0.023 A 
ATOM     64  C   UNL     1      16.609  -2.877  10.648  1.00  0.00     0.031 A 
ATOM     65  C   UNL     1      15.421  -1.953  12.525  1.00  0.00     0.131 A 
ATOM     66  C   UNL     1      16.570  -4.133  11.271  1.00  0.00     0.055 A 
ATOM     67  C   UNL     1      15.480  -3.182  13.187  1.00  0.00     0.041 A 
ATOM     68  F   UNL     1      14.781  -0.948  13.145  1.00  0.00    -0.206 F 
ATOM     69  C   UNL     1      16.035  -4.288  12.550  1.00  0.00     0.022 A 
BRANCH  66  70
ATOM     70  S   UNL     1      17.041  -5.593  10.299  1.00  0.00     0.124 S 
ATOM     71  O   UNL     1      16.129  -5.496   9.161  1.00  0.00    -0.237 OA
ATOM     72  O   UNL     1      18.448  -5.343  10.014  1.00  0.00    -0.237 OA
ATOM     73  O   UNL     1      16.774  -6.708  11.205  1.00  0.00    -0.744 OA
ENDBRANCH  66  70
ENDBRANCH  49  63
BRANCH  50  74
ATOM     74  C   UNL     1      14.127   6.679   6.097  1.00  0.00     0.023 A 
ATOM     75  C   UNL     1      15.190   7.406   5.537  1.00  0.00     0.031 A 
ATOM     76  C   UNL     1      12.824   7.176   5.925  1.00  0.00     0.131 A 
ATOM     77  C   UNL     1      14.937   8.613   4.869  1.00  0.00     0.055 A 
ATOM     78  C   UNL     1      12.572   8.353   5.218  1.00  0.00     0.041 A 
ATOM     79  F   UNL     1      11.772   6.510   6.428  1.00  0.00    -0.206 F 
ATOM     80  C   UNL     1      13.634   9.086   4.696  1.00  0.00     0.022 A 
BRANCH  77  81
ATOM     81  S   UNL     1      16.347   9.591   4.283  1.00  0.00     0.124 S 
ATOM     82  O   UNL     1      17.069   9.845   5.524  1.00  0.00    -0.237 OA
ATOM     83  O   UNL     1      16.984   8.672   3.346  1.00  0.00    -0.237 OA
ATOM     84  O   UNL     1      15.719  10.762   3.674  1.00  0.00    -0.744 OA
ENDBRANCH  77  81
ENDBRANCH  50  74
BRANCH  62  85
ATOM     85  C   UNL     1      17.642   5.272  11.947  1.00  0.00     0.023 A 
ATOM     86  C   UNL     1      17.054   6.296  12.709  1.00  0.00     0.031 A 
ATOM     87  C   UNL     1      19.035   5.101  12.030  1.00  0.00     0.131 A 
ATOM     88  C   UNL     1      17.865   7.157  13.462  1.00  0.00     0.055 A 
ATOM     89  C   UNL     1      19.829   5.916  12.837  1.00  0.00     0.041 A 
ATOM     90  F   UNL     1      19.650   4.139  11.322  1.00  0.00    -0.206 F 
ATOM     91  C   UNL     1      19.246   6.963  13.545  1.00  0.00     0.022 A 
BRANCH  88  92
ATOM     92  S   UNL     1      17.104   8.612  14.233  1.00  0.00     0.124 S 
ATOM     93  O   UNL     1      16.476   9.268  13.090  1.00  0.00    -0.237 OA
ATOM     94  O   UNL     1      16.193   8.010  15.202  1.00  0.00    -0.237 OA
ATOM     95  O   UNL     1      18.240   9.327  14.811  1.00  0.00    -0.744 OA
ENDBRANCH  88  92
ENDBRANCH  62  85
ENDBRANCH  36  37
ENDBRANCH  28  31
ENDBRANCH  26  27
ENDBRANCH   1  26
TORSDOF 15
