REMARK SMILES C[C@@](NC(=O)COc1ccccc1C#N)(C(=O)NCCCNC(=O)c1ccc(-c2c3nc(c(-c4cc(S(=O)(=O)[O-])ccc4F)c4ccc([nH]4)c(-c4cc(S(=O)(=O)[O-])ccc4F)c4nc(c(-c5cc(S(=O)(=O)[O-])ccc5F)c5ccc2[nH]5)C=C4)C=C3)cc1)C1CC1
REMARK SMILES IDX 19 1 18 2 16 3 17 4 2 6 1 7 3 8 4 9 5 11 6 12 7 13 8 14 9 15
REMARK SMILES IDX 13 16 10 17 12 18 11 19 14 20 15 21 88 22 89 23 90 24 20 25
REMARK SMILES IDX 21 26 22 27 23 28 24 30 25 31 26 32 87 33 27 34 86 35 28 36
REMARK SMILES IDX 29 37 30 38 80 39 31 40 85 41 79 42 81 43 32 44 84 45 78 46
REMARK SMILES IDX 77 47 33 49 65 50 45 51 64 52 46 53 49 54 63 55 82 56 47 57
REMARK SMILES IDX 48 58 62 60 83 61 50 62 34 63 35 64 43 65 36 66 42 67 44 68
REMARK SMILES IDX 41 69 37 70 38 71 39 72 40 73 66 74 67 75 75 76 68 77 74 78
REMARK SMILES IDX 76 79 73 80 69 81 70 82 71 83 72 84 51 85 52 86 60 87 53 88
REMARK SMILES IDX 59 89 61 90 58 91 54 92 55 93 56 94 57 95
REMARK H PARENT 18 5 3 10 22 29 81 48 49 59
REMARK Flexibility Score: inf
ROOT
ATOM      1  C   UNL     1      -1.254   0.843   1.520  1.00  0.00     0.117 C 
ENDROOT
BRANCH   1   2
ATOM      2  N   UNL     1      -1.584  -0.017   0.400  1.00  0.00    -0.354 N 
ATOM      3  C   UNL     1      -1.013  -1.190  -0.001  1.00  0.00     0.245 C 
ATOM      4  O   UNL     1      -1.799  -1.959  -0.563  1.00  0.00    -0.272 OA
ATOM      5  H   UNL     1      -2.334   0.293  -0.157  1.00  0.00     0.163 HD
BRANCH   3   6
ATOM      6  C   UNL     1       0.499  -1.529   0.239  1.00  0.00     0.119 C 
ATOM      7  C   UNL     1       1.313  -0.303  -0.295  1.00  0.00     0.046 C 
BRANCH   6   8
ATOM      8  N   UNL     1       0.886  -1.716   1.659  1.00  0.00    -0.339 N 
ATOM      9  C   UNL     1       0.325  -2.546   2.593  1.00  0.00     0.258 C 
ATOM     10  H   UNL     1       1.646  -1.173   1.971  1.00  0.00     0.164 HD
ATOM     11  O   UNL     1       1.028  -3.423   3.101  1.00  0.00    -0.271 OA
BRANCH   9  12
ATOM     12  C   UNL     1      -1.069  -2.254   3.151  1.00  0.00     0.329 C 
BRANCH  12  13
ATOM     13  O   UNL     1      -1.081  -1.736   4.492  1.00  0.00    -0.482 OA
BRANCH  13  14
ATOM     14  C   UNL     1      -0.823  -0.403   4.687  1.00  0.00     0.137 A 
ATOM     15  C   UNL     1      -1.913   0.424   5.000  1.00  0.00     0.048 A 
ATOM     16  C   UNL     1       0.470   0.131   4.800  1.00  0.00     0.094 A 
ATOM     17  C   UNL     1      -1.720   1.765   5.368  1.00  0.00     0.004 A 
ATOM     18  C   UNL     1       0.648   1.478   5.175  1.00  0.00     0.023 A 
ATOM     19  C   UNL     1      -0.441   2.296   5.454  1.00  0.00     0.002 A 
BRANCH  16  20
ATOM     20  C   UNL     1       1.667  -0.614   4.571  1.00  0.00     0.103 C 
ATOM     21  N   UNL     1       2.697  -1.107   4.345  1.00  0.00    -0.192 NA
ENDBRANCH  16  20
ENDBRANCH  13  14
ENDBRANCH  12  13
ENDBRANCH   9  12
ENDBRANCH   6   8
BRANCH   6  22
ATOM     22  C   UNL     1       1.059  -2.725  -0.589  1.00  0.00     0.024 C 
ATOM     23  C   UNL     1       1.014  -4.169  -0.134  1.00  0.00     0.007 C 
ATOM     24  C   UNL     1       0.257  -3.759  -1.358  1.00  0.00     0.007 C 
ENDBRANCH   6  22
ENDBRANCH   3   6
ENDBRANCH   1   2
BRANCH   1  25
ATOM     25  C   UNL     1      -1.873   2.228   1.447  1.00  0.00     0.042 C 
BRANCH  25  26
ATOM     26  C   UNL     1      -3.401   2.217   1.415  1.00  0.00     0.118 C 
BRANCH  26  27
ATOM     27  N   UNL     1      -4.031   1.861   2.685  1.00  0.00    -0.352 N 
ATOM     28  C   UNL     1      -4.589   2.664   3.658  1.00  0.00     0.251 C 
ATOM     29  H   UNL     1      -4.063   0.896   2.876  1.00  0.00     0.163 HD
ATOM     30  O   UNL     1      -4.965   2.180   4.720  1.00  0.00    -0.269 OA
BRANCH  28  31
ATOM     31  C   UNL     1      -4.697   4.115   3.424  1.00  0.00     0.039 A 
ATOM     32  C   UNL     1      -4.248   5.029   4.383  1.00  0.00     0.014 A 
ATOM     33  C   UNL     1      -5.235   4.559   2.220  1.00  0.00     0.014 A 
ATOM     34  C   UNL     1      -4.263   6.396   4.086  1.00  0.00     0.010 A 
ATOM     35  C   UNL     1      -5.135   5.895   1.880  1.00  0.00     0.010 A 
ATOM     36  C   UNL     1      -4.670   6.830   2.817  1.00  0.00    -0.014 A 
BRANCH  36  37
ATOM     37  C   UNL     1      -4.710   8.258   2.421  1.00  0.00     0.031 A 
ATOM     38  C   UNL     1      -6.035   8.851   2.025  1.00  0.00     0.074 A 
ATOM     39  C   UNL     1      -3.566   8.953   2.280  1.00  0.00     0.049 A 
ATOM     40  N   UNL     1      -6.292   9.978   1.418  1.00  0.00    -0.248 NA
ATOM     41  C   UNL     1      -7.226   8.030   2.302  1.00  0.00     0.031 C 
ATOM     42  C   UNL     1      -2.228   8.460   2.613  1.00  0.00     0.029 A 
ATOM     43  N   UNL     1      -3.343  10.213   1.789  1.00  0.00    -0.354 N 
ATOM     44  C   UNL     1      -7.668   9.986   1.214  1.00  0.00     0.074 A 
ATOM     45  C   UNL     1      -8.176   8.721   1.694  1.00  0.00     0.031 C 
ATOM     46  C   UNL     1      -1.326   9.413   2.327  1.00  0.00     0.029 A 
ATOM     47  C   UNL     1      -2.011  10.555   1.731  1.00  0.00     0.049 A 
ATOM     48  H   UNL     1      -4.067  10.817   1.505  1.00  0.00     0.167 HD
ATOM     49  C   UNL     1      -8.437  10.973   0.693  1.00  0.00     0.034 A 
ATOM     50  C   UNL     1      -1.415  11.653   1.225  1.00  0.00     0.034 A 
ATOM     51  C   UNL     1      -7.898  12.227   0.235  1.00  0.00     0.049 A 
ATOM     52  C   UNL     1      -2.287  12.722   0.610  1.00  0.00     0.074 A 
ATOM     53  C   UNL     1      -8.576  13.326  -0.259  1.00  0.00     0.029 A 
ATOM     54  N   UNL     1      -6.545  12.546   0.206  1.00  0.00    -0.354 N 
ATOM     55  N   UNL     1      -3.593  12.741   0.466  1.00  0.00    -0.248 NA
ATOM     56  C   UNL     1      -1.607  13.915   0.094  1.00  0.00     0.031 C 
ATOM     57  C   UNL     1      -7.631  14.271  -0.668  1.00  0.00     0.029 A 
ATOM     58  C   UNL     1      -6.366  13.806  -0.339  1.00  0.00     0.049 A 
ATOM     59  H   UNL     1      -5.821  11.961   0.525  1.00  0.00     0.167 HD
ATOM     60  C   UNL     1      -3.892  13.964  -0.129  1.00  0.00     0.074 A 
ATOM     61  C   UNL     1      -2.631  14.659  -0.295  1.00  0.00     0.031 C 
ATOM     62  C   UNL     1      -5.095  14.471  -0.504  1.00  0.00     0.034 A 
BRANCH  49  63
ATOM     63  C   UNL     1      -9.920  10.715   0.571  1.00  0.00     0.023 A 
ATOM     64  C   UNL     1     -10.719  10.446   1.696  1.00  0.00     0.031 A 
ATOM     65  C   UNL     1     -10.541  10.710  -0.690  1.00  0.00     0.131 A 
ATOM     66  C   UNL     1     -12.069  10.103   1.532  1.00  0.00     0.055 A 
ATOM     67  C   UNL     1     -11.907  10.461  -0.838  1.00  0.00     0.041 A 
ATOM     68  F   UNL     1      -9.827  10.930  -1.805  1.00  0.00    -0.206 F 
ATOM     69  C   UNL     1     -12.677  10.140   0.276  1.00  0.00     0.022 A 
BRANCH  66  70
ATOM     70  S   UNL     1     -12.974   9.452   2.963  1.00  0.00     0.124 S 
ATOM     71  O   UNL     1     -12.164   8.289   3.318  1.00  0.00    -0.237 OA
ATOM     72  O   UNL     1     -12.932  10.569   3.898  1.00  0.00    -0.237 OA
ATOM     73  O   UNL     1     -14.294   9.140   2.420  1.00  0.00    -0.744 OA
ENDBRANCH  66  70
ENDBRANCH  49  63
BRANCH  50  74
ATOM     74  C   UNL     1       0.069  11.799   1.261  1.00  0.00     0.023 A 
ATOM     75  C   UNL     1       0.671  12.847   1.976  1.00  0.00     0.031 A 
ATOM     76  C   UNL     1       0.910  10.922   0.551  1.00  0.00     0.131 A 
ATOM     77  C   UNL     1       2.062  13.024   1.923  1.00  0.00     0.055 A 
ATOM     78  C   UNL     1       2.299  11.063   0.556  1.00  0.00     0.041 A 
ATOM     79  F   UNL     1       0.391   9.902  -0.151  1.00  0.00    -0.206 F 
ATOM     80  C   UNL     1       2.882  12.129   1.234  1.00  0.00     0.022 A 
BRANCH  77  81
ATOM     81  S   UNL     1       2.773  14.509   2.683  1.00  0.00     0.124 S 
ATOM     82  O   UNL     1       2.056  15.570   1.984  1.00  0.00    -0.237 OA
ATOM     83  O   UNL     1       2.432  14.322   4.090  1.00  0.00    -0.237 OA
ATOM     84  O   UNL     1       4.196  14.403   2.369  1.00  0.00    -0.744 OA
ENDBRANCH  77  81
ENDBRANCH  50  74
BRANCH  62  85
ATOM     85  C   UNL     1      -5.099  15.859  -1.095  1.00  0.00     0.023 A 
ATOM     86  C   UNL     1      -4.471  16.141  -2.320  1.00  0.00     0.031 A 
ATOM     87  C   UNL     1      -5.739  16.915  -0.421  1.00  0.00     0.131 A 
ATOM     88  C   UNL     1      -4.440  17.457  -2.800  1.00  0.00     0.055 A 
ATOM     89  C   UNL     1      -5.774  18.207  -0.944  1.00  0.00     0.041 A 
ATOM     90  F   UNL     1      -6.350  16.704   0.756  1.00  0.00    -0.206 F 
ATOM     91  C   UNL     1      -5.108  18.488  -2.134  1.00  0.00     0.022 A 
BRANCH  88  92
ATOM     92  S   UNL     1      -3.412  17.825  -4.247  1.00  0.00     0.124 S 
ATOM     93  O   UNL     1      -2.094  17.390  -3.798  1.00  0.00    -0.237 OA
ATOM     94  O   UNL     1      -4.032  17.010  -5.287  1.00  0.00    -0.237 OA
ATOM     95  O   UNL     1      -3.565  19.269  -4.417  1.00  0.00    -0.744 OA
ENDBRANCH  88  92
ENDBRANCH  62  85
ENDBRANCH  36  37
ENDBRANCH  28  31
ENDBRANCH  26  27
ENDBRANCH  25  26
ENDBRANCH   1  25
TORSDOF 19
