REMARK SMILES CC1C[NH+]([C@@H](C(=O)NCCCNC(=O)c2ccc(-c3c4nc(c(-c5cc(S(=O)(=O)[O-])ccc5F)c5ccc([nH]5)c(-c5cc(S(=O)(=O)[O-])ccc5F)c5nc(c(-c6cc(S(=O)(=O)[O-])ccc6F)c6ccc3[nH]6)C=C5)C=C4)cc2)C2CCCCC2)C1
REMARK SMILES IDX 11 1 10 2 9 3 8 4 6 5 7 6 5 8 4 9 1 10 2 11 3 12 84 13 78 15
REMARK SMILES IDX 79 16 83 17 80 18 82 19 81 20 12 21 13 22 14 24 15 25 16 26
REMARK SMILES IDX 77 27 17 28 76 29 18 30 19 31 20 32 70 33 21 34 75 35 69 36
REMARK SMILES IDX 71 37 22 38 74 39 68 40 67 41 23 43 55 44 35 45 54 46 36 47
REMARK SMILES IDX 39 48 53 49 72 50 37 51 38 52 52 54 73 55 40 56 24 57 25 58
REMARK SMILES IDX 33 59 26 60 32 61 34 62 31 63 27 64 28 65 29 66 30 67 56 68
REMARK SMILES IDX 57 69 65 70 58 71 64 72 66 73 63 74 59 75 60 76 61 77 62 78
REMARK SMILES IDX 41 79 42 80 50 81 43 82 49 83 51 84 48 85 44 86 45 87 46 88
REMARK SMILES IDX 47 89
REMARK H PARENT 8 7 4 14 12 23 71 42 39 53
REMARK Flexibility Score: inf
ROOT
ATOM      1  C   UNL     1      -0.438   3.623   1.685  1.00  0.00     0.118 C 
ENDROOT
BRANCH   1   2
ATOM      2  C   UNL     1       0.512   2.972   2.689  1.00  0.00     0.042 C 
BRANCH   2   3
ATOM      3  C   UNL     1      -0.151   2.149   3.803  1.00  0.00     0.118 C 
BRANCH   3   4
ATOM      4  N   UNL     1      -1.087   1.146   3.318  1.00  0.00    -0.351 N 
ATOM      5  C   UNL     1      -1.066  -0.217   3.250  1.00  0.00     0.278 C 
ATOM      6  O   UNL     1      -2.094  -0.726   2.790  1.00  0.00    -0.268 OA
ATOM      7  H   UNL     1      -1.917   1.536   2.960  1.00  0.00     0.163 HD
BRANCH   5   8
ATOM      8  C   UNL     1       0.139  -1.074   3.727  1.00  0.00     0.277 C 
BRANCH   8   9
ATOM      9  N   UNL     1       1.181  -1.396   2.712  1.00  0.00    -0.324 N 
ATOM     10  C   UNL     1       1.735   0.076  -0.355  1.00  0.00     0.020 C 
ATOM     11  C   UNL     1       1.071  -0.164   0.983  1.00  0.00     0.096 C 
ATOM     12  C   UNL     1       0.687  -1.613   1.335  1.00  0.00     0.271 C 
ATOM     13  C   UNL     1       1.966  -0.243   2.246  1.00  0.00     0.271 C 
ATOM     14  H   UNL     1       1.629  -2.160   3.218  1.00  0.00     0.348 HD
ENDBRANCH   8   9
BRANCH   8  15
ATOM     15  C   UNL     1      -0.363  -2.417   4.391  1.00  0.00     0.057 C 
ATOM     16  C   UNL     1      -0.897  -3.471   3.391  1.00  0.00     0.010 C 
ATOM     17  C   UNL     1       0.749  -3.050   5.263  1.00  0.00     0.010 C 
ATOM     18  C   UNL     1      -1.337  -4.764   4.071  1.00  0.00     0.001 C 
ATOM     19  C   UNL     1       0.327  -4.375   5.902  1.00  0.00     0.001 C 
ATOM     20  C   UNL     1      -0.191  -5.368   4.869  1.00  0.00     0.000 C 
ENDBRANCH   8  15
ENDBRANCH   5   8
ENDBRANCH   3   4
ENDBRANCH   2   3
ENDBRANCH   1   2
BRANCH   1  21
ATOM     21  N   UNL     1      -0.859   4.947   2.106  1.00  0.00    -0.352 N 
ATOM     22  C   UNL     1      -0.561   6.178   1.567  1.00  0.00     0.251 C 
ATOM     23  H   UNL     1      -1.446   4.967   2.896  1.00  0.00     0.163 HD
ATOM     24  O   UNL     1      -0.824   7.184   2.221  1.00  0.00    -0.269 OA
BRANCH  22  25
ATOM     25  C   UNL     1       0.082   6.311   0.233  1.00  0.00     0.039 A 
ATOM     26  C   UNL     1       1.054   7.302   0.054  1.00  0.00     0.014 A 
ATOM     27  C   UNL     1      -0.307   5.531  -0.860  1.00  0.00     0.014 A 
ATOM     28  C   UNL     1       1.663   7.479  -1.195  1.00  0.00     0.010 A 
ATOM     29  C   UNL     1       0.346   5.665  -2.090  1.00  0.00     0.010 A 
ATOM     30  C   UNL     1       1.332   6.647  -2.276  1.00  0.00    -0.014 A 
BRANCH  30  31
ATOM     31  C   UNL     1       1.985   6.811  -3.607  1.00  0.00     0.031 A 
ATOM     32  C   UNL     1       1.173   7.235  -4.804  1.00  0.00     0.074 A 
ATOM     33  C   UNL     1       3.297   6.539  -3.755  1.00  0.00     0.049 A 
ATOM     34  N   UNL     1       1.539   7.356  -6.056  1.00  0.00    -0.248 NA
ATOM     35  C   UNL     1      -0.245   7.539  -4.563  1.00  0.00     0.031 C 
ATOM     36  C   UNL     1       4.194   6.099  -2.685  1.00  0.00     0.029 A 
ATOM     37  N   UNL     1       4.105   6.582  -4.866  1.00  0.00    -0.354 N 
ATOM     38  C   UNL     1       0.396   7.735  -6.754  1.00  0.00     0.074 A 
ATOM     39  C   UNL     1      -0.685   7.771  -5.791  1.00  0.00     0.031 C 
ATOM     40  C   UNL     1       5.428   5.929  -3.187  1.00  0.00     0.029 A 
ATOM     41  C   UNL     1       5.405   6.203  -4.621  1.00  0.00     0.049 A 
ATOM     42  H   UNL     1       3.783   6.858  -5.754  1.00  0.00     0.167 HD
ATOM     43  C   UNL     1       0.262   8.043  -8.069  1.00  0.00     0.034 A 
ATOM     44  C   UNL     1       6.456   6.074  -5.456  1.00  0.00     0.034 A 
ATOM     45  C   UNL     1       1.348   8.021  -9.019  1.00  0.00     0.049 A 
ATOM     46  C   UNL     1       6.278   6.395  -6.919  1.00  0.00     0.074 A 
ATOM     47  C   UNL     1       1.329   8.364 -10.361  1.00  0.00     0.029 A 
ATOM     48  N   UNL     1       2.649   7.629  -8.733  1.00  0.00    -0.354 N 
ATOM     49  N   UNL     1       5.197   6.785  -7.553  1.00  0.00    -0.248 NA
ATOM     50  C   UNL     1       7.465   6.266  -7.775  1.00  0.00     0.031 C 
ATOM     51  C   UNL     1       2.598   8.121 -10.898  1.00  0.00     0.029 A 
ATOM     52  C   UNL     1       3.431   7.694  -9.877  1.00  0.00     0.049 A 
ATOM     53  H   UNL     1       2.970   7.345  -7.846  1.00  0.00     0.167 HD
ATOM     54  C   UNL     1       5.584   6.978  -8.877  1.00  0.00     0.074 A 
ATOM     55  C   UNL     1       6.998   6.672  -8.947  1.00  0.00     0.031 C 
ATOM     56  C   UNL     1       4.838   7.378  -9.938  1.00  0.00     0.034 A 
BRANCH  43  57
ATOM     57  C   UNL     1      -1.121   8.406  -8.560  1.00  0.00     0.023 A 
ATOM     58  C   UNL     1      -1.796   9.546  -8.090  1.00  0.00     0.031 A 
ATOM     59  C   UNL     1      -1.784   7.589  -9.493  1.00  0.00     0.131 A 
ATOM     60  C   UNL     1      -3.117   9.795  -8.492  1.00  0.00     0.055 A 
ATOM     61  C   UNL     1      -3.068   7.887  -9.952  1.00  0.00     0.041 A 
ATOM     62  F   UNL     1      -1.198   6.477  -9.966  1.00  0.00    -0.206 F 
ATOM     63  C   UNL     1      -3.749   8.987  -9.440  1.00  0.00     0.022 A 
BRANCH  60  64
ATOM     64  S   UNL     1      -4.045  11.108  -7.653  1.00  0.00     0.124 S 
ATOM     65  O   UNL     1      -4.001  10.657  -6.264  1.00  0.00    -0.237 OA
ATOM     66  O   UNL     1      -3.261  12.297  -7.964  1.00  0.00    -0.237 OA
ATOM     67  O   UNL     1      -5.365  11.048  -8.278  1.00  0.00    -0.744 OA
ENDBRANCH  60  64
ENDBRANCH  43  57
BRANCH  44  68
ATOM     68  C   UNL     1       7.774   5.603  -4.942  1.00  0.00     0.023 A 
ATOM     69  C   UNL     1       8.899   6.443  -4.957  1.00  0.00     0.031 A 
ATOM     70  C   UNL     1       7.939   4.288  -4.472  1.00  0.00     0.131 A 
ATOM     71  C   UNL     1      10.148   5.947  -4.552  1.00  0.00     0.055 A 
ATOM     72  C   UNL     1       9.173   3.814  -4.024  1.00  0.00     0.041 A 
ATOM     73  F   UNL     1       6.894   3.445  -4.433  1.00  0.00    -0.206 F 
ATOM     74  C   UNL     1      10.290   4.642  -4.075  1.00  0.00     0.022 A 
BRANCH  71  75
ATOM     75  S   UNL     1      11.606   7.010  -4.736  1.00  0.00     0.124 S 
ATOM     76  O   UNL     1      11.588   7.295  -6.166  1.00  0.00    -0.237 OA
ATOM     77  O   UNL     1      11.279   8.126  -3.855  1.00  0.00    -0.237 OA
ATOM     78  O   UNL     1      12.705   6.161  -4.282  1.00  0.00    -0.744 OA
ENDBRANCH  71  75
ENDBRANCH  44  68
BRANCH  56  79
ATOM     79  C   UNL     1       5.556   7.552 -11.255  1.00  0.00     0.023 A 
ATOM     80  C   UNL     1       6.077   6.457 -11.966  1.00  0.00     0.031 A 
ATOM     81  C   UNL     1       5.730   8.838 -11.797  1.00  0.00     0.131 A 
ATOM     82  C   UNL     1       6.792   6.673 -13.154  1.00  0.00     0.055 A 
ATOM     83  C   UNL     1       6.394   9.041 -13.008  1.00  0.00     0.041 A 
ATOM     84  F   UNL     1       5.253   9.919 -11.159  1.00  0.00    -0.206 F 
ATOM     85  C   UNL     1       6.941   7.956 -13.687  1.00  0.00     0.022 A 
BRANCH  82  86
ATOM     86  S   UNL     1       7.598   5.259 -13.957  1.00  0.00     0.124 S 
ATOM     87  O   UNL     1       8.497   4.787 -12.909  1.00  0.00    -0.237 OA
ATOM     88  O   UNL     1       6.468   4.389 -14.266  1.00  0.00    -0.237 OA
ATOM     89  O   UNL     1       8.257   5.853 -15.118  1.00  0.00    -0.744 OA
ENDBRANCH  82  86
ENDBRANCH  56  79
ENDBRANCH  30  31
ENDBRANCH  22  25
ENDBRANCH   1  21
TORSDOF 15
