REMARK SMILES O=C(NCCCNC(=O)[C@@H]1C[N@@H+](CCOc2ccc(F)cc2)C[C@H]1C1CC1)c1ccc(-c2c3nc(c(-c4cc(S(=O)(=O)[O-])ccc4F)c4ccc([nH]4)c(-c4cc(S(=O)(=O)[O-])ccc4F)c4nc(c(-c5cc(S(=O)(=O)[O-])ccc5F)c5ccc2[nH]5)C=C4)C=C3)cc1
REMARK SMILES IDX 5 1 4 2 3 3 1 4 2 5 28 7 29 8 90 9 30 10 89 11 31 12 32 13
REMARK SMILES IDX 33 14 83 15 34 16 88 17 82 18 84 19 35 20 87 21 81 22 80 23
REMARK SMILES IDX 36 25 68 26 48 27 67 28 49 29 52 30 66 31 85 32 50 33 51 34
REMARK SMILES IDX 65 36 86 37 53 38 37 39 38 40 46 41 39 42 45 43 47 44 44 45
REMARK SMILES IDX 40 46 41 47 42 48 43 49 69 50 70 51 78 52 71 53 77 54 79 55
REMARK SMILES IDX 76 56 72 57 73 58 74 59 75 60 54 61 55 62 63 63 56 64 62 65
REMARK SMILES IDX 64 66 61 67 57 68 58 69 59 70 60 71 6 72 7 73 8 74 9 76
REMARK SMILES IDX 10 77 11 78 24 79 12 80 23 81 25 83 26 84 27 85 13 86 14 87
REMARK SMILES IDX 15 88 16 89 17 90 22 91 18 92 21 93 19 94 20 95
REMARK H PARENT 3 6 84 24 52 35 7 75 12 82
REMARK Flexibility Score: inf
ROOT
ATOM      1  C   UNL     1       4.925  -1.652   0.733  1.00  0.00     0.042 C 
ENDROOT
BRANCH   1   2
ATOM      2  C   UNL     1       4.489  -0.762  -0.407  1.00  0.00     0.118 C 
BRANCH   2   3
ATOM      3  N   UNL     1       3.035  -0.734  -0.549  1.00  0.00    -0.352 N 
ATOM      4  O   UNL     1       0.964   0.096  -0.168  1.00  0.00    -0.269 OA
ATOM      5  C   UNL     1       2.166   0.283  -0.215  1.00  0.00     0.251 C 
ATOM      6  H   UNL     1       2.625  -1.543  -0.931  1.00  0.00     0.163 HD
BRANCH   5   7
ATOM      7  C   UNL     1       2.761   1.593   0.110  1.00  0.00     0.039 A 
ATOM      8  C   UNL     1       3.794   2.068  -0.696  1.00  0.00     0.014 A 
ATOM      9  C   UNL     1       2.398   2.262   1.278  1.00  0.00     0.014 A 
ATOM     10  C   UNL     1       4.636   3.040  -0.196  1.00  0.00     0.010 A 
ATOM     11  C   UNL     1       3.137   3.379   1.675  1.00  0.00     0.010 A 
ATOM     12  C   UNL     1       4.286   3.753   0.960  1.00  0.00    -0.014 A 
BRANCH  12  13
ATOM     13  C   UNL     1       5.104   4.937   1.321  1.00  0.00     0.031 A 
ATOM     14  C   UNL     1       5.782   5.050   2.656  1.00  0.00     0.074 A 
ATOM     15  C   UNL     1       5.266   5.891   0.380  1.00  0.00     0.049 A 
ATOM     16  N   UNL     1       6.483   6.047   3.130  1.00  0.00    -0.248 NA
ATOM     17  C   UNL     1       5.658   3.915   3.586  1.00  0.00     0.031 C 
ATOM     18  C   UNL     1       4.662   5.865  -0.961  1.00  0.00     0.029 A 
ATOM     19  N   UNL     1       6.009   7.041   0.374  1.00  0.00    -0.354 N 
ATOM     20  C   UNL     1       6.855   5.680   4.417  1.00  0.00     0.074 A 
ATOM     21  C   UNL     1       6.295   4.368   4.660  1.00  0.00     0.031 C 
ATOM     22  C   UNL     1       5.131   6.889  -1.681  1.00  0.00     0.029 A 
ATOM     23  C   UNL     1       5.956   7.721  -0.821  1.00  0.00     0.049 A 
ATOM     24  H   UNL     1       6.530   7.351   1.149  1.00  0.00     0.167 HD
ATOM     25  C   UNL     1       7.595   6.383   5.307  1.00  0.00     0.034 A 
ATOM     26  C   UNL     1       6.468   8.912  -1.179  1.00  0.00     0.034 A 
ATOM     27  C   UNL     1       8.168   7.676   5.026  1.00  0.00     0.049 A 
ATOM     28  C   UNL     1       7.236   9.686  -0.152  1.00  0.00     0.074 A 
ATOM     29  C   UNL     1       8.951   8.464   5.851  1.00  0.00     0.029 A 
ATOM     30  N   UNL     1       8.026   8.368   3.831  1.00  0.00    -0.354 N 
ATOM     31  N   UNL     1       7.534   9.341   1.079  1.00  0.00    -0.248 NA
ATOM     32  C   UNL     1       7.718  11.013  -0.547  1.00  0.00     0.031 C 
ATOM     33  C   UNL     1       9.232   9.657   5.179  1.00  0.00     0.029 A 
ATOM     34  C   UNL     1       8.682   9.585   3.909  1.00  0.00     0.049 A 
ATOM     35  H   UNL     1       7.533   8.042   3.044  1.00  0.00     0.167 HD
ATOM     36  C   UNL     1       8.242  10.411   1.606  1.00  0.00     0.074 A 
ATOM     37  C   UNL     1       8.345  11.403   0.554  1.00  0.00     0.031 C 
ATOM     38  C   UNL     1       8.757  10.562   2.851  1.00  0.00     0.034 A 
BRANCH  25  39
ATOM     39  C   UNL     1       7.807   5.804   6.681  1.00  0.00     0.023 A 
ATOM     40  C   UNL     1       8.664   4.714   6.901  1.00  0.00     0.031 A 
ATOM     41  C   UNL     1       7.200   6.409   7.796  1.00  0.00     0.131 A 
ATOM     42  C   UNL     1       8.879   4.251   8.209  1.00  0.00     0.055 A 
ATOM     43  C   UNL     1       7.459   5.978   9.098  1.00  0.00     0.041 A 
ATOM     44  F   UNL     1       6.360   7.444   7.637  1.00  0.00    -0.206 F 
ATOM     45  C   UNL     1       8.303   4.892   9.310  1.00  0.00     0.022 A 
BRANCH  42  46
ATOM     46  S   UNL     1       9.898   2.772   8.457  1.00  0.00     0.124 S 
ATOM     47  O   UNL     1       9.069   1.738   7.841  1.00  0.00    -0.237 OA
ATOM     48  O   UNL     1      11.128   3.109   7.749  1.00  0.00    -0.237 OA
ATOM     49  O   UNL     1      10.022   2.679   9.910  1.00  0.00    -0.744 OA
ENDBRANCH  42  46
ENDBRANCH  25  39
BRANCH  26  50
ATOM     50  C   UNL     1       6.198   9.460  -2.535  1.00  0.00     0.023 A 
ATOM     51  C   UNL     1       7.238   9.657  -3.454  1.00  0.00     0.031 A 
ATOM     52  C   UNL     1       4.887   9.781  -2.938  1.00  0.00     0.131 A 
ATOM     53  C   UNL     1       6.953  10.185  -4.723  1.00  0.00     0.055 A 
ATOM     54  C   UNL     1       4.603  10.254  -4.218  1.00  0.00     0.041 A 
ATOM     55  F   UNL     1       3.855   9.599  -2.098  1.00  0.00    -0.206 F 
ATOM     56  C   UNL     1       5.642  10.468  -5.116  1.00  0.00     0.022 A 
BRANCH  53  57
ATOM     57  S   UNL     1       8.334  10.546  -5.840  1.00  0.00     0.124 S 
ATOM     58  O   UNL     1       9.085  11.533  -5.072  1.00  0.00    -0.237 OA
ATOM     59  O   UNL     1       8.957   9.235  -5.986  1.00  0.00    -0.237 OA
ATOM     60  O   UNL     1       7.675  11.057  -7.040  1.00  0.00    -0.744 OA
ENDBRANCH  53  57
ENDBRANCH  26  50
BRANCH  38  61
ATOM     61  C   UNL     1       9.495  11.840   3.130  1.00  0.00     0.023 A 
ATOM     62  C   UNL     1       8.811  13.057   3.272  1.00  0.00     0.031 A 
ATOM     63  C   UNL     1      10.891  11.830   3.289  1.00  0.00     0.131 A 
ATOM     64  C   UNL     1       9.532  14.229   3.539  1.00  0.00     0.055 A 
ATOM     65  C   UNL     1      11.597  12.990   3.602  1.00  0.00     0.041 A 
ATOM     66  F   UNL     1      11.584  10.687   3.161  1.00  0.00    -0.206 F 
ATOM     67  C   UNL     1      10.918  14.200   3.723  1.00  0.00     0.022 A 
BRANCH  64  68
ATOM     68  S   UNL     1       8.636  15.803   3.610  1.00  0.00     0.124 S 
ATOM     69  O   UNL     1       8.172  15.948   2.233  1.00  0.00    -0.237 OA
ATOM     70  O   UNL     1       7.604  15.535   4.605  1.00  0.00    -0.237 OA
ATOM     71  O   UNL     1       9.660  16.761   4.024  1.00  0.00    -0.744 OA
ENDBRANCH  64  68
ENDBRANCH  38  61
ENDBRANCH  12  13
ENDBRANCH   5   7
ENDBRANCH   2   3
ENDBRANCH   1   2
BRANCH   1  72
ATOM     72  C   UNL     1       4.740  -3.096   0.353  1.00  0.00     0.117 C 
BRANCH  72  73
ATOM     73  N   UNL     1       5.678  -3.446  -0.698  1.00  0.00    -0.356 N 
ATOM     74  C   UNL     1       6.705  -4.332  -0.642  1.00  0.00     0.229 C 
ATOM     75  H   UNL     1       5.555  -2.983  -1.558  1.00  0.00     0.163 HD
ATOM     76  O   UNL     1       7.575  -4.289  -1.509  1.00  0.00    -0.275 OA
BRANCH  74  77
ATOM     77  C   UNL     1       6.606  -5.435   0.373  1.00  0.00     0.142 C 
ATOM     78  C   UNL     1       7.951  -5.809   0.976  1.00  0.00     0.276 C 
ATOM     79  C   UNL     1       6.145  -6.688  -0.367  1.00  0.00     0.065 C 
ATOM     80  N   UNL     1       7.749  -7.209   1.398  1.00  0.00    -0.331 N 
ATOM     81  C   UNL     1       7.045  -7.774   0.244  1.00  0.00     0.267 C 
ATOM     82  H   UNL     1       8.605  -7.728   1.594  1.00  0.00     0.348 HD
BRANCH  79  83
ATOM     83  C   UNL     1       4.669  -7.029  -0.342  1.00  0.00    -0.001 C 
ATOM     84  C   UNL     1       3.589  -6.336   0.467  1.00  0.00     0.004 C 
ATOM     85  C   UNL     1       3.637  -6.154  -1.018  1.00  0.00     0.004 C 
ENDBRANCH  79  83
BRANCH  80  86
ATOM     86  C   UNL     1       7.097  -7.343   2.728  1.00  0.00     0.304 C 
BRANCH  86  87
ATOM     87  C   UNL     1       5.661  -7.901   2.941  1.00  0.00     0.290 C 
BRANCH  87  88
ATOM     88  O   UNL     1       5.596  -9.341   2.949  1.00  0.00    -0.488 OA
BRANCH  88  89
ATOM     89  C   UNL     1       4.867  -9.879   1.921  1.00  0.00     0.119 A 
ATOM     90  C   UNL     1       5.556 -10.742   1.063  1.00  0.00     0.049 A 
ATOM     91  C   UNL     1       3.533  -9.559   1.668  1.00  0.00     0.049 A 
ATOM     92  C   UNL     1       4.982 -11.121  -0.150  1.00  0.00     0.043 A 
ATOM     93  C   UNL     1       2.940  -9.979   0.470  1.00  0.00     0.043 A 
ATOM     94  C   UNL     1       3.685 -10.719  -0.445  1.00  0.00     0.123 A 
ATOM     95  F   UNL     1       3.165 -11.001  -1.647  1.00  0.00    -0.207 F 
ENDBRANCH  88  89
ENDBRANCH  87  88
ENDBRANCH  86  87
ENDBRANCH  80  86
ENDBRANCH  74  77
ENDBRANCH  72  73
ENDBRANCH   1  72
TORSDOF 18
