REMARK SMILES Cc1cccc(C[N@@H+](C)C[C@]2(C(=O)NCCCNC(=O)c3ccc(-c4c5nc(c(-c6cc(S(=O)(=O)[O-])ccc6F)c6ccc([nH]6)c(-c6cc(S(=O)(=O)[O-])ccc6F)c6nc(c(-c7cc(S(=O)(=O)[O-])ccc7F)c7ccc4[nH]7)C=C6)C=C5)cc3)CCC[C@H](C)C2)n1
REMARK SMILES IDX 15 1 14 2 12 3 13 4 11 6 84 7 89 8 85 9 87 10 86 11 88 12
REMARK SMILES IDX 10 13 8 14 9 15 7 17 6 18 1 19 2 20 3 21 90 22 4 23 5 24
REMARK SMILES IDX 16 25 17 26 18 27 19 28 20 30 21 31 22 32 83 33 23 34 82 35
REMARK SMILES IDX 24 36 25 37 26 38 76 39 27 40 81 41 75 42 77 43 28 44 80 45
REMARK SMILES IDX 74 46 73 47 29 49 61 50 41 51 60 52 42 53 45 54 59 55 78 56
REMARK SMILES IDX 43 57 44 58 58 60 79 61 46 62 30 63 31 64 39 65 32 66 38 67
REMARK SMILES IDX 40 68 37 69 33 70 34 71 35 72 36 73 62 74 63 75 71 76 64 77
REMARK SMILES IDX 70 78 72 79 69 80 65 81 66 82 67 83 68 84 47 85 48 86 56 87
REMARK SMILES IDX 49 88 55 89 57 90 54 91 50 92 51 93 52 94 53 95
REMARK H PARENT 14 5 8 16 18 29 77 48 45 59
REMARK Flexibility Score: inf
ROOT
ATOM      1  C   UNL     1       0.635   4.442   1.125  1.00  0.00     0.117 C 
ENDROOT
BRANCH   1   2
ATOM      2  N   UNL     1       1.195   3.528   2.098  1.00  0.00    -0.355 N 
ATOM      3  C   UNL     1       0.584   2.783   3.059  1.00  0.00     0.231 C 
ATOM      4  O   UNL     1       1.266   1.865   3.532  1.00  0.00    -0.274 OA
ATOM      5  H   UNL     1       2.174   3.429   2.057  1.00  0.00     0.163 HD
BRANCH   3   6
ATOM      6  C   UNL     1      -0.859   3.063   3.569  1.00  0.00     0.098 C 
ATOM      7  C   UNL     1      -1.074   2.221   4.878  1.00  0.00     0.023 C 
ATOM      8  C   UNL     1      -1.086   4.545   3.966  1.00  0.00     0.026 C 
ATOM      9  C   UNL     1      -0.244   2.687   6.080  1.00  0.00     0.002 C 
ATOM     10  C   UNL     1      -0.186   5.016   5.125  1.00  0.00    -0.013 C 
ATOM     11  C   UNL     1      -0.435   4.168   6.372  1.00  0.00     0.003 C 
ATOM     12  C   UNL     1      -0.428   6.495   5.428  1.00  0.00     0.007 C 
BRANCH   6  13
ATOM     13  C   UNL     1      -1.914   2.498   2.536  1.00  0.00     0.279 C 
BRANCH  13  14
ATOM     14  N   UNL     1      -1.983   3.138   1.218  1.00  0.00    -0.331 N 
ATOM     15  C   UNL     1      -2.956   4.228   1.140  1.00  0.00     0.333 C 
ATOM     16  H   UNL     1      -1.039   3.519   1.153  1.00  0.00     0.348 HD
BRANCH  14  17
ATOM     17  C   UNL     1      -2.127   2.255   0.043  1.00  0.00     0.319 C 
BRANCH  17  18
ATOM     18  C   UNL     1      -1.287   0.984   0.008  1.00  0.00     0.095 A 
ATOM     19  C   UNL     1       2.289   0.089  -0.005  1.00  0.00     0.067 C 
ATOM     20  C   UNL     1       0.796  -0.054  -0.014  1.00  0.00     0.038 A 
ATOM     21  C   UNL     1       0.211  -1.316   0.002  1.00  0.00     0.023 A 
ATOM     22  N   UNL     1       0.067   1.090  -0.025  1.00  0.00    -0.252 NA
ATOM     23  C   UNL     1      -1.175  -1.412   0.010  1.00  0.00     0.004 A 
ATOM     24  C   UNL     1      -1.935  -0.251   0.015  1.00  0.00     0.030 A 
ENDBRANCH  17  18
ENDBRANCH  14  17
ENDBRANCH  13  14
ENDBRANCH   6  13
ENDBRANCH   3   6
ENDBRANCH   1   2
BRANCH   1  25
ATOM     25  C   UNL     1       1.365   5.762   1.038  1.00  0.00     0.042 C 
BRANCH  25  26
ATOM     26  C   UNL     1       2.717   5.643   0.368  1.00  0.00     0.118 C 
BRANCH  26  27
ATOM     27  N   UNL     1       2.618   5.237  -1.032  1.00  0.00    -0.352 N 
ATOM     28  C   UNL     1       2.825   5.950  -2.189  1.00  0.00     0.251 C 
ATOM     29  H   UNL     1       2.359   4.297  -1.170  1.00  0.00     0.163 HD
ATOM     30  O   UNL     1       2.482   5.471  -3.268  1.00  0.00    -0.269 OA
BRANCH  28  31
ATOM     31  C   UNL     1       3.425   7.301  -2.133  1.00  0.00     0.039 A 
ATOM     32  C   UNL     1       2.957   8.299  -2.991  1.00  0.00     0.014 A 
ATOM     33  C   UNL     1       4.445   7.589  -1.227  1.00  0.00     0.014 A 
ATOM     34  C   UNL     1       3.454   9.600  -2.875  1.00  0.00     0.010 A 
ATOM     35  C   UNL     1       4.834   8.903  -1.018  1.00  0.00     0.010 A 
ATOM     36  C   UNL     1       4.362   9.923  -1.854  1.00  0.00    -0.014 A 
BRANCH  36  37
ATOM     37  C   UNL     1       4.877  11.304  -1.663  1.00  0.00     0.031 A 
ATOM     38  C   UNL     1       6.361  11.558  -1.731  1.00  0.00     0.074 A 
ATOM     39  C   UNL     1       4.027  12.304  -1.353  1.00  0.00     0.049 A 
ATOM     40  N   UNL     1       7.028  12.654  -1.475  1.00  0.00    -0.248 NA
ATOM     41  C   UNL     1       7.212  10.412  -2.091  1.00  0.00     0.031 C 
ATOM     42  C   UNL     1       2.575  12.169  -1.208  1.00  0.00     0.029 A 
ATOM     43  N   UNL     1       4.262  13.630  -1.093  1.00  0.00    -0.354 N 
ATOM     44  C   UNL     1       8.372  12.319  -1.615  1.00  0.00     0.074 A 
ATOM     45  C   UNL     1       8.425  10.902  -1.897  1.00  0.00     0.031 C 
ATOM     46  C   UNL     1       2.048  13.370  -0.923  1.00  0.00     0.029 A 
ATOM     47  C   UNL     1       3.123  14.350  -0.809  1.00  0.00     0.049 A 
ATOM     48  H   UNL     1       5.161  14.031  -1.108  1.00  0.00     0.167 HD
ATOM     49  C   UNL     1       9.460  13.125  -1.549  1.00  0.00     0.034 A 
ATOM     50  C   UNL     1       2.967  15.648  -0.482  1.00  0.00     0.034 A 
ATOM     51  C   UNL     1       9.383  14.542  -1.298  1.00  0.00     0.049 A 
ATOM     52  C   UNL     1       4.192  16.525  -0.404  1.00  0.00     0.074 A 
ATOM     53  C   UNL     1      10.408  15.470  -1.268  1.00  0.00     0.029 A 
ATOM     54  N   UNL     1       8.210  15.238  -1.030  1.00  0.00    -0.354 N 
ATOM     55  N   UNL     1       5.452  16.204  -0.589  1.00  0.00    -0.248 NA
ATOM     56  C   UNL     1       3.972  17.941  -0.085  1.00  0.00     0.031 C 
ATOM     57  C   UNL     1       9.866  16.710  -0.916  1.00  0.00     0.029 A 
ATOM     58  C   UNL     1       8.491  16.576  -0.806  1.00  0.00     0.049 A 
ATOM     59  H   UNL     1       7.310  14.838  -1.003  1.00  0.00     0.167 HD
ATOM     60  C   UNL     1       6.170  17.388  -0.443  1.00  0.00     0.074 A 
ATOM     61  C   UNL     1       5.200  18.428  -0.169  1.00  0.00     0.031 C 
ATOM     62  C   UNL     1       7.509  17.598  -0.529  1.00  0.00     0.034 A 
BRANCH  49  63
ATOM     63  C   UNL     1      10.815  12.482  -1.737  1.00  0.00     0.023 A 
ATOM     64  C   UNL     1      11.163  11.824  -2.930  1.00  0.00     0.031 A 
ATOM     65  C   UNL     1      11.759  12.493  -0.696  1.00  0.00     0.131 A 
ATOM     66  C   UNL     1      12.380  11.133  -3.022  1.00  0.00     0.055 A 
ATOM     67  C   UNL     1      13.008  11.880  -0.827  1.00  0.00     0.041 A 
ATOM     68  F   UNL     1      11.479  13.084   0.476  1.00  0.00    -0.206 F 
ATOM     69  C   UNL     1      13.317  11.179  -1.989  1.00  0.00     0.022 A 
BRANCH  66  70
ATOM     70  S   UNL     1      12.650  10.043  -4.447  1.00  0.00     0.124 S 
ATOM     71  O   UNL     1      11.530   9.113  -4.323  1.00  0.00    -0.237 OA
ATOM     72  O   UNL     1      12.589  10.971  -5.570  1.00  0.00    -0.237 OA
ATOM     73  O   UNL     1      13.966   9.461  -4.189  1.00  0.00    -0.744 OA
ENDBRANCH  66  70
ENDBRANCH  49  63
BRANCH  50  74
ATOM     74  C   UNL     1       1.611  16.203  -0.201  1.00  0.00     0.023 A 
ATOM     75  C   UNL     1       1.055  17.200  -1.018  1.00  0.00     0.031 A 
ATOM     76  C   UNL     1       0.866  15.776   0.913  1.00  0.00     0.131 A 
ATOM     77  C   UNL     1      -0.181  17.775  -0.681  1.00  0.00     0.055 A 
ATOM     78  C   UNL     1      -0.389  16.310   1.212  1.00  0.00     0.041 A 
ATOM     79  F   UNL     1       1.347  14.821   1.726  1.00  0.00    -0.206 F 
ATOM     80  C   UNL     1      -0.913  17.327   0.420  1.00  0.00     0.022 A 
BRANCH  77  81
ATOM     81  S   UNL     1      -0.776  19.186  -1.654  1.00  0.00     0.124 S 
ATOM     82  O   UNL     1       0.320  20.136  -1.500  1.00  0.00    -0.237 OA
ATOM     83  O   UNL     1      -0.933  18.596  -2.979  1.00  0.00    -0.237 OA
ATOM     84  O   UNL     1      -2.022  19.557  -0.987  1.00  0.00    -0.744 OA
ENDBRANCH  77  81
ENDBRANCH  50  74
BRANCH  62  85
ATOM     85  C   UNL     1       7.991  19.020  -0.378  1.00  0.00     0.023 A 
ATOM     86  C   UNL     1       7.876  19.718   0.837  1.00  0.00     0.031 A 
ATOM     87  C   UNL     1       8.571  19.688  -1.472  1.00  0.00     0.131 A 
ATOM     88  C   UNL     1       8.280  21.059   0.912  1.00  0.00     0.055 A 
ATOM     89  C   UNL     1       9.033  21.000  -1.372  1.00  0.00     0.041 A 
ATOM     90  F   UNL     1       8.704  19.070  -2.657  1.00  0.00    -0.206 F 
ATOM     91  C   UNL     1       8.876  21.698  -0.178  1.00  0.00     0.022 A 
BRANCH  88  92
ATOM     92  S   UNL     1       7.930  21.989   2.429  1.00  0.00     0.124 S 
ATOM     93  O   UNL     1       6.478  21.872   2.527  1.00  0.00    -0.237 OA
ATOM     94  O   UNL     1       8.697  21.255   3.430  1.00  0.00    -0.237 OA
ATOM     95  O   UNL     1       8.425  23.331   2.130  1.00  0.00    -0.744 OA
ENDBRANCH  88  92
ENDBRANCH  62  85
ENDBRANCH  36  37
ENDBRANCH  28  31
ENDBRANCH  26  27
ENDBRANCH  25  26
ENDBRANCH   1  25
TORSDOF 17
