REMARK SMILES CC(C)(C(=O)NCCCNC(=O)c1ccc(-c2c3nc(c(-c4cc(S(=O)(=O)[O-])ccc4F)c4ccc([nH]4)c(-c4cc(S(=O)(=O)[O-])ccc4F)c4nc(c(-c5cc(S(=O)(=O)[O-])ccc5F)c5ccc2[nH]5)C=C4)C=C3)cc1)n1nnnc1C(F)(F)C(F)F
REMARK SMILES IDX 8 1 7 2 6 3 4 4 5 5 2 7 1 8 3 9 76 10 77 11 80 12 78 13
REMARK SMILES IDX 79 14 81 15 82 16 83 17 84 18 85 19 86 20 9 21 10 22 11 23
REMARK SMILES IDX 12 25 13 26 14 27 75 28 15 29 74 30 16 31 17 32 18 33 68 34
REMARK SMILES IDX 19 35 73 36 67 37 69 38 20 39 72 40 66 41 65 42 21 44 53 45
REMARK SMILES IDX 33 46 52 47 34 48 37 49 51 50 70 51 35 52 36 53 50 55 71 56
REMARK SMILES IDX 38 57 22 58 23 59 31 60 24 61 30 62 32 63 29 64 25 65 26 66
REMARK SMILES IDX 27 67 28 68 54 69 55 70 63 71 56 72 62 73 64 74 61 75 57 76
REMARK SMILES IDX 58 77 59 78 60 79 39 80 40 81 48 82 41 83 47 84 49 85 46 86
REMARK SMILES IDX 42 87 43 88 44 89 45 90
REMARK H PARENT 6 6 10 24 69 43 37 54
REMARK Flexibility Score: inf
ROOT
ATOM      1  C   UNL     1      -1.433   2.608   1.163  1.00  0.00     0.042 C 
ENDROOT
BRANCH   1   2
ATOM      2  C   UNL     1      -0.986   1.356   1.907  1.00  0.00     0.117 C 
BRANCH   2   3
ATOM      3  N   UNL     1      -1.495   0.152   1.272  1.00  0.00    -0.354 N 
ATOM      4  C   UNL     1      -0.887  -0.892   0.658  1.00  0.00     0.247 C 
ATOM      5  O   UNL     1      -1.628  -1.646   0.015  1.00  0.00    -0.272 OA
ATOM      6  H   UNL     1      -2.477   0.081   1.292  1.00  0.00     0.163 HD
BRANCH   4   7
ATOM      7  C   UNL     1       0.624  -1.143   0.696  1.00  0.00     0.139 C 
ATOM      8  C   UNL     1       1.200  -0.143  -0.350  1.00  0.00     0.047 C 
ATOM      9  C   UNL     1       1.343  -0.911   2.039  1.00  0.00     0.047 C 
BRANCH   7  10
ATOM     10  N   UNL     1       0.865  -2.546   0.294  1.00  0.00    -0.209 N 
ATOM     11  N   UNL     1       1.836  -2.761  -0.627  1.00  0.00    -0.044 NA
ATOM     12  C   UNL     1       0.371  -3.776   0.710  1.00  0.00     0.228 A 
ATOM     13  N   UNL     1       1.868  -4.058  -0.841  1.00  0.00    -0.024 NA
ATOM     14  N   UNL     1       0.987  -4.694  -0.031  1.00  0.00    -0.107 NA
BRANCH  12  15
ATOM     15  C   UNL     1      -0.593  -4.212   1.776  1.00  0.00     0.367 C 
ATOM     16  F   UNL     1      -1.606  -4.946   1.208  1.00  0.00    -0.191 F 
ATOM     17  F   UNL     1       0.081  -5.143   2.550  1.00  0.00    -0.191 F 
BRANCH  15  18
ATOM     18  C   UNL     1      -1.230  -3.279   2.794  1.00  0.00     0.419 C 
ATOM     19  F   UNL     1      -0.320  -2.473   3.391  1.00  0.00    -0.203 F 
ATOM     20  F   UNL     1      -2.196  -2.480   2.297  1.00  0.00    -0.203 F 
ENDBRANCH  15  18
ENDBRANCH  12  15
ENDBRANCH   7  10
ENDBRANCH   4   7
ENDBRANCH   2   3
ENDBRANCH   1   2
BRANCH   1  21
ATOM     21  C   UNL     1      -2.945   2.795   1.112  1.00  0.00     0.118 C 
BRANCH  21  22
ATOM     22  N   UNL     1      -3.526   3.037   2.425  1.00  0.00    -0.352 N 
ATOM     23  C   UNL     1      -4.105   4.178   2.934  1.00  0.00     0.251 C 
ATOM     24  H   UNL     1      -3.501   2.269   3.041  1.00  0.00     0.163 HD
ATOM     25  O   UNL     1      -4.352   4.247   4.131  1.00  0.00    -0.269 OA
BRANCH  23  26
ATOM     26  C   UNL     1      -4.389   5.322   2.039  1.00  0.00     0.039 A 
ATOM     27  C   UNL     1      -4.038   6.609   2.452  1.00  0.00     0.014 A 
ATOM     28  C   UNL     1      -4.981   5.124   0.789  1.00  0.00     0.014 A 
ATOM     29  C   UNL     1      -4.194   7.683   1.572  1.00  0.00     0.010 A 
ATOM     30  C   UNL     1      -5.053   6.179  -0.116  1.00  0.00     0.010 A 
ATOM     31  C   UNL     1      -4.651   7.469   0.261  1.00  0.00    -0.014 A 
BRANCH  31  32
ATOM     32  C   UNL     1      -4.694   8.571  -0.736  1.00  0.00     0.031 A 
ATOM     33  C   UNL     1      -6.005   8.991  -1.344  1.00  0.00     0.074 A 
ATOM     34  C   UNL     1      -3.544   9.141  -1.149  1.00  0.00     0.049 A 
ATOM     35  N   UNL     1      -6.235   9.857  -2.297  1.00  0.00    -0.248 NA
ATOM     36  C   UNL     1      -7.212   8.326  -0.831  1.00  0.00     0.031 C 
ATOM     37  C   UNL     1      -2.206   8.794  -0.660  1.00  0.00     0.029 A 
ATOM     38  N   UNL     1      -3.309  10.121  -2.081  1.00  0.00    -0.354 N 
ATOM     39  C   UNL     1      -7.610   9.834  -2.506  1.00  0.00     0.074 A 
ATOM     40  C   UNL     1      -8.150   8.822  -1.622  1.00  0.00     0.031 C 
ATOM     41  C   UNL     1      -1.298   9.565  -1.278  1.00  0.00     0.029 A 
ATOM     42  C   UNL     1      -1.975  10.420  -2.247  1.00  0.00     0.049 A 
ATOM     43  H   UNL     1      -4.027  10.568  -2.584  1.00  0.00     0.167 HD
ATOM     44  C   UNL     1      -8.354  10.601  -3.341  1.00  0.00     0.034 A 
ATOM     45  C   UNL     1      -1.364  11.270  -3.097  1.00  0.00     0.034 A 
ATOM     46  C   UNL     1      -7.799  11.609  -4.212  1.00  0.00     0.049 A 
ATOM     47  C   UNL     1      -2.209  12.076  -4.051  1.00  0.00     0.074 A 
ATOM     48  C   UNL     1      -8.467  12.480  -5.056  1.00  0.00     0.029 A 
ATOM     49  N   UNL     1      -6.444  11.873  -4.364  1.00  0.00    -0.354 N 
ATOM     50  N   UNL     1      -3.514  12.081  -4.197  1.00  0.00    -0.248 NA
ATOM     51  C   UNL     1      -1.499  12.995  -4.949  1.00  0.00     0.031 C 
ATOM     52  C   UNL     1      -7.515  13.213  -5.772  1.00  0.00     0.029 A 
ATOM     53  C   UNL     1      -6.254  12.864  -5.317  1.00  0.00     0.049 A 
ATOM     54  H   UNL     1      -5.723  11.423  -3.867  1.00  0.00     0.167 HD
ATOM     55  C   UNL     1      -3.781  13.023  -5.187  1.00  0.00     0.074 A 
ATOM     56  C   UNL     1      -2.504  13.579  -5.585  1.00  0.00     0.031 C 
ATOM     57  C   UNL     1      -4.973  13.397  -5.718  1.00  0.00     0.034 A 
BRANCH  44  58
ATOM     58  C   UNL     1      -9.845  10.356  -3.368  1.00  0.00     0.023 A 
ATOM     59  C   UNL     1     -10.647  10.552  -2.230  1.00  0.00     0.031 A 
ATOM     60  C   UNL     1     -10.472   9.900  -4.542  1.00  0.00     0.131 A 
ATOM     61  C   UNL     1     -12.010  10.220  -2.266  1.00  0.00     0.055 A 
ATOM     62  C   UNL     1     -11.845   9.653  -4.596  1.00  0.00     0.041 A 
ATOM     63  F   UNL     1      -9.756   9.673  -5.655  1.00  0.00    -0.206 F 
ATOM     64  C   UNL     1     -12.620   9.797  -3.449  1.00  0.00     0.022 A 
BRANCH  61  65
ATOM     65  S   UNL     1     -12.938  10.204  -0.708  1.00  0.00     0.124 S 
ATOM     66  O   UNL     1     -12.170   9.245   0.083  1.00  0.00    -0.237 OA
ATOM     67  O   UNL     1     -12.857  11.595  -0.279  1.00  0.00    -0.237 OA
ATOM     68  O   UNL     1     -14.268   9.749  -1.106  1.00  0.00    -0.744 OA
ENDBRANCH  61  65
ENDBRANCH  44  58
BRANCH  45  69
ATOM     69  C   UNL     1       0.123  11.390  -3.110  1.00  0.00     0.023 A 
ATOM     70  C   UNL     1       0.753  12.601  -2.780  1.00  0.00     0.031 A 
ATOM     71  C   UNL     1       0.936  10.310  -3.498  1.00  0.00     0.131 A 
ATOM     72  C   UNL     1       2.147  12.718  -2.893  1.00  0.00     0.055 A 
ATOM     73  C   UNL     1       2.327  10.414  -3.553  1.00  0.00     0.041 A 
ATOM     74  F   UNL     1       0.386   9.128  -3.821  1.00  0.00    -0.206 F 
ATOM     75  C   UNL     1       2.939  11.629  -3.263  1.00  0.00     0.022 A 
BRANCH  72  76
ATOM     76  S   UNL     1       2.905  14.346  -2.638  1.00  0.00     0.124 S 
ATOM     77  O   UNL     1       2.220  15.152  -3.642  1.00  0.00    -0.237 OA
ATOM     78  O   UNL     1       2.561  14.624  -1.247  1.00  0.00    -0.237 OA
ATOM     79  O   UNL     1       4.323  14.104  -2.891  1.00  0.00    -0.744 OA
ENDBRANCH  72  76
ENDBRANCH  45  69
BRANCH  57  80
ATOM     80  C   UNL     1      -4.947  14.487  -6.764  1.00  0.00     0.023 A 
ATOM     81  C   UNL     1      -4.344  14.293  -8.019  1.00  0.00     0.031 A 
ATOM     82  C   UNL     1      -5.525  15.741  -6.495  1.00  0.00     0.131 A 
ATOM     83  C   UNL     1      -4.282  15.353  -8.936  1.00  0.00     0.055 A 
ATOM     84  C   UNL     1      -5.519  16.770  -7.437  1.00  0.00     0.041 A 
ATOM     85  F   UNL     1      -6.111  15.984  -5.312  1.00  0.00    -0.206 F 
ATOM     86  C   UNL     1      -4.883  16.584  -8.661  1.00  0.00     0.022 A 
BRANCH  83  87
ATOM     87  S   UNL     1      -3.320  15.133 -10.458  1.00  0.00     0.124 S 
ATOM     88  O   UNL     1      -1.992  14.829  -9.935  1.00  0.00    -0.237 OA
ATOM     89  O   UNL     1      -4.016  14.029 -11.111  1.00  0.00    -0.237 OA
ATOM     90  O   UNL     1      -3.441  16.425 -11.130  1.00  0.00    -0.744 OA
ENDBRANCH  83  87
ENDBRANCH  57  80
ENDBRANCH  31  32
ENDBRANCH  23  26
ENDBRANCH  21  22
ENDBRANCH   1  21
TORSDOF 16
