REMARK SMILES CCc1cc(N2CCC[C@H](C(=O)NCCCNC(=O)c3ccc(-c4c5nc(c(-c6cc(S(=O)(=O)[O-])ccc6F)c6ccc([nH]6)c(-c6cc(S(=O)(=O)[O-])ccc6F)c6nc(c(-c7cc(S(=O)(=O)[O-])ccc7F)c7ccc4[nH]7)C=C6)C=C5)cc3)C2)nc(-c2ccc(Cl)cc2)n1
REMARK SMILES IDX 15 1 14 2 13 3 11 4 12 5 10 7 6 8 7 9 83 10 8 11 9 12 5 13
REMARK SMILES IDX 3 14 4 15 93 16 85 17 84 18 2 19 1 20 86 21 87 22 92 23
REMARK SMILES IDX 88 24 91 25 89 26 90 27 16 28 17 29 18 30 19 32 20 33 21 34
REMARK SMILES IDX 82 35 22 36 81 37 23 38 24 39 25 40 75 41 26 42 80 43 74 44
REMARK SMILES IDX 76 45 27 46 79 47 73 48 72 49 28 51 60 52 40 53 59 54 41 55
REMARK SMILES IDX 44 56 58 57 77 58 42 59 43 60 57 62 78 63 45 64 29 65 30 66
REMARK SMILES IDX 38 67 31 68 37 69 39 70 36 71 32 72 33 73 34 74 35 75 61 76
REMARK SMILES IDX 62 77 70 78 63 79 69 80 71 81 68 82 64 83 65 84 66 85 67 86
REMARK SMILES IDX 46 87 47 88 55 89 48 90 54 91 56 92 53 93 49 94 50 95 51 96
REMARK SMILES IDX 52 97
REMARK H PARENT 13 6 17 31 76 50 44 61
REMARK Flexibility Score: inf
ROOT
ATOM      1  C   UNL     1       2.120   8.296   2.169  1.00  0.00     0.042 C 
ENDROOT
BRANCH   1   2
ATOM      2  C   UNL     1       1.310   7.131   2.703  1.00  0.00     0.117 C 
BRANCH   2   3
ATOM      3  N   UNL     1       0.231   7.505   3.585  1.00  0.00    -0.356 N 
ATOM      4  C   UNL     1      -1.086   7.187   3.523  1.00  0.00     0.224 C 
ATOM      5  O   UNL     1      -1.726   7.276   4.579  1.00  0.00    -0.275 OA
ATOM      6  H   UNL     1       0.489   8.076   4.345  1.00  0.00     0.163 HD
BRANCH   4   7
ATOM      7  C   UNL     1      -1.810   6.746   2.248  1.00  0.00     0.098 C 
ATOM      8  N   UNL     1      -0.538   5.079   0.968  1.00  0.00    -0.356 N 
ATOM      9  C   UNL     1      -0.549   5.800  -0.293  1.00  0.00     0.118 C 
ATOM     10  C   UNL     1      -1.625   5.272   1.908  1.00  0.00     0.131 C 
ATOM     11  C   UNL     1      -0.736   7.303  -0.062  1.00  0.00     0.022 C 
ATOM     12  C   UNL     1      -1.712   7.696   1.050  1.00  0.00     0.017 C 
BRANCH   8  13
ATOM     13  C   UNL     1       0.282   3.986   1.151  1.00  0.00     0.132 A 
ATOM     14  C   UNL     1       0.675   1.665   1.226  1.00  0.00     0.046 A 
ATOM     15  C   UNL     1      -0.160   2.710   0.878  1.00  0.00     0.070 A 
ATOM     16  N   UNL     1       1.885   1.859   1.783  1.00  0.00    -0.233 NA
ATOM     17  C   UNL     1       2.233   3.132   2.019  1.00  0.00     0.161 A 
ATOM     18  N   UNL     1       1.476   4.204   1.728  1.00  0.00    -0.211 NA
BRANCH  14  19
ATOM     19  C   UNL     1       0.255   0.237   1.018  1.00  0.00     0.053 C 
ATOM     20  C   UNL     1       0.832  -0.325  -0.269  1.00  0.00     0.011 C 
ENDBRANCH  14  19
BRANCH  17  21
ATOM     21  C   UNL     1       3.486   3.364   2.743  1.00  0.00     0.019 A 
ATOM     22  C   UNL     1       4.709   2.875   2.255  1.00  0.00     0.013 A 
ATOM     23  C   UNL     1       3.499   4.087   3.951  1.00  0.00     0.013 A 
ATOM     24  C   UNL     1       5.907   3.119   2.937  1.00  0.00     0.021 A 
ATOM     25  C   UNL     1       4.694   4.333   4.635  1.00  0.00     0.021 A 
ATOM     26  C   UNL     1       5.894   3.851   4.121  1.00  0.00     0.041 A 
ATOM     27  Cl  UNL     1       7.365   4.157   4.958  1.00  0.00    -0.084 Cl
ENDBRANCH  17  21
ENDBRANCH   8  13
ENDBRANCH   4   7
ENDBRANCH   2   3
ENDBRANCH   1   2
BRANCH   1  28
ATOM     28  C   UNL     1       3.592   8.187   2.524  1.00  0.00     0.118 C 
BRANCH  28  29
ATOM     29  N   UNL     1       4.250   6.994   2.001  1.00  0.00    -0.352 N 
ATOM     30  C   UNL     1       5.536   6.831   1.526  1.00  0.00     0.251 C 
ATOM     31  H   UNL     1       3.692   6.183   1.983  1.00  0.00     0.163 HD
ATOM     32  O   UNL     1       5.891   5.752   1.074  1.00  0.00    -0.269 OA
BRANCH  30  33
ATOM     33  C   UNL     1       6.453   7.992   1.469  1.00  0.00     0.039 A 
ATOM     34  C   UNL     1       7.261   8.137   0.337  1.00  0.00     0.014 A 
ATOM     35  C   UNL     1       6.453   8.977   2.454  1.00  0.00     0.014 A 
ATOM     36  C   UNL     1       7.960   9.326   0.136  1.00  0.00     0.010 A 
ATOM     37  C   UNL     1       7.037  10.207   2.190  1.00  0.00     0.010 A 
ATOM     38  C   UNL     1       7.792  10.398   1.024  1.00  0.00    -0.014 A 
BRANCH  38  39
ATOM     39  C   UNL     1       8.395  11.728   0.762  1.00  0.00     0.031 A 
ATOM     40  C   UNL     1       9.339  12.322   1.770  1.00  0.00     0.074 A 
ATOM     41  C   UNL     1       8.018  12.428  -0.327  1.00  0.00     0.049 A 
ATOM     42  N   UNL     1       9.864  13.518   1.811  1.00  0.00    -0.248 NA
ATOM     43  C   UNL     1       9.695  11.470   2.917  1.00  0.00     0.031 C 
ATOM     44  C   UNL     1       7.055  11.975  -1.337  1.00  0.00     0.029 A 
ATOM     45  N   UNL     1       8.389  13.673  -0.766  1.00  0.00    -0.354 N 
ATOM     46  C   UNL     1      10.578  13.574   3.004  1.00  0.00     0.074 A 
ATOM     47  C   UNL     1      10.353  12.320   3.688  1.00  0.00     0.031 C 
ATOM     48  C   UNL     1       6.946  12.909  -2.295  1.00  0.00     0.029 A 
ATOM     49  C   UNL     1       7.787  14.048  -1.946  1.00  0.00     0.049 A 
ATOM     50  H   UNL     1       9.028  14.245  -0.282  1.00  0.00     0.167 HD
ATOM     51  C   UNL     1      11.374  14.568   3.468  1.00  0.00     0.034 A 
ATOM     52  C   UNL     1       7.899  15.186  -2.658  1.00  0.00     0.034 A 
ATOM     53  C   UNL     1      11.615  15.789   2.741  1.00  0.00     0.049 A 
ATOM     54  C   UNL     1       8.819  16.263  -2.143  1.00  0.00     0.074 A 
ATOM     55  C   UNL     1      12.447  16.844   3.072  1.00  0.00     0.029 A 
ATOM     56  N   UNL     1      11.024  16.115   1.525  1.00  0.00    -0.354 N 
ATOM     57  N   UNL     1       9.524  16.285  -1.035  1.00  0.00    -0.248 NA
ATOM     58  C   UNL     1       8.967  17.460  -2.978  1.00  0.00     0.031 C 
ATOM     59  C   UNL     1      12.321  17.826   2.083  1.00  0.00     0.029 A 
ATOM     60  C   UNL     1      11.461  17.358   1.101  1.00  0.00     0.049 A 
ATOM     61  H   UNL     1      10.387  15.544   1.037  1.00  0.00     0.167 HD
ATOM     62  C   UNL     1      10.222  17.487  -1.054  1.00  0.00     0.074 A 
ATOM     63  C   UNL     1       9.864  18.153  -2.292  1.00  0.00     0.031 C 
ATOM     64  C   UNL     1      11.083  17.998  -0.137  1.00  0.00     0.034 A 
BRANCH  51  65
ATOM     65  C   UNL     1      12.014  14.366   4.821  1.00  0.00     0.023 A 
ATOM     66  C   UNL     1      12.898  13.299   5.067  1.00  0.00     0.031 A 
ATOM     67  C   UNL     1      11.691  15.209   5.898  1.00  0.00     0.131 A 
ATOM     68  C   UNL     1      13.344  13.043   6.372  1.00  0.00     0.055 A 
ATOM     69  C   UNL     1      12.214  15.004   7.177  1.00  0.00     0.041 A 
ATOM     70  F   UNL     1      10.838  16.233   5.734  1.00  0.00    -0.206 F 
ATOM     71  C   UNL     1      13.030  13.904   7.425  1.00  0.00     0.022 A 
BRANCH  68  72
ATOM     72  S   UNL     1      14.201  11.478   6.700  1.00  0.00     0.124 S 
ATOM     73  O   UNL     1      13.182  10.502   6.319  1.00  0.00    -0.237 OA
ATOM     74  O   UNL     1      15.363  11.564   5.824  1.00  0.00    -0.237 OA
ATOM     75  O   UNL     1      14.491  11.540   8.131  1.00  0.00    -0.744 OA
ENDBRANCH  68  72
ENDBRANCH  51  65
BRANCH  52  76
ATOM     76  C   UNL     1       7.137  15.366  -3.927  1.00  0.00     0.023 A 
ATOM     77  C   UNL     1       7.802  15.464  -5.160  1.00  0.00     0.031 A 
ATOM     78  C   UNL     1       5.735  15.470  -3.926  1.00  0.00     0.131 A 
ATOM     79  C   UNL     1       7.070  15.705  -6.335  1.00  0.00     0.055 A 
ATOM     80  C   UNL     1       5.007  15.662  -5.103  1.00  0.00     0.041 A 
ATOM     81  F   UNL     1       5.048  15.373  -2.776  1.00  0.00    -0.206 F 
ATOM     82  C   UNL     1       5.677  15.793  -6.315  1.00  0.00     0.022 A 
BRANCH  79  83
ATOM     83  S   UNL     1       7.976  15.977  -7.883  1.00  0.00     0.124 S 
ATOM     84  O   UNL     1       8.825  17.110  -7.536  1.00  0.00    -0.237 OA
ATOM     85  O   UNL     1       8.654  14.698  -8.065  1.00  0.00    -0.237 OA
ATOM     86  O   UNL     1       6.918  16.262  -8.850  1.00  0.00    -0.744 OA
ENDBRANCH  79  83
ENDBRANCH  52  76
BRANCH  64  87
ATOM     87  C   UNL     1      11.725  19.319  -0.472  1.00  0.00     0.023 A 
ATOM     88  C   UNL     1      10.980  20.510  -0.516  1.00  0.00     0.031 A 
ATOM     89  C   UNL     1      13.100  19.382  -0.758  1.00  0.00     0.131 A 
ATOM     90  C   UNL     1      11.606  21.708  -0.891  1.00  0.00     0.055 A 
ATOM     91  C   UNL     1      13.728  20.586  -1.074  1.00  0.00     0.041 A 
ATOM     92  F   UNL     1      13.854  18.271  -0.730  1.00  0.00    -0.206 F 
ATOM     93  C   UNL     1      12.978  21.756  -1.154  1.00  0.00     0.022 A 
BRANCH  90  94
ATOM     94  S   UNL     1      10.584  23.189  -1.111  1.00  0.00     0.124 S 
ATOM     95  O   UNL     1       9.649  22.762  -2.147  1.00  0.00    -0.237 OA
ATOM     96  O   UNL     1      10.017  23.379   0.220  1.00  0.00    -0.237 OA
ATOM     97  O   UNL     1      11.545  24.210  -1.526  1.00  0.00    -0.744 OA
ENDBRANCH  90  94
ENDBRANCH  64  87
ENDBRANCH  38  39
ENDBRANCH  30  33
ENDBRANCH  28  29
ENDBRANCH   1  28
TORSDOF 16
