REMARK SMILES CN(C)c1cc(C(F)(F)F)cc(-c2cccc(/C=C/C(=O)NCCCNC(=O)c3ccc(-c4c5nc(c(-c6cc(S(=O)(=O)[O-])ccc6F)c6ccc([nH]6)c(-c6cc(S(=O)(=O)[O-])ccc6F)c6nc(c(-c7cc(S(=O)(=O)[O-])ccc7F)c7ccc4[nH]7)C=C6)C=C5)cc3)c2)n1
REMARK SMILES IDX 24 1 23 2 22 3 20 4 21 5 19 7 18 8 17 9 13 10 14 11 92 12
REMARK SMILES IDX 15 13 16 14 12 15 4 16 5 17 93 18 6 19 11 20 2 21 1 22 3 23
REMARK SMILES IDX 7 24 8 25 9 26 10 27 25 28 26 29 27 30 28 32 29 33 30 34
REMARK SMILES IDX 91 35 31 36 90 37 32 38 33 39 34 40 84 41 35 42 89 43 83 44
REMARK SMILES IDX 85 45 36 46 88 47 82 48 81 49 37 51 69 52 49 53 68 54 50 55
REMARK SMILES IDX 53 56 67 57 86 58 51 59 52 60 66 62 87 63 54 64 38 65 39 66
REMARK SMILES IDX 47 67 40 68 46 69 48 70 45 71 41 72 42 73 43 74 44 75 70 76
REMARK SMILES IDX 71 77 79 78 72 79 78 80 80 81 77 82 73 83 74 84 75 85 76 86
REMARK SMILES IDX 55 87 56 88 64 89 57 90 63 91 65 92 62 93 58 94 59 95 60 96
REMARK SMILES IDX 61 97
REMARK H PARENT 22 6 26 31 85 50 53 61
REMARK Flexibility Score: inf
ROOT
ATOM      1  C   UNL     1       0.340  -8.930   5.888  1.00  0.00     0.042 C 
ENDROOT
BRANCH   1   2
ATOM      2  C   UNL     1      -0.050  -9.949   4.819  1.00  0.00     0.118 C 
BRANCH   2   3
ATOM      3  N   UNL     1      -1.402 -10.447   5.014  1.00  0.00    -0.352 N 
ATOM      4  C   UNL     1      -2.532 -10.250   4.284  1.00  0.00     0.244 C 
ATOM      5  O   UNL     1      -3.549 -10.887   4.548  1.00  0.00    -0.270 OA
ATOM      6  H   UNL     1      -1.519 -11.020   5.806  1.00  0.00     0.163 HD
BRANCH   4   7
ATOM      7  C   UNL     1      -2.532  -9.347   3.112  1.00  0.00     0.072 C 
ATOM      8  C   UNL     1      -2.031  -8.104   3.130  1.00  0.00     0.014 C 
BRANCH   8   9
ATOM      9  C   UNL     1      -2.043  -7.190   1.981  1.00  0.00    -0.025 A 
ATOM     10  C   UNL     1      -0.921  -5.388   0.759  1.00  0.00     0.001 A 
ATOM     11  C   UNL     1      -2.045  -5.287  -0.075  1.00  0.00     0.010 A 
ATOM     12  C   UNL     1      -0.939  -6.346   1.786  1.00  0.00     0.018 A 
ATOM     13  C   UNL     1      -3.145  -6.127   0.102  1.00  0.00     0.001 A 
ATOM     14  C   UNL     1      -3.146  -7.072   1.128  1.00  0.00     0.008 A 
BRANCH  10  15
ATOM     15  C   UNL     1       0.228  -4.494   0.585  1.00  0.00     0.073 A 
ATOM     16  C   UNL     1       0.984  -2.284   0.691  1.00  0.00     0.129 A 
ATOM     17  C   UNL     1       2.260  -2.694   0.319  1.00  0.00     0.060 A 
ATOM     18  N   UNL     1      -0.017  -3.183   0.814  1.00  0.00    -0.231 NA
ATOM     19  C   UNL     1       2.527  -4.049   0.092  1.00  0.00     0.061 A 
ATOM     20  C   UNL     1       1.482  -4.964   0.227  1.00  0.00     0.042 A 
BRANCH  16  21
ATOM     21  N   UNL     1       0.726  -0.950   0.978  1.00  0.00    -0.363 N 
ATOM     22  C   UNL     1       1.105   0.051  -0.002  1.00  0.00     0.144 C 
ATOM     23  C   UNL     1      -0.419  -0.686   1.835  1.00  0.00     0.144 C 
ENDBRANCH  16  21
BRANCH  19  24
ATOM     24  C   UNL     1       3.907  -4.522  -0.265  1.00  0.00     0.416 C 
ATOM     25  F   UNL     1       4.409  -5.401   0.646  1.00  0.00    -0.166 F 
ATOM     26  F   UNL     1       3.935  -5.173  -1.462  1.00  0.00    -0.166 F 
ATOM     27  F   UNL     1       4.824  -3.521  -0.368  1.00  0.00    -0.166 F 
ENDBRANCH  19  24
ENDBRANCH  10  15
ENDBRANCH   8   9
ENDBRANCH   4   7
ENDBRANCH   2   3
ENDBRANCH   1   2
BRANCH   1  28
ATOM     28  C   UNL     1       0.597  -9.547   7.261  1.00  0.00     0.118 C 
BRANCH  28  29
ATOM     29  N   UNL     1       1.777 -10.399   7.263  1.00  0.00    -0.352 N 
ATOM     30  C   UNL     1       2.937 -10.309   7.992  1.00  0.00     0.251 C 
ATOM     31  H   UNL     1       1.737 -11.163   6.643  1.00  0.00     0.163 HD
ATOM     32  O   UNL     1       3.901 -10.992   7.656  1.00  0.00    -0.269 OA
BRANCH  30  33
ATOM     33  C   UNL     1       3.041  -9.399   9.156  1.00  0.00     0.039 A 
ATOM     34  C   UNL     1       4.247  -8.727   9.377  1.00  0.00     0.014 A 
ATOM     35  C   UNL     1       1.986  -9.248  10.061  1.00  0.00     0.014 A 
ATOM     36  C   UNL     1       4.377  -7.870  10.473  1.00  0.00     0.010 A 
ATOM     37  C   UNL     1       2.092  -8.339  11.112  1.00  0.00     0.010 A 
ATOM     38  C   UNL     1       3.292  -7.647  11.335  1.00  0.00    -0.014 A 
BRANCH  38  39
ATOM     39  C   UNL     1       3.402  -6.701  12.477  1.00  0.00     0.031 A 
ATOM     40  C   UNL     1       3.285  -7.200  13.892  1.00  0.00     0.074 A 
ATOM     41  C   UNL     1       3.552  -5.384  12.235  1.00  0.00     0.049 A 
ATOM     42  N   UNL     1       3.291  -6.525  15.013  1.00  0.00    -0.248 NA
ATOM     43  C   UNL     1       3.104  -8.648  14.062  1.00  0.00     0.031 C 
ATOM     44  C   UNL     1       3.625  -4.775  10.906  1.00  0.00     0.029 A 
ATOM     45  N   UNL     1       3.657  -4.320  13.094  1.00  0.00    -0.354 N 
ATOM     46  C   UNL     1       3.108  -7.465  16.023  1.00  0.00     0.074 A 
ATOM     47  C   UNL     1       2.921  -8.744  15.370  1.00  0.00     0.031 C 
ATOM     48  C   UNL     1       3.777  -3.448  11.039  1.00  0.00     0.029 A 
ATOM     49  C   UNL     1       3.772  -3.107  12.457  1.00  0.00     0.049 A 
ATOM     50  H   UNL     1       3.651  -4.416  14.074  1.00  0.00     0.167 HD
ATOM     51  C   UNL     1       3.124  -7.284  17.369  1.00  0.00     0.034 A 
ATOM     52  C   UNL     1       3.850  -1.858  12.958  1.00  0.00     0.034 A 
ATOM     53  C   UNL     1       3.307  -5.998  18.001  1.00  0.00     0.049 A 
ATOM     54  C   UNL     1       3.853  -1.673  14.452  1.00  0.00     0.074 A 
ATOM     55  C   UNL     1       3.380  -5.699  19.350  1.00  0.00     0.029 A 
ATOM     56  N   UNL     1       3.437  -4.790  17.324  1.00  0.00    -0.354 N 
ATOM     57  N   UNL     1       3.733  -2.578  15.397  1.00  0.00    -0.248 NA
ATOM     58  C   UNL     1       4.021  -0.302  14.946  1.00  0.00     0.031 C 
ATOM     59  C   UNL     1       3.487  -4.309  19.490  1.00  0.00     0.029 A 
ATOM     60  C   UNL     1       3.559  -3.743  18.227  1.00  0.00     0.049 A 
ATOM     61  H   UNL     1       3.441  -4.691  16.344  1.00  0.00     0.167 HD
ATOM     62  C   UNL     1       3.825  -1.884  16.600  1.00  0.00     0.074 A 
ATOM     63  C   UNL     1       4.040  -0.491  16.257  1.00  0.00     0.031 C 
ATOM     64  C   UNL     1       3.741  -2.353  17.872  1.00  0.00     0.034 A 
BRANCH  51  65
ATOM     65  C   UNL     1       2.911  -8.509  18.230  1.00  0.00     0.023 A 
ATOM     66  C   UNL     1       3.788  -9.609  18.174  1.00  0.00     0.031 A 
ATOM     67  C   UNL     1       1.791  -8.611  19.073  1.00  0.00     0.131 A 
ATOM     68  C   UNL     1       3.478 -10.792  18.860  1.00  0.00     0.055 A 
ATOM     69  C   UNL     1       1.538  -9.758  19.829  1.00  0.00     0.041 A 
ATOM     70  F   UNL     1       0.906  -7.605  19.160  1.00  0.00    -0.206 F 
ATOM     71  C   UNL     1       2.372 -10.867  19.709  1.00  0.00     0.022 A 
BRANCH  68  72
ATOM     72  S   UNL     1       4.439 -12.285  18.485  1.00  0.00     0.124 S 
ATOM     73  O   UNL     1       4.237 -12.410  17.044  1.00  0.00    -0.237 OA
ATOM     74  O   UNL     1       5.782 -11.911  18.914  1.00  0.00    -0.237 OA
ATOM     75  O   UNL     1       3.792 -13.320  19.289  1.00  0.00    -0.744 OA
ENDBRANCH  68  72
ENDBRANCH  51  65
BRANCH  52  76
ATOM     76  C   UNL     1       3.916  -0.689  12.036  1.00  0.00     0.023 A 
ATOM     77  C   UNL     1       5.068   0.107  11.950  1.00  0.00     0.031 A 
ATOM     78  C   UNL     1       2.815  -0.348  11.231  1.00  0.00     0.131 A 
ATOM     79  C   UNL     1       5.082   1.226  11.103  1.00  0.00     0.055 A 
ATOM     80  C   UNL     1       2.850   0.738  10.355  1.00  0.00     0.041 A 
ATOM     81  F   UNL     1       1.693  -1.085  11.268  1.00  0.00    -0.206 F 
ATOM     82  C   UNL     1       3.986   1.539  10.295  1.00  0.00     0.022 A 
BRANCH  79  83
ATOM     83  S   UNL     1       6.539   2.307  11.110  1.00  0.00     0.124 S 
ATOM     84  O   UNL     1       6.581   2.741  12.502  1.00  0.00    -0.237 OA
ATOM     85  O   UNL     1       7.596   1.393  10.691  1.00  0.00    -0.237 OA
ATOM     86  O   UNL     1       6.197   3.346  10.141  1.00  0.00    -0.744 OA
ENDBRANCH  79  83
ENDBRANCH  52  76
BRANCH  64  87
ATOM     87  C   UNL     1       3.904  -1.341  18.981  1.00  0.00     0.023 A 
ATOM     88  C   UNL     1       2.968  -0.310  19.182  1.00  0.00     0.031 A 
ATOM     89  C   UNL     1       5.027  -1.386  19.825  1.00  0.00     0.131 A 
ATOM     90  C   UNL     1       3.206   0.671  20.156  1.00  0.00     0.055 A 
ATOM     91  C   UNL     1       5.225  -0.445  20.837  1.00  0.00     0.041 A 
ATOM     92  F   UNL     1       5.955  -2.345  19.678  1.00  0.00    -0.206 F 
ATOM     93  C   UNL     1       4.320   0.601  20.995  1.00  0.00     0.022 A 
BRANCH  90  94
ATOM     94  S   UNL     1       2.098   2.106  20.234  1.00  0.00     0.124 S 
ATOM     95  O   UNL     1       2.200   2.642  18.881  1.00  0.00    -0.237 OA
ATOM     96  O   UNL     1       0.820   1.494  20.583  1.00  0.00    -0.237 OA
ATOM     97  O   UNL     1       2.691   2.940  21.278  1.00  0.00    -0.744 OA
ENDBRANCH  90  94
ENDBRANCH  64  87
ENDBRANCH  38  39
ENDBRANCH  30  33
ENDBRANCH  28  29
ENDBRANCH   1  28
TORSDOF 17
