REMARK SMILES O=C(NCCCNC(=O)[C@H](CO)NS(=O)(=O)c1c(Cl)cc(Cl)cc1Cl)c1ccc(-c2c3nc(c(-c4cc(S(=O)(=O)[O-])ccc4F)c4ccc([nH]4)c(-c4cc(S(=O)(=O)[O-])ccc4F)c4nc(c(-c5cc(S(=O)(=O)[O-])ccc5F)c5ccc2[nH]5)C=C4)C=C3)cc1
REMARK SMILES IDX 5 1 4 2 3 3 1 4 2 5 26 7 27 8 88 9 28 10 87 11 29 12 30 13
REMARK SMILES IDX 31 14 81 15 32 16 86 17 80 18 82 19 33 20 85 21 79 22 78 23
REMARK SMILES IDX 34 25 66 26 46 27 65 28 47 29 50 30 64 31 83 32 48 33 49 34
REMARK SMILES IDX 63 36 84 37 51 38 35 39 36 40 44 41 37 42 43 43 45 44 42 45
REMARK SMILES IDX 38 46 39 47 40 48 41 49 67 50 68 51 76 52 69 53 75 54 77 55
REMARK SMILES IDX 74 56 70 57 71 58 72 59 73 60 52 61 53 62 61 63 54 64 60 65
REMARK SMILES IDX 62 66 59 67 55 68 56 69 57 70 58 71 6 72 7 73 8 74 9 76
REMARK SMILES IDX 10 77 13 78 14 80 15 81 16 82 17 83 18 84 24 85 19 86 20 87
REMARK SMILES IDX 23 88 25 89 21 90 22 91 11 92 12 93
REMARK H PARENT 3 6 82 24 50 35 7 75 13 79 12 94
REMARK Flexibility Score: inf
ROOT
ATOM      1  C   UNL     1       4.539   2.340  -3.114  1.00  0.00     0.042 C 
ENDROOT
BRANCH   1   2
ATOM      2  C   UNL     1       5.306   1.234  -3.826  1.00  0.00     0.118 C 
BRANCH   2   3
ATOM      3  N   UNL     1       5.577   0.075  -2.982  1.00  0.00    -0.352 N 
ATOM      4  O   UNL     1       5.401  -2.040  -2.227  1.00  0.00    -0.269 OA
ATOM      5  C   UNL     1       5.171  -1.233  -3.123  1.00  0.00     0.251 C 
ATOM      6  H   UNL     1       6.135   0.256  -2.191  1.00  0.00     0.163 HD
BRANCH   5   7
ATOM      7  C   UNL     1       4.438  -1.654  -4.337  1.00  0.00     0.039 A 
ATOM      8  C   UNL     1       4.850  -1.224  -5.598  1.00  0.00     0.014 A 
ATOM      9  C   UNL     1       3.320  -2.484  -4.212  1.00  0.00     0.014 A 
ATOM     10  C   UNL     1       4.049  -1.467  -6.706  1.00  0.00     0.010 A 
ATOM     11  C   UNL     1       2.577  -2.822  -5.348  1.00  0.00     0.010 A 
ATOM     12  C   UNL     1       2.916  -2.289  -6.601  1.00  0.00    -0.014 A 
BRANCH  12  13
ATOM     13  C   UNL     1       2.151  -2.626  -7.831  1.00  0.00     0.031 A 
ATOM     14  C   UNL     1       0.712  -2.220  -7.993  1.00  0.00     0.074 A 
ATOM     15  C   UNL     1       2.788  -3.280  -8.824  1.00  0.00     0.049 A 
ATOM     16  N   UNL     1      -0.097  -2.440  -8.999  1.00  0.00    -0.248 NA
ATOM     17  C   UNL     1       0.097  -1.482  -6.881  1.00  0.00     0.031 C 
ATOM     18  C   UNL     1       4.187  -3.718  -8.777  1.00  0.00     0.029 A 
ATOM     19  N   UNL     1       2.361  -3.676 -10.065  1.00  0.00    -0.354 N 
ATOM     20  C   UNL     1      -1.319  -1.881  -8.639  1.00  0.00     0.074 A 
ATOM     21  C   UNL     1      -1.152  -1.343  -7.304  1.00  0.00     0.031 C 
ATOM     22  C   UNL     1       4.514  -4.274  -9.951  1.00  0.00     0.029 A 
ATOM     23  C   UNL     1       3.331  -4.316 -10.801  1.00  0.00     0.049 A 
ATOM     24  H   UNL     1       1.448  -3.517 -10.397  1.00  0.00     0.167 HD
ATOM     25  C   UNL     1      -2.466  -1.819  -9.361  1.00  0.00     0.034 A 
ATOM     26  C   UNL     1       3.272  -4.903 -12.011  1.00  0.00     0.034 A 
ATOM     27  C   UNL     1      -2.609  -2.365 -10.692  1.00  0.00     0.049 A 
ATOM     28  C   UNL     1       1.968  -4.877 -12.761  1.00  0.00     0.074 A 
ATOM     29  C   UNL     1      -3.717  -2.332 -11.522  1.00  0.00     0.029 A 
ATOM     30  N   UNL     1      -1.621  -3.054 -11.385  1.00  0.00    -0.354 N 
ATOM     31  N   UNL     1       0.826  -4.330 -12.411  1.00  0.00    -0.248 NA
ATOM     32  C   UNL     1       1.944  -5.541 -14.069  1.00  0.00     0.031 C 
ATOM     33  C   UNL     1      -3.428  -3.071 -12.674  1.00  0.00     0.029 A 
ATOM     34  C   UNL     1      -2.107  -3.484 -12.611  1.00  0.00     0.049 A 
ATOM     35  H   UNL     1      -0.707  -3.215 -11.053  1.00  0.00     0.167 HD
ATOM     36  C   UNL     1      -0.043  -4.561 -13.473  1.00  0.00     0.074 A 
ATOM     37  C   UNL     1       0.713  -5.277 -14.479  1.00  0.00     0.031 C 
ATOM     38  C   UNL     1      -1.348  -4.209 -13.604  1.00  0.00     0.034 A 
BRANCH  25  39
ATOM     39  C   UNL     1      -3.673  -1.180  -8.711  1.00  0.00     0.023 A 
ATOM     40  C   UNL     1      -3.693   0.177  -8.347  1.00  0.00     0.031 A 
ATOM     41  C   UNL     1      -4.826  -1.945  -8.454  1.00  0.00     0.131 A 
ATOM     42  C   UNL     1      -4.814   0.711  -7.690  1.00  0.00     0.055 A 
ATOM     43  C   UNL     1      -5.968  -1.389  -7.874  1.00  0.00     0.041 A 
ATOM     44  F   UNL     1      -4.862  -3.252  -8.758  1.00  0.00    -0.206 F 
ATOM     45  C   UNL     1      -5.962  -0.056  -7.476  1.00  0.00     0.022 A 
BRANCH  42  46
ATOM     46  S   UNL     1      -4.699   2.382  -6.995  1.00  0.00     0.124 S 
ATOM     47  O   UNL     1      -3.553   2.252  -6.098  1.00  0.00    -0.237 OA
ATOM     48  O   UNL     1      -4.492   3.204  -8.181  1.00  0.00    -0.237 OA
ATOM     49  O   UNL     1      -5.986   2.565  -6.325  1.00  0.00    -0.744 OA
ENDBRANCH  42  46
ENDBRANCH  25  39
BRANCH  26  50
ATOM     50  C   UNL     1       4.466  -5.603 -12.567  1.00  0.00     0.023 A 
ATOM     51  C   UNL     1       5.056  -5.188 -13.769  1.00  0.00     0.031 A 
ATOM     52  C   UNL     1       5.009  -6.729 -11.920  1.00  0.00     0.131 A 
ATOM     53  C   UNL     1       6.119  -5.924 -14.315  1.00  0.00     0.055 A 
ATOM     54  C   UNL     1       6.110  -7.416 -12.432  1.00  0.00     0.041 A 
ATOM     55  F   UNL     1       4.484  -7.171 -10.766  1.00  0.00    -0.206 F 
ATOM     56  C   UNL     1       6.662  -7.023 -13.646  1.00  0.00     0.022 A 
BRANCH  53  57
ATOM     57  S   UNL     1       6.713  -5.487 -15.972  1.00  0.00     0.124 S 
ATOM     58  O   UNL     1       5.491  -5.596 -16.762  1.00  0.00    -0.237 OA
ATOM     59  O   UNL     1       7.224  -4.136 -15.764  1.00  0.00    -0.237 OA
ATOM     60  O   UNL     1       7.728  -6.502 -16.247  1.00  0.00    -0.744 OA
ENDBRANCH  53  57
ENDBRANCH  26  50
BRANCH  38  61
ATOM     61  C   UNL     1      -2.020  -4.553 -14.912  1.00  0.00     0.023 A 
ATOM     62  C   UNL     1      -2.232  -5.884 -15.313  1.00  0.00     0.031 A 
ATOM     63  C   UNL     1      -2.436  -3.528 -15.781  1.00  0.00     0.131 A 
ATOM     64  C   UNL     1      -2.786  -6.154 -16.573  1.00  0.00     0.055 A 
ATOM     65  C   UNL     1      -3.050  -3.803 -17.003  1.00  0.00     0.041 A 
ATOM     66  F   UNL     1      -2.252  -2.238 -15.454  1.00  0.00    -0.206 F 
ATOM     67  C   UNL     1      -3.215  -5.122 -17.412  1.00  0.00     0.022 A 
BRANCH  64  68
ATOM     68  S   UNL     1      -2.842  -7.873 -17.150  1.00  0.00     0.124 S 
ATOM     69  O   UNL     1      -1.434  -8.255 -17.101  1.00  0.00    -0.237 OA
ATOM     70  O   UNL     1      -3.708  -8.507 -16.161  1.00  0.00    -0.237 OA
ATOM     71  O   UNL     1      -3.409  -7.766 -18.493  1.00  0.00    -0.744 OA
ENDBRANCH  64  68
ENDBRANCH  38  61
ENDBRANCH  12  13
ENDBRANCH   5   7
ENDBRANCH   2   3
ENDBRANCH   1   2
BRANCH   1  72
ATOM     72  C   UNL     1       5.243   2.924  -1.903  1.00  0.00     0.117 C 
BRANCH  72  73
ATOM     73  N   UNL     1       6.593   3.368  -2.182  1.00  0.00    -0.355 N 
ATOM     74  C   UNL     1       7.194   4.564  -1.949  1.00  0.00     0.240 C 
ATOM     75  H   UNL     1       7.169   2.694  -2.610  1.00  0.00     0.163 HD
ATOM     76  O   UNL     1       8.427   4.605  -2.014  1.00  0.00    -0.273 OA
BRANCH  74  77
ATOM     77  C   UNL     1       6.407   5.793  -1.517  1.00  0.00     0.184 C 
BRANCH  77  78
ATOM     78  N   UNL     1       5.336   6.249  -2.421  1.00  0.00    -0.196 NA
ATOM     79  H   UNL     1       4.915   7.069  -1.984  1.00  0.00     0.142 HD
BRANCH  78  80
ATOM     80  S   UNL     1       5.676   6.673  -4.008  1.00  0.00     0.244 S 
ATOM     81  O   UNL     1       6.521   5.646  -4.561  1.00  0.00    -0.207 OA
ATOM     82  O   UNL     1       4.396   6.928  -4.630  1.00  0.00    -0.207 OA
BRANCH  80  83
ATOM     83  C   UNL     1       6.550   8.215  -3.839  1.00  0.00     0.119 A 
ATOM     84  C   UNL     1       7.953   8.274  -3.917  1.00  0.00     0.064 A 
ATOM     85  C   UNL     1       5.845   9.416  -3.631  1.00  0.00     0.064 A 
ATOM     86  Cl  UNL     1       9.013   6.937  -4.173  1.00  0.00    -0.083 Cl
ATOM     87  C   UNL     1       8.626   9.496  -3.752  1.00  0.00     0.042 A 
ATOM     88  C   UNL     1       6.531  10.636  -3.504  1.00  0.00     0.042 A 
ATOM     89  Cl  UNL     1       4.131   9.547  -3.436  1.00  0.00    -0.083 Cl
ATOM     90  C   UNL     1       7.916  10.668  -3.552  1.00  0.00     0.044 A 
ATOM     91  Cl  UNL     1       8.755  12.153  -3.344  1.00  0.00    -0.084 Cl
ENDBRANCH  80  83
ENDBRANCH  78  80
ENDBRANCH  77  78
BRANCH  77  92
ATOM     92  C   UNL     1       5.885   5.584  -0.083  1.00  0.00     0.186 C 
BRANCH  92  93
ATOM     93  O   UNL     1       6.393   6.586   0.803  1.00  0.00    -0.394 OA
ATOM     94  H   UNL     1       7.362   6.535   0.827  1.00  0.00     0.210 HD
ENDBRANCH  92  93
ENDBRANCH  77  92
ENDBRANCH  74  77
ENDBRANCH  72  73
ENDBRANCH   1  72
TORSDOF 18
