REMARK SMILES Cc1ccc(C(=O)[C@@H](C)[C@H](C)C(=O)NCCCNC(=O)c2ccc(-c3c4nc(c(-c5cc(S(=O)(=O)[O-])ccc5F)c5ccc([nH]5)c(-c5cc(S(=O)(=O)[O-])ccc5F)c5nc(c(-c6cc(S(=O)(=O)[O-])ccc6F)c6ccc3[nH]6)C=C5)C=C4)cc2)cc1
REMARK SMILES IDX 16 1 15 2 14 3 12 4 13 5 10 7 11 8 8 9 9 10 6 11 7 12 5 13
REMARK SMILES IDX 1 14 2 15 3 16 85 17 4 18 84 19 17 20 18 21 19 22 20 24
REMARK SMILES IDX 21 25 22 26 83 27 23 28 82 29 24 30 25 31 26 32 76 33 27 34
REMARK SMILES IDX 81 35 75 36 77 37 28 38 80 39 74 40 73 41 29 43 61 44 41 45
REMARK SMILES IDX 60 46 42 47 45 48 59 49 78 50 43 51 44 52 58 54 79 55 46 56
REMARK SMILES IDX 30 57 31 58 39 59 32 60 38 61 40 62 37 63 33 64 34 65 35 66
REMARK SMILES IDX 36 67 62 68 63 69 71 70 64 71 70 72 72 73 69 74 65 75 66 76
REMARK SMILES IDX 67 77 68 78 47 79 48 80 56 81 49 82 55 83 57 84 54 85 50 86
REMARK SMILES IDX 51 87 52 88 53 89
REMARK H PARENT 14 6 18 23 77 42 45 53
REMARK Flexibility Score: inf
ROOT
ATOM      1  C   UNL     1      -7.010   3.816  -0.565  1.00  0.00     0.042 C 
ENDROOT
BRANCH   1   2
ATOM      2  C   UNL     1      -6.317   3.826  -1.915  1.00  0.00     0.117 C 
BRANCH   2   3
ATOM      3  N   UNL     1      -4.878   4.034  -1.811  1.00  0.00    -0.356 N 
ATOM      4  C   UNL     1      -3.762   3.280  -1.705  1.00  0.00     0.223 C 
ATOM      5  O   UNL     1      -2.696   3.910  -1.781  1.00  0.00    -0.275 OA
ATOM      6  H   UNL     1      -4.657   4.993  -1.822  1.00  0.00     0.163 HD
BRANCH   4   7
ATOM      7  C   UNL     1      -3.685   1.772  -1.432  1.00  0.00     0.086 C 
ATOM      8  C   UNL     1      -4.010   1.456   0.028  1.00  0.00     0.019 C 
BRANCH   7   9
ATOM      9  C   UNL     1      -4.099   0.763  -2.543  1.00  0.00     0.070 C 
ATOM     10  C   UNL     1      -4.846   1.286  -3.766  1.00  0.00     0.017 C 
BRANCH   9  11
ATOM     11  C   UNL     1      -4.614  -0.629  -2.110  1.00  0.00     0.166 C 
ATOM     12  O   UNL     1      -3.903  -1.624  -2.288  1.00  0.00    -0.294 OA
BRANCH  11  13
ATOM     13  C   UNL     1      -5.952  -0.844  -1.473  1.00  0.00     0.018 A 
ATOM     14  C   UNL     1      -9.705  -1.466   0.596  1.00  0.00     0.044 C 
ATOM     15  C   UNL     1      -8.393  -1.279  -0.106  1.00  0.00    -0.051 A 
ATOM     16  C   UNL     1      -7.616  -2.359  -0.528  1.00  0.00     0.004 A 
ATOM     17  C   UNL     1      -7.937   0.006  -0.375  1.00  0.00     0.004 A 
ATOM     18  C   UNL     1      -6.397  -2.143  -1.191  1.00  0.00     0.012 A 
ATOM     19  C   UNL     1      -6.757   0.215  -1.087  1.00  0.00     0.012 A 
ENDBRANCH  11  13
ENDBRANCH   9  11
ENDBRANCH   7   9
ENDBRANCH   4   7
ENDBRANCH   2   3
ENDBRANCH   1   2
BRANCH   1  20
ATOM     20  C   UNL     1      -8.527   3.974  -0.656  1.00  0.00     0.118 C 
BRANCH  20  21
ATOM     21  N   UNL     1      -9.276   2.834  -1.193  1.00  0.00    -0.352 N 
ATOM     22  C   UNL     1     -10.641   2.574  -1.070  1.00  0.00     0.251 C 
ATOM     23  H   UNL     1      -8.753   2.173  -1.702  1.00  0.00     0.163 HD
ATOM     24  O   UNL     1     -11.155   1.554  -1.492  1.00  0.00    -0.269 OA
BRANCH  22  25
ATOM     25  C   UNL     1     -11.465   3.631  -0.446  1.00  0.00     0.039 A 
ATOM     26  C   UNL     1     -12.100   4.518  -1.321  1.00  0.00     0.014 A 
ATOM     27  C   UNL     1     -11.158   3.986   0.862  1.00  0.00     0.014 A 
ATOM     28  C   UNL     1     -12.150   5.866  -0.981  1.00  0.00     0.010 A 
ATOM     29  C   UNL     1     -11.114   5.339   1.147  1.00  0.00     0.010 A 
ATOM     30  C   UNL     1     -11.515   6.290   0.187  1.00  0.00    -0.014 A 
BRANCH  30  31
ATOM     31  C   UNL     1     -10.969   7.645   0.360  1.00  0.00     0.031 A 
ATOM     32  C   UNL     1     -11.178   8.401   1.623  1.00  0.00     0.074 A 
ATOM     33  C   UNL     1     -10.103   8.155  -0.553  1.00  0.00     0.049 A 
ATOM     34  N   UNL     1     -10.764   9.606   1.821  1.00  0.00    -0.248 NA
ATOM     35  C   UNL     1     -11.949   7.885   2.751  1.00  0.00     0.031 C 
ATOM     36  C   UNL     1      -9.117   9.214  -0.339  1.00  0.00     0.029 A 
ATOM     37  N   UNL     1     -10.133   8.000  -1.943  1.00  0.00    -0.354 N 
ATOM     38  C   UNL     1     -10.949   9.920   3.144  1.00  0.00     0.074 A 
ATOM     39  C   UNL     1     -11.777   8.857   3.652  1.00  0.00     0.031 C 
ATOM     40  C   UNL     1      -8.832   9.797  -1.510  1.00  0.00     0.029 A 
ATOM     41  C   UNL     1      -9.719   9.231  -2.503  1.00  0.00     0.049 A 
ATOM     42  H   UNL     1     -10.393   7.189  -2.437  1.00  0.00     0.167 HD
ATOM     43  C   UNL     1     -10.293  10.999   3.655  1.00  0.00     0.034 A 
ATOM     44  C   UNL     1     -10.519   9.945  -3.345  1.00  0.00     0.034 A 
ATOM     45  C   UNL     1      -9.810  11.883   2.588  1.00  0.00     0.049 A 
ATOM     46  C   UNL     1     -10.878  11.338  -2.861  1.00  0.00     0.074 A 
ATOM     47  C   UNL     1      -8.584  12.255   2.063  1.00  0.00     0.029 A 
ATOM     48  N   UNL     1     -10.758  12.427   1.740  1.00  0.00    -0.354 N 
ATOM     49  N   UNL     1     -10.441  11.876  -1.756  1.00  0.00    -0.248 NA
ATOM     50  C   UNL     1     -11.855  12.191  -3.542  1.00  0.00     0.031 C 
ATOM     51  C   UNL     1      -8.825  13.011   0.871  1.00  0.00     0.029 A 
ATOM     52  C   UNL     1     -10.193  13.117   0.692  1.00  0.00     0.049 A 
ATOM     53  H   UNL     1     -11.729  12.330   1.871  1.00  0.00     0.167 HD
ATOM     54  C   UNL     1     -11.157  13.019  -1.499  1.00  0.00     0.074 A 
ATOM     55  C   UNL     1     -12.001  13.198  -2.665  1.00  0.00     0.031 C 
ATOM     56  C   UNL     1     -11.080  13.688  -0.311  1.00  0.00     0.034 A 
BRANCH  43  57
ATOM     57  C   UNL     1      -9.989  11.251   5.120  1.00  0.00     0.023 A 
ATOM     58  C   UNL     1      -9.137  12.329   5.451  1.00  0.00     0.031 A 
ATOM     59  C   UNL     1     -10.380  10.450   6.215  1.00  0.00     0.131 A 
ATOM     60  C   UNL     1      -8.699  12.551   6.771  1.00  0.00     0.055 A 
ATOM     61  C   UNL     1      -9.979  10.697   7.535  1.00  0.00     0.041 A 
ATOM     62  F   UNL     1     -11.136   9.359   6.084  1.00  0.00    -0.206 F 
ATOM     63  C   UNL     1      -9.125  11.745   7.820  1.00  0.00     0.022 A 
BRANCH  60  64
ATOM     64  S   UNL     1      -7.498  13.870   7.094  1.00  0.00     0.124 S 
ATOM     65  O   UNL     1      -6.373  13.472   6.254  1.00  0.00    -0.237 OA
ATOM     66  O   UNL     1      -8.230  15.061   6.678  1.00  0.00    -0.237 OA
ATOM     67  O   UNL     1      -7.258  13.763   8.533  1.00  0.00    -0.744 OA
ENDBRANCH  60  64
ENDBRANCH  43  57
BRANCH  44  68
ATOM     68  C   UNL     1     -11.387   9.072  -4.180  1.00  0.00     0.023 A 
ATOM     69  C   UNL     1     -10.742   8.193  -5.074  1.00  0.00     0.031 A 
ATOM     70  C   UNL     1     -12.716   8.803  -3.827  1.00  0.00     0.131 A 
ATOM     71  C   UNL     1     -11.374   7.007  -5.467  1.00  0.00     0.055 A 
ATOM     72  C   UNL     1     -13.364   7.647  -4.274  1.00  0.00     0.041 A 
ATOM     73  F   UNL     1     -13.360   9.579  -2.943  1.00  0.00    -0.206 F 
ATOM     74  C   UNL     1     -12.680   6.723  -5.064  1.00  0.00     0.022 A 
BRANCH  71  75
ATOM     75  S   UNL     1     -10.368   5.725  -6.272  1.00  0.00     0.124 S 
ATOM     76  O   UNL     1     -10.315   6.201  -7.649  1.00  0.00    -0.237 OA
ATOM     77  O   UNL     1      -9.116   5.792  -5.520  1.00  0.00    -0.237 OA
ATOM     78  O   UNL     1     -11.141   4.505  -6.053  1.00  0.00    -0.744 OA
ENDBRANCH  71  75
ENDBRANCH  44  68
BRANCH  56  79
ATOM     79  C   UNL     1     -11.922  14.899   0.013  1.00  0.00     0.023 A 
ATOM     80  C   UNL     1     -12.114  15.942  -0.908  1.00  0.00     0.031 A 
ATOM     81  C   UNL     1     -12.505  15.078   1.290  1.00  0.00     0.131 A 
ATOM     82  C   UNL     1     -12.884  17.069  -0.563  1.00  0.00     0.055 A 
ATOM     83  C   UNL     1     -13.193  16.236   1.656  1.00  0.00     0.041 A 
ATOM     84  F   UNL     1     -12.477  14.111   2.219  1.00  0.00    -0.206 F 
ATOM     85  C   UNL     1     -13.393  17.241   0.724  1.00  0.00     0.022 A 
BRANCH  82  86
ATOM     86  S   UNL     1     -13.279  18.285  -1.848  1.00  0.00     0.124 S 
ATOM     87  O   UNL     1     -11.967  18.608  -2.399  1.00  0.00    -0.237 OA
ATOM     88  O   UNL     1     -14.162  17.514  -2.720  1.00  0.00    -0.237 OA
ATOM     89  O   UNL     1     -13.929  19.368  -1.113  1.00  0.00    -0.744 OA
ENDBRANCH  82  86
ENDBRANCH  56  79
ENDBRANCH  30  31
ENDBRANCH  22  25
ENDBRANCH  20  21
ENDBRANCH   1  20
TORSDOF 16
