REMARK SMILES COC(=O)[C@H]1CC[C@]2(C)[C@H](CC[C@]3(C)[C@H]2CC=C2[C@H]4CC(C)(C)CC[C@@]4(C(=O)NCCCNC(=O)c4ccc(-c5c6nc(c(-c7cc(S(=O)(=O)[O-])ccc7F)c7ccc([nH]7)c(-c7cc(S(=O)(=O)[O-])ccc7F)c7nc(c(-c8cc(S(=O)(=O)[O-])ccc8F)c8ccc5[nH]8)C=C7)C=C6)cc4)CC[C@@]23C)C1(C)C
REMARK SMILES IDX 31 1 30 2 29 3 27 4 28 5 26 7 5 8 6 9 103 10 7 11 10 12
REMARK SMILES IDX 104 13 105 14 8 15 11 16 15 17 9 18 12 19 16 20 13 21 17 22
REMARK SMILES IDX 101 23 14 24 18 25 100 26 102 27 19 28 99 29 20 30 21 31
REMARK SMILES IDX 25 32 24 33 22 34 23 35 3 36 4 37 2 38 1 39 32 40 33 41
REMARK SMILES IDX 34 42 35 44 36 45 37 46 98 47 38 48 97 49 39 50 40 51 41 52
REMARK SMILES IDX 91 53 42 54 96 55 90 56 92 57 43 58 95 59 89 60 88 61 44 63
REMARK SMILES IDX 76 64 56 65 75 66 57 67 60 68 74 69 93 70 58 71 59 72 73 74
REMARK SMILES IDX 94 75 61 76 45 77 46 78 54 79 47 80 53 81 55 82 52 83 48 84
REMARK SMILES IDX 49 85 50 86 51 87 77 88 78 89 86 90 79 91 85 92 87 93 84 94
REMARK SMILES IDX 80 95 81 96 82 97 83 98 62 99 63 100 71 101 64 102 70 103
REMARK SMILES IDX 72 104 69 105 65 106 66 107 67 108 68 109
REMARK H PARENT 29 6 33 43 92 62 60 73
REMARK Flexibility Score: inf
ROOT
ATOM      1  C   UNL     1      -3.214  -6.899  -7.943  1.00  0.00     0.042 C 
ENDROOT
BRANCH   1   2
ATOM      2  C   UNL     1      -1.664  -6.277  -8.146  1.00  0.00     0.117 C 
BRANCH   2   3
ATOM      3  N   UNL     1      -0.123  -6.531  -7.645  1.00  0.00    -0.356 N 
ATOM      4  C   UNL     1       0.896  -7.790  -7.079  1.00  0.00     0.226 C 
ATOM      5  O   UNL     1       0.962  -8.973  -6.604  1.00  0.00    -0.274 OA
ATOM      6  H   UNL     1       0.381  -5.686  -7.681  1.00  0.00     0.163 HD
BRANCH   4   7
ATOM      7  C   UNL     1       2.073  -7.379  -7.588  1.00  0.00     0.056 C 
ATOM      8  C   UNL     1       0.306  -2.470  -0.915  1.00  0.00     0.105 C 
ATOM      9  C   UNL     1      -0.364  -3.721  -0.313  1.00  0.00     0.016 C 
ATOM     10  C   UNL     1       0.988  -2.638  -2.331  1.00  0.00    -0.019 C 
ATOM     11  C   UNL     1      -1.075  -4.612  -1.319  1.00  0.00     0.008 C 
ATOM     12  C   UNL     1       0.193  -3.691  -3.233  1.00  0.00     0.002 C 
ATOM     13  C   UNL     1       1.053  -1.275  -3.085  1.00  0.00     0.012 C 
ATOM     14  C   UNL     1       2.506  -2.958  -2.118  1.00  0.00     0.012 C 
ATOM     15  C   UNL     1      -0.183  -5.012  -2.516  1.00  0.00    -0.026 C 
ATOM     16  C   UNL     1       0.925  -4.033  -4.518  1.00  0.00     0.005 C 
ATOM     17  C   UNL     1      -1.062  -6.031  -3.420  1.00  0.00     0.006 C 
ATOM     18  C   UNL     1       1.104  -5.687  -1.936  1.00  0.00     0.012 C 
ATOM     19  C   UNL     1       0.098  -4.794  -5.544  1.00  0.00     0.008 C 
ATOM     20  C   UNL     1      -0.794  -7.485  -2.884  1.00  0.00     0.032 C 
ATOM     21  C   UNL     1      -1.041  -5.893  -5.117  1.00  0.00    -0.020 C 
ATOM     22  C   UNL     1       0.458  -7.990  -3.559  1.00  0.00    -0.027 C 
ATOM     23  C   UNL     1      -0.945  -7.658  -5.748  1.00  0.00    -0.006 C 
ATOM     24  C   UNL     1      -2.266  -4.979  -5.482  1.00  0.00     0.012 C 
ATOM     25  C   UNL     1       0.537  -7.685  -4.862  1.00  0.00    -0.064 C 
ATOM     26  C   UNL     1      -0.893  -8.619  -7.482  1.00  0.00     0.013 C 
ATOM     27  C   UNL     1      -1.934  -8.688  -5.119  1.00  0.00     0.017 C 
ATOM     28  C   UNL     1       1.977  -7.209  -5.741  1.00  0.00     0.031 C 
ATOM     29  C   UNL     1       0.735  -8.350  -8.571  1.00  0.00     0.018 C 
ATOM     30  C   UNL     1       3.269  -7.550  -5.007  1.00  0.00     0.015 C 
ATOM     31  C   UNL     1       4.458  -6.867  -5.700  1.00  0.00    -0.035 C 
ATOM     32  C   UNL     1       3.379  -8.170  -7.748  1.00  0.00     0.018 C 
ATOM     33  C   UNL     1       4.632  -7.487  -7.112  1.00  0.00     0.007 C 
ATOM     34  C   UNL     1       5.696  -7.073  -4.804  1.00  0.00     0.011 C 
ATOM     35  C   UNL     1       4.285  -5.328  -5.821  1.00  0.00     0.011 C 
BRANCH   8  36
ATOM     36  C   UNL     1      -0.702  -1.326  -0.829  1.00  0.00     0.309 C 
ATOM     37  O   UNL     1      -1.588  -1.101  -1.638  1.00  0.00    -0.252 OA
BRANCH  36  38
ATOM     38  O   UNL     1      -0.472  -0.526   0.251  1.00  0.00    -0.469 OA
ATOM     39  C   UNL     1      -1.027  -1.040   1.463  1.00  0.00     0.282 C 
ENDBRANCH  36  38
ENDBRANCH   8  36
ENDBRANCH   4   7
ENDBRANCH   2   3
ENDBRANCH   1   2
BRANCH   1  40
ATOM     40  C   UNL     1      -4.205  -7.379  -6.782  1.00  0.00     0.118 C 
BRANCH  40  41
ATOM     41  N   UNL     1      -4.476  -6.570  -5.589  1.00  0.00    -0.352 N 
ATOM     42  C   UNL     1      -5.634  -6.281  -4.906  1.00  0.00     0.251 C 
ATOM     43  H   UNL     1      -3.672  -6.153  -5.202  1.00  0.00     0.163 HD
ATOM     44  O   UNL     1      -5.718  -5.372  -4.109  1.00  0.00    -0.269 OA
BRANCH  42  45
ATOM     45  C   UNL     1      -6.688  -7.280  -5.012  1.00  0.00     0.039 A 
ATOM     46  C   UNL     1      -7.921  -6.965  -5.570  1.00  0.00     0.014 A 
ATOM     47  C   UNL     1      -6.351  -8.566  -4.582  1.00  0.00     0.014 A 
ATOM     48  C   UNL     1      -8.813  -8.004  -5.794  1.00  0.00     0.010 A 
ATOM     49  C   UNL     1      -7.217  -9.601  -4.851  1.00  0.00     0.010 A 
ATOM     50  C   UNL     1      -8.441  -9.321  -5.471  1.00  0.00    -0.014 A 
BRANCH  50  51
ATOM     51  C   UNL     1      -9.322 -10.452  -5.786  1.00  0.00     0.031 A 
ATOM     52  C   UNL     1      -9.982 -11.182  -4.661  1.00  0.00     0.074 A 
ATOM     53  C   UNL     1      -9.414 -10.846  -7.067  1.00  0.00     0.049 A 
ATOM     54  N   UNL     1     -10.729 -12.249  -4.699  1.00  0.00    -0.248 NA
ATOM     55  C   UNL     1      -9.729 -10.662  -3.307  1.00  0.00     0.031 C 
ATOM     56  C   UNL     1      -8.725 -10.213  -8.198  1.00  0.00     0.029 A 
ATOM     57  N   UNL     1     -10.108 -11.875  -7.636  1.00  0.00    -0.354 N 
ATOM     58  C   UNL     1     -11.027 -12.539  -3.373  1.00  0.00     0.074 A 
ATOM     59  C   UNL     1     -10.324 -11.575  -2.556  1.00  0.00     0.031 C 
ATOM     60  C   UNL     1      -9.056 -10.855  -9.329  1.00  0.00     0.029 A 
ATOM     61  C   UNL     1      -9.949 -11.958  -8.998  1.00  0.00     0.049 A 
ATOM     62  H   UNL     1     -10.669 -12.498  -7.119  1.00  0.00     0.167 HD
ATOM     63  C   UNL     1     -11.839 -13.512  -2.896  1.00  0.00     0.034 A 
ATOM     64  C   UNL     1     -10.478 -12.835  -9.871  1.00  0.00     0.034 A 
ATOM     65  C   UNL     1     -12.519 -14.444  -3.760  1.00  0.00     0.049 A 
ATOM     66  C   UNL     1     -11.408 -13.884  -9.322  1.00  0.00     0.074 A 
ATOM     67  C   UNL     1     -13.399 -15.455  -3.426  1.00  0.00     0.029 A 
ATOM     68  N   UNL     1     -12.383 -14.473  -5.146  1.00  0.00    -0.354 N 
ATOM     69  N   UNL     1     -11.740 -14.117  -8.070  1.00  0.00    -0.248 NA
ATOM     70  C   UNL     1     -12.052 -14.770 -10.294  1.00  0.00     0.031 C 
ATOM     71  C   UNL     1     -13.760 -16.123  -4.603  1.00  0.00     0.029 A 
ATOM     72  C   UNL     1     -13.154 -15.491  -5.680  1.00  0.00     0.049 A 
ATOM     73  H   UNL     1     -11.821 -13.858  -5.670  1.00  0.00     0.167 HD
ATOM     74  C   UNL     1     -12.652 -15.164  -8.107  1.00  0.00     0.074 A 
ATOM     75  C   UNL     1     -12.829 -15.502  -9.508  1.00  0.00     0.031 C 
ATOM     76  C   UNL     1     -13.289 -15.793  -7.086  1.00  0.00     0.034 A 
BRANCH  63  77
ATOM     77  C   UNL     1     -11.989 -13.609  -1.398  1.00  0.00     0.023 A 
ATOM     78  C   UNL     1     -12.519 -12.547  -0.641  1.00  0.00     0.031 A 
ATOM     79  C   UNL     1     -11.527 -14.741  -0.705  1.00  0.00     0.131 A 
ATOM     80  C   UNL     1     -12.487 -12.598   0.760  1.00  0.00     0.055 A 
ATOM     81  C   UNL     1     -11.577 -14.821   0.689  1.00  0.00     0.041 A 
ATOM     82  F   UNL     1     -10.988 -15.776  -1.368  1.00  0.00    -0.206 F 
ATOM     83  C   UNL     1     -12.041 -13.739   1.431  1.00  0.00     0.022 A 
BRANCH  80  84
ATOM     84  S   UNL     1     -12.886 -11.094   1.692  1.00  0.00     0.124 S 
ATOM     85  O   UNL     1     -11.851 -10.175   1.223  1.00  0.00    -0.237 OA
ATOM     86  O   UNL     1     -14.246 -10.801   1.255  1.00  0.00    -0.237 OA
ATOM     87  O   UNL     1     -12.755 -11.509   3.087  1.00  0.00    -0.744 OA
ENDBRANCH  80  84
ENDBRANCH  63  77
BRANCH  64  88
ATOM     88  C   UNL     1     -10.165 -12.740 -11.322  1.00  0.00     0.023 A 
ATOM     89  C   UNL     1     -11.155 -12.392 -12.254  1.00  0.00     0.031 A 
ATOM     90  C   UNL     1      -8.868 -12.994 -11.803  1.00  0.00     0.131 A 
ATOM     91  C   UNL     1     -10.846 -12.346 -13.622  1.00  0.00     0.055 A 
ATOM     92  C   UNL     1      -8.554 -12.907 -13.161  1.00  0.00     0.041 A 
ATOM     93  F   UNL     1      -7.878 -13.311 -10.953  1.00  0.00    -0.206 F 
ATOM     94  C   UNL     1      -9.550 -12.593 -14.081  1.00  0.00     0.022 A 
BRANCH  91  95
ATOM     95  S   UNL     1     -12.181 -12.019 -14.805  1.00  0.00     0.124 S 
ATOM     96  O   UNL     1     -13.133 -13.076 -14.482  1.00  0.00    -0.237 OA
ATOM     97  O   UNL     1     -12.579 -10.663 -14.442  1.00  0.00    -0.237 OA
ATOM     98  O   UNL     1     -11.524 -12.147 -16.104  1.00  0.00    -0.744 OA
ENDBRANCH  91  95
ENDBRANCH  64  88
BRANCH  76  99
ATOM     99  C   UNL     1     -14.254 -16.880  -7.473  1.00  0.00     0.023 A 
ATOM    100  C   UNL     1     -13.807 -18.098  -8.009  1.00  0.00     0.031 A 
ATOM    101  C   UNL     1     -15.636 -16.687  -7.307  1.00  0.00     0.131 A 
ATOM    102  C   UNL     1     -14.740 -19.062  -8.413  1.00  0.00     0.055 A 
ATOM    103  C   UNL     1     -16.557 -17.672  -7.658  1.00  0.00     0.041 A 
ATOM    104  F   UNL     1     -16.109 -15.538  -6.799  1.00  0.00    -0.206 F 
ATOM    105  C   UNL     1     -16.112 -18.863  -8.226  1.00  0.00     0.022 A 
BRANCH 102 106
ATOM    106  S   UNL     1     -14.140 -20.546  -9.262  1.00  0.00     0.124 S 
ATOM    107  O   UNL     1     -13.478 -19.978 -10.432  1.00  0.00    -0.237 OA
ATOM    108  O   UNL     1     -13.264 -21.146  -8.262  1.00  0.00    -0.237 OA
ATOM    109  O   UNL     1     -15.363 -21.296  -9.544  1.00  0.00    -0.744 OA
ENDBRANCH 102 106
ENDBRANCH  76  99
ENDBRANCH  50  51
ENDBRANCH  42  45
ENDBRANCH  40  41
ENDBRANCH   1  40
TORSDOF 15
