REMARK SMILES C[C@H](Nc1ccc2c(c1)Cc1ccccc1-2)[C@@H](C)C(=O)NCCCNC(=O)c1ccc(-c2c3nc(c(-c4cc(S(=O)(=O)[O-])ccc4F)c4ccc([nH]4)c(-c4cc(S(=O)(=O)[O-])ccc4F)c4nc(c(-c5cc(S(=O)(=O)[O-])ccc5F)c5ccc2[nH]5)C=C4)C=C3)cc1
REMARK SMILES IDX 23 1 22 2 21 3 19 4 20 5 17 7 18 8 2 9 1 10 3 11 4 13 5 14
REMARK SMILES IDX 9 15 6 16 8 17 7 18 10 19 16 20 11 21 15 22 12 23 14 24
REMARK SMILES IDX 13 25 24 26 25 27 26 28 27 30 28 31 29 32 90 33 30 34 89 35
REMARK SMILES IDX 31 36 32 37 33 38 83 39 34 40 88 41 82 42 84 43 35 44 87 45
REMARK SMILES IDX 81 46 80 47 36 49 68 50 48 51 67 52 49 53 52 54 66 55 85 56
REMARK SMILES IDX 50 57 51 58 65 60 86 61 53 62 37 63 38 64 46 65 39 66 45 67
REMARK SMILES IDX 47 68 44 69 40 70 41 71 42 72 43 73 69 74 70 75 78 76 71 77
REMARK SMILES IDX 77 78 79 79 76 80 72 81 73 82 74 83 75 84 54 85 55 86 63 87
REMARK SMILES IDX 56 88 62 89 64 90 61 91 57 92 58 93 59 94 60 95
REMARK H PARENT 21 6 3 12 25 29 84 48 52 59
REMARK Flexibility Score: inf
ROOT
ATOM      1  C   UNL     1       0.711  -0.647   4.627  1.00  0.00     0.042 C 
ENDROOT
BRANCH   1   2
ATOM      2  C   UNL     1      -0.574  -0.960   3.867  1.00  0.00     0.117 C 
BRANCH   2   3
ATOM      3  N   UNL     1      -1.380   0.224   3.619  1.00  0.00    -0.356 N 
ATOM      4  C   UNL     1      -1.617   0.943   2.490  1.00  0.00     0.224 C 
ATOM      5  O   UNL     1      -2.384   1.906   2.590  1.00  0.00    -0.275 OA
ATOM      6  H   UNL     1      -1.840   0.568   4.418  1.00  0.00     0.163 HD
BRANCH   4   7
ATOM      7  C   UNL     1      -0.998   0.593   1.139  1.00  0.00     0.097 C 
ATOM      8  C   UNL     1      -1.618  -0.703   0.609  1.00  0.00     0.020 C 
BRANCH   7   9
ATOM      9  C   UNL     1       0.547   0.638   1.162  1.00  0.00     0.088 C 
ATOM     10  C   UNL     1       1.046   1.989   1.685  1.00  0.00     0.031 C 
BRANCH   9  11
ATOM     11  N   UNL     1       1.105   0.230  -0.140  1.00  0.00    -0.382 N 
ATOM     12  H   UNL     1       1.203  -0.739  -0.287  1.00  0.00     0.160 HD
BRANCH  11  13
ATOM     13  C   UNL     1       1.507   1.048  -1.178  1.00  0.00     0.035 A 
ATOM     14  C   UNL     1       2.495   2.038  -1.017  1.00  0.00     0.026 A 
ATOM     15  C   UNL     1       0.917   0.893  -2.442  1.00  0.00     0.030 A 
ATOM     16  C   UNL     1       2.876   2.895  -2.054  1.00  0.00     0.011 A 
ATOM     17  C   UNL     1       1.310   1.729  -3.479  1.00  0.00    -0.034 A 
ATOM     18  C   UNL     1       2.272   2.739  -3.283  1.00  0.00    -0.014 A 
ATOM     19  C   UNL     1       0.840   1.730  -4.919  1.00  0.00     0.072 C 
ATOM     20  C   UNL     1       2.464   3.454  -4.523  1.00  0.00    -0.015 A 
ATOM     21  C   UNL     1       1.641   2.874  -5.512  1.00  0.00    -0.036 A 
ATOM     22  C   UNL     1       3.276   4.534  -4.822  1.00  0.00     0.009 A 
ATOM     23  C   UNL     1       1.633   3.352  -6.811  1.00  0.00     0.005 A 
ATOM     24  C   UNL     1       3.268   5.027  -6.129  1.00  0.00     0.001 A 
ATOM     25  C   UNL     1       2.458   4.438  -7.115  1.00  0.00     0.000 A 
ENDBRANCH  11  13
ENDBRANCH   9  11
ENDBRANCH   7   9
ENDBRANCH   4   7
ENDBRANCH   2   3
ENDBRANCH   1   2
BRANCH   1  26
ATOM     26  C   UNL     1       0.486  -0.174   6.057  1.00  0.00     0.118 C 
BRANCH  26  27
ATOM     27  N   UNL     1      -0.162  -1.186   6.879  1.00  0.00    -0.352 N 
ATOM     28  C   UNL     1       0.304  -1.873   7.970  1.00  0.00     0.251 C 
ATOM     29  H   UNL     1      -1.081  -1.413   6.608  1.00  0.00     0.163 HD
ATOM     30  O   UNL     1      -0.322  -2.860   8.364  1.00  0.00    -0.269 OA
BRANCH  28  31
ATOM     31  C   UNL     1       1.545  -1.456   8.657  1.00  0.00     0.039 A 
ATOM     32  C   UNL     1       2.414  -2.436   9.145  1.00  0.00     0.014 A 
ATOM     33  C   UNL     1       1.842  -0.105   8.853  1.00  0.00     0.014 A 
ATOM     34  C   UNL     1       3.606  -2.060   9.770  1.00  0.00     0.010 A 
ATOM     35  C   UNL     1       3.071   0.267   9.390  1.00  0.00     0.010 A 
ATOM     36  C   UNL     1       3.962  -0.705   9.865  1.00  0.00    -0.014 A 
BRANCH  36  37
ATOM     37  C   UNL     1       5.250  -0.283  10.476  1.00  0.00     0.031 A 
ATOM     38  C   UNL     1       5.255   0.575  11.712  1.00  0.00     0.074 A 
ATOM     39  C   UNL     1       6.413  -0.622   9.884  1.00  0.00     0.049 A 
ATOM     40  N   UNL     1       6.266   1.104  12.352  1.00  0.00    -0.248 NA
ATOM     41  C   UNL     1       3.942   0.909  12.281  1.00  0.00     0.031 C 
ATOM     42  C   UNL     1       6.538  -1.421   8.664  1.00  0.00     0.029 A 
ATOM     43  N   UNL     1       7.710  -0.336  10.228  1.00  0.00    -0.354 N 
ATOM     44  C   UNL     1       5.711   1.843  13.392  1.00  0.00     0.074 A 
ATOM     45  C   UNL     1       4.274   1.757  13.242  1.00  0.00     0.031 C 
ATOM     46  C   UNL     1       7.839  -1.594   8.384  1.00  0.00     0.029 A 
ATOM     47  C   UNL     1       8.640  -0.877   9.371  1.00  0.00     0.049 A 
ATOM     48  H   UNL     1       7.952   0.205  11.014  1.00  0.00     0.167 HD
ATOM     49  C   UNL     1       6.339   2.505  14.397  1.00  0.00     0.034 A 
ATOM     50  C   UNL     1       9.985  -0.798   9.377  1.00  0.00     0.034 A 
ATOM     51  C   UNL     1       7.775   2.580  14.528  1.00  0.00     0.049 A 
ATOM     52  C   UNL     1      10.665  -0.015  10.470  1.00  0.00     0.074 A 
ATOM     53  C   UNL     1       8.521   3.187  15.523  1.00  0.00     0.029 A 
ATOM     54  N   UNL     1       8.686   2.039  13.628  1.00  0.00    -0.354 N 
ATOM     55  N   UNL     1      10.129   0.643  11.472  1.00  0.00    -0.248 NA
ATOM     56  C   UNL     1      12.131   0.026  10.436  1.00  0.00     0.031 C 
ATOM     57  C   UNL     1       9.875   3.080  15.186  1.00  0.00     0.029 A 
ATOM     58  C   UNL     1       9.983   2.329  14.026  1.00  0.00     0.049 A 
ATOM     59  H   UNL     1       8.445   1.525  12.824  1.00  0.00     0.167 HD
ATOM     60  C   UNL     1      11.197   1.148  12.209  1.00  0.00     0.074 A 
ATOM     61  C   UNL     1      12.405   0.708  11.539  1.00  0.00     0.031 C 
ATOM     62  C   UNL     1      11.181   1.899  13.340  1.00  0.00     0.034 A 
BRANCH  49  63
ATOM     63  C   UNL     1       5.464   3.219  15.404  1.00  0.00     0.023 A 
ATOM     64  C   UNL     1       4.514   2.526  16.176  1.00  0.00     0.031 A 
ATOM     65  C   UNL     1       5.529   4.616  15.549  1.00  0.00     0.131 A 
ATOM     66  C   UNL     1       3.598   3.235  16.968  1.00  0.00     0.055 A 
ATOM     67  C   UNL     1       4.681   5.308  16.419  1.00  0.00     0.041 A 
ATOM     68  F   UNL     1       6.399   5.340  14.828  1.00  0.00    -0.206 F 
ATOM     69  C   UNL     1       3.693   4.620  17.117  1.00  0.00     0.022 A 
BRANCH  66  70
ATOM     70  S   UNL     1       2.166   2.344  17.637  1.00  0.00     0.124 S 
ATOM     71  O   UNL     1       1.569   1.793  16.422  1.00  0.00    -0.237 OA
ATOM     72  O   UNL     1       2.787   1.380  18.537  1.00  0.00    -0.237 OA
ATOM     73  O   UNL     1       1.383   3.393  18.286  1.00  0.00    -0.744 OA
ENDBRANCH  66  70
ENDBRANCH  49  63
BRANCH  50  74
ATOM     74  C   UNL     1      10.781  -1.488   8.322  1.00  0.00     0.023 A 
ATOM     75  C   UNL     1      11.632  -2.555   8.647  1.00  0.00     0.031 A 
ATOM     76  C   UNL     1      10.718  -1.080   6.978  1.00  0.00     0.131 A 
ATOM     77  C   UNL     1      12.415  -3.155   7.649  1.00  0.00     0.055 A 
ATOM     78  C   UNL     1      11.460  -1.713   5.979  1.00  0.00     0.041 A 
ATOM     79  F   UNL     1       9.914  -0.068   6.612  1.00  0.00    -0.206 F 
ATOM     80  C   UNL     1      12.323  -2.752   6.315  1.00  0.00     0.022 A 
BRANCH  77  81
ATOM     81  S   UNL     1      13.607  -4.434   8.132  1.00  0.00     0.124 S 
ATOM     82  O   UNL     1      14.466  -3.704   9.057  1.00  0.00    -0.237 OA
ATOM     83  O   UNL     1      12.741  -5.448   8.723  1.00  0.00    -0.237 OA
ATOM     84  O   UNL     1      14.231  -4.812   6.866  1.00  0.00    -0.744 OA
ENDBRANCH  77  81
ENDBRANCH  50  74
BRANCH  62  85
ATOM     85  C   UNL     1      12.518   2.249  13.950  1.00  0.00     0.023 A 
ATOM     86  C   UNL     1      13.440   3.084  13.294  1.00  0.00     0.031 A 
ATOM     87  C   UNL     1      12.881   1.723  15.204  1.00  0.00     0.131 A 
ATOM     88  C   UNL     1      14.700   3.319  13.866  1.00  0.00     0.055 A 
ATOM     89  C   UNL     1      14.109   2.015  15.798  1.00  0.00     0.041 A 
ATOM     90  F   UNL     1      12.043   0.916  15.875  1.00  0.00    -0.206 F 
ATOM     91  C   UNL     1      15.033   2.806  15.122  1.00  0.00     0.022 A 
BRANCH  88  92
ATOM     92  S   UNL     1      15.942   4.220  12.897  1.00  0.00     0.124 S 
ATOM     93  O   UNL     1      16.046   3.396  11.697  1.00  0.00    -0.237 OA
ATOM     94  O   UNL     1      15.314   5.525  12.722  1.00  0.00    -0.237 OA
ATOM     95  O   UNL     1      17.122   4.211  13.759  1.00  0.00    -0.744 OA
ENDBRANCH  88  92
ENDBRANCH  62  85
ENDBRANCH  36  37
ENDBRANCH  28  31
ENDBRANCH  26  27
ENDBRANCH   1  26
TORSDOF 16
