REMARK SMILES O=C(NCCCNC(=O)[C@@H]1CCCCC[C@H]1NS(=O)(=O)C(F)F)c1ccc(-c2c3nc(c(-c4cc(S(=O)(=O)[O-])ccc4F)c4ccc([nH]4)c(-c4cc(S(=O)(=O)[O-])ccc4F)c4nc(c(-c5cc(S(=O)(=O)[O-])ccc5F)c5ccc2[nH]5)C=C4)C=C3)cc1
REMARK SMILES IDX 5 1 4 2 3 3 1 4 2 5 24 7 25 8 86 9 26 10 85 11 27 12 28 13
REMARK SMILES IDX 29 14 79 15 30 16 84 17 78 18 80 19 31 20 83 21 77 22 76 23
REMARK SMILES IDX 32 25 64 26 44 27 63 28 45 29 48 30 62 31 81 32 46 33 47 34
REMARK SMILES IDX 61 36 82 37 49 38 33 39 34 40 42 41 35 42 41 43 43 44 40 45
REMARK SMILES IDX 36 46 37 47 38 48 39 49 65 50 66 51 74 52 67 53 73 54 75 55
REMARK SMILES IDX 72 56 68 57 69 58 70 59 71 60 50 61 51 62 59 63 52 64 58 65
REMARK SMILES IDX 60 66 57 67 53 68 54 69 55 70 56 71 6 72 7 73 8 74 9 76
REMARK SMILES IDX 10 77 11 78 12 79 13 80 14 81 16 83 15 84 17 86 18 88 19 89
REMARK SMILES IDX 20 90 21 91 22 92 23 93
REMARK H PARENT 3 6 80 24 48 35 7 75 17 87
REMARK Flexibility Score: 90.00
ROOT
ATOM      1  C   UNL     1       4.670  -0.476   2.198  1.00  0.00     0.042 C 
ENDROOT
BRANCH   1   2
ATOM      2  C   UNL     1       4.336  -1.018   0.817  1.00  0.00     0.118 C 
BRANCH   2   3
ATOM      3  N   UNL     1       2.905  -0.979   0.550  1.00  0.00    -0.352 N 
ATOM      4  O   UNL     1       0.949  -0.070  -0.069  1.00  0.00    -0.269 OA
ATOM      5  C   UNL     1       2.170  -0.090  -0.195  1.00  0.00     0.251 C 
ATOM      6  H   UNL     1       2.384  -1.702   0.969  1.00  0.00     0.163 HD
BRANCH   5   7
ATOM      7  C   UNL     1       2.837   0.834  -1.139  1.00  0.00     0.039 A 
ATOM      8  C   UNL     1       3.906   0.404  -1.928  1.00  0.00     0.014 A 
ATOM      9  C   UNL     1       2.344   2.134  -1.282  1.00  0.00     0.014 A 
ATOM     10  C   UNL     1       4.569   1.303  -2.756  1.00  0.00     0.010 A 
ATOM     11  C   UNL     1       2.947   3.007  -2.190  1.00  0.00     0.010 A 
ATOM     12  C   UNL     1       4.077   2.604  -2.921  1.00  0.00    -0.014 A 
BRANCH  12  13
ATOM     13  C   UNL     1       4.702   3.514  -3.914  1.00  0.00     0.031 A 
ATOM     14  C   UNL     1       5.329   4.805  -3.479  1.00  0.00     0.074 A 
ATOM     15  C   UNL     1       4.665   3.180  -5.218  1.00  0.00     0.049 A 
ATOM     16  N   UNL     1       5.811   5.777  -4.208  1.00  0.00    -0.248 NA
ATOM     17  C   UNL     1       5.410   5.038  -2.031  1.00  0.00     0.031 C 
ATOM     18  C   UNL     1       4.086   1.944  -5.753  1.00  0.00     0.029 A 
ATOM     19  N   UNL     1       5.104   3.849  -6.331  1.00  0.00    -0.354 N 
ATOM     20  C   UNL     1       6.230   6.754  -3.312  1.00  0.00     0.074 A 
ATOM     21  C   UNL     1       5.909   6.264  -1.986  1.00  0.00     0.031 C 
ATOM     22  C   UNL     1       4.213   1.940  -7.087  1.00  0.00     0.029 A 
ATOM     23  C   UNL     1       4.802   3.206  -7.509  1.00  0.00     0.049 A 
ATOM     24  H   UNL     1       5.589   4.704  -6.292  1.00  0.00     0.167 HD
ATOM     25  C   UNL     1       6.828   7.944  -3.577  1.00  0.00     0.034 A 
ATOM     26  C   UNL     1       4.928   3.607  -8.788  1.00  0.00     0.034 A 
ATOM     27  C   UNL     1       7.121   8.407  -4.913  1.00  0.00     0.049 A 
ATOM     28  C   UNL     1       5.524   4.959  -9.066  1.00  0.00     0.074 A 
ATOM     29  C   UNL     1       7.754   9.575  -5.302  1.00  0.00     0.029 A 
ATOM     30  N   UNL     1       6.781   7.736  -6.083  1.00  0.00    -0.354 N 
ATOM     31  N   UNL     1       5.930   5.869  -8.211  1.00  0.00    -0.248 NA
ATOM     32  C   UNL     1       5.684   5.338 -10.474  1.00  0.00     0.031 C 
ATOM     33  C   UNL     1       7.717   9.651  -6.698  1.00  0.00     0.029 A 
ATOM     34  C   UNL     1       7.152   8.485  -7.190  1.00  0.00     0.049 A 
ATOM     35  H   UNL     1       6.340   6.856  -6.120  1.00  0.00     0.167 HD
ATOM     36  C   UNL     1       6.423   6.918  -8.979  1.00  0.00     0.074 A 
ATOM     37  C   UNL     1       6.260   6.528 -10.366  1.00  0.00     0.031 C 
ATOM     38  C   UNL     1       6.975   8.089  -8.570  1.00  0.00     0.034 A 
BRANCH  25  39
ATOM     39  C   UNL     1       7.135   8.842  -2.400  1.00  0.00     0.023 A 
ATOM     40  C   UNL     1       7.987   8.436  -1.358  1.00  0.00     0.031 A 
ATOM     41  C   UNL     1       6.516  10.101  -2.284  1.00  0.00     0.131 A 
ATOM     42  C   UNL     1       8.110   9.225  -0.203  1.00  0.00     0.055 A 
ATOM     43  C   UNL     1       6.723  10.927  -1.177  1.00  0.00     0.041 A 
ATOM     44  F   UNL     1       5.675  10.540  -3.233  1.00  0.00    -0.206 F 
ATOM     45  C   UNL     1       7.505  10.480  -0.116  1.00  0.00     0.022 A 
BRANCH  42  46
ATOM     46  S   UNL     1       8.900   8.495   1.258  1.00  0.00     0.124 S 
ATOM     47  O   UNL     1       8.123   7.269   1.433  1.00  0.00    -0.237 OA
ATOM     48  O   UNL     1      10.278   8.319   0.815  1.00  0.00    -0.237 OA
ATOM     49  O   UNL     1       8.700   9.503   2.296  1.00  0.00    -0.744 OA
ENDBRANCH  42  46
ENDBRANCH  25  39
BRANCH  26  50
ATOM     50  C   UNL     1       4.422   2.732  -9.881  1.00  0.00     0.023 A 
ATOM     51  C   UNL     1       5.295   2.124 -10.794  1.00  0.00     0.031 A 
ATOM     52  C   UNL     1       3.045   2.464 -10.002  1.00  0.00     0.131 A 
ATOM     53  C   UNL     1       4.780   1.290 -11.799  1.00  0.00     0.055 A 
ATOM     54  C   UNL     1       2.544   1.596 -10.971  1.00  0.00     0.041 A 
ATOM     55  F   UNL     1       2.169   3.015  -9.146  1.00  0.00    -0.206 F 
ATOM     56  C   UNL     1       3.414   1.008 -11.883  1.00  0.00     0.022 A 
BRANCH  53  57
ATOM     57  S   UNL     1       5.921   0.609 -13.032  1.00  0.00     0.124 S 
ATOM     58  O   UNL     1       6.462   1.820 -13.637  1.00  0.00    -0.237 OA
ATOM     59  O   UNL     1       6.842  -0.161 -12.202  1.00  0.00    -0.237 OA
ATOM     60  O   UNL     1       5.053  -0.187 -13.897  1.00  0.00    -0.744 OA
ENDBRANCH  53  57
ENDBRANCH  26  50
BRANCH  38  61
ATOM     61  C   UNL     1       7.510   9.013  -9.637  1.00  0.00     0.023 A 
ATOM     62  C   UNL     1       6.666   9.704 -10.523  1.00  0.00     0.031 A 
ATOM     63  C   UNL     1       8.896   9.230  -9.735  1.00  0.00     0.131 A 
ATOM     64  C   UNL     1       7.221  10.560 -11.487  1.00  0.00     0.055 A 
ATOM     65  C   UNL     1       9.437  10.125 -10.658  1.00  0.00     0.041 A 
ATOM     66  F   UNL     1       9.747   8.590  -8.918  1.00  0.00    -0.206 F 
ATOM     67  C   UNL     1       8.598  10.791 -11.545  1.00  0.00     0.022 A 
BRANCH  64  68
ATOM     68  S   UNL     1       6.124  11.334 -12.708  1.00  0.00     0.124 S 
ATOM     69  O   UNL     1       5.563  10.171 -13.389  1.00  0.00    -0.237 OA
ATOM     70  O   UNL     1       5.201  12.089 -11.868  1.00  0.00    -0.237 OA
ATOM     71  O   UNL     1       7.031  12.147 -13.517  1.00  0.00    -0.744 OA
ENDBRANCH  64  68
ENDBRANCH  38  61
ENDBRANCH  12  13
ENDBRANCH   5   7
ENDBRANCH   2   3
ENDBRANCH   1   2
BRANCH   1  72
ATOM     72  C   UNL     1       4.158  -1.360   3.328  1.00  0.00     0.117 C 
BRANCH  72  73
ATOM     73  N   UNL     1       4.932  -2.582   3.446  1.00  0.00    -0.356 N 
ATOM     74  C   UNL     1       5.805  -3.030   4.382  1.00  0.00     0.224 C 
ATOM     75  H   UNL     1       4.797  -3.209   2.699  1.00  0.00     0.163 HD
ATOM     76  O   UNL     1       6.318  -4.134   4.168  1.00  0.00    -0.275 OA
BRANCH  74  77
ATOM     77  C   UNL     1       6.167  -2.255   5.654  1.00  0.00     0.096 C 
BRANCH  77  78
ATOM     78  C   UNL     1       4.932  -1.997   6.532  1.00  0.00     0.015 C 
BRANCH  78  79
ATOM     79  C   UNL     1       5.004  -0.866   7.548  1.00  0.00     0.001 C 
BRANCH  79  80
ATOM     80  C   UNL     1       4.894   0.522   6.934  1.00  0.00     0.000 C 
BRANCH  80  81
ATOM     81  C   UNL     1       6.195   1.043   6.349  1.00  0.00     0.002 CG0
ATOM     82  G   UNL     1       6.709   0.269   5.143  1.00  0.00     0.000 G0
ENDBRANCH  80  81
ENDBRANCH  79  80
ENDBRANCH  78  79
ENDBRANCH  77  78
BRANCH  77  83
ATOM     83  C   UNL     1       7.224  -1.151   5.381  1.00  0.00     0.082 C 
BRANCH  83  84
ATOM     84  C   UNL     1       6.709   0.269   5.143  1.00  0.00     0.021 CG0
ATOM     85  G   UNL     1       6.195   1.043   6.349  1.00  0.00     0.000 G0
ENDBRANCH  83  84
BRANCH  83  86
ATOM     86  N   UNL     1       8.236  -1.194   6.475  1.00  0.00    -0.206 NA
ATOM     87  H   UNL     1       8.475  -2.178   6.594  1.00  0.00     0.141 HD
BRANCH  86  88
ATOM     88  S   UNL     1       9.704  -0.368   6.426  1.00  0.00     0.274 S 
ATOM     89  O   UNL     1       9.420   1.029   6.183  1.00  0.00    -0.206 OA
ATOM     90  O   UNL     1      10.354  -0.739   7.672  1.00  0.00    -0.206 OA
BRANCH  88  91
ATOM     91  C   UNL     1      10.649  -1.067   5.018  1.00  0.00     0.473 C 
ATOM     92  F   UNL     1      11.004  -2.367   5.225  1.00  0.00    -0.191 F 
ATOM     93  F   UNL     1       9.944  -1.041   3.850  1.00  0.00    -0.191 F 
ENDBRANCH  88  91
ENDBRANCH  86  88
ENDBRANCH  83  86
ENDBRANCH  77  83
ENDBRANCH  74  77
ENDBRANCH  72  73
ENDBRANCH   1  72
TORSDOF 16
