REMARK SMILES O=C(NCCCNC(=O)c1cc2c(Cl)c(C(F)(F)F)cnc2n1S(=O)(=O)c1ccccc1)c1ccc(-c2c3nc(c(-c4cc(S(=O)(=O)[O-])ccc4F)c4ccc([nH]4)c(-c4cc(S(=O)(=O)[O-])ccc4F)c4nc(c(-c5cc(S(=O)(=O)[O-])ccc5F)c5ccc2[nH]5)C=C4)C=C3)cc1
REMARK SMILES IDX 4 1 3 2 1 3 2 4 33 6 34 7 95 8 35 9 94 10 36 11 37 12 38 13
REMARK SMILES IDX 88 14 39 15 93 16 87 17 89 18 40 19 92 20 86 21 85 22 41 24
REMARK SMILES IDX 73 25 53 26 72 27 54 28 57 29 71 30 90 31 55 32 56 33 70 35
REMARK SMILES IDX 91 36 58 37 42 38 43 39 51 40 44 41 50 42 52 43 49 44 45 45
REMARK SMILES IDX 46 46 47 47 48 48 74 49 75 50 83 51 76 52 82 53 84 54 81 55
REMARK SMILES IDX 77 56 78 57 79 58 80 59 59 60 60 61 68 62 61 63 67 64 69 65
REMARK SMILES IDX 66 66 62 67 63 68 64 69 65 70 5 71 6 72 7 73 8 74 9 76 10 77
REMARK SMILES IDX 11 78 23 79 12 80 22 81 13 82 21 83 14 84 15 85 20 86 24 87
REMARK SMILES IDX 25 88 26 89 27 90 28 91 32 92 29 93 31 94 30 95 16 96 17 97
REMARK SMILES IDX 18 98 19 99
REMARK H PARENT 3 5 89 23 57 34 7 75
REMARK Flexibility Score: inf
ROOT
ATOM      1  C   UNL     1       4.789  -0.492  -1.072  1.00  0.00     0.118 C 
ENDROOT
BRANCH   1   2
ATOM      2  N   UNL     1       3.370  -0.203  -1.198  1.00  0.00    -0.352 N 
ATOM      3  O   UNL     1       1.280   0.434  -0.797  1.00  0.00    -0.269 OA
ATOM      4  C   UNL     1       2.386   0.174  -0.321  1.00  0.00     0.251 C 
ATOM      5  H   UNL     1       3.042  -0.300  -2.121  1.00  0.00     0.163 HD
BRANCH   4   6
ATOM      6  C   UNL     1       2.565   0.208   1.150  1.00  0.00     0.039 A 
ATOM      7  C   UNL     1       3.782   0.461   1.780  1.00  0.00     0.014 A 
ATOM      8  C   UNL     1       1.422  -0.018   1.938  1.00  0.00     0.014 A 
ATOM      9  C   UNL     1       3.886   0.360   3.162  1.00  0.00     0.010 A 
ATOM     10  C   UNL     1       1.513  -0.073   3.328  1.00  0.00     0.010 A 
ATOM     11  C   UNL     1       2.756   0.077   3.938  1.00  0.00    -0.014 A 
BRANCH  11  12
ATOM     12  C   UNL     1       2.940   0.060   5.388  1.00  0.00     0.031 A 
ATOM     13  C   UNL     1       3.349   1.353   6.011  1.00  0.00     0.074 A 
ATOM     14  C   UNL     1       2.657  -0.989   6.183  1.00  0.00     0.049 A 
ATOM     15  N   UNL     1       4.436   1.640   6.655  1.00  0.00    -0.248 NA
ATOM     16  C   UNL     1       2.444   2.494   5.819  1.00  0.00     0.031 C 
ATOM     17  C   UNL     1       1.903  -2.197   5.847  1.00  0.00     0.029 A 
ATOM     18  N   UNL     1       2.900  -1.126   7.518  1.00  0.00    -0.354 N 
ATOM     19  C   UNL     1       4.287   2.958   7.095  1.00  0.00     0.074 A 
ATOM     20  C   UNL     1       3.100   3.466   6.451  1.00  0.00     0.031 C 
ATOM     21  C   UNL     1       1.555  -2.827   6.992  1.00  0.00     0.029 A 
ATOM     22  C   UNL     1       2.183  -2.147   8.115  1.00  0.00     0.049 A 
ATOM     23  H   UNL     1       3.527  -0.550   8.012  1.00  0.00     0.167 HD
ATOM     24  C   UNL     1       5.050   3.503   8.086  1.00  0.00     0.034 A 
ATOM     25  C   UNL     1       2.034  -2.357   9.444  1.00  0.00     0.034 A 
ATOM     26  C   UNL     1       6.204   2.706   8.385  1.00  0.00     0.049 A 
ATOM     27  C   UNL     1       3.101  -1.627  10.169  1.00  0.00     0.074 A 
ATOM     28  C   UNL     1       7.348   2.328   7.715  1.00  0.00     0.029 A 
ATOM     29  N   UNL     1       6.156   1.934   9.518  1.00  0.00    -0.354 N 
ATOM     30  N   UNL     1       4.366  -1.943  10.156  1.00  0.00    -0.248 NA
ATOM     31  C   UNL     1       2.796  -0.300  10.682  1.00  0.00     0.031 C 
ATOM     32  C   UNL     1       7.700   1.060   8.258  1.00  0.00     0.029 A 
ATOM     33  C   UNL     1       6.742   0.734   9.222  1.00  0.00     0.049 A 
ATOM     34  H   UNL     1       5.770   2.196  10.385  1.00  0.00     0.167 HD
ATOM     35  C   UNL     1       5.034  -0.733  10.266  1.00  0.00     0.074 A 
ATOM     36  C   UNL     1       4.026   0.214  10.730  1.00  0.00     0.031 C 
ATOM     37  C   UNL     1       6.266  -0.545   9.708  1.00  0.00     0.034 A 
BRANCH  24  38
ATOM     38  C   UNL     1       4.596   4.612   9.008  1.00  0.00     0.023 A 
ATOM     39  C   UNL     1       3.242   4.956   9.168  1.00  0.00     0.031 A 
ATOM     40  C   UNL     1       5.492   5.190   9.935  1.00  0.00     0.131 A 
ATOM     41  C   UNL     1       2.822   5.835  10.175  1.00  0.00     0.055 A 
ATOM     42  C   UNL     1       5.064   6.015  10.984  1.00  0.00     0.041 A 
ATOM     43  F   UNL     1       6.806   4.921   9.887  1.00  0.00    -0.206 F 
ATOM     44  C   UNL     1       3.721   6.345  11.106  1.00  0.00     0.022 A 
BRANCH  41  45
ATOM     45  S   UNL     1       1.081   6.328  10.286  1.00  0.00     0.124 S 
ATOM     46  O   UNL     1       0.677   5.703  11.540  1.00  0.00    -0.237 OA
ATOM     47  O   UNL     1       1.183   7.785  10.307  1.00  0.00    -0.237 OA
ATOM     48  O   UNL     1       0.495   5.769   9.072  1.00  0.00    -0.744 OA
ENDBRANCH  41  45
ENDBRANCH  24  38
BRANCH  25  49
ATOM     49  C   UNL     1       0.808  -2.833  10.122  1.00  0.00     0.023 A 
ATOM     50  C   UNL     1      -0.455  -2.572   9.556  1.00  0.00     0.031 A 
ATOM     51  C   UNL     1       0.839  -3.302  11.444  1.00  0.00     0.131 A 
ATOM     52  C   UNL     1      -1.624  -2.750  10.305  1.00  0.00     0.055 A 
ATOM     53  C   UNL     1      -0.331  -3.482  12.191  1.00  0.00     0.041 A 
ATOM     54  F   UNL     1       2.009  -3.541  12.055  1.00  0.00    -0.206 F 
ATOM     55  C   UNL     1      -1.571  -3.198  11.625  1.00  0.00     0.022 A 
BRANCH  52  56
ATOM     56  S   UNL     1      -3.235  -2.370   9.563  1.00  0.00     0.124 S 
ATOM     57  O   UNL     1      -4.092  -3.418  10.114  1.00  0.00    -0.237 OA
ATOM     58  O   UNL     1      -3.485  -1.024  10.064  1.00  0.00    -0.237 OA
ATOM     59  O   UNL     1      -2.977  -2.481   8.130  1.00  0.00    -0.744 OA
ENDBRANCH  52  56
ENDBRANCH  25  49
BRANCH  37  60
ATOM     60  C   UNL     1       7.064  -1.747   9.275  1.00  0.00     0.023 A 
ATOM     61  C   UNL     1       8.396  -1.839   9.723  1.00  0.00     0.031 A 
ATOM     62  C   UNL     1       6.641  -2.650   8.283  1.00  0.00     0.131 A 
ATOM     63  C   UNL     1       9.261  -2.787   9.166  1.00  0.00     0.055 A 
ATOM     64  C   UNL     1       7.491  -3.638   7.778  1.00  0.00     0.041 A 
ATOM     65  F   UNL     1       5.433  -2.544   7.713  1.00  0.00    -0.206 F 
ATOM     66  C   UNL     1       8.812  -3.702   8.210  1.00  0.00     0.022 A 
BRANCH  63  67
ATOM     67  S   UNL     1      11.029  -2.768   9.564  1.00  0.00     0.124 S 
ATOM     68  O   UNL     1      11.237  -4.105  10.113  1.00  0.00    -0.237 OA
ATOM     69  O   UNL     1      11.634  -2.529   8.255  1.00  0.00    -0.237 OA
ATOM     70  O   UNL     1      11.166  -1.673  10.519  1.00  0.00    -0.744 OA
ENDBRANCH  63  67
ENDBRANCH  37  60
ENDBRANCH  11  12
ENDBRANCH   4   6
ENDBRANCH   1   2
BRANCH   1  71
ATOM     71  C   UNL     1       5.160  -1.768  -0.316  1.00  0.00     0.042 C 
BRANCH  71  72
ATOM     72  C   UNL     1       4.533  -3.041  -0.868  1.00  0.00     0.118 C 
BRANCH  72  73
ATOM     73  N   UNL     1       4.907  -3.302  -2.249  1.00  0.00    -0.351 N 
ATOM     74  C   UNL     1       5.509  -4.391  -2.813  1.00  0.00     0.269 C 
ATOM     75  H   UNL     1       4.691  -2.577  -2.879  1.00  0.00     0.163 HD
ATOM     76  O   UNL     1       5.729  -4.381  -4.021  1.00  0.00    -0.268 OA
BRANCH  74  77
ATOM     77  C   UNL     1       5.954  -5.461  -1.964  1.00  0.00     0.124 A 
ATOM     78  C   UNL     1       7.271  -5.839  -1.741  1.00  0.00     0.047 A 
ATOM     79  N   UNL     1       5.162  -6.399  -1.326  1.00  0.00    -0.211 N 
ATOM     80  C   UNL     1       7.279  -6.989  -0.908  1.00  0.00     0.040 A 
ATOM     81  C   UNL     1       5.947  -7.324  -0.678  1.00  0.00     0.156 A 
ATOM     82  C   UNL     1       8.245  -7.828  -0.321  1.00  0.00     0.065 A 
ATOM     83  N   UNL     1       5.523  -8.365   0.062  1.00  0.00    -0.237 NA
ATOM     84  Cl  UNL     1       9.870  -7.448  -0.698  1.00  0.00    -0.083 Cl
ATOM     85  C   UNL     1       7.861  -8.884   0.497  1.00  0.00     0.093 A 
ATOM     86  C   UNL     1       6.500  -9.090   0.647  1.00  0.00     0.128 A 
BRANCH  79  87
ATOM     87  S   UNL     1       3.527  -6.664  -1.718  1.00  0.00     0.270 S 
ATOM     88  O   UNL     1       2.886  -5.369  -1.678  1.00  0.00    -0.201 OA
ATOM     89  O   UNL     1       3.587  -7.441  -2.947  1.00  0.00    -0.201 OA
BRANCH  87  90
ATOM     90  C   UNL     1       2.766  -7.644  -0.458  1.00  0.00     0.088 A 
ATOM     91  C   UNL     1       2.071  -8.800  -0.831  1.00  0.00     0.022 A 
ATOM     92  C   UNL     1       2.845  -7.263   0.886  1.00  0.00     0.022 A 
ATOM     93  C   UNL     1       1.494  -9.604   0.150  1.00  0.00     0.001 A 
ATOM     94  C   UNL     1       2.279  -8.084   1.863  1.00  0.00     0.001 A 
ATOM     95  C   UNL     1       1.611  -9.254   1.495  1.00  0.00     0.000 A 
ENDBRANCH  87  90
ENDBRANCH  79  87
BRANCH  85  96
ATOM     96  C   UNL     1       8.836  -9.782   1.179  1.00  0.00     0.419 C 
ATOM     97  F   UNL     1       9.545 -10.547   0.304  1.00  0.00    -0.166 F 
ATOM     98  F   UNL     1       9.749  -9.116   1.934  1.00  0.00    -0.166 F 
ATOM     99  F   UNL     1       8.240 -10.668   2.028  1.00  0.00    -0.166 F 
ENDBRANCH  85  96
ENDBRANCH  74  77
ENDBRANCH  72  73
ENDBRANCH  71  72
ENDBRANCH   1  71
TORSDOF 16
