REMARK SMILES [NH3+][C@H]1C=C[C@@H](C(=O)NC2(CC(=O)NCCCNC(=O)c3ccc(-c4c5nc(c(-c6cc(S(=O)(=O)[O-])ccc6F)c6ccc([nH]6)c(-c6cc(S(=O)(=O)[O-])ccc6F)c6nc(c(-c7cc(S(=O)(=O)[O-])ccc7F)c7ccc4[nH]7)C=C6)C=C5)cc3)CCCCC2)C1
REMARK SMILES IDX 14 1 13 2 11 3 12 4 10 6 9 7 83 8 87 9 84 10 86 11 85 12
REMARK SMILES IDX 8 13 6 14 7 15 5 17 2 18 3 19 88 20 4 21 1 22 15 26 16 27
REMARK SMILES IDX 17 28 18 29 19 31 20 32 21 33 82 34 22 35 81 36 23 37 24 38
REMARK SMILES IDX 25 39 75 40 26 41 80 42 74 43 76 44 27 45 79 46 73 47 72 48
REMARK SMILES IDX 28 50 60 51 40 52 59 53 41 54 44 55 58 56 77 57 42 58 43 59
REMARK SMILES IDX 57 61 78 62 45 63 29 64 30 65 38 66 31 67 37 68 39 69 36 70
REMARK SMILES IDX 32 71 33 72 34 73 35 74 61 75 62 76 70 77 63 78 69 79 71 80
REMARK SMILES IDX 68 81 64 82 65 83 66 84 67 85 46 86 47 87 55 88 48 89 54 90
REMARK SMILES IDX 56 91 53 92 49 93 50 94 51 95 52 96
REMARK H PARENT 13 5 8 16 1 23 1 24 1 25 17 30 76 49 44 60
REMARK Flexibility Score: inf
ROOT
ATOM      1  C   UNL     1      -0.852  -3.154  -2.273  1.00  0.00     0.117 C 
ENDROOT
BRANCH   1   2
ATOM      2  N   UNL     1      -2.169  -3.593  -1.848  1.00  0.00    -0.356 N 
ATOM      3  C   UNL     1      -3.239  -2.884  -1.399  1.00  0.00     0.222 C 
ATOM      4  O   UNL     1      -4.206  -3.521  -0.968  1.00  0.00    -0.275 OA
ATOM      5  H   UNL     1      -2.312  -4.566  -1.893  1.00  0.00     0.163 HD
BRANCH   3   6
ATOM      6  C   UNL     1      -3.305  -1.364  -1.454  1.00  0.00     0.128 C 
BRANCH   6   7
ATOM      7  C   UNL     1      -2.724  -0.570  -0.233  1.00  0.00     0.049 C 
ATOM      8  C   UNL     1      -3.498   0.773  -0.086  1.00  0.00     0.029 C 
ATOM      9  C   UNL     1      -1.258  -0.215  -0.481  1.00  0.00     0.029 C 
ATOM     10  C   UNL     1      -3.227   1.782  -1.210  1.00  0.00     0.002 C 
ATOM     11  C   UNL     1      -0.991   0.721  -1.654  1.00  0.00     0.002 C 
ATOM     12  C   UNL     1      -1.739   2.027  -1.443  1.00  0.00     0.000 C 
BRANCH   7  13
ATOM     13  N   UNL     1      -2.946  -1.377   1.002  1.00  0.00    -0.350 N 
ATOM     14  C   UNL     1      -2.537  -1.420   2.293  1.00  0.00     0.227 C 
ATOM     15  O   UNL     1      -3.213  -2.174   3.013  1.00  0.00    -0.274 OA
ATOM     16  H   UNL     1      -3.588  -2.102   0.825  1.00  0.00     0.164 HD
BRANCH  14  17
ATOM     17  C   UNL     1      -1.343  -0.701   2.939  1.00  0.00     0.107 C 
ATOM     18  C   UNL     1       0.910   0.123   2.385  1.00  0.00     0.205 C 
ATOM     19  C   UNL     1      -0.076   1.234   2.568  1.00  0.00     0.033 C 
ATOM     20  C   UNL     1       0.045  -1.149   2.465  1.00  0.00     0.087 C 
ATOM     21  C   UNL     1      -1.305   0.789   2.859  1.00  0.00    -0.012 C 
BRANCH  18  22
ATOM     22  N   UNL     1       1.595   0.227   1.104  1.00  0.00    -0.352 N 
ATOM     23  H   UNL     1       2.156   1.079   1.087  1.00  0.00     0.345 HD
ATOM     24  H   UNL     1       0.907   0.258   0.352  1.00  0.00     0.345 HD
ATOM     25  H   UNL     1       2.203  -0.583   0.977  1.00  0.00     0.345 HD
ENDBRANCH  18  22
ENDBRANCH  14  17
ENDBRANCH   7  13
ENDBRANCH   6   7
ENDBRANCH   3   6
ENDBRANCH   1   2
BRANCH   1  26
ATOM     26  C   UNL     1       0.161  -3.287  -1.136  1.00  0.00     0.042 C 
BRANCH  26  27
ATOM     27  C   UNL     1       0.865  -4.631  -1.051  1.00  0.00     0.118 C 
BRANCH  27  28
ATOM     28  N   UNL     1       1.931  -4.748  -2.031  1.00  0.00    -0.352 N 
ATOM     29  C   UNL     1       3.291  -4.873  -1.879  1.00  0.00     0.251 C 
ATOM     30  H   UNL     1       1.625  -4.737  -2.967  1.00  0.00     0.163 HD
ATOM     31  O   UNL     1       3.997  -4.722  -2.875  1.00  0.00    -0.269 OA
BRANCH  29  32
ATOM     32  C   UNL     1       3.927  -5.160  -0.563  1.00  0.00     0.039 A 
ATOM     33  C   UNL     1       5.225  -4.684  -0.336  1.00  0.00     0.014 A 
ATOM     34  C   UNL     1       3.316  -5.943   0.419  1.00  0.00     0.014 A 
ATOM     35  C   UNL     1       5.881  -4.958   0.870  1.00  0.00     0.010 A 
ATOM     36  C   UNL     1       3.930  -6.132   1.660  1.00  0.00     0.010 A 
ATOM     37  C   UNL     1       5.230  -5.664   1.894  1.00  0.00    -0.014 A 
BRANCH  37  38
ATOM     38  C   UNL     1       5.913  -5.952   3.187  1.00  0.00     0.031 A 
ATOM     39  C   UNL     1       6.171  -7.379   3.609  1.00  0.00     0.074 A 
ATOM     40  C   UNL     1       6.271  -4.938   4.000  1.00  0.00     0.049 A 
ATOM     41  N   UNL     1       6.716  -7.833   4.710  1.00  0.00    -0.248 NA
ATOM     42  C   UNL     1       5.729  -8.433   2.684  1.00  0.00     0.031 C 
ATOM     43  C   UNL     1       6.042  -3.517   3.727  1.00  0.00     0.029 A 
ATOM     44  N   UNL     1       6.902  -4.940   5.220  1.00  0.00    -0.354 N 
ATOM     45  C   UNL     1       6.663  -9.221   4.618  1.00  0.00     0.074 A 
ATOM     46  C   UNL     1       5.978  -9.531   3.382  1.00  0.00     0.031 C 
ATOM     47  C   UNL     1       6.555  -2.787   4.731  1.00  0.00     0.029 A 
ATOM     48  C   UNL     1       7.109  -3.683   5.740  1.00  0.00     0.049 A 
ATOM     49  H   UNL     1       7.180  -5.765   5.679  1.00  0.00     0.167 HD
ATOM     50  C   UNL     1       7.161 -10.152   5.471  1.00  0.00     0.034 A 
ATOM     51  C   UNL     1       7.676  -3.295   6.900  1.00  0.00     0.034 A 
ATOM     52  C   UNL     1       7.866  -9.829   6.688  1.00  0.00     0.049 A 
ATOM     53  C   UNL     1       8.217  -4.348   7.835  1.00  0.00     0.074 A 
ATOM     54  C   UNL     1       8.470 -10.690   7.589  1.00  0.00     0.029 A 
ATOM     55  N   UNL     1       8.056  -8.545   7.181  1.00  0.00    -0.354 N 
ATOM     56  N   UNL     1       8.213  -5.655   7.700  1.00  0.00    -0.248 NA
ATOM     57  C   UNL     1       8.852  -3.872   9.070  1.00  0.00     0.031 C 
ATOM     58  C   UNL     1       8.964  -9.932   8.657  1.00  0.00     0.029 A 
ATOM     59  C   UNL     1       8.739  -8.592   8.387  1.00  0.00     0.049 A 
ATOM     60  H   UNL     1       7.751  -7.720   6.738  1.00  0.00     0.167 HD
ATOM     61  C   UNL     1       8.874  -6.152   8.820  1.00  0.00     0.074 A 
ATOM     62  C   UNL     1       9.279  -5.005   9.606  1.00  0.00     0.031 C 
ATOM     63  C   UNL     1       9.127  -7.441   9.167  1.00  0.00     0.034 A 
BRANCH  50  64
ATOM     64  C   UNL     1       6.936 -11.607   5.126  1.00  0.00     0.023 A 
ATOM     65  C   UNL     1       7.470 -12.185   3.960  1.00  0.00     0.031 A 
ATOM     66  C   UNL     1       6.159 -12.426   5.965  1.00  0.00     0.131 A 
ATOM     67  C   UNL     1       7.156 -13.512   3.626  1.00  0.00     0.055 A 
ATOM     68  C   UNL     1       5.920 -13.770   5.670  1.00  0.00     0.041 A 
ATOM     69  F   UNL     1       5.606 -11.929   7.083  1.00  0.00    -0.206 F 
ATOM     70  C   UNL     1       6.406 -14.316   4.486  1.00  0.00     0.022 A 
BRANCH  67  71
ATOM     71  S   UNL     1       7.621 -14.125   1.983  1.00  0.00     0.124 S 
ATOM     72  O   UNL     1       6.922 -13.185   1.109  1.00  0.00    -0.237 OA
ATOM     73  O   UNL     1       9.074 -14.017   2.006  1.00  0.00    -0.237 OA
ATOM     74  O   UNL     1       7.096 -15.489   1.965  1.00  0.00    -0.744 OA
ENDBRANCH  67  71
ENDBRANCH  50  64
BRANCH  51  75
ATOM     75  C   UNL     1       7.766  -1.848   7.255  1.00  0.00     0.023 A 
ATOM     76  C   UNL     1       9.012  -1.215   7.398  1.00  0.00     0.031 A 
ATOM     77  C   UNL     1       6.610  -1.089   7.508  1.00  0.00     0.131 A 
ATOM     78  C   UNL     1       9.074   0.119   7.831  1.00  0.00     0.055 A 
ATOM     79  C   UNL     1       6.676   0.253   7.886  1.00  0.00     0.041 A 
ATOM     80  F   UNL     1       5.393  -1.642   7.379  1.00  0.00    -0.206 F 
ATOM     81  C   UNL     1       7.915   0.861   8.064  1.00  0.00     0.022 A 
BRANCH  78  82
ATOM     82  S   UNL     1      10.701   0.845   8.176  1.00  0.00     0.124 S 
ATOM     83  O   UNL     1      11.234  -0.079   9.171  1.00  0.00    -0.237 OA
ATOM     84  O   UNL     1      11.332   0.807   6.861  1.00  0.00    -0.237 OA
ATOM     85  O   UNL     1      10.378   2.181   8.672  1.00  0.00    -0.744 OA
ENDBRANCH  78  82
ENDBRANCH  51  75
BRANCH  63  86
ATOM     86  C   UNL     1       9.919  -7.665  10.434  1.00  0.00     0.023 A 
ATOM     87  C   UNL     1       9.407  -7.323  11.697  1.00  0.00     0.031 A 
ATOM     88  C   UNL     1      11.216  -8.206  10.370  1.00  0.00     0.131 A 
ATOM     89  C   UNL     1      10.211  -7.463  12.839  1.00  0.00     0.055 A 
ATOM     90  C   UNL     1      11.987  -8.404  11.517  1.00  0.00     0.041 A 
ATOM     91  F   UNL     1      11.757  -8.548   9.190  1.00  0.00    -0.206 F 
ATOM     92  C   UNL     1      11.491  -8.017  12.758  1.00  0.00     0.022 A 
BRANCH  89  93
ATOM     93  S   UNL     1       9.602  -6.809  14.418  1.00  0.00     0.124 S 
ATOM     94  O   UNL     1       9.363  -5.407  14.093  1.00  0.00    -0.237 OA
ATOM     95  O   UNL     1       8.413  -7.621  14.653  1.00  0.00    -0.237 OA
ATOM     96  O   UNL     1      10.710  -7.052  15.340  1.00  0.00    -0.744 OA
ENDBRANCH  89  93
ENDBRANCH  63  86
ENDBRANCH  37  38
ENDBRANCH  29  32
ENDBRANCH  27  28
ENDBRANCH  26  27
ENDBRANCH   1  26
TORSDOF 17
