REMARK SMILES COCC1CCN(C(=O)NC[C@H]2CC[C@H](C(=O)NCCCNC(=O)c3ccc(-c4c5nc(c(-c6cc(S(=O)(=O)[O-])ccc6F)c6ccc([nH]6)c(-c6cc(S(=O)(=O)[O-])ccc6F)c6nc(c(-c7cc(S(=O)(=O)[O-])ccc7F)c7ccc4[nH]7)C=C6)C=C5)cc3)O2)CC1
REMARK SMILES IDX 19 1 18 2 16 3 17 4 15 6 12 7 13 8 88 9 14 10 11 11 10 12
REMARK SMILES IDX 4 13 5 14 90 15 6 16 89 17 7 18 8 19 9 20 3 22 2 23 1 24
REMARK SMILES IDX 20 25 21 26 22 27 23 28 24 30 25 31 26 32 87 33 27 34 86 35
REMARK SMILES IDX 28 36 29 37 30 38 80 39 31 40 85 41 79 42 81 43 32 44 84 45
REMARK SMILES IDX 78 46 77 47 33 49 65 50 45 51 64 52 46 53 49 54 63 55 82 56
REMARK SMILES IDX 47 57 48 58 62 60 83 61 50 62 34 63 35 64 43 65 36 66 42 67
REMARK SMILES IDX 44 68 41 69 37 70 38 71 39 72 40 73 66 74 67 75 75 76 68 77
REMARK SMILES IDX 74 78 76 79 73 80 69 81 70 82 71 83 72 84 51 85 52 86 60 87
REMARK SMILES IDX 53 88 59 89 61 90 58 91 54 92 55 93 56 94 57 95
REMARK H PARENT 18 5 10 21 22 29 81 48 49 59
REMARK Flexibility Score: inf
ROOT
ATOM      1  C   UNL     1      -2.853   5.851  -7.380  1.00  0.00     0.117 C 
ENDROOT
BRANCH   1   2
ATOM      2  N   UNL     1      -2.760   5.836  -8.824  1.00  0.00    -0.354 N 
ATOM      3  C   UNL     1      -1.669   5.732  -9.634  1.00  0.00     0.249 C 
ATOM      4  O   UNL     1      -1.870   5.705 -10.853  1.00  0.00    -0.272 OA
ATOM      5  H   UNL     1      -3.621   5.913  -9.296  1.00  0.00     0.163 HD
BRANCH   3   6
ATOM      6  C   UNL     1      -0.228   5.720  -9.076  1.00  0.00     0.207 C 
ATOM      7  C   UNL     1       0.629   5.570  -6.890  1.00  0.00     0.138 C 
ATOM      8  C   UNL     1       0.456   7.046  -7.207  1.00  0.00     0.037 C 
ATOM      9  O   UNL     1       0.024   4.843  -7.979  1.00  0.00    -0.363 OA
ATOM     10  C   UNL     1       0.248   7.109  -8.696  1.00  0.00     0.045 C 
BRANCH   7  11
ATOM     11  C   UNL     1       2.056   5.047  -6.665  1.00  0.00     0.149 C 
BRANCH  11  12
ATOM     12  N   UNL     1       3.028   5.610  -7.573  1.00  0.00    -0.335 N 
ATOM     13  C   UNL     1       5.461   8.025  -4.015  1.00  0.00     0.018 C 
ATOM     14  C   UNL     1       6.145   8.046  -5.400  1.00  0.00     0.027 C 
ATOM     15  C   UNL     1       4.152   7.220  -4.061  1.00  0.00     0.027 C 
ATOM     16  C   UNL     1       5.175   8.407  -6.526  1.00  0.00     0.121 C 
ATOM     17  C   UNL     1       3.278   7.612  -5.246  1.00  0.00     0.121 C 
ATOM     18  N   UNL     1       4.036   7.488  -6.491  1.00  0.00    -0.325 N 
ATOM     19  C   UNL     1       3.909   6.622  -7.540  1.00  0.00     0.317 C 
ATOM     20  O   UNL     1       4.619   6.704  -8.548  1.00  0.00    -0.249 OA
ATOM     21  H   UNL     1       3.050   5.131  -8.432  1.00  0.00     0.165 HD
BRANCH  13  22
ATOM     22  C   UNL     1       5.228   9.450  -3.480  1.00  0.00     0.163 C 
BRANCH  22  23
ATOM     23  O   UNL     1       6.478  10.077  -3.191  1.00  0.00    -0.384 OA
ATOM     24  C   UNL     1       6.922   9.822  -1.864  1.00  0.00     0.194 C 
ENDBRANCH  22  23
ENDBRANCH  13  22
ENDBRANCH  11  12
ENDBRANCH   7  11
ENDBRANCH   3   6
ENDBRANCH   1   2
BRANCH   1  25
ATOM     25  C   UNL     1      -3.077   7.255  -6.830  1.00  0.00     0.042 C 
BRANCH  25  26
ATOM     26  C   UNL     1      -4.531   7.698  -6.885  1.00  0.00     0.118 C 
BRANCH  26  27
ATOM     27  N   UNL     1      -5.370   6.901  -6.002  1.00  0.00    -0.352 N 
ATOM     28  C   UNL     1      -6.165   7.282  -4.951  1.00  0.00     0.251 C 
ATOM     29  H   UNL     1      -5.366   5.934  -6.188  1.00  0.00     0.163 HD
ATOM     30  O   UNL     1      -6.587   6.421  -4.184  1.00  0.00    -0.269 OA
BRANCH  28  31
ATOM     31  C   UNL     1      -6.496   8.707  -4.733  1.00  0.00     0.039 A 
ATOM     32  C   UNL     1      -6.599   9.180  -3.421  1.00  0.00     0.014 A 
ATOM     33  C   UNL     1      -6.742   9.569  -5.805  1.00  0.00     0.014 A 
ATOM     34  C   UNL     1      -6.894  10.525  -3.190  1.00  0.00     0.010 A 
ATOM     35  C   UNL     1      -6.947  10.926  -5.576  1.00  0.00     0.010 A 
ATOM     36  C   UNL     1      -7.036  11.416  -4.266  1.00  0.00    -0.014 A 
BRANCH  36  37
ATOM     37  C   UNL     1      -7.288  12.862  -4.038  1.00  0.00     0.031 A 
ATOM     38  C   UNL     1      -8.567  13.490  -4.524  1.00  0.00     0.074 A 
ATOM     39  C   UNL     1      -6.340  13.614  -3.445  1.00  0.00     0.049 A 
ATOM     40  N   UNL     1      -8.942  14.742  -4.480  1.00  0.00    -0.248 NA
ATOM     41  C   UNL     1      -9.536  12.596  -5.175  1.00  0.00     0.031 C 
ATOM     42  C   UNL     1      -5.044  13.120  -2.974  1.00  0.00     0.029 A 
ATOM     43  N   UNL     1      -6.314  14.951  -3.143  1.00  0.00    -0.354 N 
ATOM     44  C   UNL     1     -10.184  14.789  -5.106  1.00  0.00     0.074 A 
ATOM     45  C   UNL     1     -10.463  13.450  -5.580  1.00  0.00     0.031 C 
ATOM     46  C   UNL     1      -4.364  14.133  -2.416  1.00  0.00     0.029 A 
ATOM     47  C   UNL     1      -5.149  15.357  -2.532  1.00  0.00     0.049 A 
ATOM     48  H   UNL     1      -7.058  15.563  -3.343  1.00  0.00     0.167 HD
ATOM     49  C   UNL     1     -11.022  15.845  -5.250  1.00  0.00     0.034 A 
ATOM     50  C   UNL     1      -4.755  16.578  -2.124  1.00  0.00     0.034 A 
ATOM     51  C   UNL     1     -10.727  17.170  -4.760  1.00  0.00     0.049 A 
ATOM     52  C   UNL     1      -5.695  17.742  -2.313  1.00  0.00     0.074 A 
ATOM     53  C   UNL     1     -11.522  18.302  -4.801  1.00  0.00     0.029 A 
ATOM     54  N   UNL     1      -9.537  17.545  -4.145  1.00  0.00    -0.354 N 
ATOM     55  N   UNL     1      -6.889  17.758  -2.859  1.00  0.00    -0.248 NA
ATOM     56  C   UNL     1      -5.239  19.046  -1.818  1.00  0.00     0.031 C 
ATOM     57  C   UNL     1     -10.789  19.373  -4.278  1.00  0.00     0.029 A 
ATOM     58  C   UNL     1      -9.566  18.895  -3.833  1.00  0.00     0.049 A 
ATOM     59  H   UNL     1      -8.784  16.939  -3.959  1.00  0.00     0.167 HD
ATOM     60  C   UNL     1      -7.339  19.071  -2.745  1.00  0.00     0.074 A 
ATOM     61  C   UNL     1      -6.295  19.808  -2.062  1.00  0.00     0.031 C 
ATOM     62  C   UNL     1      -8.509  19.618  -3.164  1.00  0.00     0.034 A 
BRANCH  49  63
ATOM     63  C   UNL     1     -12.320  15.609  -5.987  1.00  0.00     0.023 A 
ATOM     64  C   UNL     1     -13.288  14.708  -5.510  1.00  0.00     0.031 A 
ATOM     65  C   UNL     1     -12.585  16.274  -7.197  1.00  0.00     0.131 A 
ATOM     66  C   UNL     1     -14.433  14.436  -6.274  1.00  0.00     0.055 A 
ATOM     67  C   UNL     1     -13.767  16.064  -7.911  1.00  0.00     0.041 A 
ATOM     68  F   UNL     1     -11.691  17.131  -7.717  1.00  0.00    -0.206 F 
ATOM     69  C   UNL     1     -14.692  15.128  -7.459  1.00  0.00     0.022 A 
BRANCH  66  70
ATOM     70  S   UNL     1     -15.502  13.059  -5.774  1.00  0.00     0.124 S 
ATOM     71  O   UNL     1     -14.567  11.935  -5.803  1.00  0.00    -0.237 OA
ATOM     72  O   UNL     1     -15.957  13.476  -4.453  1.00  0.00    -0.237 OA
ATOM     73  O   UNL     1     -16.532  13.030  -6.809  1.00  0.00    -0.744 OA
ENDBRANCH  66  70
ENDBRANCH  49  63
BRANCH  50  74
ATOM     74  C   UNL     1      -3.412  16.772  -1.504  1.00  0.00     0.023 A 
ATOM     75  C   UNL     1      -3.285  17.193  -0.171  1.00  0.00     0.031 A 
ATOM     76  C   UNL     1      -2.235  16.574  -2.247  1.00  0.00     0.131 A 
ATOM     77  C   UNL     1      -2.013  17.450   0.364  1.00  0.00     0.055 A 
ATOM     78  C   UNL     1      -0.969  16.778  -1.694  1.00  0.00     0.041 A 
ATOM     79  F   UNL     1      -2.298  16.163  -3.524  1.00  0.00    -0.206 F 
ATOM     80  C   UNL     1      -0.854  17.232  -0.385  1.00  0.00     0.022 A 
BRANCH  77  81
ATOM     81  S   UNL     1      -1.899  18.157   2.030  1.00  0.00     0.124 S 
ATOM     82  O   UNL     1      -2.680  19.380   1.887  1.00  0.00    -0.237 OA
ATOM     83  O   UNL     1      -2.495  17.105   2.846  1.00  0.00    -0.237 OA
ATOM     84  O   UNL     1      -0.463  18.351   2.219  1.00  0.00    -0.744 OA
ENDBRANCH  77  81
ENDBRANCH  50  74
BRANCH  62  85
ATOM     85  C   UNL     1      -8.730  21.078  -2.850  1.00  0.00     0.023 A 
ATOM     86  C   UNL     1      -7.940  22.087  -3.427  1.00  0.00     0.031 A 
ATOM     87  C   UNL     1      -9.736  21.462  -1.946  1.00  0.00     0.131 A 
ATOM     88  C   UNL     1      -8.126  23.424  -3.045  1.00  0.00     0.055 A 
ATOM     89  C   UNL     1      -9.961  22.801  -1.621  1.00  0.00     0.041 A 
ATOM     90  F   UNL     1     -10.520  20.541  -1.362  1.00  0.00    -0.206 F 
ATOM     91  C   UNL     1      -9.143  23.789  -2.160  1.00  0.00     0.022 A 
BRANCH  88  92
ATOM     92  S   UNL     1      -6.949  24.670  -3.640  1.00  0.00     0.124 S 
ATOM     93  O   UNL     1      -5.679  24.148  -3.146  1.00  0.00    -0.237 OA
ATOM     94  O   UNL     1      -7.142  24.616  -5.085  1.00  0.00    -0.237 OA
ATOM     95  O   UNL     1      -7.403  25.904  -3.000  1.00  0.00    -0.744 OA
ENDBRANCH  88  92
ENDBRANCH  62  85
ENDBRANCH  36  37
ENDBRANCH  28  31
ENDBRANCH  26  27
ENDBRANCH  25  26
ENDBRANCH   1  25
TORSDOF 17
