REMARK SMILES O=C(CC[NH2+]C[C@H](O)Cn1c2ccccc2c2ccccc21)NCCCNC(=O)c1ccc(-c2c3nc(c(-c4cc(S(=O)(=O)[O-])ccc4F)c4ccc([nH]4)c(-c4cc(S(=O)(=O)[O-])ccc4F)c4nc(c(-c5cc(S(=O)(=O)[O-])ccc5F)c5ccc2[nH]5)C=C4)C=C3)cc1
REMARK SMILES IDX 1 1 2 2 23 3 3 5 4 6 5 7 6 10 7 11 9 12 10 13 11 14 22 15
REMARK SMILES IDX 12 16 16 17 17 18 21 19 13 20 15 21 18 22 20 23 14 24 19 25
REMARK SMILES IDX 8 26 24 28 25 29 26 30 27 31 28 32 29 34 30 35 31 36 92 37
REMARK SMILES IDX 32 38 91 39 33 40 34 41 35 42 85 43 36 44 90 45 84 46 86 47
REMARK SMILES IDX 37 48 89 49 83 50 82 51 38 53 70 54 50 55 69 56 51 57 54 58
REMARK SMILES IDX 68 59 87 60 52 61 53 62 67 64 88 65 55 66 39 67 40 68 48 69
REMARK SMILES IDX 41 70 47 71 49 72 46 73 42 74 43 75 44 76 45 77 71 78 72 79
REMARK SMILES IDX 80 80 73 81 79 82 81 83 78 84 74 85 75 86 76 87 77 88 56 89
REMARK SMILES IDX 57 90 65 91 58 92 64 93 66 94 63 95 59 96 60 97 61 98 62 99
REMARK H PARENT 23 4 5 8 5 9 8 27 27 33 86 52 54 63
REMARK Flexibility Score: inf
ROOT
ATOM      1  O   UNL     1       2.293   4.857   6.459  1.00  0.00    -0.275 OA
ATOM      2  C   UNL     1       2.181   3.644   6.397  1.00  0.00     0.225 C 
ATOM      3  N   UNL     1       2.827   2.753   7.228  1.00  0.00    -0.356 N 
ATOM      4  H   UNL     1       2.607   1.797   7.144  1.00  0.00     0.163 HD
ENDROOT
BRANCH   2   5
ATOM      5  C   UNL     1       1.363   2.957   5.321  1.00  0.00     0.161 C 
BRANCH   5   6
ATOM      6  C   UNL     1       2.264   2.417   4.208  1.00  0.00     0.270 C 
BRANCH   6   7
ATOM      7  N   UNL     1       3.102   1.301   4.673  1.00  0.00    -0.344 N 
ATOM      8  H   UNL     1       2.492   0.548   4.994  1.00  0.00     0.346 HD
ATOM      9  H   UNL     1       3.695   1.655   5.423  1.00  0.00     0.346 HD
BRANCH   7  10
ATOM     10  C   UNL     1       3.985   0.773   3.624  1.00  0.00     0.294 C 
BRANCH  10  11
ATOM     11  C   UNL     1       5.010   1.753   3.010  1.00  0.00     0.189 C 
BRANCH  11  12
ATOM     12  C   UNL     1       5.960   2.356   4.062  1.00  0.00     0.160 C 
BRANCH  12  13
ATOM     13  N   UNL     1       6.622   3.559   3.562  1.00  0.00    -0.338 N 
ATOM     14  C   UNL     1       7.747   3.550   2.761  1.00  0.00     0.049 A 
ATOM     15  C   UNL     1       6.184   4.854   3.775  1.00  0.00     0.049 A 
ATOM     16  C   UNL     1       8.568   2.493   2.334  1.00  0.00     0.027 A 
ATOM     17  C   UNL     1       7.978   4.869   2.369  1.00  0.00     0.007 A 
ATOM     18  C   UNL     1       7.009   5.692   3.022  1.00  0.00     0.007 A 
ATOM     19  C   UNL     1       5.137   5.367   4.558  1.00  0.00     0.027 A 
ATOM     20  C   UNL     1       9.614   2.782   1.456  1.00  0.00     0.002 A 
ATOM     21  C   UNL     1       9.046   5.136   1.487  1.00  0.00     0.011 A 
ATOM     22  C   UNL     1       6.769   7.085   3.046  1.00  0.00     0.011 A 
ATOM     23  C   UNL     1       4.922   6.748   4.569  1.00  0.00     0.002 A 
ATOM     24  C   UNL     1       9.848   4.085   1.031  1.00  0.00     0.001 A 
ATOM     25  C   UNL     1       5.726   7.600   3.821  1.00  0.00     0.001 A 
ENDBRANCH  12  13
ENDBRANCH  11  12
BRANCH  11  26
ATOM     26  O   UNL     1       5.747   1.013   2.024  1.00  0.00    -0.385 OA
ATOM     27  H   UNL     1       6.199   0.268   2.450  1.00  0.00     0.211 HD
ENDBRANCH  11  26
ENDBRANCH  10  11
ENDBRANCH   7  10
ENDBRANCH   6   7
ENDBRANCH   5   6
ENDBRANCH   2   5
BRANCH   3  28
ATOM     28  C   UNL     1       3.813   3.144   8.220  1.00  0.00     0.117 C 
BRANCH  28  29
ATOM     29  C   UNL     1       3.584   2.461   9.567  1.00  0.00     0.042 C 
BRANCH  29  30
ATOM     30  C   UNL     1       3.656   0.932   9.525  1.00  0.00     0.118 C 
BRANCH  30  31
ATOM     31  N   UNL     1       4.946   0.399   9.134  1.00  0.00    -0.352 N 
ATOM     32  C   UNL     1       6.025  -0.088   9.823  1.00  0.00     0.251 C 
ATOM     33  H   UNL     1       5.075   0.385   8.158  1.00  0.00     0.163 HD
ATOM     34  O   UNL     1       6.838  -0.728   9.149  1.00  0.00    -0.269 OA
BRANCH  32  35
ATOM     35  C   UNL     1       6.321   0.170  11.260  1.00  0.00     0.039 A 
ATOM     36  C   UNL     1       5.516   0.900  12.129  1.00  0.00     0.014 A 
ATOM     37  C   UNL     1       7.574  -0.281  11.727  1.00  0.00     0.014 A 
ATOM     38  C   UNL     1       6.002   1.278  13.377  1.00  0.00     0.010 A 
ATOM     39  C   UNL     1       8.058   0.081  12.982  1.00  0.00     0.010 A 
ATOM     40  C   UNL     1       7.293   0.912  13.787  1.00  0.00    -0.014 A 
BRANCH  40  41
ATOM     41  C   UNL     1       7.717   1.325  15.126  1.00  0.00     0.031 A 
ATOM     42  C   UNL     1       6.803   0.838  16.191  1.00  0.00     0.074 A 
ATOM     43  C   UNL     1       8.828   2.034  15.425  1.00  0.00     0.049 A 
ATOM     44  N   UNL     1       5.924   1.528  16.839  1.00  0.00    -0.248 NA
ATOM     45  C   UNL     1       6.711  -0.612  16.418  1.00  0.00     0.031 C 
ATOM     46  C   UNL     1       9.966   2.323  14.548  1.00  0.00     0.029 A 
ATOM     47  N   UNL     1       9.216   2.592  16.614  1.00  0.00    -0.354 N 
ATOM     48  C   UNL     1       5.353   0.643  17.750  1.00  0.00     0.074 A 
ATOM     49  C   UNL     1       5.713  -0.676  17.302  1.00  0.00     0.031 C 
ATOM     50  C   UNL     1      11.004   2.779  15.290  1.00  0.00     0.029 A 
ATOM     51  C   UNL     1      10.549   2.989  16.654  1.00  0.00     0.049 A 
ATOM     52  H   UNL     1       8.603   2.703  17.377  1.00  0.00     0.167 HD
ATOM     53  C   UNL     1       4.895   1.091  18.953  1.00  0.00     0.034 A 
ATOM     54  C   UNL     1      11.237   3.461  17.724  1.00  0.00     0.034 A 
ATOM     55  C   UNL     1       4.796   2.525  18.961  1.00  0.00     0.049 A 
ATOM     56  C   UNL     1      10.273   3.991  18.708  1.00  0.00     0.074 A 
ATOM     57  C   UNL     1       3.901   3.478  18.535  1.00  0.00     0.029 A 
ATOM     58  N   UNL     1       5.992   3.151  19.184  1.00  0.00    -0.354 N 
ATOM     59  N   UNL     1       9.565   5.067  18.514  1.00  0.00    -0.248 NA
ATOM     60  C   UNL     1       9.846   3.142  19.816  1.00  0.00     0.031 C 
ATOM     61  C   UNL     1       4.641   4.690  18.403  1.00  0.00     0.029 A 
ATOM     62  C   UNL     1       5.957   4.462  18.797  1.00  0.00     0.049 A 
ATOM     63  H   UNL     1       6.781   2.712  19.576  1.00  0.00     0.167 HD
ATOM     64  C   UNL     1       8.376   4.790  19.152  1.00  0.00     0.074 A 
ATOM     65  C   UNL     1       8.668   3.707  20.082  1.00  0.00     0.031 C 
ATOM     66  C   UNL     1       7.189   5.206  18.634  1.00  0.00     0.034 A 
BRANCH  53  67
ATOM     67  C   UNL     1       5.014   0.313  20.249  1.00  0.00     0.023 A 
ATOM     68  C   UNL     1       5.758  -0.875  20.364  1.00  0.00     0.031 A 
ATOM     69  C   UNL     1       4.593   0.887  21.468  1.00  0.00     0.131 A 
ATOM     70  C   UNL     1       6.046  -1.453  21.607  1.00  0.00     0.055 A 
ATOM     71  C   UNL     1       4.937   0.347  22.716  1.00  0.00     0.041 A 
ATOM     72  F   UNL     1       3.879   2.023  21.488  1.00  0.00    -0.206 F 
ATOM     73  C   UNL     1       5.670  -0.831  22.791  1.00  0.00     0.022 A 
BRANCH  70  74
ATOM     74  S   UNL     1       6.941  -3.029  21.690  1.00  0.00     0.124 S 
ATOM     75  O   UNL     1       8.093  -2.683  22.512  1.00  0.00    -0.237 OA
ATOM     76  O   UNL     1       5.947  -3.896  22.320  1.00  0.00    -0.237 OA
ATOM     77  O   UNL     1       7.224  -3.334  20.289  1.00  0.00    -0.744 OA
ENDBRANCH  70  74
ENDBRANCH  53  67
BRANCH  54  78
ATOM     78  C   UNL     1      12.636   3.194  18.132  1.00  0.00     0.023 A 
ATOM     79  C   UNL     1      13.160   1.902  17.949  1.00  0.00     0.031 A 
ATOM     80  C   UNL     1      13.311   4.049  19.024  1.00  0.00     0.131 A 
ATOM     81  C   UNL     1      14.269   1.478  18.697  1.00  0.00     0.055 A 
ATOM     82  C   UNL     1      14.434   3.631  19.750  1.00  0.00     0.041 A 
ATOM     83  F   UNL     1      12.843   5.282  19.272  1.00  0.00    -0.206 F 
ATOM     84  C   UNL     1      14.905   2.331  19.603  1.00  0.00     0.022 A 
BRANCH  81  85
ATOM     85  S   UNL     1      14.841  -0.241  18.604  1.00  0.00     0.124 S 
ATOM     86  O   UNL     1      16.271  -0.074  18.358  1.00  0.00    -0.237 OA
ATOM     87  O   UNL     1      14.487  -0.742  19.928  1.00  0.00    -0.237 OA
ATOM     88  O   UNL     1      14.081  -0.793  17.488  1.00  0.00    -0.744 OA
ENDBRANCH  81  85
ENDBRANCH  54  78
BRANCH  66  89
ATOM     89  C   UNL     1       7.169   6.408  17.739  1.00  0.00     0.023 A 
ATOM     90  C   UNL     1       6.335   7.459  18.152  1.00  0.00     0.031 A 
ATOM     91  C   UNL     1       7.778   6.505  16.477  1.00  0.00     0.131 A 
ATOM     92  C   UNL     1       6.064   8.526  17.296  1.00  0.00     0.055 A 
ATOM     93  C   UNL     1       7.567   7.617  15.652  1.00  0.00     0.041 A 
ATOM     94  F   UNL     1       8.527   5.510  15.981  1.00  0.00    -0.206 F 
ATOM     95  C   UNL     1       6.689   8.623  16.051  1.00  0.00     0.022 A 
BRANCH  92  96
ATOM     96  S   UNL     1       4.765   9.710  17.727  1.00  0.00     0.124 S 
ATOM     97  O   UNL     1       5.514  10.954  17.870  1.00  0.00    -0.237 OA
ATOM     98  O   UNL     1       3.883   9.637  16.564  1.00  0.00    -0.237 OA
ATOM     99  O   UNL     1       4.196   9.178  18.962  1.00  0.00    -0.744 OA
ENDBRANCH  92  96
ENDBRANCH  66  89
ENDBRANCH  40  41
ENDBRANCH  32  35
ENDBRANCH  30  31
ENDBRANCH  29  30
ENDBRANCH  28  29
ENDBRANCH   3  28
TORSDOF 20
