REMARK SMILES NS(=O)(=O)c1ccc(-n2nc(C(F)F)cc2-c2ccc(C(=O)NCCCNC(=O)c3ccc(-c4c5nc(c(-c6cc(S(=O)(=O)[O-])ccc6F)c6ccc([nH]6)c(-c6cc(S(=O)(=O)[O-])ccc6F)c6nc(c(-c7cc(S(=O)(=O)[O-])ccc7F)c7ccc4[nH]7)C=C6)C=C5)cc3)cc2)cc1
REMARK SMILES IDX 24 1 23 2 21 3 22 4 20 6 17 7 18 8 94 9 19 10 93 11 16 12
REMARK SMILES IDX 9 13 10 14 11 15 15 16 8 17 5 18 6 19 96 20 7 21 95 22 2 23
REMARK SMILES IDX 3 24 4 25 1 26 12 29 13 30 14 31 25 32 26 33 27 34 28 35
REMARK SMILES IDX 29 37 30 38 31 39 92 40 32 41 91 42 33 43 34 44 35 45 85 46
REMARK SMILES IDX 36 47 90 48 84 49 86 50 37 51 89 52 83 53 82 54 38 56 70 57
REMARK SMILES IDX 50 58 69 59 51 60 54 61 68 62 87 63 52 64 53 65 67 67 88 68
REMARK SMILES IDX 55 69 39 70 40 71 48 72 41 73 47 74 49 75 46 76 42 77 43 78
REMARK SMILES IDX 44 79 45 80 71 81 72 82 80 83 73 84 79 85 81 86 78 87 74 88
REMARK SMILES IDX 75 89 76 90 77 91 56 92 57 93 65 94 58 95 64 96 66 97 63 98
REMARK SMILES IDX 59 99 60 100 61 101 62 102
REMARK H PARENT 23 5 1 27 1 28 27 36 86 55 54 66
REMARK Flexibility Score: inf
ROOT
ATOM      1  C   UNL     1       6.098  -6.298   4.265  1.00  0.00     0.118 C 
ENDROOT
BRANCH   1   2
ATOM      2  N   UNL     1       6.471  -5.245   3.333  1.00  0.00    -0.352 N 
ATOM      3  C   UNL     1       6.184  -3.902   3.315  1.00  0.00     0.251 C 
ATOM      4  O   UNL     1       6.710  -3.201   2.452  1.00  0.00    -0.269 OA
ATOM      5  H   UNL     1       7.029  -5.550   2.582  1.00  0.00     0.163 HD
BRANCH   3   6
ATOM      6  C   UNL     1       5.300  -3.254   4.323  1.00  0.00     0.039 A 
ATOM      7  C   UNL     1       3.724  -1.933   6.237  1.00  0.00     0.000 A 
ATOM      8  C   UNL     1       4.728  -1.238   5.553  1.00  0.00     0.011 A 
ATOM      9  C   UNL     1       3.497  -3.275   5.950  1.00  0.00     0.011 A 
ATOM     10  C   UNL     1       5.515  -1.898   4.605  1.00  0.00     0.014 A 
ATOM     11  C   UNL     1       4.250  -3.910   4.969  1.00  0.00     0.014 A 
BRANCH   7  12
ATOM     12  C   UNL     1       2.865  -1.265   7.197  1.00  0.00     0.075 A 
ATOM     13  N   UNL     1       1.922  -0.299   6.878  1.00  0.00    -0.233 N 
ATOM     14  N   UNL     1       1.431   0.304   7.990  1.00  0.00    -0.166 NA
ATOM     15  C   UNL     1       1.885  -0.444   9.014  1.00  0.00     0.129 A 
ATOM     16  C   UNL     1       2.814  -1.410   8.565  1.00  0.00     0.060 A 
BRANCH  13  17
ATOM     17  C   UNL     1       1.469   0.063   5.582  1.00  0.00     0.065 A 
ATOM     18  C   UNL     1       0.794   0.780   2.977  1.00  0.00     0.082 A 
ATOM     19  C   UNL     1       0.900  -0.571   3.309  1.00  0.00     0.024 A 
ATOM     20  C   UNL     1       0.988   1.773   3.946  1.00  0.00     0.024 A 
ATOM     21  C   UNL     1       1.245  -0.927   4.611  1.00  0.00     0.030 A 
ATOM     22  C   UNL     1       1.296   1.413   5.263  1.00  0.00     0.030 A 
BRANCH  18  23
ATOM     23  S   UNL     1       0.458   1.250   1.305  1.00  0.00     0.238 S 
ATOM     24  O   UNL     1       1.148   2.486   1.024  1.00  0.00    -0.207 OA
ATOM     25  O   UNL     1      -0.955   1.069   1.065  1.00  0.00    -0.207 OA
BRANCH  23  26
ATOM     26  N   UNL     1       1.248   0.078   0.397  1.00  0.00    -0.225 NA
ATOM     27  H   UNL     1       1.110   0.267  -0.596  1.00  0.00     0.137 HD
ATOM     28  H   UNL     1       0.868  -0.841   0.624  1.00  0.00     0.137 HD
ENDBRANCH  23  26
ENDBRANCH  18  23
ENDBRANCH  13  17
BRANCH  15  29
ATOM     29  C   UNL     1       1.448  -0.243  10.433  1.00  0.00     0.393 C 
ATOM     30  F   UNL     1       1.553   1.051  10.837  1.00  0.00    -0.203 F 
ATOM     31  F   UNL     1       0.149  -0.608  10.616  1.00  0.00    -0.203 F 
ENDBRANCH  15  29
ENDBRANCH   7  12
ENDBRANCH   3   6
ENDBRANCH   1   2
BRANCH   1  32
ATOM     32  C   UNL     1       4.850  -7.060   3.799  1.00  0.00     0.042 C 
BRANCH  32  33
ATOM     33  C   UNL     1       5.174  -8.190   2.841  1.00  0.00     0.118 C 
BRANCH  33  34
ATOM     34  N   UNL     1       5.837  -9.300   3.519  1.00  0.00    -0.352 N 
ATOM     35  C   UNL     1       6.457 -10.393   2.951  1.00  0.00     0.251 C 
ATOM     36  H   UNL     1       5.843  -9.263   4.503  1.00  0.00     0.163 HD
ATOM     37  O   UNL     1       6.637 -11.410   3.611  1.00  0.00    -0.269 OA
BRANCH  35  38
ATOM     38  C   UNL     1       6.866 -10.316   1.539  1.00  0.00     0.039 A 
ATOM     39  C   UNL     1       6.611 -11.373   0.663  1.00  0.00     0.014 A 
ATOM     40  C   UNL     1       7.446  -9.134   1.084  1.00  0.00     0.014 A 
ATOM     41  C   UNL     1       6.850 -11.190  -0.697  1.00  0.00     0.010 A 
ATOM     42  C   UNL     1       7.550  -8.908  -0.269  1.00  0.00     0.010 A 
ATOM     43  C   UNL     1       7.289  -9.941  -1.165  1.00  0.00    -0.014 A 
BRANCH  43  44
ATOM     44  C   UNL     1       7.362  -9.670  -2.601  1.00  0.00     0.031 A 
ATOM     45  C   UNL     1       6.129  -9.981  -3.377  1.00  0.00     0.074 A 
ATOM     46  C   UNL     1       8.375  -8.993  -3.184  1.00  0.00     0.049 A 
ATOM     47  N   UNL     1       5.972 -10.907  -4.262  1.00  0.00    -0.248 NA
ATOM     48  C   UNL     1       4.887  -9.264  -3.050  1.00  0.00     0.031 C 
ATOM     49  C   UNL     1       9.533  -8.361  -2.544  1.00  0.00     0.029 A 
ATOM     50  N   UNL     1       8.515  -8.622  -4.487  1.00  0.00    -0.354 N 
ATOM     51  C   UNL     1       4.684 -10.756  -4.770  1.00  0.00     0.074 A 
ATOM     52  C   UNL     1       4.012  -9.860  -3.865  1.00  0.00     0.031 C 
ATOM     53  C   UNL     1      10.107  -7.492  -3.403  1.00  0.00     0.029 A 
ATOM     54  C   UNL     1       9.475  -7.639  -4.702  1.00  0.00     0.049 A 
ATOM     55  H   UNL     1       7.981  -9.015  -5.214  1.00  0.00     0.167 HD
ATOM     56  C   UNL     1       4.351 -11.224  -6.007  1.00  0.00     0.034 A 
ATOM     57  C   UNL     1       9.731  -6.972  -5.857  1.00  0.00     0.034 A 
ATOM     58  C   UNL     1       5.370 -12.117  -6.513  1.00  0.00     0.049 A 
ATOM     59  C   UNL     1       9.236  -7.830  -6.962  1.00  0.00     0.074 A 
ATOM     60  C   UNL     1       5.926 -13.301  -6.067  1.00  0.00     0.029 A 
ATOM     61  N   UNL     1       6.254 -11.625  -7.448  1.00  0.00    -0.354 N 
ATOM     62  N   UNL     1       9.750  -8.997  -7.240  1.00  0.00    -0.248 NA
ATOM     63  C   UNL     1       7.875  -7.630  -7.439  1.00  0.00     0.031 C 
ATOM     64  C   UNL     1       7.318 -13.176  -6.351  1.00  0.00     0.029 A 
ATOM     65  C   UNL     1       7.516 -11.972  -7.032  1.00  0.00     0.049 A 
ATOM     66  H   UNL     1       6.024 -11.120  -8.261  1.00  0.00     0.167 HD
ATOM     67  C   UNL     1       8.662  -9.814  -7.503  1.00  0.00     0.074 A 
ATOM     68  C   UNL     1       7.548  -8.894  -7.726  1.00  0.00     0.031 C 
ATOM     69  C   UNL     1       8.699 -11.155  -7.236  1.00  0.00     0.034 A 
BRANCH  56  70
ATOM     70  C   UNL     1       3.290 -10.650  -6.919  1.00  0.00     0.023 A 
ATOM     71  C   UNL     1       3.058 -11.312  -8.143  1.00  0.00     0.031 A 
ATOM     72  C   UNL     1       2.711  -9.368  -6.797  1.00  0.00     0.131 A 
ATOM     73  C   UNL     1       2.381 -10.674  -9.197  1.00  0.00     0.055 A 
ATOM     74  C   UNL     1       1.976  -8.766  -7.823  1.00  0.00     0.041 A 
ATOM     75  F   UNL     1       2.904  -8.589  -5.727  1.00  0.00    -0.206 F 
ATOM     76  C   UNL     1       1.834  -9.404  -9.044  1.00  0.00     0.022 A 
BRANCH  73  77
ATOM     77  S   UNL     1       2.393 -11.460 -10.830  1.00  0.00     0.124 S 
ATOM     78  O   UNL     1       3.821 -11.659 -11.050  1.00  0.00    -0.237 OA
ATOM     79  O   UNL     1       1.603 -12.663 -10.591  1.00  0.00    -0.237 OA
ATOM     80  O   UNL     1       1.763 -10.461 -11.691  1.00  0.00    -0.744 OA
ENDBRANCH  73  77
ENDBRANCH  56  70
BRANCH  57  81
ATOM     81  C   UNL     1      10.124  -5.546  -6.005  1.00  0.00     0.023 A 
ATOM     82  C   UNL     1      10.728  -5.033  -7.170  1.00  0.00     0.031 A 
ATOM     83  C   UNL     1       9.685  -4.600  -5.049  1.00  0.00     0.131 A 
ATOM     84  C   UNL     1      10.870  -3.635  -7.342  1.00  0.00     0.055 A 
ATOM     85  C   UNL     1       9.835  -3.222  -5.220  1.00  0.00     0.041 A 
ATOM     86  F   UNL     1       9.015  -4.981  -3.950  1.00  0.00    -0.206 F 
ATOM     87  C   UNL     1      10.421  -2.732  -6.375  1.00  0.00     0.022 A 
BRANCH  84  88
ATOM     88  S   UNL     1      11.557  -2.961  -8.890  1.00  0.00     0.124 S 
ATOM     89  O   UNL     1      12.961  -3.342  -8.799  1.00  0.00    -0.237 OA
ATOM     90  O   UNL     1      10.763  -3.641  -9.907  1.00  0.00    -0.237 OA
ATOM     91  O   UNL     1      11.302  -1.524  -8.779  1.00  0.00    -0.744 OA
ENDBRANCH  84  88
ENDBRANCH  57  81
BRANCH  69  92
ATOM     92  C   UNL     1      10.035 -11.796  -6.908  1.00  0.00     0.023 A 
ATOM     93  C   UNL     1      10.886 -11.396  -5.852  1.00  0.00     0.031 A 
ATOM     94  C   UNL     1      10.390 -12.953  -7.625  1.00  0.00     0.131 A 
ATOM     95  C   UNL     1      12.046 -12.140  -5.558  1.00  0.00     0.055 A 
ATOM     96  C   UNL     1      11.525 -13.700  -7.316  1.00  0.00     0.041 A 
ATOM     97  F   UNL     1       9.610 -13.403  -8.621  1.00  0.00    -0.206 F 
ATOM     98  C   UNL     1      12.362 -13.293  -6.284  1.00  0.00     0.022 A 
BRANCH  95  99
ATOM     99  S   UNL     1      13.179 -11.614  -4.230  1.00  0.00     0.124 S 
ATOM    100  O   UNL     1      13.371 -10.192  -4.487  1.00  0.00    -0.237 OA
ATOM    101  O   UNL     1      12.430 -11.949  -3.022  1.00  0.00    -0.237 OA
ATOM    102  O   UNL     1      14.369 -12.438  -4.453  1.00  0.00    -0.744 OA
ENDBRANCH  95  99
ENDBRANCH  69  92
ENDBRANCH  43  44
ENDBRANCH  35  38
ENDBRANCH  33  34
ENDBRANCH  32  33
ENDBRANCH   1  32
TORSDOF 18
