REMARK SMILES O=C(NCCCNC(=O)c1ccc(-c2c3nc(c(-c4cc(S(=O)(=O)[O-])ccc4F)c4ccc([nH]4)c(-c4cc(S(=O)(=O)[O-])ccc4F)c4nc(c(-c5cc(S(=O)(=O)[O-])ccc5F)c5ccc2[nH]5)C=C4)C=C3)cc1)c1ccc(C[C@H]2SC(=O)N(c3ccccc3)C2=O)cc1
REMARK SMILES IDX 5 1 4 2 3 3 1 4 2 5 73 7 74 8 92 9 75 10 91 11 76 12 77 13
REMARK SMILES IDX 78 14 79 15 89 16 80 17 82 18 90 19 81 20 83 21 84 22 88 23
REMARK SMILES IDX 85 24 87 25 86 26 6 27 7 28 8 29 9 31 10 32 11 33 72 34
REMARK SMILES IDX 12 35 71 36 13 37 14 38 15 39 65 40 16 41 70 42 64 43 66 44
REMARK SMILES IDX 17 45 69 46 63 47 62 48 18 50 50 51 30 52 49 53 31 54 34 55
REMARK SMILES IDX 48 56 67 57 32 58 33 59 47 61 68 62 35 63 19 64 20 65 28 66
REMARK SMILES IDX 21 67 27 68 29 69 26 70 22 71 23 72 24 73 25 74 51 75 52 76
REMARK SMILES IDX 60 77 53 78 59 79 61 80 58 81 54 82 55 83 56 84 57 85 36 86
REMARK SMILES IDX 37 87 45 88 38 89 44 90 46 91 43 92 39 93 40 94 41 95 42 96
REMARK H PARENT 3 6 7 30 66 49 34 60
REMARK Flexibility Score: inf
ROOT
ATOM      1  C   UNL     1       5.222  -8.628  -3.288  1.00  0.00     0.042 C 
ENDROOT
BRANCH   1   2
ATOM      2  C   UNL     1       6.582  -8.230  -3.844  1.00  0.00     0.118 C 
BRANCH   2   3
ATOM      3  N   UNL     1       6.785  -8.692  -5.211  1.00  0.00    -0.352 N 
ATOM      4  O   UNL     1       6.923  -8.504  -7.460  1.00  0.00    -0.269 OA
ATOM      5  C   UNL     1       6.921  -7.957  -6.362  1.00  0.00     0.251 C 
ATOM      6  H   UNL     1       6.832  -9.669  -5.324  1.00  0.00     0.163 HD
BRANCH   5   7
ATOM      7  C   UNL     1       7.056  -6.490  -6.273  1.00  0.00     0.039 A 
ATOM      8  C   UNL     1       8.049  -5.923  -5.472  1.00  0.00     0.014 A 
ATOM      9  C   UNL     1       6.185  -5.678  -7.000  1.00  0.00     0.014 A 
ATOM     10  C   UNL     1       8.110  -4.540  -5.325  1.00  0.00     0.004 A 
ATOM     11  C   UNL     1       6.247  -4.290  -6.849  1.00  0.00     0.004 A 
ATOM     12  C   UNL     1       7.192  -3.711  -5.988  1.00  0.00    -0.046 A 
BRANCH  12  13
ATOM     13  C   UNL     1       7.232  -2.215  -5.775  1.00  0.00     0.060 C 
BRANCH  13  14
ATOM     14  C   UNL     1       6.455  -1.702  -4.547  1.00  0.00     0.151 C 
ATOM     15  S   UNL     1       7.134  -2.270  -2.967  1.00  0.00    -0.050 SA
ATOM     16  C   UNL     1       6.587  -0.192  -4.503  1.00  0.00     0.248 C 
ATOM     17  C   UNL     1       7.926  -0.743  -2.650  1.00  0.00     0.293 C 
ATOM     18  N   UNL     1       7.475   0.225  -3.521  1.00  0.00    -0.240 N 
ATOM     19  O   UNL     1       6.038   0.513  -5.348  1.00  0.00    -0.273 OA
ATOM     20  O   UNL     1       8.725  -0.641  -1.735  1.00  0.00    -0.261 OA
BRANCH  18  21
ATOM     21  C   UNL     1       7.917   1.579  -3.424  1.00  0.00     0.053 A 
ATOM     22  C   UNL     1       7.046   2.646  -3.685  1.00  0.00     0.027 A 
ATOM     23  C   UNL     1       9.244   1.879  -3.078  1.00  0.00     0.027 A 
ATOM     24  C   UNL     1       7.486   3.971  -3.598  1.00  0.00     0.002 A 
ATOM     25  C   UNL     1       9.692   3.202  -3.020  1.00  0.00     0.002 A 
ATOM     26  C   UNL     1       8.811   4.248  -3.276  1.00  0.00     0.000 A 
ENDBRANCH  18  21
ENDBRANCH  13  14
ENDBRANCH  12  13
ENDBRANCH   5   7
ENDBRANCH   2   3
ENDBRANCH   1   2
BRANCH   1  27
ATOM     27  C   UNL     1       5.017 -10.130  -3.151  1.00  0.00     0.118 C 
BRANCH  27  28
ATOM     28  N   UNL     1       5.959 -10.748  -2.228  1.00  0.00    -0.352 N 
ATOM     29  C   UNL     1       5.741 -11.416  -1.047  1.00  0.00     0.251 C 
ATOM     30  H   UNL     1       6.905 -10.675  -2.494  1.00  0.00     0.163 HD
ATOM     31  O   UNL     1       6.701 -11.693  -0.332  1.00  0.00    -0.269 OA
BRANCH  29  32
ATOM     32  C   UNL     1       4.368 -11.770  -0.623  1.00  0.00     0.039 A 
ATOM     33  C   UNL     1       4.021 -11.635   0.724  1.00  0.00     0.014 A 
ATOM     34  C   UNL     1       3.426 -12.244  -1.538  1.00  0.00     0.014 A 
ATOM     35  C   UNL     1       2.712 -11.901   1.134  1.00  0.00     0.010 A 
ATOM     36  C   UNL     1       2.100 -12.415  -1.147  1.00  0.00     0.010 A 
ATOM     37  C   UNL     1       1.728 -12.248   0.195  1.00  0.00    -0.014 A 
BRANCH  37  38
ATOM     38  C   UNL     1       0.309 -12.447   0.596  1.00  0.00     0.031 A 
ATOM     39  C   UNL     1      -0.355 -13.783   0.396  1.00  0.00     0.074 A 
ATOM     40  C   UNL     1      -0.399 -11.408   1.085  1.00  0.00     0.049 A 
ATOM     41  N   UNL     1      -1.598 -14.131   0.611  1.00  0.00    -0.248 NA
ATOM     42  C   UNL     1       0.486 -14.862  -0.145  1.00  0.00     0.031 C 
ATOM     43  C   UNL     1       0.121 -10.055   1.292  1.00  0.00     0.029 A 
ATOM     44  N   UNL     1      -1.708 -11.324   1.490  1.00  0.00    -0.354 N 
ATOM     45  C   UNL     1      -1.691 -15.464   0.222  1.00  0.00     0.074 A 
ATOM     46  C   UNL     1      -0.396 -15.835  -0.308  1.00  0.00     0.031 C 
ATOM     47  C   UNL     1      -0.847  -9.287   1.817  1.00  0.00     0.029 A 
ATOM     48  C   UNL     1      -2.072 -10.071   1.930  1.00  0.00     0.049 A 
ATOM     49  H   UNL     1      -2.328 -12.088   1.469  1.00  0.00     0.167 HD
ATOM     50  C   UNL     1      -2.750 -16.306   0.321  1.00  0.00     0.034 A 
ATOM     51  C   UNL     1      -3.260  -9.602   2.360  1.00  0.00     0.034 A 
ATOM     52  C   UNL     1      -4.034 -15.919   0.855  1.00  0.00     0.049 A 
ATOM     53  C   UNL     1      -4.438 -10.543   2.413  1.00  0.00     0.074 A 
ATOM     54  C   UNL     1      -5.158 -16.703   1.046  1.00  0.00     0.029 A 
ATOM     55  N   UNL     1      -4.371 -14.637   1.270  1.00  0.00    -0.354 N 
ATOM     56  N   UNL     1      -4.496 -11.814   2.087  1.00  0.00    -0.248 NA
ATOM     57  C   UNL     1      -5.707  -9.987   2.898  1.00  0.00     0.031 C 
ATOM     58  C   UNL     1      -6.196 -15.880   1.496  1.00  0.00     0.029 A 
ATOM     59  C   UNL     1      -5.697 -14.600   1.678  1.00  0.00     0.049 A 
ATOM     60  H   UNL     1      -3.758 -13.866   1.275  1.00  0.00     0.167 HD
ATOM     61  C   UNL     1      -5.801 -12.216   2.361  1.00  0.00     0.074 A 
ATOM     62  C   UNL     1      -6.488 -11.057   2.893  1.00  0.00     0.031 C 
ATOM     63  C   UNL     1      -6.378 -13.434   2.193  1.00  0.00     0.034 A 
BRANCH  50  64
ATOM     64  C   UNL     1      -2.565 -17.718  -0.188  1.00  0.00     0.023 A 
ATOM     65  C   UNL     1      -1.605 -18.584   0.367  1.00  0.00     0.031 A 
ATOM     66  C   UNL     1      -3.335 -18.197  -1.263  1.00  0.00     0.131 A 
ATOM     67  C   UNL     1      -1.381 -19.844  -0.208  1.00  0.00     0.055 A 
ATOM     68  C   UNL     1      -3.171 -19.487  -1.771  1.00  0.00     0.041 A 
ATOM     69  F   UNL     1      -4.252 -17.412  -1.850  1.00  0.00    -0.206 F 
ATOM     70  C   UNL     1      -2.176 -20.313  -1.255  1.00  0.00     0.022 A 
BRANCH  67  71
ATOM     71  S   UNL     1       0.074 -20.789   0.323  1.00  0.00     0.124 S 
ATOM     72  O   UNL     1       1.156 -19.849   0.036  1.00  0.00    -0.237 OA
ATOM     73  O   UNL     1      -0.205 -21.032   1.733  1.00  0.00    -0.237 OA
ATOM     74  O   UNL     1       0.045 -21.972  -0.534  1.00  0.00    -0.744 OA
ENDBRANCH  67  71
ENDBRANCH  50  64
BRANCH  51  75
ATOM     75  C   UNL     1      -3.409  -8.172   2.761  1.00  0.00     0.023 A 
ATOM     76  C   UNL     1      -3.746  -7.822   4.078  1.00  0.00     0.031 A 
ATOM     77  C   UNL     1      -3.257  -7.135   1.823  1.00  0.00     0.131 A 
ATOM     78  C   UNL     1      -3.968  -6.476   4.410  1.00  0.00     0.055 A 
ATOM     79  C   UNL     1      -3.419  -5.794   2.172  1.00  0.00     0.041 A 
ATOM     80  F   UNL     1      -2.934  -7.413   0.549  1.00  0.00    -0.206 F 
ATOM     81  C   UNL     1      -3.791  -5.459   3.470  1.00  0.00     0.022 A 
BRANCH  78  82
ATOM     82  S   UNL     1      -4.586  -6.081   6.069  1.00  0.00     0.124 S 
ATOM     83  O   UNL     1      -5.828  -6.844   6.112  1.00  0.00    -0.237 OA
ATOM     84  O   UNL     1      -3.503  -6.566   6.918  1.00  0.00    -0.237 OA
ATOM     85  O   UNL     1      -4.745  -4.629   6.035  1.00  0.00    -0.744 OA
ENDBRANCH  78  82
ENDBRANCH  51  75
BRANCH  63  86
ATOM     86  C   UNL     1      -7.816 -13.582   2.632  1.00  0.00     0.023 A 
ATOM     87  C   UNL     1      -8.861 -12.884   2.002  1.00  0.00     0.031 A 
ATOM     88  C   UNL     1      -8.143 -14.429   3.708  1.00  0.00     0.131 A 
ATOM     89  C   UNL     1     -10.172 -12.998   2.490  1.00  0.00     0.055 A 
ATOM     90  C   UNL     1      -9.458 -14.593   4.143  1.00  0.00     0.041 A 
ATOM     91  F   UNL     1      -7.186 -15.116   4.352  1.00  0.00    -0.206 F 
ATOM     92  C   UNL     1     -10.480 -13.864   3.543  1.00  0.00     0.022 A 
BRANCH  89  93
ATOM     93  S   UNL     1     -11.455 -11.918   1.800  1.00  0.00     0.124 S 
ATOM     94  O   UNL     1     -10.906 -10.591   2.060  1.00  0.00    -0.237 OA
ATOM     95  O   UNL     1     -11.491 -12.329   0.400  1.00  0.00    -0.237 OA
ATOM     96  O   UNL     1     -12.646 -12.259   2.576  1.00  0.00    -0.744 OA
ENDBRANCH  89  93
ENDBRANCH  63  86
ENDBRANCH  37  38
ENDBRANCH  29  32
ENDBRANCH  27  28
ENDBRANCH   1  27
TORSDOF 16
