REMARK SMILES CC(C)[C@H](NC(=O)/C(=C\c1ccc(Cl)cc1)NC(=O)c1ccco1)C(=O)NCCCNC(=O)c1ccc(-c2c3nc(c(-c4cc(S(=O)(=O)[O-])ccc4F)c4ccc([nH]4)c(-c4cc(S(=O)(=O)[O-])ccc4F)c4nc(c(-c5cc(S(=O)(=O)[O-])ccc5F)c5ccc2[nH]5)C=C4)C=C3)cc1
REMARK SMILES IDX 28 1 27 2 25 3 26 4 4 6 2 7 1 8 3 9 5 10 6 11 7 13 8 14 9 15
REMARK SMILES IDX 17 16 18 17 19 19 20 20 21 21 24 22 22 23 23 24 10 25 11 26
REMARK SMILES IDX 16 27 12 28 15 29 13 30 14 31 29 32 30 33 31 34 32 35 33 37
REMARK SMILES IDX 34 38 35 39 96 40 36 41 95 42 37 43 38 44 39 45 89 46 40 47
REMARK SMILES IDX 94 48 88 49 90 50 41 51 93 52 87 53 86 54 42 56 74 57 54 58
REMARK SMILES IDX 73 59 55 60 58 61 72 62 91 63 56 64 57 65 71 67 92 68 59 69
REMARK SMILES IDX 43 70 44 71 52 72 45 73 51 74 53 75 50 76 46 77 47 78 48 79
REMARK SMILES IDX 49 80 75 81 76 82 84 83 77 84 83 85 85 86 82 87 78 88 79 89
REMARK SMILES IDX 80 90 81 91 60 92 61 93 69 94 62 95 68 96 70 97 67 98 63 99
REMARK SMILES IDX 64 100 65 101 66 102
REMARK H PARENT 27 5 5 12 17 18 31 36 90 55 58 66
REMARK Flexibility Score: inf
ROOT
ATOM      1  C   UNL     1      -0.054  -1.245  -4.069  1.00  0.00     0.117 C 
ENDROOT
BRANCH   1   2
ATOM      2  N   UNL     1      -0.219  -1.870  -2.722  1.00  0.00    -0.354 N 
ATOM      3  C   UNL     1      -0.402  -1.437  -1.396  1.00  0.00     0.242 C 
ATOM      4  O   UNL     1      -1.059  -2.247  -0.713  1.00  0.00    -0.273 OA
ATOM      5  H   UNL     1      -0.192  -2.852  -2.777  1.00  0.00     0.163 HD
BRANCH   3   6
ATOM      6  C   UNL     1       0.161  -0.071  -0.579  1.00  0.00     0.174 C 
BRANCH   6   7
ATOM      7  C   UNL     1      -0.560   1.305   0.075  1.00  0.00     0.015 C 
ATOM      8  C   UNL     1      -1.388   1.152   1.367  1.00  0.00     0.010 C 
ATOM      9  C   UNL     1       0.385   2.510   0.387  1.00  0.00     0.010 C 
ENDBRANCH   6   7
BRANCH   6  10
ATOM     10  N   UNL     1       1.258   0.382  -1.342  1.00  0.00    -0.339 N 
ATOM     11  C   UNL     1       1.102   1.472  -2.113  1.00  0.00     0.268 C 
ATOM     12  H   UNL     1       2.121  -0.091  -1.310  1.00  0.00     0.164 HD
ATOM     13  O   UNL     1       1.958   2.355  -2.009  1.00  0.00    -0.268 OA
BRANCH  11  14
ATOM     14  C   UNL     1       0.036   1.574  -3.189  1.00  0.00     0.107 C 
ATOM     15  C   UNL     1      -1.317   1.269  -3.328  1.00  0.00     0.040 C 
BRANCH  14  16
ATOM     16  N   UNL     1       0.732   1.921  -4.381  1.00  0.00    -0.315 N 
ATOM     17  C   UNL     1       2.117   1.811  -4.730  1.00  0.00     0.291 C 
ATOM     18  H   UNL     1       0.164   2.303  -5.088  1.00  0.00     0.170 HD
ATOM     19  O   UNL     1       2.427   2.420  -5.761  1.00  0.00    -0.265 OA
BRANCH  17  20
ATOM     20  C   UNL     1       3.132   0.997  -4.009  1.00  0.00     0.191 A 
ATOM     21  C   UNL     1       3.235  -0.311  -3.541  1.00  0.00     0.056 A 
ATOM     22  O   UNL     1       4.322   1.624  -3.679  1.00  0.00    -0.459 OA
ATOM     23  C   UNL     1       4.474  -0.463  -2.869  1.00  0.00     0.043 A 
ATOM     24  C   UNL     1       5.089   0.754  -2.968  1.00  0.00     0.196 A 
ENDBRANCH  17  20
ENDBRANCH  14  16
BRANCH  15  25
ATOM     25  C   UNL     1      -2.585   0.531  -2.737  1.00  0.00    -0.023 A 
ATOM     26  C   UNL     1      -2.862   0.055  -1.450  1.00  0.00     0.010 A 
ATOM     27  C   UNL     1      -3.594   0.121  -3.637  1.00  0.00     0.010 A 
ATOM     28  C   UNL     1      -3.952  -0.744  -1.035  1.00  0.00     0.021 A 
ATOM     29  C   UNL     1      -4.707  -0.698  -3.264  1.00  0.00     0.021 A 
ATOM     30  C   UNL     1      -4.879  -1.134  -1.959  1.00  0.00     0.041 A 
ATOM     31  Cl  UNL     1      -6.173  -2.162  -1.493  1.00  0.00    -0.084 Cl
ENDBRANCH  15  25
ENDBRANCH  11  14
ENDBRANCH   6  10
ENDBRANCH   3   6
ENDBRANCH   1   2
BRANCH   1  32
ATOM     32  C   UNL     1       0.616  -1.947  -5.268  1.00  0.00     0.042 C 
BRANCH  32  33
ATOM     33  C   UNL     1       0.102  -1.559  -6.686  1.00  0.00     0.118 C 
BRANCH  33  34
ATOM     34  N   UNL     1      -0.112  -0.141  -7.008  1.00  0.00    -0.352 N 
ATOM     35  C   UNL     1       0.389   0.732  -7.967  1.00  0.00     0.251 C 
ATOM     36  H   UNL     1      -0.760   0.291  -6.406  1.00  0.00     0.163 HD
ATOM     37  O   UNL     1      -0.155   1.836  -8.046  1.00  0.00    -0.269 OA
BRANCH  35  38
ATOM     38  C   UNL     1       1.558   0.425  -8.842  1.00  0.00     0.039 A 
ATOM     39  C   UNL     1       2.438   1.452  -9.223  1.00  0.00     0.014 A 
ATOM     40  C   UNL     1       1.824  -0.859  -9.293  1.00  0.00     0.014 A 
ATOM     41  C   UNL     1       3.637   1.155  -9.899  1.00  0.00     0.010 A 
ATOM     42  C   UNL     1       3.076  -1.174  -9.820  1.00  0.00     0.010 A 
ATOM     43  C   UNL     1       4.016  -0.178 -10.122  1.00  0.00    -0.014 A 
BRANCH  43  44
ATOM     44  C   UNL     1       5.365  -0.575 -10.644  1.00  0.00     0.031 A 
ATOM     45  C   UNL     1       5.475  -1.531 -11.814  1.00  0.00     0.074 A 
ATOM     46  C   UNL     1       6.488  -0.193  -9.994  1.00  0.00     0.049 A 
ATOM     47  N   UNL     1       6.525  -2.160 -12.281  1.00  0.00    -0.248 NA
ATOM     48  C   UNL     1       4.226  -1.871 -12.516  1.00  0.00     0.031 C 
ATOM     49  C   UNL     1       6.535   0.671  -8.811  1.00  0.00     0.029 A 
ATOM     50  N   UNL     1       7.813  -0.496 -10.220  1.00  0.00    -0.354 N 
ATOM     51  C   UNL     1       6.054  -3.003 -13.285  1.00  0.00     0.074 A 
ATOM     52  C   UNL     1       4.617  -2.852 -13.316  1.00  0.00     0.031 C 
ATOM     53  C   UNL     1       7.812   0.854  -8.440  1.00  0.00     0.029 A 
ATOM     54  C   UNL     1       8.681   0.071  -9.309  1.00  0.00     0.049 A 
ATOM     55  H   UNL     1       8.113  -1.067 -10.963  1.00  0.00     0.167 HD
ATOM     56  C   UNL     1       6.753  -3.807 -14.124  1.00  0.00     0.034 A 
ATOM     57  C   UNL     1      10.020  -0.042  -9.171  1.00  0.00     0.034 A 
ATOM     58  C   UNL     1       8.192  -3.892 -14.133  1.00  0.00     0.049 A 
ATOM     59  C   UNL     1      10.778  -0.919 -10.142  1.00  0.00     0.074 A 
ATOM     60  C   UNL     1       9.005  -4.588 -15.011  1.00  0.00     0.029 A 
ATOM     61  N   UNL     1       9.033  -3.260 -13.229  1.00  0.00    -0.354 N 
ATOM     62  N   UNL     1      10.314  -1.651 -11.129  1.00  0.00    -0.248 NA
ATOM     63  C   UNL     1      12.238  -0.977  -9.988  1.00  0.00     0.031 C 
ATOM     64  C   UNL     1      10.330  -4.440 -14.592  1.00  0.00     0.029 A 
ATOM     65  C   UNL     1      10.353  -3.579 -13.507  1.00  0.00     0.049 A 
ATOM     66  H   UNL     1       8.737  -2.671 -12.498  1.00  0.00     0.167 HD
ATOM     67  C   UNL     1      11.431  -2.225 -11.732  1.00  0.00     0.074 A 
ATOM     68  C   UNL     1      12.588  -1.738 -11.013  1.00  0.00     0.031 C 
ATOM     69  C   UNL     1      11.497  -3.080 -12.784  1.00  0.00     0.034 A 
BRANCH  56  70
ATOM     70  C   UNL     1       5.982  -4.666 -15.100  1.00  0.00     0.023 A 
ATOM     71  C   UNL     1       5.183  -4.110 -16.114  1.00  0.00     0.031 A 
ATOM     72  C   UNL     1       6.066  -6.069 -15.027  1.00  0.00     0.131 A 
ATOM     73  C   UNL     1       4.454  -4.948 -16.972  1.00  0.00     0.055 A 
ATOM     74  C   UNL     1       5.404  -6.897 -15.936  1.00  0.00     0.041 A 
ATOM     75  F   UNL     1       6.796  -6.660 -14.068  1.00  0.00    -0.206 F 
ATOM     76  C   UNL     1       4.582  -6.338 -16.910  1.00  0.00     0.022 A 
BRANCH  73  77
ATOM     77  S   UNL     1       3.243  -4.201 -18.096  1.00  0.00     0.124 S 
ATOM     78  O   UNL     1       2.330  -3.555 -17.158  1.00  0.00    -0.237 OA
ATOM     79  O   UNL     1       4.071  -3.303 -18.900  1.00  0.00    -0.237 OA
ATOM     80  O   UNL     1       2.687  -5.343 -18.813  1.00  0.00    -0.744 OA
ENDBRANCH  73  77
ENDBRANCH  56  70
BRANCH  57  81
ATOM     81  C   UNL     1      10.746   0.663  -8.068  1.00  0.00     0.023 A 
ATOM     82  C   UNL     1      11.751   1.606  -8.348  1.00  0.00     0.031 A 
ATOM     83  C   UNL     1      10.508   0.346  -6.719  1.00  0.00     0.131 A 
ATOM     84  C   UNL     1      12.526   2.139  -7.304  1.00  0.00     0.055 A 
ATOM     85  C   UNL     1      11.232   0.936  -5.679  1.00  0.00     0.041 A 
ATOM     86  F   UNL     1       9.566  -0.552  -6.386  1.00  0.00    -0.206 F 
ATOM     87  C   UNL     1      12.262   1.824  -5.971  1.00  0.00     0.022 A 
BRANCH  84  88
ATOM     88  S   UNL     1      13.980   3.140  -7.729  1.00  0.00     0.124 S 
ATOM     89  O   UNL     1      14.710   2.242  -8.613  1.00  0.00    -0.237 OA
ATOM     90  O   UNL     1      13.373   4.308  -8.355  1.00  0.00    -0.237 OA
ATOM     91  O   UNL     1      14.612   3.388  -6.431  1.00  0.00    -0.744 OA
ENDBRANCH  84  88
ENDBRANCH  57  81
BRANCH  69  92
ATOM     92  C   UNL     1      12.870  -3.493 -13.255  1.00  0.00     0.023 A 
ATOM     93  C   UNL     1      13.724  -4.273 -12.457  1.00  0.00     0.031 A 
ATOM     94  C   UNL     1      13.327  -3.099 -14.525  1.00  0.00     0.131 A 
ATOM     95  C   UNL     1      15.013  -4.585 -12.914  1.00  0.00     0.055 A 
ATOM     96  C   UNL     1      14.583  -3.472 -15.002  1.00  0.00     0.041 A 
ATOM     97  F   UNL     1      12.553  -2.352 -15.329  1.00  0.00    -0.206 F 
ATOM     98  C   UNL     1      15.440  -4.207 -14.189  1.00  0.00     0.022 A 
BRANCH  95  99
ATOM     99  S   UNL     1      16.161  -5.412 -11.779  1.00  0.00     0.124 S 
ATOM    100  O   UNL     1      16.215  -4.472 -10.665  1.00  0.00    -0.237 OA
ATOM    101  O   UNL     1      15.482  -6.676 -11.514  1.00  0.00    -0.237 OA
ATOM    102  O   UNL     1      17.393  -5.522 -12.558  1.00  0.00    -0.744 OA
ENDBRANCH  95  99
ENDBRANCH  69  92
ENDBRANCH  43  44
ENDBRANCH  35  38
ENDBRANCH  33  34
ENDBRANCH  32  33
ENDBRANCH   1  32
TORSDOF 19
