REMARK SMILES Cc1ccc(C(=O)NCCCNC(=O)c2ccc(-c3c4nc(c(-c5cc(S(=O)(=O)[O-])ccc5F)c5ccc([nH]5)c(-c5cc(S(=O)(=O)[O-])ccc5F)c5nc(c(-c6cc(S(=O)(=O)[O-])ccc6F)c6ccc3[nH]6)C=C5)C=C4)cc2)cc1CNC(=O)C[N@@H+]1CCC[C@]2(CCOC2)C1
REMARK SMILES IDX 9 1 8 2 6 3 7 4 5 6 1 7 2 8 3 9 79 10 4 11 78 12 80 13 81 14
REMARK SMILES IDX 82 15 83 17 84 18 85 19 86 20 94 21 87 23 89 24 88 25 90 26
REMARK SMILES IDX 93 27 91 28 92 29 10 30 11 31 12 32 13 33 14 35 15 36 16 37
REMARK SMILES IDX 77 38 17 39 76 40 18 41 19 42 20 43 70 44 21 45 75 46 69 47
REMARK SMILES IDX 71 48 22 49 74 50 68 51 67 52 23 54 55 55 35 56 54 57 36 58
REMARK SMILES IDX 39 59 53 60 72 61 37 62 38 63 52 65 73 66 40 67 24 68 25 69
REMARK SMILES IDX 33 70 26 71 32 72 34 73 31 74 27 75 28 76 29 77 30 78 56 79
REMARK SMILES IDX 57 80 65 81 58 82 64 83 66 84 63 85 59 86 60 87 61 88 62 89
REMARK SMILES IDX 41 90 42 91 50 92 43 93 49 94 51 95 48 96 44 97 45 98 46 99
REMARK SMILES IDX 47 100
REMARK H PARENT 8 5 81 16 85 22 12 34 71 53 39 64
REMARK Flexibility Score: inf
ROOT
ATOM      1  C   UNL     1      -3.044   2.193  -0.893  1.00  0.00     0.118 C 
ENDROOT
BRANCH   1   2
ATOM      2  N   UNL     1      -3.599   0.876  -0.640  1.00  0.00    -0.352 N 
ATOM      3  C   UNL     1      -2.965  -0.255  -0.173  1.00  0.00     0.251 C 
ATOM      4  O   UNL     1      -3.600  -1.299  -0.025  1.00  0.00    -0.269 OA
ATOM      5  H   UNL     1      -4.561   0.778  -0.827  1.00  0.00     0.163 HD
BRANCH   3   6
ATOM      6  C   UNL     1      -1.490  -0.281   0.043  1.00  0.00     0.040 A 
ATOM      7  C   UNL     1       2.826  -0.430  -0.086  1.00  0.00     0.044 C 
ATOM      8  C   UNL     1       1.331  -0.327   0.010  1.00  0.00    -0.046 A 
ATOM      9  C   UNL     1       0.584  -1.495  -0.232  1.00  0.00     0.004 A 
ATOM     10  C   UNL     1       0.654   0.853   0.374  1.00  0.00    -0.025 A 
ATOM     11  C   UNL     1      -0.811  -1.465  -0.245  1.00  0.00     0.014 A 
ATOM     12  C   UNL     1      -0.751   0.827   0.463  1.00  0.00     0.019 A 
BRANCH  10  13
ATOM     13  C   UNL     1       1.316   2.201   0.549  1.00  0.00     0.152 C 
BRANCH  13  14
ATOM     14  N   UNL     1       1.255   2.953  -0.694  1.00  0.00    -0.347 N 
ATOM     15  C   UNL     1       1.051   4.293  -0.870  1.00  0.00     0.275 C 
ATOM     16  H   UNL     1       1.376   2.428  -1.517  1.00  0.00     0.164 HD
ATOM     17  O   UNL     1       1.083   4.751  -2.016  1.00  0.00    -0.268 OA
BRANCH  15  18
ATOM     18  C   UNL     1       0.791   5.195   0.350  1.00  0.00     0.363 C 
BRANCH  18  19
ATOM     19  N   UNL     1      -0.519   4.893   0.924  1.00  0.00    -0.327 N 
ATOM     20  C   UNL     1      -1.627   5.218   0.030  1.00  0.00     0.262 C 
ATOM     21  C   UNL     1      -0.778   5.384   2.288  1.00  0.00     0.272 C 
ATOM     22  H   UNL     1      -0.467   3.879   1.028  1.00  0.00     0.348 HD
ATOM     23  C   UNL     1      -2.008   6.690   0.030  1.00  0.00     0.062 C 
ATOM     24  C   UNL     1      -1.337   6.830   2.435  1.00  0.00     0.045 C 
ATOM     25  C   UNL     1      -2.468   7.079   1.428  1.00  0.00     0.021 C 
ATOM     26  C   UNL     1      -0.242   7.889   2.308  1.00  0.00     0.043 C 
ATOM     27  C   UNL     1      -1.828   7.053   3.865  1.00  0.00     0.173 C 
ATOM     28  C   UNL     1       0.140   8.241   3.732  1.00  0.00     0.161 C 
ATOM     29  O   UNL     1      -0.676   7.469   4.612  1.00  0.00    -0.381 OA
ENDBRANCH  18  19
ENDBRANCH  15  18
ENDBRANCH  13  14
ENDBRANCH  10  13
ENDBRANCH   3   6
ENDBRANCH   1   2
BRANCH   1  30
ATOM     30  C   UNL     1      -3.679   2.958  -2.035  1.00  0.00     0.042 C 
BRANCH  30  31
ATOM     31  C   UNL     1      -4.969   3.679  -1.671  1.00  0.00     0.118 C 
BRANCH  31  32
ATOM     32  N   UNL     1      -4.788   4.984  -1.010  1.00  0.00    -0.352 N 
ATOM     33  C   UNL     1      -5.442   6.199  -1.167  1.00  0.00     0.251 C 
ATOM     34  H   UNL     1      -4.072   4.996  -0.334  1.00  0.00     0.163 HD
ATOM     35  O   UNL     1      -5.173   7.194  -0.500  1.00  0.00    -0.269 OA
BRANCH  33  36
ATOM     36  C   UNL     1      -6.645   6.247  -2.016  1.00  0.00     0.039 A 
ATOM     37  C   UNL     1      -7.832   6.274  -1.276  1.00  0.00     0.014 A 
ATOM     38  C   UNL     1      -6.581   5.680  -3.279  1.00  0.00     0.014 A 
ATOM     39  C   UNL     1      -8.818   5.359  -1.595  1.00  0.00     0.010 A 
ATOM     40  C   UNL     1      -7.529   4.714  -3.553  1.00  0.00     0.010 A 
ATOM     41  C   UNL     1      -8.570   4.478  -2.643  1.00  0.00    -0.014 A 
BRANCH  41  42
ATOM     42  C   UNL     1      -9.299   3.225  -2.783  1.00  0.00     0.031 A 
ATOM     43  C   UNL     1     -10.314   3.144  -3.845  1.00  0.00     0.074 A 
ATOM     44  C   UNL     1      -9.141   2.187  -1.930  1.00  0.00     0.049 A 
ATOM     45  N   UNL     1     -11.449   2.548  -3.719  1.00  0.00    -0.248 NA
ATOM     46  C   UNL     1     -10.143   3.811  -5.128  1.00  0.00     0.031 C 
ATOM     47  C   UNL     1      -9.744   0.859  -2.048  1.00  0.00     0.029 A 
ATOM     48  N   UNL     1      -8.528   2.131  -0.693  1.00  0.00    -0.354 N 
ATOM     49  C   UNL     1     -12.030   2.512  -4.964  1.00  0.00     0.074 A 
ATOM     50  C   UNL     1     -11.219   3.378  -5.786  1.00  0.00     0.031 C 
ATOM     51  C   UNL     1      -9.707   0.252  -0.850  1.00  0.00     0.029 A 
ATOM     52  C   UNL     1      -9.188   1.205   0.113  1.00  0.00     0.049 A 
ATOM     53  H   UNL     1      -7.745   2.664  -0.422  1.00  0.00     0.167 HD
ATOM     54  C   UNL     1     -13.044   1.637  -5.210  1.00  0.00     0.034 A 
ATOM     55  C   UNL     1      -9.785   1.537   1.296  1.00  0.00     0.034 A 
ATOM     56  C   UNL     1     -13.362   0.843  -4.022  1.00  0.00     0.049 A 
ATOM     57  C   UNL     1     -11.289   1.343   1.275  1.00  0.00     0.074 A 
ATOM     58  C   UNL     1     -12.976  -0.428  -3.628  1.00  0.00     0.029 A 
ATOM     59  N   UNL     1     -13.907   1.454  -2.897  1.00  0.00    -0.354 N 
ATOM     60  N   UNL     1     -11.982   1.099   0.196  1.00  0.00    -0.248 NA
ATOM     61  C   UNL     1     -12.130   1.461   2.462  1.00  0.00     0.031 C 
ATOM     62  C   UNL     1     -13.230  -0.552  -2.238  1.00  0.00     0.029 A 
ATOM     63  C   UNL     1     -13.805   0.627  -1.792  1.00  0.00     0.049 A 
ATOM     64  H   UNL     1     -14.311   2.352  -2.889  1.00  0.00     0.167 HD
ATOM     65  C   UNL     1     -13.320   1.124   0.495  1.00  0.00     0.074 A 
ATOM     66  C   UNL     1     -13.355   1.288   1.938  1.00  0.00     0.031 C 
ATOM     67  C   UNL     1     -14.280   1.058  -0.480  1.00  0.00     0.034 A 
BRANCH  54  68
ATOM     68  C   UNL     1     -13.480   1.268  -6.610  1.00  0.00     0.023 A 
ATOM     69  C   UNL     1     -13.966  -0.030  -6.856  1.00  0.00     0.031 A 
ATOM     70  C   UNL     1     -13.395   2.104  -7.741  1.00  0.00     0.131 A 
ATOM     71  C   UNL     1     -14.217  -0.482  -8.164  1.00  0.00     0.055 A 
ATOM     72  C   UNL     1     -13.568   1.635  -9.049  1.00  0.00     0.041 A 
ATOM     73  F   UNL     1     -13.199   3.425  -7.625  1.00  0.00    -0.206 F 
ATOM     74  C   UNL     1     -13.968   0.327  -9.268  1.00  0.00     0.022 A 
BRANCH  71  75
ATOM     75  S   UNL     1     -14.902  -2.143  -8.400  1.00  0.00     0.124 S 
ATOM     76  O   UNL     1     -13.869  -2.991  -7.814  1.00  0.00    -0.237 OA
ATOM     77  O   UNL     1     -16.163  -2.061  -7.670  1.00  0.00    -0.237 OA
ATOM     78  O   UNL     1     -15.038  -2.250  -9.852  1.00  0.00    -0.744 OA
ENDBRANCH  71  75
ENDBRANCH  54  68
BRANCH  55  79
ATOM     79  C   UNL     1      -9.086   2.628   2.028  1.00  0.00     0.023 A 
ATOM     80  C   UNL     1      -7.784   2.356   2.491  1.00  0.00     0.031 A 
ATOM     81  C   UNL     1      -9.470   3.968   1.877  1.00  0.00     0.131 A 
ATOM     82  C   UNL     1      -6.850   3.395   2.602  1.00  0.00     0.055 A 
ATOM     83  C   UNL     1      -8.549   5.006   2.049  1.00  0.00     0.041 A 
ATOM     84  F   UNL     1     -10.689   4.283   1.418  1.00  0.00    -0.206 F 
ATOM     85  C   UNL     1      -7.220   4.719   2.357  1.00  0.00     0.022 A 
BRANCH  82  86
ATOM     86  S   UNL     1      -5.090   2.977   2.749  1.00  0.00     0.124 S 
ATOM     87  O   UNL     1      -4.898   2.955   4.199  1.00  0.00    -0.237 OA
ATOM     88  O   UNL     1      -5.010   1.693   2.070  1.00  0.00    -0.237 OA
ATOM     89  O   UNL     1      -4.429   4.068   2.037  1.00  0.00    -0.744 OA
ENDBRANCH  82  86
ENDBRANCH  55  79
BRANCH  67  90
ATOM     90  C   UNL     1     -15.758   1.314  -0.260  1.00  0.00     0.023 A 
ATOM     91  C   UNL     1     -16.264   1.960   0.877  1.00  0.00     0.031 A 
ATOM     92  C   UNL     1     -16.722   0.952  -1.231  1.00  0.00     0.131 A 
ATOM     93  C   UNL     1     -17.647   2.101   1.086  1.00  0.00     0.055 A 
ATOM     94  C   UNL     1     -18.092   1.187  -1.070  1.00  0.00     0.041 A 
ATOM     95  F   UNL     1     -16.378   0.355  -2.381  1.00  0.00    -0.206 F 
ATOM     96  C   UNL     1     -18.568   1.739   0.109  1.00  0.00     0.022 A 
BRANCH  93  97
ATOM     97  S   UNL     1     -18.207   2.660   2.716  1.00  0.00     0.124 S 
ATOM     98  O   UNL     1     -17.660   1.626   3.591  1.00  0.00    -0.237 OA
ATOM     99  O   UNL     1     -17.586   3.976   2.827  1.00  0.00    -0.237 OA
ATOM    100  O   UNL     1     -19.663   2.666   2.597  1.00  0.00    -0.744 OA
ENDBRANCH  93  97
ENDBRANCH  67  90
ENDBRANCH  41  42
ENDBRANCH  33  36
ENDBRANCH  31  32
ENDBRANCH  30  31
ENDBRANCH   1  30
TORSDOF 17
