REMARK SMILES O=C(NCCCNC(=O)[C@@H]1C[C@@H]1c1cccc(F)c1)c1ccc(-c2c3nc(c(-c4cc(S(=O)(=O)[O-])ccc4F)c4ccc([nH]4)c(-c4cc(S(=O)(=O)[O-])ccc4F)c4nc(c(-c5cc(S(=O)(=O)[O-])ccc5F)c5ccc2[nH]5)C=C4)C=C3)cc1
REMARK SMILES IDX 4 1 3 2 1 3 2 4 20 6 21 7 82 8 22 9 81 10 23 11 24 12 25 13
REMARK SMILES IDX 75 14 26 15 80 16 74 17 76 18 27 19 79 20 73 21 72 22 28 24
REMARK SMILES IDX 60 25 40 26 59 27 41 28 44 29 58 30 77 31 42 32 43 33 57 35
REMARK SMILES IDX 78 36 45 37 29 38 30 39 38 40 31 41 37 42 39 43 36 44 32 45
REMARK SMILES IDX 33 46 34 47 35 48 61 49 62 50 70 51 63 52 69 53 71 54 68 55
REMARK SMILES IDX 64 56 65 57 66 58 67 59 46 60 47 61 55 62 48 63 54 64 56 65
REMARK SMILES IDX 53 66 49 67 50 68 51 69 52 70 5 71 6 72 7 73 8 74 9 76 10 77
REMARK SMILES IDX 11 78 12 79 13 80 14 81 19 82 15 83 17 84 16 85 18 86
REMARK H PARENT 3 5 76 23 44 34 7 75
REMARK Flexibility Score: inf
ROOT
ATOM      1  C   UNL     1       4.588  -1.443  -0.321  1.00  0.00     0.118 C 
ENDROOT
BRANCH   1   2
ATOM      2  N   UNL     1       3.176  -1.111  -0.474  1.00  0.00    -0.352 N 
ATOM      3  O   UNL     1       1.251   0.004  -0.149  1.00  0.00    -0.269 OA
ATOM      4  C   UNL     1       2.476  -0.005  -0.053  1.00  0.00     0.251 C 
ATOM      5  H   UNL     1       2.641  -1.784  -0.953  1.00  0.00     0.163 HD
BRANCH   4   6
ATOM      6  C   UNL     1       3.181   1.159   0.532  1.00  0.00     0.039 A 
ATOM      7  C   UNL     1       4.360   1.647  -0.034  1.00  0.00     0.014 A 
ATOM      8  C   UNL     1       2.635   1.788   1.656  1.00  0.00     0.014 A 
ATOM      9  C   UNL     1       5.068   2.660   0.607  1.00  0.00     0.010 A 
ATOM     10  C   UNL     1       3.310   2.858   2.255  1.00  0.00     0.010 A 
ATOM     11  C   UNL     1       4.553   3.278   1.758  1.00  0.00    -0.014 A 
BRANCH  11  12
ATOM     12  C   UNL     1       5.330   4.364   2.415  1.00  0.00     0.031 A 
ATOM     13  C   UNL     1       5.898   4.176   3.797  1.00  0.00     0.074 A 
ATOM     14  C   UNL     1       5.571   5.504   1.736  1.00  0.00     0.049 A 
ATOM     15  N   UNL     1       6.614   5.006   4.512  1.00  0.00    -0.248 NA
ATOM     16  C   UNL     1       5.628   2.893   4.467  1.00  0.00     0.031 C 
ATOM     17  C   UNL     1       5.081   5.799   0.387  1.00  0.00     0.029 A 
ATOM     18  N   UNL     1       6.308   6.613   2.068  1.00  0.00    -0.354 N 
ATOM     19  C   UNL     1       6.870   4.357   5.714  1.00  0.00     0.074 A 
ATOM     20  C   UNL     1       6.209   3.072   5.646  1.00  0.00     0.031 C 
ATOM     21  C   UNL     1       5.572   6.981  -0.012  1.00  0.00     0.029 A 
ATOM     22  C   UNL     1       6.360   7.560   1.072  1.00  0.00     0.049 A 
ATOM     23  H   UNL     1       6.756   6.720   2.938  1.00  0.00     0.167 HD
ATOM     24  C   UNL     1       7.600   4.789   6.771  1.00  0.00     0.034 A 
ATOM     25  C   UNL     1       6.958   8.767   1.036  1.00  0.00     0.034 A 
ATOM     26  C   UNL     1       8.278   6.059   6.821  1.00  0.00     0.049 A 
ATOM     27  C   UNL     1       7.718   9.241   2.244  1.00  0.00     0.074 A 
ATOM     28  C   UNL     1       9.075   6.567   7.833  1.00  0.00     0.029 A 
ATOM     29  N   UNL     1       8.241   7.021   5.823  1.00  0.00    -0.354 N 
ATOM     30  N   UNL     1       7.936   8.614   3.376  1.00  0.00    -0.248 NA
ATOM     31  C   UNL     1       8.301  10.588   2.178  1.00  0.00     0.031 C 
ATOM     32  C   UNL     1       9.474   7.857   7.471  1.00  0.00     0.029 A 
ATOM     33  C   UNL     1       8.973   8.131   6.209  1.00  0.00     0.049 A 
ATOM     34  H   UNL     1       7.764   6.928   4.967  1.00  0.00     0.167 HD
ATOM     35  C   UNL     1       8.682   9.490   4.155  1.00  0.00     0.074 A 
ATOM     36  C   UNL     1       8.893  10.683   3.361  1.00  0.00     0.031 C 
ATOM     37  C   UNL     1       9.151   9.321   5.416  1.00  0.00     0.034 A 
BRANCH  24  38
ATOM     38  C   UNL     1       7.691   3.895   7.979  1.00  0.00     0.023 A 
ATOM     39  C   UNL     1       8.460   2.720   7.968  1.00  0.00     0.031 A 
ATOM     40  C   UNL     1       7.045   4.257   9.174  1.00  0.00     0.131 A 
ATOM     41  C   UNL     1       8.541   1.931   9.125  1.00  0.00     0.055 A 
ATOM     42  C   UNL     1       7.173   3.497  10.337  1.00  0.00     0.041 A 
ATOM     43  F   UNL     1       6.288   5.364   9.231  1.00  0.00    -0.206 F 
ATOM     44  C   UNL     1       7.923   2.324  10.316  1.00  0.00     0.022 A 
BRANCH  41  45
ATOM     45  S   UNL     1       9.432   0.353   9.046  1.00  0.00     0.124 S 
ATOM     46  O   UNL     1       8.573  -0.425   8.157  1.00  0.00    -0.237 OA
ATOM     47  O   UNL     1      10.727   0.744   8.500  1.00  0.00    -0.237 OA
ATOM     48  O   UNL     1       9.454  -0.098  10.436  1.00  0.00    -0.744 OA
ENDBRANCH  41  45
ENDBRANCH  24  38
BRANCH  25  49
ATOM     49  C   UNL     1       6.821   9.631  -0.168  1.00  0.00     0.023 A 
ATOM     50  C   UNL     1       7.926   9.924  -0.981  1.00  0.00     0.031 A 
ATOM     51  C   UNL     1       5.575  10.183  -0.517  1.00  0.00     0.131 A 
ATOM     52  C   UNL     1       7.768  10.766  -2.093  1.00  0.00     0.055 A 
ATOM     53  C   UNL     1       5.415  10.985  -1.647  1.00  0.00     0.041 A 
ATOM     54  F   UNL     1       4.488   9.928   0.228  1.00  0.00    -0.206 F 
ATOM     55  C   UNL     1       6.518  11.287  -2.439  1.00  0.00     0.022 A 
BRANCH  52  56
ATOM     56  S   UNL     1       9.233  11.207  -3.067  1.00  0.00     0.124 S 
ATOM     57  O   UNL     1      10.033  11.933  -2.087  1.00  0.00    -0.237 OA
ATOM     58  O   UNL     1       9.739   9.899  -3.467  1.00  0.00    -0.237 OA
ATOM     59  O   UNL     1       8.688  12.020  -4.153  1.00  0.00    -0.744 OA
ENDBRANCH  52  56
ENDBRANCH  25  49
BRANCH  37  60
ATOM     60  C   UNL     1       9.941  10.451   6.015  1.00  0.00     0.023 A 
ATOM     61  C   UNL     1       9.309  11.624   6.459  1.00  0.00     0.031 A 
ATOM     62  C   UNL     1      11.331  10.333   6.185  1.00  0.00     0.131 A 
ATOM     63  C   UNL     1      10.072  12.649   7.035  1.00  0.00     0.055 A 
ATOM     64  C   UNL     1      12.080  11.339   6.796  1.00  0.00     0.041 A 
ATOM     65  F   UNL     1      11.977   9.228   5.779  1.00  0.00    -0.206 F 
ATOM     66  C   UNL     1      11.451  12.507   7.222  1.00  0.00     0.022 A 
BRANCH  63  67
ATOM     67  S   UNL     1       9.243  14.183   7.532  1.00  0.00     0.124 S 
ATOM     68  O   UNL     1       8.858  14.747   6.242  1.00  0.00    -0.237 OA
ATOM     69  O   UNL     1       8.150  13.698   8.368  1.00  0.00    -0.237 OA
ATOM     70  O   UNL     1      10.285  14.920   8.245  1.00  0.00    -0.744 OA
ENDBRANCH  63  67
ENDBRANCH  37  60
ENDBRANCH  11  12
ENDBRANCH   4   6
ENDBRANCH   1   2
BRANCH   1  71
ATOM     71  C   UNL     1       4.811  -2.782   0.381  1.00  0.00     0.042 C 
BRANCH  71  72
ATOM     72  C   UNL     1       4.320  -3.989  -0.413  1.00  0.00     0.117 C 
BRANCH  72  73
ATOM     73  N   UNL     1       5.051  -4.148  -1.657  1.00  0.00    -0.356 N 
ATOM     74  C   UNL     1       6.069  -5.014  -1.949  1.00  0.00     0.223 C 
ATOM     75  H   UNL     1       4.776  -3.552  -2.391  1.00  0.00     0.163 HD
ATOM     76  O   UNL     1       6.631  -4.961  -3.038  1.00  0.00    -0.275 OA
BRANCH  74  77
ATOM     77  C   UNL     1       6.437  -6.034  -0.935  1.00  0.00     0.086 C 
ATOM     78  C   UNL     1       7.469  -7.088  -1.241  1.00  0.00     0.023 C 
ATOM     79  C   UNL     1       6.018  -7.488  -1.105  1.00  0.00     0.032 C 
BRANCH  79  80
ATOM     80  C   UNL     1       5.279  -7.984  -2.331  1.00  0.00    -0.041 A 
ATOM     81  C   UNL     1       5.819  -8.999  -3.145  1.00  0.00     0.004 A 
ATOM     82  C   UNL     1       4.024  -7.472  -2.696  1.00  0.00     0.043 A 
ATOM     83  C   UNL     1       5.158  -9.456  -4.291  1.00  0.00     0.003 A 
ATOM     84  C   UNL     1       3.371  -7.925  -3.841  1.00  0.00     0.123 A 
ATOM     85  C   UNL     1       3.929  -8.910  -4.643  1.00  0.00     0.039 A 
ATOM     86  F   UNL     1       2.184  -7.401  -4.173  1.00  0.00    -0.207 F 
ENDBRANCH  79  80
ENDBRANCH  74  77
ENDBRANCH  72  73
ENDBRANCH  71  72
ENDBRANCH   1  71
TORSDOF 14
