REMARK SMILES COc1cc(C[N@@H+]2CCO[C@@H](CC(=O)NCCCNC(=O)c3ccc(-c4c5nc(c(-c6cc(S(=O)(=O)[O-])ccc6F)c6ccc([nH]6)c(-c6cc(S(=O)(=O)[O-])ccc6F)c6nc(c(-c7cc(S(=O)(=O)[O-])ccc7F)c7ccc4[nH]7)C=C6)C=C5)cc3)C2)ccc1O
REMARK SMILES IDX 16 1 15 2 13 3 14 4 12 6 11 7 7 8 8 9 85 10 9 12 10 13 6 14
REMARK SMILES IDX 5 15 3 16 4 17 88 18 87 19 86 20 2 21 1 22 89 23 17 25 18 26
REMARK SMILES IDX 19 27 20 28 21 30 22 31 23 32 84 33 24 34 83 35 25 36 26 37
REMARK SMILES IDX 27 38 77 39 28 40 82 41 76 42 78 43 29 44 81 45 75 46 74 47
REMARK SMILES IDX 30 49 62 50 42 51 61 52 43 53 46 54 60 55 79 56 44 57 45 58
REMARK SMILES IDX 59 60 80 61 47 62 31 63 32 64 40 65 33 66 39 67 41 68 38 69
REMARK SMILES IDX 34 70 35 71 36 72 37 73 63 74 64 75 72 76 65 77 71 78 73 79
REMARK SMILES IDX 70 80 66 81 67 82 68 83 69 84 48 85 49 86 57 87 50 88 56 89
REMARK SMILES IDX 58 90 55 91 51 92 52 93 53 94 54 95
REMARK H PARENT 15 5 7 11 89 24 19 29 78 48 46 59
REMARK Flexibility Score: inf
ROOT
ATOM      1  C   UNL     1       2.384  -3.303   8.136  1.00  0.00     0.117 C 
ENDROOT
BRANCH   1   2
ATOM      2  N   UNL     1       2.138  -4.051   6.907  1.00  0.00    -0.356 N 
ATOM      3  C   UNL     1       2.373  -3.716   5.604  1.00  0.00     0.222 C 
ATOM      4  O   UNL     1       2.056  -4.518   4.723  1.00  0.00    -0.275 OA
ATOM      5  H   UNL     1       1.737  -4.941   7.039  1.00  0.00     0.163 HD
BRANCH   3   6
ATOM      6  C   UNL     1       2.972  -2.372   5.253  1.00  0.00     0.138 C 
BRANCH   6   7
ATOM      7  C   UNL     1       1.909  -1.346   4.853  1.00  0.00     0.182 C 
ATOM      8  N   UNL     1      -0.206  -0.174   5.691  1.00  0.00    -0.327 N 
ATOM      9  C   UNL     1       0.433   1.074   5.267  1.00  0.00     0.291 C 
ATOM     10  C   UNL     1       0.788  -1.226   5.904  1.00  0.00     0.295 C 
ATOM     11  H   UNL     1      -0.619   0.040   6.599  1.00  0.00     0.348 HD
ATOM     12  C   UNL     1       1.619   0.928   4.293  1.00  0.00     0.222 C 
ATOM     13  O   UNL     1       2.564  -0.069   4.711  1.00  0.00    -0.366 OA
BRANCH   8  14
ATOM     14  C   UNL     1      -1.429  -0.585   4.990  1.00  0.00     0.299 C 
BRANCH  14  15
ATOM     15  C   UNL     1      -1.214  -1.161   3.612  1.00  0.00     0.010 A 
ATOM     16  C   UNL     1      -0.565  -0.771   1.301  1.00  0.00     0.160 A 
ATOM     17  C   UNL     1      -1.062  -0.301   2.517  1.00  0.00     0.060 A 
ATOM     18  C   UNL     1      -0.300  -2.135   1.163  1.00  0.00     0.157 A 
ATOM     19  C   UNL     1      -0.573  -3.025   2.204  1.00  0.00     0.051 A 
ATOM     20  C   UNL     1      -1.032  -2.539   3.427  1.00  0.00     0.013 A 
BRANCH  16  21
ATOM     21  O   UNL     1      -0.354   0.212   0.374  1.00  0.00    -0.493 OA
ATOM     22  C   UNL     1       0.761   0.021  -0.486  1.00  0.00     0.278 C 
ENDBRANCH  16  21
BRANCH  18  23
ATOM     23  O   UNL     1       0.267  -2.641   0.029  1.00  0.00    -0.504 OA
ATOM     24  H   UNL     1       0.464  -2.073  -0.690  1.00  0.00     0.293 HD
ENDBRANCH  18  23
ENDBRANCH  14  15
ENDBRANCH   8  14
ENDBRANCH   6   7
ENDBRANCH   3   6
ENDBRANCH   1   2
BRANCH   1  25
ATOM     25  C   UNL     1       1.095  -2.873   8.838  1.00  0.00     0.042 C 
BRANCH  25  26
ATOM     26  C   UNL     1       0.345  -4.006   9.519  1.00  0.00     0.118 C 
BRANCH  26  27
ATOM     27  N   UNL     1       0.881  -4.271  10.841  1.00  0.00    -0.352 N 
ATOM     28  C   UNL     1       0.388  -3.917  12.073  1.00  0.00     0.251 C 
ATOM     29  H   UNL     1       1.723  -4.780  10.857  1.00  0.00     0.163 HD
ATOM     30  O   UNL     1       1.152  -3.953  13.040  1.00  0.00    -0.269 OA
BRANCH  28  31
ATOM     31  C   UNL     1      -1.022  -3.490  12.259  1.00  0.00     0.039 A 
ATOM     32  C   UNL     1      -1.310  -2.529  13.236  1.00  0.00     0.014 A 
ATOM     33  C   UNL     1      -2.074  -4.080  11.552  1.00  0.00     0.014 A 
ATOM     34  C   UNL     1      -2.634  -2.145  13.479  1.00  0.00     0.010 A 
ATOM     35  C   UNL     1      -3.384  -3.635  11.734  1.00  0.00     0.010 A 
ATOM     36  C   UNL     1      -3.685  -2.682  12.718  1.00  0.00    -0.014 A 
BRANCH  36  37
ATOM     37  C   UNL     1      -5.101  -2.303  12.979  1.00  0.00     0.031 A 
ATOM     38  C   UNL     1      -6.088  -3.343  13.447  1.00  0.00     0.074 A 
ATOM     39  C   UNL     1      -5.517  -1.042  12.747  1.00  0.00     0.049 A 
ATOM     40  N   UNL     1      -7.375  -3.234  13.658  1.00  0.00    -0.248 NA
ATOM     41  C   UNL     1      -5.557  -4.696  13.673  1.00  0.00     0.031 C 
ATOM     42  C   UNL     1      -4.674   0.046  12.249  1.00  0.00     0.029 A 
ATOM     43  N   UNL     1      -6.756  -0.466  12.886  1.00  0.00    -0.354 N 
ATOM     44  C   UNL     1      -7.812  -4.505  14.021  1.00  0.00     0.074 A 
ATOM     45  C   UNL     1      -6.660  -5.379  13.935  1.00  0.00     0.031 C 
ATOM     46  C   UNL     1      -5.417   1.159  12.135  1.00  0.00     0.029 A 
ATOM     47  C   UNL     1      -6.794   0.857  12.513  1.00  0.00     0.049 A 
ATOM     48  H   UNL     1      -7.542  -0.954  13.221  1.00  0.00     0.167 HD
ATOM     49  C   UNL     1      -9.049  -4.903  14.414  1.00  0.00     0.034 A 
ATOM     50  C   UNL     1      -7.823   1.727  12.466  1.00  0.00     0.034 A 
ATOM     51  C   UNL     1     -10.183  -4.016  14.513  1.00  0.00     0.049 A 
ATOM     52  C   UNL     1      -9.190   1.269  12.905  1.00  0.00     0.074 A 
ATOM     53  C   UNL     1     -11.462  -4.295  14.963  1.00  0.00     0.029 A 
ATOM     54  N   UNL     1     -10.177  -2.675  14.147  1.00  0.00    -0.354 N 
ATOM     55  N   UNL     1      -9.572   0.078  13.304  1.00  0.00    -0.248 NA
ATOM     56  C   UNL     1     -10.258   2.276  12.904  1.00  0.00     0.031 C 
ATOM     57  C   UNL     1     -12.244  -3.144  14.809  1.00  0.00     0.029 A 
ATOM     58  C   UNL     1     -11.437  -2.123  14.332  1.00  0.00     0.049 A 
ATOM     59  H   UNL     1      -9.393  -2.187  13.806  1.00  0.00     0.167 HD
ATOM     60  C   UNL     1     -10.923   0.200  13.621  1.00  0.00     0.074 A 
ATOM     61  C   UNL     1     -11.281   1.583  13.384  1.00  0.00     0.031 C 
ATOM     62  C   UNL     1     -11.787  -0.746  14.072  1.00  0.00     0.034 A 
BRANCH  49  63
ATOM     63  C   UNL     1      -9.234  -6.370  14.737  1.00  0.00     0.023 A 
ATOM     64  C   UNL     1      -8.517  -6.996  15.772  1.00  0.00     0.031 A 
ATOM     65  C   UNL     1     -10.103  -7.165  13.969  1.00  0.00     0.131 A 
ATOM     66  C   UNL     1      -8.605  -8.385  15.948  1.00  0.00     0.055 A 
ATOM     67  C   UNL     1     -10.256  -8.533  14.209  1.00  0.00     0.041 A 
ATOM     68  F   UNL     1     -10.804  -6.632  12.956  1.00  0.00    -0.206 F 
ATOM     69  C   UNL     1      -9.489  -9.155  15.190  1.00  0.00     0.022 A 
BRANCH  66  70
ATOM     70  S   UNL     1      -7.422  -9.194  17.060  1.00  0.00     0.124 S 
ATOM     71  O   UNL     1      -6.144  -8.783  16.480  1.00  0.00    -0.237 OA
ATOM     72  O   UNL     1      -7.754  -8.604  18.354  1.00  0.00    -0.237 OA
ATOM     73  O   UNL     1      -7.732 -10.612  16.921  1.00  0.00    -0.744 OA
ENDBRANCH  66  70
ENDBRANCH  49  63
BRANCH  50  74
ATOM     74  C   UNL     1      -7.606   3.114  11.966  1.00  0.00     0.023 A 
ATOM     75  C   UNL     1      -7.723   4.223  12.818  1.00  0.00     0.031 A 
ATOM     76  C   UNL     1      -7.293   3.349  10.615  1.00  0.00     0.131 A 
ATOM     77  C   UNL     1      -7.564   5.519  12.304  1.00  0.00     0.055 A 
ATOM     78  C   UNL     1      -7.090   4.637  10.118  1.00  0.00     0.041 A 
ATOM     79  F   UNL     1      -7.161   2.322   9.760  1.00  0.00    -0.206 F 
ATOM     80  C   UNL     1      -7.236   5.733  10.963  1.00  0.00     0.022 A 
BRANCH  77  81
ATOM     81  S   UNL     1      -7.852   6.933  13.403  1.00  0.00     0.124 S 
ATOM     82  O   UNL     1      -9.236   6.717  13.810  1.00  0.00    -0.237 OA
ATOM     83  O   UNL     1      -6.840   6.726  14.434  1.00  0.00    -0.237 OA
ATOM     84  O   UNL     1      -7.628   8.089  12.537  1.00  0.00    -0.744 OA
ENDBRANCH  77  81
ENDBRANCH  50  74
BRANCH  62  85
ATOM     85  C   UNL     1     -13.197  -0.297  14.370  1.00  0.00     0.023 A 
ATOM     86  C   UNL     1     -14.073   0.114  13.351  1.00  0.00     0.031 A 
ATOM     87  C   UNL     1     -13.664  -0.269  15.696  1.00  0.00     0.131 A 
ATOM     88  C   UNL     1     -15.354   0.586  13.678  1.00  0.00     0.055 A 
ATOM     89  C   UNL     1     -14.958   0.148  16.011  1.00  0.00     0.041 A 
ATOM     90  F   UNL     1     -12.869  -0.648  16.709  1.00  0.00    -0.206 F 
ATOM     91  C   UNL     1     -15.807   0.591  15.000  1.00  0.00     0.022 A 
BRANCH  88  92
ATOM     92  S   UNL     1     -16.391   1.279  12.361  1.00  0.00     0.124 S 
ATOM     93  O   UNL     1     -15.556   2.365  11.857  1.00  0.00    -0.237 OA
ATOM     94  O   UNL     1     -16.564   0.139  11.467  1.00  0.00    -0.237 OA
ATOM     95  O   UNL     1     -17.601   1.702  13.064  1.00  0.00    -0.744 OA
ENDBRANCH  88  92
ENDBRANCH  62  85
ENDBRANCH  36  37
ENDBRANCH  28  31
ENDBRANCH  26  27
ENDBRANCH  25  26
ENDBRANCH   1  25
TORSDOF 18
