REMARK SMILES N#CCOc1ccc2[nH]cc([C@H](C(=O)NCCCNC(=O)c3ccc(-c4c5nc(c(-c6cc(S(=O)(=O)[O-])ccc6F)c6ccc([nH]6)c(-c6cc(S(=O)(=O)[O-])ccc6F)c6nc(c(-c7cc(S(=O)(=O)[O-])ccc7F)c7ccc4[nH]7)C=C6)C=C5)cc3)[NH+]3CC[NH+]([C@@H]4CCS(=O)(=O)C4)CC3)c2c1
REMARK SMILES IDX 16 1 15 2 13 3 14 4 12 6 11 7 5 8 6 9 99 10 7 11 98 12 8 13
REMARK SMILES IDX 9 14 10 15 4 17 3 18 2 19 1 20 85 21 86 22 97 23 87 25 96 26
REMARK SMILES IDX 88 27 89 29 90 30 95 31 91 32 92 33 93 34 94 35 17 36 18 37
REMARK SMILES IDX 19 38 20 39 21 41 22 42 23 43 84 44 24 45 83 46 25 47 26 48
REMARK SMILES IDX 27 49 77 50 28 51 82 52 76 53 78 54 29 55 81 56 75 57 74 58
REMARK SMILES IDX 30 60 62 61 42 62 61 63 43 64 46 65 60 66 79 67 44 68 45 69
REMARK SMILES IDX 59 71 80 72 47 73 31 74 32 75 40 76 33 77 39 78 41 79 38 80
REMARK SMILES IDX 34 81 35 82 36 83 37 84 63 85 64 86 72 87 65 88 71 89 73 90
REMARK SMILES IDX 70 91 66 92 67 93 68 94 69 95 48 96 49 97 57 98 50 99 56 100
REMARK SMILES IDX 58 101 55 102 51 103 52 104 53 105 54 106
REMARK H PARENT 15 5 9 16 85 24 88 28 19 40 78 59 46 70
REMARK Flexibility Score: inf
ROOT
ATOM      1  C   UNL     1       6.122  -2.962  -1.639  1.00  0.00     0.118 C 
ENDROOT
BRANCH   1   2
ATOM      2  N   UNL     1       5.208  -3.554  -2.586  1.00  0.00    -0.351 N 
ATOM      3  C   UNL     1       5.296  -3.629  -3.939  1.00  0.00     0.283 C 
ATOM      4  O   UNL     1       4.246  -3.933  -4.511  1.00  0.00    -0.268 OA
ATOM      5  H   UNL     1       4.403  -3.963  -2.193  1.00  0.00     0.163 HD
BRANCH   3   6
ATOM      6  C   UNL     1       6.667  -3.458  -4.641  1.00  0.00     0.308 C 
BRANCH   6   7
ATOM      7  C   UNL     1       7.518  -4.701  -4.507  1.00  0.00     0.045 A 
ATOM      8  C   UNL     1       5.549  -7.860  -3.630  1.00  0.00     0.121 A 
ATOM      9  C   UNL     1       6.675  -8.686  -3.593  1.00  0.00     0.048 A 
ATOM     10  C   UNL     1       5.755  -6.546  -3.979  1.00  0.00     0.057 A 
ATOM     11  C   UNL     1       7.983  -8.213  -3.826  1.00  0.00     0.030 A 
ATOM     12  C   UNL     1       7.038  -6.010  -4.193  1.00  0.00     0.013 A 
ATOM     13  C   UNL     1       8.131  -6.862  -4.121  1.00  0.00     0.046 A 
ATOM     14  N   UNL     1       9.246  -6.118  -4.420  1.00  0.00    -0.361 N 
ATOM     15  C   UNL     1       8.891  -4.815  -4.653  1.00  0.00     0.094 A 
ATOM     16  H   UNL     1      10.165  -6.470  -4.460  1.00  0.00     0.166 HD
BRANCH   8  17
ATOM     17  O   UNL     1       4.204  -8.134  -3.501  1.00  0.00    -0.479 OA
BRANCH  17  18
ATOM     18  C   UNL     1       3.742  -8.985  -2.435  1.00  0.00     0.349 C 
BRANCH  18  19
ATOM     19  C   UNL     1       4.515 -10.282  -2.617  1.00  0.00     0.104 C 
ATOM     20  N   UNL     1       5.155 -11.357  -2.768  1.00  0.00    -0.195 NA
ENDBRANCH  18  19
ENDBRANCH  17  18
ENDBRANCH   8  17
ENDBRANCH   6   7
BRANCH   6  21
ATOM     21  N   UNL     1       6.562  -3.035  -6.054  1.00  0.00    -0.312 N 
ATOM     22  C   UNL     1       6.130  -4.043  -7.036  1.00  0.00     0.325 C 
ATOM     23  C   UNL     1       5.850  -1.757  -6.174  1.00  0.00     0.325 C 
ATOM     24  H   UNL     1       7.533  -2.899  -6.338  1.00  0.00     0.349 HD
ATOM     25  C   UNL     1       4.679  -3.993  -7.575  1.00  0.00     0.324 C 
ATOM     26  C   UNL     1       4.367  -1.822  -6.577  1.00  0.00     0.324 C 
ATOM     27  N   UNL     1       4.090  -2.658  -7.741  1.00  0.00    -0.322 N 
ATOM     28  H   UNL     1       3.075  -2.762  -7.733  1.00  0.00     0.348 HD
BRANCH  27  29
ATOM     29  C   UNL     1       4.156  -2.071  -9.077  1.00  0.00     0.200 C 
ATOM     30  C   UNL     1       5.522  -1.830  -9.742  1.00  0.00     0.082 C 
ATOM     31  C   UNL     1       3.352  -0.770  -9.220  1.00  0.00     0.201 C 
ATOM     32  C   UNL     1       5.984  -0.400  -9.517  1.00  0.00     0.143 C 
ATOM     33  S   UNL     1       4.530   0.567  -9.199  1.00  0.00     0.156 S 
ATOM     34  O   UNL     1       4.637   1.114  -7.864  1.00  0.00    -0.229 OA
ATOM     35  O   UNL     1       4.284   1.413 -10.351  1.00  0.00    -0.229 OA
ENDBRANCH  27  29
ENDBRANCH   6  21
ENDBRANCH   3   6
ENDBRANCH   1   2
BRANCH   1  36
ATOM     36  C   UNL     1       5.608  -1.585  -1.240  1.00  0.00     0.042 C 
BRANCH  36  37
ATOM     37  C   UNL     1       4.142  -1.592  -0.804  1.00  0.00     0.118 C 
BRANCH  37  38
ATOM     38  N   UNL     1       3.870  -2.594   0.221  1.00  0.00    -0.352 N 
ATOM     39  C   UNL     1       3.421  -2.425   1.505  1.00  0.00     0.251 C 
ATOM     40  H   UNL     1       4.033  -3.527  -0.049  1.00  0.00     0.163 HD
ATOM     41  O   UNL     1       3.463  -3.362   2.296  1.00  0.00    -0.269 OA
BRANCH  39  42
ATOM     42  C   UNL     1       2.916  -1.104   1.919  1.00  0.00     0.039 A 
ATOM     43  C   UNL     1       3.358  -0.554   3.122  1.00  0.00     0.014 A 
ATOM     44  C   UNL     1       2.033  -0.401   1.094  1.00  0.00     0.014 A 
ATOM     45  C   UNL     1       2.962   0.737   3.467  1.00  0.00     0.010 A 
ATOM     46  C   UNL     1       1.716   0.917   1.396  1.00  0.00     0.010 A 
ATOM     47  C   UNL     1       2.170   1.497   2.590  1.00  0.00    -0.014 A 
BRANCH  47  48
ATOM     48  C   UNL     1       1.792   2.896   2.910  1.00  0.00     0.031 A 
ATOM     49  C   UNL     1       0.341   3.258   3.077  1.00  0.00     0.074 A 
ATOM     50  C   UNL     1       2.746   3.844   2.990  1.00  0.00     0.049 A 
ATOM     51  N   UNL     1      -0.200   4.430   3.285  1.00  0.00    -0.248 NA
ATOM     52  C   UNL     1      -0.631   2.159   2.964  1.00  0.00     0.031 C 
ATOM     53  C   UNL     1       4.182   3.616   2.806  1.00  0.00     0.029 A 
ATOM     54  N   UNL     1       2.656   5.190   3.242  1.00  0.00    -0.354 N 
ATOM     55  C   UNL     1      -1.573   4.212   3.314  1.00  0.00     0.074 A 
ATOM     56  C   UNL     1      -1.782   2.809   3.032  1.00  0.00     0.031 C 
ATOM     57  C   UNL     1       4.838   4.774   2.982  1.00  0.00     0.029 A 
ATOM     58  C   UNL     1       3.871   5.837   3.236  1.00  0.00     0.049 A 
ATOM     59  H   UNL     1       1.802   5.649   3.410  1.00  0.00     0.167 HD
ATOM     60  C   UNL     1      -2.566   5.097   3.578  1.00  0.00     0.034 A 
ATOM     61  C   UNL     1       4.169   7.141   3.402  1.00  0.00     0.034 A 
ATOM     62  C   UNL     1      -2.335   6.492   3.865  1.00  0.00     0.049 A 
ATOM     63  C   UNL     1       3.044   8.113   3.659  1.00  0.00     0.074 A 
ATOM     64  C   UNL     1      -3.258   7.467   4.196  1.00  0.00     0.029 A 
ATOM     65  N   UNL     1      -1.092   7.114   3.844  1.00  0.00    -0.354 N 
ATOM     66  N   UNL     1       1.753   7.882   3.736  1.00  0.00    -0.248 NA
ATOM     67  C   UNL     1       3.418   9.518   3.862  1.00  0.00     0.031 C 
ATOM     68  C   UNL     1      -2.588   8.690   4.296  1.00  0.00     0.029 A 
ATOM     69  C   UNL     1      -1.231   8.465   4.121  1.00  0.00     0.049 A 
ATOM     70  H   UNL     1      -0.237   6.661   3.660  1.00  0.00     0.167 HD
ATOM     71  C   UNL     1       1.166   9.110   4.034  1.00  0.00     0.074 A 
ATOM     72  C   UNL     1       2.245  10.070   4.136  1.00  0.00     0.031 C 
ATOM     73  C   UNL     1      -0.145   9.414   4.213  1.00  0.00     0.034 A 
BRANCH  60  74
ATOM     74  C   UNL     1      -3.986   4.583   3.539  1.00  0.00     0.023 A 
ATOM     75  C   UNL     1      -4.433   3.575   4.413  1.00  0.00     0.031 A 
ATOM     76  C   UNL     1      -4.901   5.088   2.599  1.00  0.00     0.131 A 
ATOM     77  C   UNL     1      -5.727   3.050   4.276  1.00  0.00     0.055 A 
ATOM     78  C   UNL     1      -6.216   4.624   2.527  1.00  0.00     0.041 A 
ATOM     79  F   UNL     1      -4.528   6.033   1.721  1.00  0.00    -0.206 F 
ATOM     80  C   UNL     1      -6.631   3.588   3.358  1.00  0.00     0.022 A 
BRANCH  77  81
ATOM     81  S   UNL     1      -6.157   1.555   5.208  1.00  0.00     0.124 S 
ATOM     82  O   UNL     1      -5.144   0.613   4.737  1.00  0.00    -0.237 OA
ATOM     83  O   UNL     1      -6.026   1.996   6.591  1.00  0.00    -0.237 OA
ATOM     84  O   UNL     1      -7.521   1.260   4.772  1.00  0.00    -0.744 OA
ENDBRANCH  77  81
ENDBRANCH  60  74
BRANCH  61  85
ATOM     85  C   UNL     1       5.582   7.612   3.321  1.00  0.00     0.023 A 
ATOM     86  C   UNL     1       6.216   8.198   4.428  1.00  0.00     0.031 A 
ATOM     87  C   UNL     1       6.308   7.525   2.119  1.00  0.00     0.131 A 
ATOM     88  C   UNL     1       7.511   8.722   4.298  1.00  0.00     0.055 A 
ATOM     89  C   UNL     1       7.618   7.992   2.011  1.00  0.00     0.041 A 
ATOM     90  F   UNL     1       5.753   6.970   1.029  1.00  0.00    -0.206 F 
ATOM     91  C   UNL     1       8.223   8.609   3.101  1.00  0.00     0.022 A 
BRANCH  88  92
ATOM     92  S   UNL     1       8.219   9.643   5.691  1.00  0.00     0.124 S 
ATOM     93  O   UNL     1       7.229  10.696   5.883  1.00  0.00    -0.237 OA
ATOM     94  O   UNL     1       8.281   8.621   6.730  1.00  0.00    -0.237 OA
ATOM     95  O   UNL     1       9.514  10.089   5.180  1.00  0.00    -0.744 OA
ENDBRANCH  88  92
ENDBRANCH  61  85
BRANCH  73  96
ATOM     96  C   UNL     1      -0.476  10.838   4.593  1.00  0.00     0.023 A 
ATOM     97  C   UNL     1      -0.246  11.915   3.720  1.00  0.00     0.031 A 
ATOM     98  C   UNL     1      -1.027  11.118   5.857  1.00  0.00     0.131 A 
ATOM     99  C   UNL     1      -0.509  13.226   4.145  1.00  0.00     0.055 A 
ATOM    100  C   UNL     1      -1.352  12.417   6.247  1.00  0.00     0.041 A 
ATOM    101  F   UNL     1      -1.264  10.129   6.734  1.00  0.00    -0.206 F 
ATOM    102  C   UNL     1      -1.080  13.482   5.394  1.00  0.00     0.022 A 
BRANCH  99 103
ATOM    103  S   UNL     1       0.003  14.605   3.083  1.00  0.00     0.124 S 
ATOM    104  O   UNL     1       1.436  14.366   2.946  1.00  0.00    -0.237 OA
ATOM    105  O   UNL     1      -0.797  14.388   1.882  1.00  0.00    -0.237 OA
ATOM    106  O   UNL     1      -0.356  15.789   3.861  1.00  0.00    -0.744 OA
ENDBRANCH  99 103
ENDBRANCH  73  96
ENDBRANCH  47  48
ENDBRANCH  39  42
ENDBRANCH  37  38
ENDBRANCH  36  37
ENDBRANCH   1  36
TORSDOF 19
