REMARK SMILES O=C(CSc1ccnc(C(=O)NCCCNC(=O)c2ccc(-c3c4nc(c(-c5cc(S(=O)(=O)[O-])ccc5F)c5ccc([nH]5)c(-c5cc(S(=O)(=O)[O-])ccc5F)c5nc(c(-c6cc(S(=O)(=O)[O-])ccc6F)c6ccc3[nH]6)C=C5)C=C4)cc2)c1)NNc1ccccn1
REMARK SMILES IDX 13 1 12 2 10 3 11 4 9 6 5 7 6 8 82 9 7 10 8 11 4 12 3 13
REMARK SMILES IDX 2 14 1 15 83 16 84 18 85 20 86 21 90 22 87 23 89 24 88 25
REMARK SMILES IDX 14 26 15 27 16 28 17 29 18 31 19 32 20 33 81 34 21 35 80 36
REMARK SMILES IDX 22 37 23 38 24 39 74 40 25 41 79 42 73 43 75 44 26 45 78 46
REMARK SMILES IDX 72 47 71 48 27 50 59 51 39 52 58 53 40 54 43 55 57 56 76 57
REMARK SMILES IDX 41 58 42 59 56 61 77 62 44 63 28 64 29 65 37 66 30 67 36 68
REMARK SMILES IDX 38 69 35 70 31 71 32 72 33 73 34 74 60 75 61 76 69 77 62 78
REMARK SMILES IDX 68 79 70 80 67 81 63 82 64 83 65 84 66 85 45 86 46 87 54 88
REMARK SMILES IDX 47 89 53 90 55 91 52 92 48 93 49 94 50 95 51 96
REMARK H PARENT 12 5 83 17 84 19 16 30 75 49 43 60
REMARK Flexibility Score: inf
ROOT
ATOM      1  C   UNL     1       4.265  -6.488  -1.872  1.00  0.00     0.118 C 
ENDROOT
BRANCH   1   2
ATOM      2  N   UNL     1       3.110  -6.624  -2.740  1.00  0.00    -0.351 N 
ATOM      3  C   UNL     1       2.194  -5.731  -3.249  1.00  0.00     0.269 C 
ATOM      4  O   UNL     1       1.336  -6.210  -3.995  1.00  0.00    -0.268 OA
ATOM      5  H   UNL     1       2.946  -7.552  -3.025  1.00  0.00     0.163 HD
BRANCH   3   6
ATOM      6  C   UNL     1       2.213  -4.246  -2.987  1.00  0.00     0.129 A 
ATOM      7  C   UNL     1       2.904  -2.250  -1.855  1.00  0.00     0.012 A 
ATOM      8  C   UNL     1       2.220  -1.497  -2.802  1.00  0.00     0.035 A 
ATOM      9  C   UNL     1       2.865  -3.643  -1.924  1.00  0.00     0.049 A 
ATOM     10  C   UNL     1       1.528  -2.173  -3.787  1.00  0.00     0.113 A 
ATOM     11  N   UNL     1       1.530  -3.514  -3.909  1.00  0.00    -0.251 NA
BRANCH   7  12
ATOM     12  S   UNL     1       3.954  -1.489  -0.625  1.00  0.00    -0.116 SA
BRANCH  12  13
ATOM     13  C   UNL     1       2.701  -0.837   0.534  1.00  0.00     0.176 C 
BRANCH  13  14
ATOM     14  C   UNL     1       1.959   0.349  -0.049  1.00  0.00     0.248 C 
ATOM     15  O   UNL     1       0.737   0.460   0.023  1.00  0.00    -0.272 OA
ATOM     16  N   UNL     1       2.783   1.309  -0.610  1.00  0.00    -0.268 N 
ATOM     17  H   UNL     1       3.762   1.212  -0.581  1.00  0.00     0.191 HD
BRANCH  16  18
ATOM     18  N   UNL     1       2.197   2.410  -1.216  1.00  0.00    -0.282 N 
ATOM     19  H   UNL     1       1.224   2.550  -1.165  1.00  0.00     0.190 HD
BRANCH  18  20
ATOM     20  C   UNL     1       3.007   3.317  -1.897  1.00  0.00     0.144 A 
ATOM     21  C   UNL     1       4.111   2.910  -2.647  1.00  0.00     0.048 A 
ATOM     22  N   UNL     1       2.662   4.616  -1.798  1.00  0.00    -0.238 NA
ATOM     23  C   UNL     1       4.896   3.867  -3.287  1.00  0.00     0.005 A 
ATOM     24  C   UNL     1       3.441   5.528  -2.420  1.00  0.00     0.113 A 
ATOM     25  C   UNL     1       4.561   5.207  -3.165  1.00  0.00     0.020 A 
ENDBRANCH  18  20
ENDBRANCH  16  18
ENDBRANCH  13  14
ENDBRANCH  12  13
ENDBRANCH   7  12
ENDBRANCH   3   6
ENDBRANCH   1   2
BRANCH   1  26
ATOM     26  C   UNL     1       3.900  -6.790  -0.418  1.00  0.00     0.042 C 
BRANCH  26  27
ATOM     27  C   UNL     1       3.778  -8.286  -0.128  1.00  0.00     0.118 C 
BRANCH  27  28
ATOM     28  N   UNL     1       5.071  -8.948  -0.201  1.00  0.00    -0.352 N 
ATOM     29  C   UNL     1       5.755  -9.673   0.742  1.00  0.00     0.251 C 
ATOM     30  H   UNL     1       5.530  -8.863  -1.068  1.00  0.00     0.163 HD
ATOM     31  O   UNL     1       6.947  -9.900   0.555  1.00  0.00    -0.269 OA
BRANCH  29  32
ATOM     32  C   UNL     1       5.084 -10.177   1.963  1.00  0.00     0.039 A 
ATOM     33  C   UNL     1       5.822 -10.245   3.149  1.00  0.00     0.014 A 
ATOM     34  C   UNL     1       3.773 -10.661   1.935  1.00  0.00     0.014 A 
ATOM     35  C   UNL     1       5.242 -10.772   4.306  1.00  0.00     0.010 A 
ATOM     36  C   UNL     1       3.171 -11.122   3.106  1.00  0.00     0.010 A 
ATOM     37  C   UNL     1       3.905 -11.201   4.299  1.00  0.00    -0.014 A 
BRANCH  37  38
ATOM     38  C   UNL     1       3.279 -11.771   5.521  1.00  0.00     0.031 A 
ATOM     39  C   UNL     1       2.845 -13.214   5.545  1.00  0.00     0.074 A 
ATOM     40  C   UNL     1       3.064 -10.980   6.591  1.00  0.00     0.049 A 
ATOM     41  N   UNL     1       2.239 -13.883   6.493  1.00  0.00    -0.248 NA
ATOM     42  C   UNL     1       3.101 -14.000   4.328  1.00  0.00     0.031 C 
ATOM     43  C   UNL     1       3.409  -9.558   6.672  1.00  0.00     0.029 A 
ATOM     44  N   UNL     1       2.505 -11.254   7.814  1.00  0.00    -0.354 N 
ATOM     45  C   UNL     1       2.018 -15.158   5.979  1.00  0.00     0.074 A 
ATOM     46  C   UNL     1       2.511 -15.150   4.618  1.00  0.00     0.031 C 
ATOM     47  C   UNL     1       3.081  -9.095   7.889  1.00  0.00     0.029 A 
ATOM     48  C   UNL     1       2.467 -10.171   8.661  1.00  0.00     0.049 A 
ATOM     49  H   UNL     1       2.163 -12.143   8.061  1.00  0.00     0.167 HD
ATOM     50  C   UNL     1       1.473 -16.238   6.593  1.00  0.00     0.034 A 
ATOM     51  C   UNL     1       1.989 -10.058   9.916  1.00  0.00     0.034 A 
ATOM     52  C   UNL     1       1.014 -16.235   7.961  1.00  0.00     0.049 A 
ATOM     53  C   UNL     1       1.399 -11.278  10.579  1.00  0.00     0.074 A 
ATOM     54  C   UNL     1       0.503 -17.286   8.703  1.00  0.00     0.029 A 
ATOM     55  N   UNL     1       1.010 -15.124   8.796  1.00  0.00    -0.354 N 
ATOM     56  N   UNL     1       1.249 -12.491  10.098  1.00  0.00    -0.248 NA
ATOM     57  C   UNL     1       0.934 -11.117  11.962  1.00  0.00     0.031 C 
ATOM     58  C   UNL     1       0.134 -16.798   9.962  1.00  0.00     0.029 A 
ATOM     59  C   UNL     1       0.484 -15.459  10.034  1.00  0.00     0.049 A 
ATOM     60  H   UNL     1       1.333 -14.228   8.544  1.00  0.00     0.167 HD
ATOM     61  C   UNL     1       0.711 -13.246  11.137  1.00  0.00     0.074 A 
ATOM     62  C   UNL     1       0.580 -12.354  12.271  1.00  0.00     0.031 C 
ATOM     63  C   UNL     1       0.360 -14.558  11.156  1.00  0.00     0.034 A 
BRANCH  50  64
ATOM     64  C   UNL     1       1.317 -17.500   5.776  1.00  0.00     0.023 A 
ATOM     65  C   UNL     1       2.425 -18.192   5.256  1.00  0.00     0.031 A 
ATOM     66  C   UNL     1       0.036 -18.009   5.495  1.00  0.00     0.131 A 
ATOM     67  C   UNL     1       2.231 -19.305   4.424  1.00  0.00     0.055 A 
ATOM     68  C   UNL     1      -0.148 -19.165   4.733  1.00  0.00     0.041 A 
ATOM     69  F   UNL     1      -1.063 -17.383   5.946  1.00  0.00    -0.206 F 
ATOM     70  C   UNL     1       0.953 -19.812   4.179  1.00  0.00     0.022 A 
BRANCH  67  71
ATOM     71  S   UNL     1       3.663 -19.999   3.554  1.00  0.00     0.124 S 
ATOM     72  O   UNL     1       4.113 -18.853   2.767  1.00  0.00    -0.237 OA
ATOM     73  O   UNL     1       4.535 -20.402   4.651  1.00  0.00    -0.237 OA
ATOM     74  O   UNL     1       3.094 -21.096   2.774  1.00  0.00    -0.744 OA
ENDBRANCH  67  71
ENDBRANCH  50  64
BRANCH  51  75
ATOM     75  C   UNL     1       2.051  -8.757  10.642  1.00  0.00     0.023 A 
ATOM     76  C   UNL     1       2.819  -8.621  11.809  1.00  0.00     0.031 A 
ATOM     77  C   UNL     1       1.298  -7.649  10.216  1.00  0.00     0.131 A 
ATOM     78  C   UNL     1       2.772  -7.427  12.545  1.00  0.00     0.055 A 
ATOM     79  C   UNL     1       1.298  -6.443  10.921  1.00  0.00     0.041 A 
ATOM     80  F   UNL     1       0.553  -7.721   9.102  1.00  0.00    -0.206 F 
ATOM     81  C   UNL     1       2.025  -6.333  12.102  1.00  0.00     0.022 A 
BRANCH  78  82
ATOM     82  S   UNL     1       3.623  -7.361  14.145  1.00  0.00     0.124 S 
ATOM     83  O   UNL     1       3.015  -8.482  14.852  1.00  0.00    -0.237 OA
ATOM     84  O   UNL     1       5.018  -7.530  13.751  1.00  0.00    -0.237 OA
ATOM     85  O   UNL     1       3.279  -6.036  14.658  1.00  0.00    -0.744 OA
ENDBRANCH  78  82
ENDBRANCH  51  75
BRANCH  63  86
ATOM     86  C   UNL     1      -0.137 -15.111  12.470  1.00  0.00     0.023 A 
ATOM     87  C   UNL     1      -1.340 -14.674  13.051  1.00  0.00     0.031 A 
ATOM     88  C   UNL     1       0.628 -16.062  13.168  1.00  0.00     0.131 A 
ATOM     89  C   UNL     1      -1.705 -15.130  14.326  1.00  0.00     0.055 A 
ATOM     90  C   UNL     1       0.225 -16.563  14.406  1.00  0.00     0.041 A 
ATOM     91  F   UNL     1       1.786 -16.514  12.661  1.00  0.00    -0.206 F 
ATOM     92  C   UNL     1      -0.938 -16.084  15.001  1.00  0.00     0.022 A 
BRANCH  89  93
ATOM     93  S   UNL     1      -3.134 -14.370  15.146  1.00  0.00     0.124 S 
ATOM     94  O   UNL     1      -2.780 -12.954  15.122  1.00  0.00    -0.237 OA
ATOM     95  O   UNL     1      -4.237 -14.765  14.277  1.00  0.00    -0.237 OA
ATOM     96  O   UNL     1      -3.137 -14.985  16.472  1.00  0.00    -0.744 OA
ENDBRANCH  89  93
ENDBRANCH  63  86
ENDBRANCH  37  38
ENDBRANCH  29  32
ENDBRANCH  27  28
ENDBRANCH  26  27
ENDBRANCH   1  26
TORSDOF 18
