REMARK SMILES CC1(C)[C@H](C(=O)NCCCNC(=O)c2ccc(-c3c4nc(c(-c5cc(S(=O)(=O)[O-])ccc5F)c5ccc([nH]5)c(-c5cc(S(=O)(=O)[O-])ccc5F)c5nc(c(-c6cc(S(=O)(=O)[O-])ccc6F)c6ccc3[nH]6)C=C5)C=C4)cc2)[C@H]1C(=O)Nc1ccccc1C(=O)Nc1nccs1
REMARK SMILES IDX 8 1 7 2 5 3 6 4 4 6 1 7 2 8 3 9 77 10 78 11 79 12 80 13
REMARK SMILES IDX 81 15 82 16 86 17 83 18 85 19 84 20 87 21 88 22 89 23 90 25
REMARK SMILES IDX 91 26 94 27 92 28 93 29 9 30 10 31 11 32 12 33 13 35 14 36
REMARK SMILES IDX 15 37 76 38 16 39 75 40 17 41 18 42 19 43 69 44 20 45 74 46
REMARK SMILES IDX 68 47 70 48 21 49 73 50 67 51 66 52 22 54 54 55 34 56 53 57
REMARK SMILES IDX 35 58 38 59 52 60 71 61 36 62 37 63 51 65 72 66 39 67 23 68
REMARK SMILES IDX 24 69 32 70 25 71 31 72 33 73 30 74 26 75 27 76 28 77 29 78
REMARK SMILES IDX 55 79 56 80 64 81 57 82 63 83 65 84 62 85 58 86 59 87 60 88
REMARK SMILES IDX 61 89 40 90 41 91 49 92 42 93 48 94 50 95 47 96 43 97 44 98
REMARK SMILES IDX 45 99 46 100
REMARK H PARENT 7 5 80 14 89 24 11 34 70 53 38 64
REMARK Flexibility Score: inf
ROOT
ATOM      1  C   UNL     1      -1.661   3.260  -0.217  1.00  0.00     0.117 C 
ENDROOT
BRANCH   1   2
ATOM      2  N   UNL     1      -2.106   2.527  -1.372  1.00  0.00    -0.356 N 
ATOM      3  C   UNL     1      -1.675   1.364  -1.932  1.00  0.00     0.224 C 
ATOM      4  O   UNL     1      -2.000   1.158  -3.090  1.00  0.00    -0.275 OA
ATOM      5  H   UNL     1      -2.861   2.945  -1.845  1.00  0.00     0.163 HD
BRANCH   3   6
ATOM      6  C   UNL     1      -0.970   0.286  -1.225  1.00  0.00     0.098 C 
ATOM      7  C   UNL     1       1.239  -0.853  -1.372  1.00  0.00     0.013 C 
ATOM      8  C   UNL     1       0.393   0.158  -0.634  1.00  0.00    -0.011 C 
ATOM      9  C   UNL     1       1.279   1.296  -0.155  1.00  0.00     0.013 C 
ATOM     10  C   UNL     1      -0.859  -0.009   0.256  1.00  0.00     0.098 C 
BRANCH  10  11
ATOM     11  C   UNL     1      -1.986  -0.889   0.630  1.00  0.00     0.228 C 
ATOM     12  O   UNL     1      -3.012  -0.339   1.036  1.00  0.00    -0.274 OA
ATOM     13  N   UNL     1      -2.025  -2.236   0.477  1.00  0.00    -0.325 N 
ATOM     14  H   UNL     1      -2.914  -2.624   0.641  1.00  0.00     0.169 HD
BRANCH  13  15
ATOM     15  C   UNL     1      -1.061  -3.179   0.136  1.00  0.00     0.054 A 
ATOM     16  C   UNL     1      -1.550  -4.137  -0.775  1.00  0.00     0.027 A 
ATOM     17  C   UNL     1       0.275  -3.232   0.559  1.00  0.00     0.063 A 
ATOM     18  C   UNL     1      -0.691  -5.005  -1.434  1.00  0.00     0.002 A 
ATOM     19  C   UNL     1       1.133  -4.112  -0.139  1.00  0.00     0.016 A 
ATOM     20  C   UNL     1       0.664  -4.960  -1.149  1.00  0.00     0.001 A 
BRANCH  17  21
ATOM     21  C   UNL     1       0.940  -2.410   1.626  1.00  0.00     0.259 C 
ATOM     22  O   UNL     1       2.151  -2.183   1.523  1.00  0.00    -0.269 OA
ATOM     23  N   UNL     1       0.303  -1.828   2.686  1.00  0.00    -0.298 N 
ATOM     24  H   UNL     1       0.740  -1.032   3.067  1.00  0.00     0.172 HD
BRANCH  23  25
ATOM     25  C   UNL     1      -0.857  -2.209   3.281  1.00  0.00     0.189 A 
ATOM     26  N   UNL     1      -1.546  -3.311   3.138  1.00  0.00    -0.229 NA
ATOM     27  S   UNL     1      -1.492  -1.035   4.349  1.00  0.00    -0.105 S 
ATOM     28  C   UNL     1      -2.725  -3.190   3.850  1.00  0.00     0.125 A 
ATOM     29  C   UNL     1      -2.901  -1.997   4.519  1.00  0.00     0.088 A 
ENDBRANCH  23  25
ENDBRANCH  17  21
ENDBRANCH  13  15
ENDBRANCH  10  11
ENDBRANCH   3   6
ENDBRANCH   1   2
BRANCH   1  30
ATOM     30  C   UNL     1      -0.480   4.146  -0.587  1.00  0.00     0.042 C 
BRANCH  30  31
ATOM     31  C   UNL     1      -0.848   5.259  -1.554  1.00  0.00     0.118 C 
BRANCH  31  32
ATOM     32  N   UNL     1      -1.735   6.232  -0.941  1.00  0.00    -0.352 N 
ATOM     33  C   UNL     1      -1.494   7.543  -0.617  1.00  0.00     0.251 C 
ATOM     34  H   UNL     1      -2.639   5.903  -0.728  1.00  0.00     0.163 HD
ATOM     35  O   UNL     1      -2.261   8.125   0.144  1.00  0.00    -0.269 OA
BRANCH  33  36
ATOM     36  C   UNL     1      -0.309   8.234  -1.168  1.00  0.00     0.039 A 
ATOM     37  C   UNL     1       0.406   9.111  -0.351  1.00  0.00     0.014 A 
ATOM     38  C   UNL     1       0.089   8.030  -2.493  1.00  0.00     0.014 A 
ATOM     39  C   UNL     1       1.548   9.743  -0.848  1.00  0.00     0.010 A 
ATOM     40  C   UNL     1       1.280   8.580  -2.953  1.00  0.00     0.010 A 
ATOM     41  C   UNL     1       2.012   9.459  -2.142  1.00  0.00    -0.014 A 
BRANCH  41  42
ATOM     42  C   UNL     1       3.234  10.102  -2.690  1.00  0.00     0.031 A 
ATOM     43  C   UNL     1       3.127  10.983  -3.908  1.00  0.00     0.074 A 
ATOM     44  C   UNL     1       4.435   9.854  -2.132  1.00  0.00     0.049 A 
ATOM     45  N   UNL     1       4.076  11.550  -4.607  1.00  0.00    -0.248 NA
ATOM     46  C   UNL     1       1.771  11.233  -4.424  1.00  0.00     0.031 C 
ATOM     47  C   UNL     1       4.665   8.999  -0.965  1.00  0.00     0.029 A 
ATOM     48  N   UNL     1       5.691  10.290  -2.473  1.00  0.00    -0.354 N 
ATOM     49  C   UNL     1       3.434  12.212  -5.649  1.00  0.00     0.074 A 
ATOM     50  C   UNL     1       2.024  11.916  -5.530  1.00  0.00     0.031 C 
ATOM     51  C   UNL     1       5.976   8.997  -0.671  1.00  0.00     0.029 A 
ATOM     52  C   UNL     1       6.688   9.802  -1.659  1.00  0.00     0.049 A 
ATOM     53  H   UNL     1       5.862  10.896  -3.229  1.00  0.00     0.167 HD
ATOM     54  C   UNL     1       3.969  13.018  -6.599  1.00  0.00     0.034 A 
ATOM     55  C   UNL     1       8.024   9.971  -1.715  1.00  0.00     0.034 A 
ATOM     56  C   UNL     1       5.376  13.315  -6.692  1.00  0.00     0.049 A 
ATOM     57  C   UNL     1       8.600  10.834  -2.813  1.00  0.00     0.074 A 
ATOM     58  C   UNL     1       6.025  14.139  -7.595  1.00  0.00     0.029 A 
ATOM     59  N   UNL     1       6.355  12.799  -5.852  1.00  0.00    -0.354 N 
ATOM     60  N   UNL     1       7.974  11.476  -3.773  1.00  0.00    -0.248 NA
ATOM     61  C   UNL     1      10.058  11.004  -2.828  1.00  0.00     0.031 C 
ATOM     62  C   UNL     1       7.398  14.071  -7.343  1.00  0.00     0.029 A 
ATOM     63  C   UNL     1       7.602  13.270  -6.231  1.00  0.00     0.049 A 
ATOM     64  H   UNL     1       6.187  12.189  -5.098  1.00  0.00     0.167 HD
ATOM     65  C   UNL     1       8.963  12.161  -4.476  1.00  0.00     0.074 A 
ATOM     66  C   UNL     1      10.220  11.862  -3.823  1.00  0.00     0.031 C 
ATOM     67  C   UNL     1       8.844  12.968  -5.561  1.00  0.00     0.034 A 
BRANCH  54  68
ATOM     68  C   UNL     1       3.028  13.619  -7.614  1.00  0.00     0.023 A 
ATOM     69  C   UNL     1       2.009  14.511  -7.236  1.00  0.00     0.031 A 
ATOM     70  C   UNL     1       3.141  13.290  -8.976  1.00  0.00     0.131 A 
ATOM     71  C   UNL     1       1.105  14.990  -8.194  1.00  0.00     0.055 A 
ATOM     72  C   UNL     1       2.288  13.835  -9.939  1.00  0.00     0.041 A 
ATOM     73  F   UNL     1       4.079  12.426  -9.396  1.00  0.00    -0.206 F 
ATOM     74  C   UNL     1       1.254  14.680  -9.548  1.00  0.00     0.022 A 
BRANCH  71  75
ATOM     75  S   UNL     1      -0.347  15.917  -7.628  1.00  0.00     0.124 S 
ATOM     76  O   UNL     1      -1.008  14.934  -6.771  1.00  0.00    -0.237 OA
ATOM     77  O   UNL     1       0.252  17.058  -6.946  1.00  0.00    -0.237 OA
ATOM     78  O   UNL     1      -1.058  16.231  -8.866  1.00  0.00    -0.744 OA
ENDBRANCH  71  75
ENDBRANCH  54  68
BRANCH  55  79
ATOM     79  C   UNL     1       8.922   9.311  -0.722  1.00  0.00     0.023 A 
ATOM     80  C   UNL     1       9.742  10.073   0.126  1.00  0.00     0.031 A 
ATOM     81  C   UNL     1       9.033   7.910  -0.656  1.00  0.00     0.131 A 
ATOM     82  C   UNL     1      10.683   9.437   0.949  1.00  0.00     0.055 A 
ATOM     83  C   UNL     1       9.924   7.280   0.215  1.00  0.00     0.041 A 
ATOM     84  F   UNL     1       8.274   7.130  -1.442  1.00  0.00    -0.206 F 
ATOM     85  C   UNL     1      10.771   8.045   1.010  1.00  0.00     0.022 A 
BRANCH  82  86
ATOM     86  S   UNL     1      11.882  10.463   1.845  1.00  0.00     0.124 S 
ATOM     87  O   UNL     1      12.485  11.228   0.759  1.00  0.00    -0.237 OA
ATOM     88  O   UNL     1      11.020  11.210   2.755  1.00  0.00    -0.237 OA
ATOM     89  O   UNL     1      12.759   9.483   2.481  1.00  0.00    -0.744 OA
ENDBRANCH  82  86
ENDBRANCH  55  79
BRANCH  67  90
ATOM     90  C   UNL     1      10.099  13.640  -6.062  1.00  0.00     0.023 A 
ATOM     91  C   UNL     1      11.156  12.912  -6.633  1.00  0.00     0.031 A 
ATOM     92  C   UNL     1      10.233  15.037  -5.965  1.00  0.00     0.131 A 
ATOM     93  C   UNL     1      12.323  13.578  -7.038  1.00  0.00     0.055 A 
ATOM     94  C   UNL     1      11.369  15.701  -6.427  1.00  0.00     0.041 A 
ATOM     95  F   UNL     1       9.254  15.782  -5.425  1.00  0.00    -0.206 F 
ATOM     96  C   UNL     1      12.428  14.969  -6.955  1.00  0.00     0.022 A 
BRANCH  93  97
ATOM     97  S   UNL     1      13.739  12.592  -7.595  1.00  0.00     0.124 S 
ATOM     98  O   UNL     1      14.006  11.758  -6.428  1.00  0.00    -0.237 OA
ATOM     99  O   UNL     1      13.200  11.902  -8.762  1.00  0.00    -0.237 OA
ATOM    100  O   UNL     1      14.762  13.595  -7.887  1.00  0.00    -0.744 OA
ENDBRANCH  93  97
ENDBRANCH  67  90
ENDBRANCH  41  42
ENDBRANCH  33  36
ENDBRANCH  31  32
ENDBRANCH  30  31
ENDBRANCH   1  30
TORSDOF 17
