REMARK SMILES C[C@H](Nc1ccc(N(C)C)cc1)[C@@H](C)C(=O)NCCCNC(=O)c1ccc(-c2c3nc(c(-c4cc(S(=O)(=O)[O-])ccc4F)c4ccc([nH]4)c(-c4cc(S(=O)(=O)[O-])ccc4F)c4nc(c(-c5cc(S(=O)(=O)[O-])ccc5F)c5ccc2[nH]5)C=C4)C=C3)cc1
REMARK SMILES IDX 18 1 17 2 15 3 16 4 13 6 14 7 2 8 1 9 3 10 4 12 5 13 12 14
REMARK SMILES IDX 6 15 11 16 7 17 8 18 9 19 10 20 19 21 20 22 21 23 22 24
REMARK SMILES IDX 23 26 24 27 25 28 86 29 26 30 85 31 27 32 28 33 29 34 79 35
REMARK SMILES IDX 30 36 84 37 78 38 80 39 31 40 83 41 77 42 76 43 32 45 64 46
REMARK SMILES IDX 44 47 63 48 45 49 48 50 62 51 81 52 46 53 47 54 61 56 82 57
REMARK SMILES IDX 49 58 33 59 34 60 42 61 35 62 41 63 43 64 40 65 36 66 37 67
REMARK SMILES IDX 38 68 39 69 65 70 66 71 74 72 67 73 73 74 75 75 72 76 68 77
REMARK SMILES IDX 69 78 70 79 71 80 50 81 51 82 59 83 52 84 58 85 60 86 57 87
REMARK SMILES IDX 53 88 54 89 55 90 56 91
REMARK H PARENT 17 5 3 11 21 25 80 44 48 55
REMARK Flexibility Score: inf
ROOT
ATOM      1  C   UNL     1      -0.487  -3.983   0.614  1.00  0.00     0.117 C 
ENDROOT
BRANCH   1   2
ATOM      2  N   UNL     1      -1.294  -3.284   1.603  1.00  0.00    -0.356 N 
ATOM      3  C   UNL     1      -1.558  -1.963   1.791  1.00  0.00     0.224 C 
ATOM      4  O   UNL     1      -2.307  -1.666   2.727  1.00  0.00    -0.275 OA
ATOM      5  H   UNL     1      -1.729  -3.877   2.257  1.00  0.00     0.163 HD
BRANCH   3   6
ATOM      6  C   UNL     1      -0.981  -0.866   0.900  1.00  0.00     0.097 C 
ATOM      7  C   UNL     1      -1.565  -0.956  -0.511  1.00  0.00     0.020 C 
BRANCH   6   8
ATOM      8  C   UNL     1       0.557  -0.816   0.994  1.00  0.00     0.088 C 
ATOM      9  C   UNL     1       1.008  -0.389   2.399  1.00  0.00     0.031 C 
BRANCH   8  10
ATOM     10  N   UNL     1       1.116   0.125   0.021  1.00  0.00    -0.382 N 
ATOM     11  H   UNL     1       0.542   0.836  -0.347  1.00  0.00     0.160 HD
BRANCH  10  12
ATOM     12  C   UNL     1       2.439   0.035  -0.393  1.00  0.00     0.034 A 
ATOM     13  C   UNL     1       3.167   1.200  -0.623  1.00  0.00     0.028 A 
ATOM     14  C   UNL     1       3.114  -1.170  -0.560  1.00  0.00     0.028 A 
ATOM     15  C   UNL     1       4.532   1.159  -0.965  1.00  0.00     0.028 A 
ATOM     16  C   UNL     1       4.475  -1.205  -0.911  1.00  0.00     0.028 A 
ATOM     17  C   UNL     1       5.238  -0.043  -1.111  1.00  0.00     0.036 A 
BRANCH  17  18
ATOM     18  N   UNL     1       6.583  -0.100  -1.450  1.00  0.00    -0.378 N 
ATOM     19  C   UNL     1       7.450   1.069  -1.533  1.00  0.00     0.143 C 
ATOM     20  C   UNL     1       7.277  -1.389  -1.494  1.00  0.00     0.143 C 
ENDBRANCH  17  18
ENDBRANCH  10  12
ENDBRANCH   8  10
ENDBRANCH   6   8
ENDBRANCH   3   6
ENDBRANCH   1   2
BRANCH   1  21
ATOM     21  C   UNL     1       0.789  -4.573   1.207  1.00  0.00     0.042 C 
BRANCH  21  22
ATOM     22  C   UNL     1       0.553  -5.688   2.218  1.00  0.00     0.118 C 
BRANCH  22  23
ATOM     23  N   UNL     1      -0.101  -6.846   1.628  1.00  0.00    -0.352 N 
ATOM     24  C   UNL     1       0.352  -8.127   1.448  1.00  0.00     0.251 C 
ATOM     25  H   UNL     1      -1.017  -6.683   1.306  1.00  0.00     0.163 HD
ATOM     26  O   UNL     1      -0.292  -8.889   0.721  1.00  0.00    -0.269 OA
BRANCH  24  27
ATOM     27  C   UNL     1       1.600  -8.595   2.090  1.00  0.00     0.039 A 
ATOM     28  C   UNL     1       2.447  -9.450   1.379  1.00  0.00     0.014 A 
ATOM     29  C   UNL     1       1.926  -8.227   3.398  1.00  0.00     0.014 A 
ATOM     30  C   UNL     1       3.646  -9.880   1.954  1.00  0.00     0.010 A 
ATOM     31  C   UNL     1       3.162  -8.581   3.935  1.00  0.00     0.010 A 
ATOM     32  C   UNL     1       4.032  -9.419   3.223  1.00  0.00    -0.014 A 
BRANCH  32  33
ATOM     33  C   UNL     1       5.337  -9.807   3.821  1.00  0.00     0.031 A 
ATOM     34  C   UNL     1       5.381 -10.585   5.108  1.00  0.00     0.074 A 
ATOM     35  C   UNL     1       6.482  -9.396   3.241  1.00  0.00     0.049 A 
ATOM     36  N   UNL     1       6.415 -10.954   5.820  1.00  0.00    -0.248 NA
ATOM     37  C   UNL     1       4.086 -10.965   5.690  1.00  0.00     0.031 C 
ATOM     38  C   UNL     1       6.567  -8.588   2.022  1.00  0.00     0.029 A 
ATOM     39  N   UNL     1       7.792  -9.588   3.603  1.00  0.00    -0.354 N 
ATOM     40  C   UNL     1       5.896 -11.591   6.943  1.00  0.00     0.074 A 
ATOM     41  C   UNL     1       4.455 -11.495   6.846  1.00  0.00     0.031 C 
ATOM     42  C   UNL     1       7.858  -8.373   1.727  1.00  0.00     0.029 A 
ATOM     43  C   UNL     1       8.692  -8.984   2.757  1.00  0.00     0.049 A 
ATOM     44  H   UNL     1       8.061 -10.109   4.394  1.00  0.00     0.167 HD
ATOM     45  C   UNL     1       6.559 -12.216   7.949  1.00  0.00     0.034 A 
ATOM     46  C   UNL     1      10.037  -8.915   2.810  1.00  0.00     0.034 A 
ATOM     47  C   UNL     1       7.999 -12.309   8.019  1.00  0.00     0.049 A 
ATOM     48  C   UNL     1      10.757  -9.610   3.936  1.00  0.00     0.074 A 
ATOM     49  C   UNL     1       8.776 -12.983   8.945  1.00  0.00     0.029 A 
ATOM     50  N   UNL     1       8.881 -11.694   7.138  1.00  0.00    -0.354 N 
ATOM     51  N   UNL     1      10.255 -10.272   4.953  1.00  0.00    -0.248 NA
ATOM     52  C   UNL     1      12.223  -9.560   3.912  1.00  0.00     0.031 C 
ATOM     53  C   UNL     1      10.121 -12.711   8.671  1.00  0.00     0.029 A 
ATOM     54  C   UNL     1      10.192 -11.939   7.522  1.00  0.00     0.049 A 
ATOM     55  H   UNL     1       8.614 -11.162   6.353  1.00  0.00     0.167 HD
ATOM     56  C   UNL     1      11.347 -10.737   5.680  1.00  0.00     0.074 A 
ATOM     57  C   UNL     1      12.532 -10.293   4.972  1.00  0.00     0.031 C 
ATOM     58  C   UNL     1      11.368 -11.469   6.824  1.00  0.00     0.034 A 
BRANCH  45  59
ATOM     59  C   UNL     1       5.727 -12.812   9.063  1.00  0.00     0.023 A 
ATOM     60  C   UNL     1       4.769 -13.813   8.820  1.00  0.00     0.031 A 
ATOM     61  C   UNL     1       5.855 -12.338  10.381  1.00  0.00     0.131 A 
ATOM     62  C   UNL     1       3.910 -14.229   9.849  1.00  0.00     0.055 A 
ATOM     63  C   UNL     1       5.062 -12.826  11.422  1.00  0.00     0.041 A 
ATOM     64  F   UNL     1       6.737 -11.370  10.677  1.00  0.00    -0.206 F 
ATOM     65  C   UNL     1       4.067 -13.762  11.155  1.00  0.00     0.022 A 
BRANCH  62  66
ATOM     66  S   UNL     1       2.471 -15.247   9.415  1.00  0.00     0.124 S 
ATOM     67  O   UNL     1       1.812 -14.413   8.412  1.00  0.00    -0.237 OA
ATOM     68  O   UNL     1       3.090 -16.472   8.922  1.00  0.00    -0.237 OA
ATOM     69  O   UNL     1       1.749 -15.375  10.679  1.00  0.00    -0.744 OA
ENDBRANCH  62  66
ENDBRANCH  45  59
BRANCH  46  70
ATOM     70  C   UNL     1      10.784  -8.148   1.773  1.00  0.00     0.023 A 
ATOM     71  C   UNL     1      11.625  -8.794   0.854  1.00  0.00     0.031 A 
ATOM     72  C   UNL     1      10.664  -6.749   1.689  1.00  0.00     0.131 A 
ATOM     73  C   UNL     1      12.336  -8.039  -0.092  1.00  0.00     0.055 A 
ATOM     74  C   UNL     1      11.337  -6.008   0.717  1.00  0.00     0.041 A 
ATOM     75  F   UNL     1       9.864  -6.084   2.538  1.00  0.00    -0.206 F 
ATOM     76  C   UNL     1      12.186  -6.652  -0.176  1.00  0.00     0.022 A 
BRANCH  73  77
ATOM     77  S   UNL     1      13.505  -8.891  -1.186  1.00  0.00     0.124 S 
ATOM     78  O   UNL     1      14.442  -9.467  -0.230  1.00  0.00    -0.237 OA
ATOM     79  O   UNL     1      12.636  -9.835  -1.882  1.00  0.00    -0.237 OA
ATOM     80  O   UNL     1      14.040  -7.814  -2.016  1.00  0.00    -0.744 OA
ENDBRANCH  73  77
ENDBRANCH  46  70
BRANCH  58  81
ATOM     81  C   UNL     1      12.724 -11.860   7.362  1.00  0.00     0.023 A 
ATOM     82  C   UNL     1      13.635 -10.903   7.843  1.00  0.00     0.031 A 
ATOM     83  C   UNL     1      13.115 -13.211   7.379  1.00  0.00     0.131 A 
ATOM     84  C   UNL     1      14.912 -11.303   8.266  1.00  0.00     0.055 A 
ATOM     85  C   UNL     1      14.362 -13.610   7.862  1.00  0.00     0.041 A 
ATOM     86  F   UNL     1      12.289 -14.168   6.927  1.00  0.00    -0.206 F 
ATOM     87  C   UNL     1      15.274 -12.652   8.296  1.00  0.00     0.022 A 
BRANCH  84  88
ATOM     88  S   UNL     1      16.133 -10.027   8.678  1.00  0.00     0.124 S 
ATOM     89  O   UNL     1      16.199  -9.259   7.439  1.00  0.00    -0.237 OA
ATOM     90  O   UNL     1      15.511  -9.354   9.813  1.00  0.00    -0.237 OA
ATOM     91  O   UNL     1      17.337 -10.794   8.996  1.00  0.00    -0.744 OA
ENDBRANCH  84  88
ENDBRANCH  58  81
ENDBRANCH  32  33
ENDBRANCH  24  27
ENDBRANCH  22  23
ENDBRANCH  21  22
ENDBRANCH   1  21
TORSDOF 17
