REMARK SMILES Cc1ccc(F)c(C(=O)Nc2cccc(C(=O)NCCCNC(=O)c3ccc(-c4c5nc(c(-c6cc(S(=O)(=O)[O-])ccc6F)c6ccc([nH]6)c(-c6cc(S(=O)(=O)[O-])ccc6F)c6nc(c(-c7cc(S(=O)(=O)[O-])ccc7F)c7ccc4[nH]7)C=C6)C=C5)cc3)c2)c1
REMARK SMILES IDX 20 1 19 2 18 3 16 4 17 5 15 7 11 8 12 9 88 10 13 11 14 12
REMARK SMILES IDX 10 13 8 14 9 15 7 17 1 18 2 19 3 20 89 21 4 22 5 23 6 24
REMARK SMILES IDX 21 25 22 26 23 27 24 29 25 30 26 31 87 32 27 33 86 34 28 35
REMARK SMILES IDX 29 36 30 37 80 38 31 39 85 40 79 41 81 42 32 43 84 44 78 45
REMARK SMILES IDX 77 46 33 48 65 49 45 50 64 51 46 52 49 53 63 54 82 55 47 56
REMARK SMILES IDX 48 57 62 59 83 60 50 61 34 62 35 63 43 64 36 65 42 66 44 67
REMARK SMILES IDX 41 68 37 69 38 70 39 71 40 72 66 73 67 74 75 75 68 76 74 77
REMARK SMILES IDX 76 78 73 79 69 80 70 81 71 82 72 83 51 84 52 85 60 86 53 87
REMARK SMILES IDX 59 88 61 89 58 90 54 91 55 92 56 93 57 94
REMARK H PARENT 18 6 10 16 22 28 81 47 49 58
REMARK Flexibility Score: inf
ROOT
ATOM      1  C   UNL     1       0.882  -1.237   3.817  1.00  0.00     0.042 C 
ENDROOT
BRANCH   1   2
ATOM      2  C   UNL     1       1.882  -0.870   2.730  1.00  0.00     0.118 C 
BRANCH   2   3
ATOM      3  N   UNL     1       3.112  -1.625   2.849  1.00  0.00    -0.352 N 
ATOM      4  C   UNL     1       3.577  -2.748   2.217  1.00  0.00     0.251 C 
ATOM      5  O   UNL     1       4.723  -3.108   2.494  1.00  0.00    -0.269 OA
ATOM      6  H   UNL     1       3.737  -1.259   3.516  1.00  0.00     0.163 HD
BRANCH   4   7
ATOM      7  C   UNL     1       2.817  -3.509   1.179  1.00  0.00     0.041 A 
ATOM      8  C   UNL     1       0.848  -4.083  -0.119  1.00  0.00     0.042 A 
ATOM      9  C   UNL     1       1.598  -4.952  -0.909  1.00  0.00     0.026 A 
ATOM     10  C   UNL     1       1.434  -3.453   0.983  1.00  0.00     0.040 A 
ATOM     11  C   UNL     1       2.968  -5.067  -0.694  1.00  0.00     0.003 A 
ATOM     12  C   UNL     1       3.575  -4.326   0.323  1.00  0.00     0.014 A 
BRANCH   8  13
ATOM     13  N   UNL     1      -0.468  -3.817  -0.523  1.00  0.00    -0.322 N 
ATOM     14  C   UNL     1      -1.170  -2.624  -0.585  1.00  0.00     0.258 C 
ATOM     15  O   UNL     1      -2.366  -2.680  -0.872  1.00  0.00    -0.269 OA
ATOM     16  H   UNL     1      -0.977  -4.609  -0.811  1.00  0.00     0.170 HD
BRANCH  14  17
ATOM     17  C   UNL     1      -0.513  -1.289  -0.462  1.00  0.00     0.076 A 
ATOM     18  C   UNL     1       2.922   0.340  -0.790  1.00  0.00     0.044 C 
ATOM     19  C   UNL     1       1.439   0.182  -0.614  1.00  0.00    -0.050 A 
ATOM     20  C   UNL     1       0.671   1.249  -0.139  1.00  0.00     0.006 A 
ATOM     21  C   UNL     1       0.818  -1.057  -0.852  1.00  0.00     0.020 A 
ATOM     22  C   UNL     1      -0.680   1.059   0.152  1.00  0.00     0.040 A 
ATOM     23  C   UNL     1      -1.256  -0.205   0.012  1.00  0.00     0.135 A 
ATOM     24  F   UNL     1      -2.541  -0.343   0.369  1.00  0.00    -0.206 F 
ENDBRANCH  14  17
ENDBRANCH   8  13
ENDBRANCH   4   7
ENDBRANCH   2   3
ENDBRANCH   1   2
BRANCH   1  25
ATOM     25  C   UNL     1       1.144  -0.485   5.112  1.00  0.00     0.118 C 
BRANCH  25  26
ATOM     26  N   UNL     1       0.857   0.936   4.973  1.00  0.00    -0.352 N 
ATOM     27  C   UNL     1       0.056   1.751   5.731  1.00  0.00     0.251 C 
ATOM     28  H   UNL     1       1.307   1.380   4.218  1.00  0.00     0.163 HD
ATOM     29  O   UNL     1      -0.228   2.866   5.304  1.00  0.00    -0.269 OA
BRANCH  27  30
ATOM     30  C   UNL     1      -0.466   1.288   7.035  1.00  0.00     0.039 A 
ATOM     31  C   UNL     1      -1.749   1.682   7.424  1.00  0.00     0.014 A 
ATOM     32  C   UNL     1       0.313   0.506   7.893  1.00  0.00     0.014 A 
ATOM     33  C   UNL     1      -2.260   1.265   8.654  1.00  0.00     0.010 A 
ATOM     34  C   UNL     1      -0.232   0.013   9.073  1.00  0.00     0.010 A 
ATOM     35  C   UNL     1      -1.512   0.411   9.480  1.00  0.00    -0.014 A 
BRANCH  35  36
ATOM     36  C   UNL     1      -2.033  -0.031  10.798  1.00  0.00     0.031 A 
ATOM     37  C   UNL     1      -1.314   0.369  12.060  1.00  0.00     0.074 A 
ATOM     38  C   UNL     1      -3.118  -0.827  10.854  1.00  0.00     0.049 A 
ATOM     39  N   UNL     1      -1.575   0.051  13.301  1.00  0.00    -0.248 NA
ATOM     40  C   UNL     1      -0.116   1.208  11.897  1.00  0.00     0.031 C 
ATOM     41  C   UNL     1      -3.860  -1.325   9.693  1.00  0.00     0.029 A 
ATOM     42  N   UNL     1      -3.783  -1.362  11.927  1.00  0.00    -0.354 N 
ATOM     43  C   UNL     1      -0.564   0.629  14.062  1.00  0.00     0.074 A 
ATOM     44  C   UNL     1       0.352   1.255  13.134  1.00  0.00     0.031 C 
ATOM     45  C   UNL     1      -4.894  -2.068  10.119  1.00  0.00     0.029 A 
ATOM     46  C   UNL     1      -4.868  -2.131  11.576  1.00  0.00     0.049 A 
ATOM     47  H   UNL     1      -3.510  -1.210  12.860  1.00  0.00     0.167 HD
ATOM     48  C   UNL     1      -0.428   0.659  15.412  1.00  0.00     0.034 A 
ATOM     49  C   UNL     1      -5.740  -2.812  12.345  1.00  0.00     0.034 A 
ATOM     50  C   UNL     1      -1.370   0.048  16.318  1.00  0.00     0.049 A 
ATOM     51  C   UNL     1      -5.586  -2.747  13.842  1.00  0.00     0.074 A 
ATOM     52  C   UNL     1      -1.377   0.069  17.701  1.00  0.00     0.029 A 
ATOM     53  N   UNL     1      -2.476  -0.700  15.928  1.00  0.00    -0.354 N 
ATOM     54  N   UNL     1      -4.661  -2.141  14.552  1.00  0.00    -0.248 NA
ATOM     55  C   UNL     1      -6.604  -3.438  14.641  1.00  0.00     0.031 C 
ATOM     56  C   UNL     1      -2.445  -0.718  18.147  1.00  0.00     0.029 A 
ATOM     57  C   UNL     1      -3.154  -1.167  17.044  1.00  0.00     0.049 A 
ATOM     58  H   UNL     1      -2.739  -0.873  14.995  1.00  0.00     0.167 HD
ATOM     59  C   UNL     1      -5.004  -2.357  15.884  1.00  0.00     0.074 A 
ATOM     60  C   UNL     1      -6.229  -3.130  15.874  1.00  0.00     0.031 C 
ATOM     61  C   UNL     1      -4.367  -1.951  17.013  1.00  0.00     0.034 A 
BRANCH  48  62
ATOM     62  C   UNL     1       0.794   1.352  15.972  1.00  0.00     0.023 A 
ATOM     63  C   UNL     1       1.042   2.718  15.744  1.00  0.00     0.031 A 
ATOM     64  C   UNL     1       1.750   0.628  16.706  1.00  0.00     0.131 A 
ATOM     65  C   UNL     1       2.253   3.292  16.161  1.00  0.00     0.055 A 
ATOM     66  C   UNL     1       2.912   1.227  17.198  1.00  0.00     0.041 A 
ATOM     67  F   UNL     1       1.583  -0.683  16.941  1.00  0.00    -0.206 F 
ATOM     68  C   UNL     1       3.178   2.563  16.910  1.00  0.00     0.022 A 
BRANCH  65  69
ATOM     69  S   UNL     1       2.672   4.954  15.568  1.00  0.00     0.124 S 
ATOM     70  O   UNL     1       2.640   4.767  14.119  1.00  0.00    -0.237 OA
ATOM     71  O   UNL     1       1.603   5.770  16.131  1.00  0.00    -0.237 OA
ATOM     72  O   UNL     1       4.001   5.193  16.128  1.00  0.00    -0.744 OA
ENDBRANCH  65  69
ENDBRANCH  48  62
BRANCH  49  73
ATOM     73  C   UNL     1      -6.836  -3.603  11.717  1.00  0.00     0.023 A 
ATOM     74  C   UNL     1      -8.182  -3.244  11.891  1.00  0.00     0.031 A 
ATOM     75  C   UNL     1      -6.553  -4.747  10.950  1.00  0.00     0.131 A 
ATOM     76  C   UNL     1      -9.197  -4.044  11.342  1.00  0.00     0.055 A 
ATOM     77  C   UNL     1      -7.563  -5.511  10.364  1.00  0.00     0.041 A 
ATOM     78  F   UNL     1      -5.282  -5.129  10.745  1.00  0.00    -0.206 F 
ATOM     79  C   UNL     1      -8.896  -5.167  10.569  1.00  0.00     0.022 A 
BRANCH  76  80
ATOM     80  S   UNL     1     -10.924  -3.634  11.714  1.00  0.00     0.124 S 
ATOM     81  O   UNL     1     -10.938  -3.698  13.171  1.00  0.00    -0.237 OA
ATOM     82  O   UNL     1     -11.052  -2.303  11.129  1.00  0.00    -0.237 OA
ATOM     83  O   UNL     1     -11.677  -4.685  11.035  1.00  0.00    -0.744 OA
ENDBRANCH  76  80
ENDBRANCH  49  73
BRANCH  61  84
ATOM     84  C   UNL     1      -5.019  -2.308  18.327  1.00  0.00     0.023 A 
ATOM     85  C   UNL     1      -5.136  -3.641  18.757  1.00  0.00     0.031 A 
ATOM     86  C   UNL     1      -5.549  -1.298  19.150  1.00  0.00     0.131 A 
ATOM     87  C   UNL     1      -5.827  -3.934  19.942  1.00  0.00     0.055 A 
ATOM     88  C   UNL     1      -6.177  -1.591  20.361  1.00  0.00     0.041 A 
ATOM     89  F   UNL     1      -5.466  -0.007  18.789  1.00  0.00    -0.206 F 
ATOM     90  C   UNL     1      -6.333  -2.917  20.755  1.00  0.00     0.022 A 
BRANCH  87  91
ATOM     91  S   UNL     1      -6.151  -5.671  20.352  1.00  0.00     0.124 S 
ATOM     92  O   UNL     1      -6.869  -6.133  19.169  1.00  0.00    -0.237 OA
ATOM     93  O   UNL     1      -4.805  -6.205  20.531  1.00  0.00    -0.237 OA
ATOM     94  O   UNL     1      -6.952  -5.591  21.572  1.00  0.00    -0.744 OA
ENDBRANCH  87  91
ENDBRANCH  61  84
ENDBRANCH  35  36
ENDBRANCH  27  30
ENDBRANCH  25  26
ENDBRANCH   1  25
TORSDOF 15
