REMARK SMILES NS(=O)(=O)c1ccc(C#Cc2cc(Cl)cc3c2O[C@H](C(F)(F)F)C(C(=O)NCCCNC(=O)c2ccc(-c4c5nc(c(-c6cc(S(=O)(=O)[O-])ccc6F)c6ccc([nH]6)c(-c6cc(S(=O)(=O)[O-])ccc6F)c6nc(c(-c7cc(S(=O)(=O)[O-])ccc7F)c7ccc4[nH]7)C=C6)C=C5)cc2)=C3)cc1
REMARK SMILES IDX 28 1 27 2 25 3 26 4 24 6 11 7 12 8 17 9 13 10 16 11 18 12
REMARK SMILES IDX 14 13 15 14 97 15 19 16 10 17 9 18 8 19 5 20 6 21 99 22 7 23
REMARK SMILES IDX 98 24 2 25 3 26 4 27 1 28 20 31 21 32 22 33 23 34 29 35
REMARK SMILES IDX 30 36 31 37 32 38 33 40 34 41 35 42 96 43 36 44 95 45 37 46
REMARK SMILES IDX 38 47 39 48 89 49 40 50 94 51 88 52 90 53 41 54 93 55 87 56
REMARK SMILES IDX 86 57 42 59 74 60 54 61 73 62 55 63 58 64 72 65 91 66 56 67
REMARK SMILES IDX 57 68 71 70 92 71 59 72 43 73 44 74 52 75 45 76 51 77 53 78
REMARK SMILES IDX 50 79 46 80 47 81 48 82 49 83 75 84 76 85 84 86 77 87 83 88
REMARK SMILES IDX 85 89 82 90 78 91 79 92 80 93 81 94 60 95 61 96 69 97 62 98
REMARK SMILES IDX 68 99 70 100 67 101 63 102 64 103 65 104 66 105
REMARK H PARENT 27 5 1 29 1 30 31 39 90 58 58 69
REMARK Flexibility Score: inf
ROOT
ATOM      1  C   UNL     1       6.566   0.796  11.888  1.00  0.00     0.118 C 
ENDROOT
BRANCH   1   2
ATOM      2  N   UNL     1       6.608  -0.399  12.719  1.00  0.00    -0.352 N 
ATOM      3  C   UNL     1       6.241  -1.696  12.605  1.00  0.00     0.251 C 
ATOM      4  O   UNL     1       6.501  -2.413  13.576  1.00  0.00    -0.270 OA
ATOM      5  H   UNL     1       7.009  -0.213  13.599  1.00  0.00     0.163 HD
BRANCH   3   6
ATOM      6  C   UNL     1       5.568  -2.285  11.412  1.00  0.00     0.067 C 
ATOM      7  C   UNL     1       3.373  -3.961   8.242  1.00  0.00     0.069 A 
ATOM      8  C   UNL     1       3.160  -5.339   8.206  1.00  0.00     0.041 A 
ATOM      9  C   UNL     1       4.079  -3.400   9.313  1.00  0.00     0.143 A 
ATOM     10  C   UNL     1       3.635  -6.139   9.245  1.00  0.00     0.043 A 
ATOM     11  C   UNL     1       4.539  -4.200  10.365  1.00  0.00     0.020 A 
ATOM     12  O   UNL     1       4.255  -2.044   9.313  1.00  0.00    -0.474 OA
ATOM     13  Cl  UNL     1       3.366  -7.839   9.198  1.00  0.00    -0.084 Cl
ATOM     14  C   UNL     1       4.315  -5.579  10.327  1.00  0.00     0.032 A 
ATOM     15  C   UNL     1       5.200  -3.576  11.507  1.00  0.00     0.025 C 
ATOM     16  C   UNL     1       5.322  -1.526  10.142  1.00  0.00     0.314 C 
BRANCH   7  17
ATOM     17  C   UNL     1       2.862  -3.138   7.185  1.00  0.00    -0.058 C 
ATOM     18  C   UNL     1       2.430  -2.438   6.306  1.00  0.00    -0.062 C 
BRANCH  18  19
ATOM     19  C   UNL     1       1.916  -1.628   5.246  1.00  0.00     0.025 A 
ATOM     20  C   UNL     1       0.974  -0.090   3.119  1.00  0.00     0.082 A 
ATOM     21  C   UNL     1       1.759   0.507   4.109  1.00  0.00     0.023 A 
ATOM     22  C   UNL     1       0.632  -1.443   3.199  1.00  0.00     0.023 A 
ATOM     23  C   UNL     1       2.230  -0.267   5.174  1.00  0.00     0.018 A 
ATOM     24  C   UNL     1       1.107  -2.211   4.264  1.00  0.00     0.018 A 
BRANCH  20  25
ATOM     25  S   UNL     1       0.425   0.860   1.733  1.00  0.00     0.238 S 
ATOM     26  O   UNL     1       1.065   2.154   1.745  1.00  0.00    -0.207 OA
ATOM     27  O   UNL     1      -0.999   0.683   1.577  1.00  0.00    -0.207 OA
BRANCH  25  28
ATOM     28  N   UNL     1       1.134   0.044   0.441  1.00  0.00    -0.225 NA
ATOM     29  H   UNL     1       0.884   0.508  -0.432  1.00  0.00     0.137 HD
ATOM     30  H   UNL     1       0.799  -0.919   0.422  1.00  0.00     0.137 HD
ENDBRANCH  25  28
ENDBRANCH  20  25
ENDBRANCH  18  19
ENDBRANCH   7  17
BRANCH  16  31
ATOM     31  C   UNL     1       6.607  -1.375   9.302  1.00  0.00     0.429 C 
ATOM     32  F   UNL     1       6.469  -0.383   8.389  1.00  0.00    -0.167 F 
ATOM     33  F   UNL     1       7.690  -1.057  10.054  1.00  0.00    -0.167 F 
ATOM     34  F   UNL     1       6.925  -2.506   8.631  1.00  0.00    -0.167 F 
ENDBRANCH  16  31
ENDBRANCH   3   6
ENDBRANCH   1   2
BRANCH   1  35
ATOM     35  C   UNL     1       5.546   1.802  12.387  1.00  0.00     0.042 C 
BRANCH  35  36
ATOM     36  C   UNL     1       6.093   2.625  13.541  1.00  0.00     0.118 C 
BRANCH  36  37
ATOM     37  N   UNL     1       7.243   3.439  13.139  1.00  0.00    -0.352 N 
ATOM     38  C   UNL     1       7.365   4.799  12.980  1.00  0.00     0.251 C 
ATOM     39  H   UNL     1       8.063   2.928  12.952  1.00  0.00     0.163 HD
ATOM     40  O   UNL     1       8.342   5.256  12.396  1.00  0.00    -0.269 OA
BRANCH  38  41
ATOM     41  C   UNL     1       6.304   5.687  13.490  1.00  0.00     0.039 A 
ATOM     42  C   UNL     1       5.677   5.389  14.697  1.00  0.00     0.014 A 
ATOM     43  C   UNL     1       5.903   6.798  12.745  1.00  0.00     0.014 A 
ATOM     44  C   UNL     1       4.496   6.029  15.027  1.00  0.00     0.010 A 
ATOM     45  C   UNL     1       4.798   7.542  13.166  1.00  0.00     0.010 A 
ATOM     46  C   UNL     1       4.046   7.124  14.274  1.00  0.00    -0.014 A 
BRANCH  46  47
ATOM     47  C   UNL     1       2.798   7.815  14.688  1.00  0.00     0.031 A 
ATOM     48  C   UNL     1       1.619   7.906  13.758  1.00  0.00     0.074 A 
ATOM     49  C   UNL     1       2.719   8.313  15.939  1.00  0.00     0.049 A 
ATOM     50  N   UNL     1       0.456   8.466  13.966  1.00  0.00    -0.248 NA
ATOM     51  C   UNL     1       1.759   7.302  12.422  1.00  0.00     0.031 C 
ATOM     52  C   UNL     1       3.801   8.267  16.925  1.00  0.00     0.029 A 
ATOM     53  N   UNL     1       1.690   8.927  16.607  1.00  0.00    -0.354 N 
ATOM     54  C   UNL     1      -0.263   8.306  12.787  1.00  0.00     0.074 A 
ATOM     55  C   UNL     1       0.607   7.629  11.852  1.00  0.00     0.031 C 
ATOM     56  C   UNL     1       3.361   8.768  18.085  1.00  0.00     0.029 A 
ATOM     57  C   UNL     1       2.004   9.270  17.902  1.00  0.00     0.049 A 
ATOM     58  H   UNL     1       0.812   9.105  16.199  1.00  0.00     0.167 HD
ATOM     59  C   UNL     1      -1.537   8.679  12.521  1.00  0.00     0.034 A 
ATOM     60  C   UNL     1       1.299   9.941  18.834  1.00  0.00     0.034 A 
ATOM     61  C   UNL     1      -2.395   9.327  13.482  1.00  0.00     0.049 A 
ATOM     62  C   UNL     1      -0.101  10.378  18.496  1.00  0.00     0.074 A 
ATOM     63  C   UNL     1      -3.715   9.709  13.320  1.00  0.00     0.029 A 
ATOM     64  N   UNL     1      -2.031   9.688  14.772  1.00  0.00    -0.354 N 
ATOM     65  N   UNL     1      -0.783  10.170  17.394  1.00  0.00    -0.248 NA
ATOM     66  C   UNL     1      -0.832  11.132  19.521  1.00  0.00     0.031 C 
ATOM     67  C   UNL     1      -4.119  10.378  14.473  1.00  0.00     0.029 A 
ATOM     68  C   UNL     1      -3.090  10.324  15.400  1.00  0.00     0.049 A 
ATOM     69  H   UNL     1      -1.151   9.518  15.180  1.00  0.00     0.167 HD
ATOM     70  C   UNL     1      -2.031  10.748  17.602  1.00  0.00     0.074 A 
ATOM     71  C   UNL     1      -2.019  11.282  18.948  1.00  0.00     0.031 C 
ATOM     72  C   UNL     1      -3.083  10.836  16.751  1.00  0.00     0.034 A 
BRANCH  59  73
ATOM     73  C   UNL     1      -2.117   8.402  11.154  1.00  0.00     0.023 A 
ATOM     74  C   UNL     1      -2.578   9.474  10.365  1.00  0.00     0.031 A 
ATOM     75  C   UNL     1      -2.374   7.094  10.709  1.00  0.00     0.131 A 
ATOM     76  C   UNL     1      -3.327   9.220   9.210  1.00  0.00     0.055 A 
ATOM     77  C   UNL     1      -3.072   6.846   9.525  1.00  0.00     0.041 A 
ATOM     78  F   UNL     1      -1.958   6.035  11.423  1.00  0.00    -0.206 F 
ATOM     79  C   UNL     1      -3.569   7.912   8.780  1.00  0.00     0.022 A 
BRANCH  76  80
ATOM     80  S   UNL     1      -4.101  10.572   8.280  1.00  0.00     0.124 S 
ATOM     81  O   UNL     1      -3.534  10.383   6.947  1.00  0.00    -0.237 OA
ATOM     82  O   UNL     1      -5.520  10.253   8.406  1.00  0.00    -0.237 OA
ATOM     83  O   UNL     1      -3.659  11.775   8.977  1.00  0.00    -0.744 OA
ENDBRANCH  76  80
ENDBRANCH  59  73
BRANCH  60  84
ATOM     84  C   UNL     1       1.919  10.203  20.166  1.00  0.00     0.023 A 
ATOM     85  C   UNL     1       3.128  10.919  20.268  1.00  0.00     0.031 A 
ATOM     86  C   UNL     1       1.384   9.646  21.338  1.00  0.00     0.131 A 
ATOM     87  C   UNL     1       3.802  10.981  21.493  1.00  0.00     0.055 A 
ATOM     88  C   UNL     1       2.015   9.788  22.576  1.00  0.00     0.041 A 
ATOM     89  F   UNL     1       0.244   8.940  21.293  1.00  0.00    -0.206 F 
ATOM     90  C   UNL     1       3.242  10.440  22.653  1.00  0.00     0.022 A 
BRANCH  87  91
ATOM     91  S   UNL     1       5.497  11.623  21.586  1.00  0.00     0.124 S 
ATOM     92  O   UNL     1       5.354  12.726  22.530  1.00  0.00    -0.237 OA
ATOM     93  O   UNL     1       6.228  10.459  22.080  1.00  0.00    -0.237 OA
ATOM     94  O   UNL     1       5.798  12.003  20.210  1.00  0.00    -0.744 OA
ENDBRANCH  87  91
ENDBRANCH  60  84
BRANCH  72  95
ATOM     95  C   UNL     1      -4.345  11.520  17.225  1.00  0.00     0.023 A 
ATOM     96  C   UNL     1      -5.561  10.809  17.244  1.00  0.00     0.031 A 
ATOM     97  C   UNL     1      -4.379  12.900  17.489  1.00  0.00     0.131 A 
ATOM     98  C   UNL     1      -6.764  11.491  17.461  1.00  0.00     0.055 A 
ATOM     99  C   UNL     1      -5.575  13.562  17.772  1.00  0.00     0.041 A 
ATOM    100  F   UNL     1      -3.251  13.627  17.470  1.00  0.00    -0.206 F 
ATOM    101  C   UNL     1      -6.777  12.861  17.739  1.00  0.00     0.022 A 
BRANCH  98 102
ATOM    102  S   UNL     1      -8.361  10.649  17.278  1.00  0.00     0.124 S 
ATOM    103  O   UNL     1      -8.950  10.827  18.603  1.00  0.00    -0.237 OA
ATOM    104  O   UNL     1      -8.990  11.417  16.207  1.00  0.00    -0.237 OA
ATOM    105  O   UNL     1      -8.000   9.276  16.939  1.00  0.00    -0.744 OA
ENDBRANCH  98 102
ENDBRANCH  72  95
ENDBRANCH  46  47
ENDBRANCH  38  41
ENDBRANCH  36  37
ENDBRANCH  35  36
ENDBRANCH   1  35
TORSDOF 18
