REMARK SMILES C[C@H]([NH2+]CC(C)(C)C(=O)NCCCNC(=O)c1ccc(-c2c3nc(c(-c4cc(S(=O)(=O)[O-])ccc4F)c4ccc([nH]4)c(-c4cc(S(=O)(=O)[O-])ccc4F)c4nc(c(-c5cc(S(=O)(=O)[O-])ccc5F)c5ccc2[nH]5)C=C4)C=C3)cc1)c1nccs1
REMARK SMILES IDX 11 1 10 2 8 3 9 4 5 6 6 7 7 8 4 9 3 10 2 13 1 14 80 15 81 16
REMARK SMILES IDX 84 17 82 18 83 19 12 20 13 21 14 22 15 23 16 25 17 26 18 27
REMARK SMILES IDX 79 28 19 29 78 30 20 31 21 32 22 33 72 34 23 35 77 36 71 37
REMARK SMILES IDX 73 38 24 39 76 40 70 41 69 42 25 44 57 45 37 46 56 47 38 48
REMARK SMILES IDX 41 49 55 50 74 51 39 52 40 53 54 55 75 56 42 57 26 58 27 59
REMARK SMILES IDX 35 60 28 61 34 62 36 63 33 64 29 65 30 66 31 67 32 68 58 69
REMARK SMILES IDX 59 70 67 71 60 72 66 73 68 74 65 75 61 76 62 77 63 78 64 79
REMARK SMILES IDX 43 80 44 81 52 82 45 83 51 84 53 85 50 86 46 87 47 88 48 89
REMARK SMILES IDX 49 90
REMARK H PARENT 10 5 3 11 3 12 14 24 73 43 41 54
REMARK Flexibility Score: inf
ROOT
ATOM      1  C   UNL     1       3.702  -2.536  -3.687  1.00  0.00     0.117 C 
ENDROOT
BRANCH   1   2
ATOM      2  N   UNL     1       3.767  -2.203  -2.276  1.00  0.00    -0.355 N 
ATOM      3  C   UNL     1       3.265  -1.176  -1.538  1.00  0.00     0.231 C 
ATOM      4  O   UNL     1       3.737  -1.075  -0.402  1.00  0.00    -0.274 OA
ATOM      5  H   UNL     1       4.278  -2.854  -1.743  1.00  0.00     0.163 HD
BRANCH   3   6
ATOM      6  C   UNL     1       2.205  -0.197  -2.086  1.00  0.00     0.092 C 
ATOM      7  C   UNL     1       0.955  -0.934  -2.598  1.00  0.00     0.027 C 
ATOM      8  C   UNL     1       2.832   0.663  -3.203  1.00  0.00     0.027 C 
BRANCH   6   9
ATOM      9  C   UNL     1       1.764   0.810  -0.966  1.00  0.00     0.277 C 
BRANCH   9  10
ATOM     10  N   UNL     1       1.125   0.234   0.216  1.00  0.00    -0.337 N 
ATOM     11  H   UNL     1       0.407  -0.415  -0.107  1.00  0.00     0.346 HD
ATOM     12  H   UNL     1       1.883  -0.197   0.746  1.00  0.00     0.346 HD
BRANCH  10  13
ATOM     13  C   UNL     1       0.483   1.179   1.154  1.00  0.00     0.239 C 
ATOM     14  C   UNL     1       1.142   2.561   1.242  1.00  0.00     0.083 C 
BRANCH  13  15
ATOM     15  C   UNL     1      -1.035   1.166   0.965  1.00  0.00     0.150 A 
ATOM     16  N   UNL     1      -1.707   0.039   0.781  1.00  0.00    -0.243 NA
ATOM     17  S   UNL     1      -2.025   2.572   1.080  1.00  0.00    -0.121 S 
ATOM     18  C   UNL     1      -3.064   0.280   0.805  1.00  0.00     0.123 A 
ATOM     19  C   UNL     1      -3.428   1.597   0.963  1.00  0.00     0.087 A 
ENDBRANCH  13  15
ENDBRANCH  10  13
ENDBRANCH   9  10
ENDBRANCH   6   9
ENDBRANCH   3   6
ENDBRANCH   1   2
BRANCH   1  20
ATOM     20  C   UNL     1       5.022  -2.240  -4.392  1.00  0.00     0.042 C 
BRANCH  20  21
ATOM     21  C   UNL     1       6.187  -3.095  -3.905  1.00  0.00     0.118 C 
BRANCH  21  22
ATOM     22  N   UNL     1       5.963  -4.517  -4.131  1.00  0.00    -0.352 N 
ATOM     23  C   UNL     1       6.618  -5.394  -4.955  1.00  0.00     0.251 C 
ATOM     24  H   UNL     1       5.224  -4.909  -3.611  1.00  0.00     0.163 HD
ATOM     25  O   UNL     1       6.110  -6.496  -5.183  1.00  0.00    -0.269 OA
BRANCH  23  26
ATOM     26  C   UNL     1       7.906  -5.027  -5.580  1.00  0.00     0.039 A 
ATOM     27  C   UNL     1       8.157  -5.413  -6.899  1.00  0.00     0.014 A 
ATOM     28  C   UNL     1       8.880  -4.327  -4.862  1.00  0.00     0.014 A 
ATOM     29  C   UNL     1       9.354  -5.041  -7.515  1.00  0.00     0.010 A 
ATOM     30  C   UNL     1      10.030  -3.879  -5.505  1.00  0.00     0.010 A 
ATOM     31  C   UNL     1      10.285  -4.238  -6.836  1.00  0.00    -0.014 A 
BRANCH  31  32
ATOM     32  C   UNL     1      11.534  -3.778  -7.497  1.00  0.00     0.031 A 
ATOM     33  C   UNL     1      12.874  -4.197  -6.954  1.00  0.00     0.074 A 
ATOM     34  C   UNL     1      11.461  -2.939  -8.550  1.00  0.00     0.049 A 
ATOM     35  N   UNL     1      14.073  -3.846  -7.345  1.00  0.00    -0.248 NA
ATOM     36  C   UNL     1      12.863  -5.105  -5.797  1.00  0.00     0.031 C 
ATOM     37  C   UNL     1      10.220  -2.431  -9.140  1.00  0.00     0.029 A 
ATOM     38  N   UNL     1      12.447  -2.361  -9.309  1.00  0.00    -0.354 N 
ATOM     39  C   UNL     1      14.956  -4.481  -6.477  1.00  0.00     0.074 A 
ATOM     40  C   UNL     1      14.150  -5.178  -5.498  1.00  0.00     0.031 C 
ATOM     41  C   UNL     1      10.519  -1.646 -10.187  1.00  0.00     0.029 A 
ATOM     42  C   UNL     1      11.970  -1.551 -10.314  1.00  0.00     0.049 A 
ATOM     43  H   UNL     1      13.407  -2.512  -9.149  1.00  0.00     0.167 HD
ATOM     44  C   UNL     1      16.312  -4.502  -6.510  1.00  0.00     0.034 A 
ATOM     45  C   UNL     1      12.626  -0.808 -11.227  1.00  0.00     0.034 A 
ATOM     46  C   UNL     1      17.099  -3.808  -7.500  1.00  0.00     0.049 A 
ATOM     47  C   UNL     1      14.134  -0.825 -11.227  1.00  0.00     0.074 A 
ATOM     48  C   UNL     1      18.474  -3.797  -7.658  1.00  0.00     0.029 A 
ATOM     49  N   UNL     1      16.580  -2.993  -8.501  1.00  0.00    -0.354 N 
ATOM     50  N   UNL     1      14.954  -1.468 -10.427  1.00  0.00    -0.248 NA
ATOM     51  C   UNL     1      14.803  -0.024 -12.259  1.00  0.00     0.031 C 
ATOM     52  C   UNL     1      18.790  -2.923  -8.704  1.00  0.00     0.029 A 
ATOM     53  C   UNL     1      17.609  -2.452  -9.257  1.00  0.00     0.049 A 
ATOM     54  H   UNL     1      15.622  -2.825  -8.650  1.00  0.00     0.167 HD
ATOM     55  C   UNL     1      16.236  -1.174 -10.884  1.00  0.00     0.074 A 
ATOM     56  C   UNL     1      16.077  -0.312 -12.037  1.00  0.00     0.031 C 
ATOM     57  C   UNL     1      17.436  -1.583 -10.398  1.00  0.00     0.034 A 
BRANCH  44  58
ATOM     58  C   UNL     1      17.021  -5.284  -5.428  1.00  0.00     0.023 A 
ATOM     59  C   UNL     1      16.844  -6.672  -5.282  1.00  0.00     0.031 A 
ATOM     60  C   UNL     1      17.864  -4.632  -4.511  1.00  0.00     0.131 A 
ATOM     61  C   UNL     1      17.431  -7.345  -4.200  1.00  0.00     0.055 A 
ATOM     62  C   UNL     1      18.517  -5.324  -3.487  1.00  0.00     0.041 A 
ATOM     63  F   UNL     1      18.059  -3.306  -4.583  1.00  0.00    -0.206 F 
ATOM     64  C   UNL     1      18.288  -6.686  -3.317  1.00  0.00     0.022 A 
BRANCH  61  65
ATOM     65  S   UNL     1      16.935  -9.060  -3.877  1.00  0.00     0.124 S 
ATOM     66  O   UNL     1      15.492  -8.920  -3.693  1.00  0.00    -0.237 OA
ATOM     67  O   UNL     1      17.361  -9.746  -5.092  1.00  0.00    -0.237 OA
ATOM     68  O   UNL     1      17.679  -9.410  -2.669  1.00  0.00    -0.744 OA
ENDBRANCH  61  65
ENDBRANCH  44  58
BRANCH  45  69
ATOM     69  C   UNL     1      11.872   0.016 -12.216  1.00  0.00     0.023 A 
ATOM     70  C   UNL     1      11.956  -0.249 -13.592  1.00  0.00     0.031 A 
ATOM     71  C   UNL     1      11.090   1.109 -11.803  1.00  0.00     0.131 A 
ATOM     72  C   UNL     1      11.313   0.596 -14.509  1.00  0.00     0.055 A 
ATOM     73  C   UNL     1      10.405   1.913 -12.716  1.00  0.00     0.041 A 
ATOM     74  F   UNL     1      10.970   1.405 -10.499  1.00  0.00    -0.206 F 
ATOM     75  C   UNL     1      10.526   1.667 -14.079  1.00  0.00     0.022 A 
BRANCH  72  76
ATOM     76  S   UNL     1      11.594   0.329 -16.281  1.00  0.00     0.124 S 
ATOM     77  O   UNL     1      13.044   0.446 -16.372  1.00  0.00    -0.237 OA
ATOM     78  O   UNL     1      11.044  -1.009 -16.476  1.00  0.00    -0.237 OA
ATOM     79  O   UNL     1      10.838   1.409 -16.911  1.00  0.00    -0.744 OA
ENDBRANCH  72  76
ENDBRANCH  45  69
BRANCH  57  80
ATOM     80  C   UNL     1      18.667  -1.134 -11.148  1.00  0.00     0.023 A 
ATOM     81  C   UNL     1      19.044   0.218 -11.214  1.00  0.00     0.031 A 
ATOM     82  C   UNL     1      19.465  -2.076 -11.823  1.00  0.00     0.131 A 
ATOM     83  C   UNL     1      20.149   0.599 -11.990  1.00  0.00     0.055 A 
ATOM     84  C   UNL     1      20.602  -1.699 -12.538  1.00  0.00     0.041 A 
ATOM     85  F   UNL     1      19.151  -3.381 -11.798  1.00  0.00    -0.206 F 
ATOM     86  C   UNL     1      20.941  -0.352 -12.638  1.00  0.00     0.022 A 
BRANCH  83  87
ATOM     87  S   UNL     1      20.476   2.367 -12.231  1.00  0.00     0.124 S 
ATOM     88  O   UNL     1      19.223   2.830 -12.820  1.00  0.00    -0.237 OA
ATOM     89  O   UNL     1      20.747   2.822 -10.871  1.00  0.00    -0.237 OA
ATOM     90  O   UNL     1      21.628   2.384 -13.130  1.00  0.00    -0.744 OA
ENDBRANCH  83  87
ENDBRANCH  57  80
ENDBRANCH  31  32
ENDBRANCH  23  26
ENDBRANCH  21  22
ENDBRANCH  20  21
ENDBRANCH   1  20
TORSDOF 17
