REMARK SMILES CCOC(=O)c1ccc(-c2ccc(C(=O)NCCCNC(=O)c3ccc(-c4c5nc(c(-c6cc(S(=O)(=O)[O-])ccc6F)c6ccc([nH]6)c(-c6cc(S(=O)(=O)[O-])ccc6F)c6nc(c(-c7cc(S(=O)(=O)[O-])ccc7F)c7ccc4[nH]7)C=C6)C=C5)cc3)o2)cc1
REMARK SMILES IDX 17 1 16 2 14 3 15 4 13 6 10 7 11 8 86 9 12 10 9 11 6 12 7 13
REMARK SMILES IDX 88 14 8 15 87 16 4 17 5 18 3 19 2 20 1 21 18 22 19 23 20 24
REMARK SMILES IDX 21 25 22 27 23 28 24 29 85 30 25 31 84 32 26 33 27 34 28 35
REMARK SMILES IDX 78 36 29 37 83 38 77 39 79 40 30 41 82 42 76 43 75 44 31 46
REMARK SMILES IDX 63 47 43 48 62 49 44 50 47 51 61 52 80 53 45 54 46 55 60 57
REMARK SMILES IDX 81 58 48 59 32 60 33 61 41 62 34 63 40 64 42 65 39 66 35 67
REMARK SMILES IDX 36 68 37 69 38 70 64 71 65 72 73 73 66 74 72 75 74 76 71 77
REMARK SMILES IDX 67 78 68 79 69 80 70 81 49 82 50 83 58 84 51 85 57 86 59 87
REMARK SMILES IDX 56 88 52 89 53 90 54 91 55 92
REMARK H PARENT 16 5 20 26 79 45 47 56
REMARK Flexibility Score: inf
ROOT
ATOM      1  C   UNL     1       6.393   7.437   9.964  1.00  0.00     0.118 C 
ENDROOT
BRANCH   1   2
ATOM      2  N   UNL     1       6.418   7.915   8.594  1.00  0.00    -0.349 N 
ATOM      3  C   UNL     1       6.015   7.321   7.418  1.00  0.00     0.287 C 
ATOM      4  O   UNL     1       6.041   8.045   6.420  1.00  0.00    -0.266 OA
ATOM      5  H   UNL     1       6.787   8.821   8.486  1.00  0.00     0.163 HD
BRANCH   3   6
ATOM      6  C   UNL     1       5.575   5.937   7.377  1.00  0.00     0.192 A 
ATOM      7  C   UNL     1       4.578   4.219   6.397  1.00  0.00     0.135 A 
ATOM      8  C   UNL     1       5.018   3.762   7.616  1.00  0.00     0.052 A 
ATOM      9  O   UNL     1       4.910   5.527   6.239  1.00  0.00    -0.451 OA
ATOM     10  C   UNL     1       5.692   4.846   8.223  1.00  0.00     0.057 A 
BRANCH   7  11
ATOM     11  C   UNL     1       3.919   3.561   5.285  1.00  0.00     0.017 A 
ATOM     12  C   UNL     1       2.867   1.928   3.264  1.00  0.00     0.060 A 
ATOM     13  C   UNL     1       4.054   2.636   3.046  1.00  0.00     0.016 A 
ATOM     14  C   UNL     1       2.171   2.083   4.469  1.00  0.00     0.016 A 
ATOM     15  C   UNL     1       4.568   3.464   4.048  1.00  0.00     0.013 A 
ATOM     16  C   UNL     1       2.703   2.891   5.479  1.00  0.00     0.013 A 
BRANCH  12  17
ATOM     17  C   UNL     1       2.453   0.923   2.258  1.00  0.00     0.338 C 
ATOM     18  O   UNL     1       3.248   0.293   1.583  1.00  0.00    -0.246 OA
BRANCH  17  19
ATOM     19  O   UNL     1       1.102   0.810   2.231  1.00  0.00    -0.462 OA
BRANCH  19  20
ATOM     20  C   UNL     1       0.590  -0.255   1.414  1.00  0.00     0.230 C 
ATOM     21  C   UNL     1       0.691   0.053  -0.070  1.00  0.00     0.049 C 
ENDBRANCH  19  20
ENDBRANCH  17  19
ENDBRANCH  12  17
ENDBRANCH   7  11
ENDBRANCH   3   6
ENDBRANCH   1   2
BRANCH   1  22
ATOM     22  C   UNL     1       7.747   6.886  10.409  1.00  0.00     0.042 C 
BRANCH  22  23
ATOM     23  C   UNL     1       8.760   7.974  10.771  1.00  0.00     0.118 C 
BRANCH  23  24
ATOM     24  N   UNL     1       8.382   8.687  11.983  1.00  0.00    -0.352 N 
ATOM     25  C   UNL     1       9.057   8.857  13.166  1.00  0.00     0.251 C 
ATOM     26  H   UNL     1       7.497   9.117  11.949  1.00  0.00     0.163 HD
ATOM     27  O   UNL     1       8.443   9.297  14.136  1.00  0.00    -0.269 OA
BRANCH  25  28
ATOM     28  C   UNL     1      10.492   8.512  13.292  1.00  0.00     0.039 A 
ATOM     29  C   UNL     1      10.941   7.940  14.488  1.00  0.00     0.014 A 
ATOM     30  C   UNL     1      11.408   8.807  12.279  1.00  0.00     0.014 A 
ATOM     31  C   UNL     1      12.293   7.619  14.647  1.00  0.00     0.010 A 
ATOM     32  C   UNL     1      12.746   8.434  12.416  1.00  0.00     0.010 A 
ATOM     33  C   UNL     1      13.203   7.839  13.602  1.00  0.00    -0.014 A 
BRANCH  33  34
ATOM     34  C   UNL     1      14.635   7.463  13.734  1.00  0.00     0.031 A 
ATOM     35  C   UNL     1      15.699   8.527  13.743  1.00  0.00     0.074 A 
ATOM     36  C   UNL     1      14.981   6.162  13.783  1.00  0.00     0.049 A 
ATOM     37  N   UNL     1      17.001   8.398  13.745  1.00  0.00    -0.248 NA
ATOM     38  C   UNL     1      15.232   9.921  13.719  1.00  0.00     0.031 C 
ATOM     39  C   UNL     1      14.043   5.038  13.756  1.00  0.00     0.029 A 
ATOM     40  N   UNL     1      16.213   5.564  13.853  1.00  0.00    -0.354 N 
ATOM     41  C   UNL     1      17.512   9.692  13.707  1.00  0.00     0.074 A 
ATOM     42  C   UNL     1      16.374  10.586  13.630  1.00  0.00     0.031 C 
ATOM     43  C   UNL     1      14.733   3.888  13.822  1.00  0.00     0.029 A 
ATOM     44  C   UNL     1      16.161   4.189  13.854  1.00  0.00     0.049 A 
ATOM     45  H   UNL     1      17.056   6.070  13.898  1.00  0.00     0.167 HD
ATOM     46  C   UNL     1      18.806  10.097  13.748  1.00  0.00     0.034 A 
ATOM     47  C   UNL     1      17.150   3.275  13.863  1.00  0.00     0.034 A 
ATOM     48  C   UNL     1      19.929   9.194  13.836  1.00  0.00     0.049 A 
ATOM     49  C   UNL     1      18.581   3.746  13.892  1.00  0.00     0.074 A 
ATOM     50  C   UNL     1      21.278   9.497  13.924  1.00  0.00     0.029 A 
ATOM     51  N   UNL     1      19.836   7.808  13.844  1.00  0.00    -0.354 N 
ATOM     52  N   UNL     1      19.046   4.973  13.879  1.00  0.00    -0.248 NA
ATOM     53  C   UNL     1      19.618   2.707  13.946  1.00  0.00     0.031 C 
ATOM     54  C   UNL     1      22.000   8.297  13.931  1.00  0.00     0.029 A 
ATOM     55  C   UNL     1      21.101   7.243  13.913  1.00  0.00     0.049 A 
ATOM     56  H   UNL     1      18.993   7.300  13.805  1.00  0.00     0.167 HD
ATOM     57  C   UNL     1      20.431   4.853  13.951  1.00  0.00     0.074 A 
ATOM     58  C   UNL     1      20.722   3.436  14.018  1.00  0.00     0.031 C 
ATOM     59  C   UNL     1      21.376   5.827  13.966  1.00  0.00     0.034 A 
BRANCH  46  60
ATOM     60  C   UNL     1      19.069  11.582  13.668  1.00  0.00     0.023 A 
ATOM     61  C   UNL     1      18.622  12.464  14.668  1.00  0.00     0.031 A 
ATOM     62  C   UNL     1      19.742  12.130  12.562  1.00  0.00     0.131 A 
ATOM     63  C   UNL     1      18.781  13.848  14.505  1.00  0.00     0.055 A 
ATOM     64  C   UNL     1      19.970  13.503  12.444  1.00  0.00     0.041 A 
ATOM     65  F   UNL     1      20.177  11.341  11.567  1.00  0.00    -0.206 F 
ATOM     66  C   UNL     1      19.473  14.373  13.411  1.00  0.00     0.022 A 
BRANCH  63  67
ATOM     67  S   UNL     1      17.943  14.959  15.668  1.00  0.00     0.124 S 
ATOM     68  O   UNL     1      16.544  14.580  15.480  1.00  0.00    -0.237 OA
ATOM     69  O   UNL     1      18.539  14.587  16.945  1.00  0.00    -0.237 OA
ATOM     70  O   UNL     1      18.291  16.292  15.180  1.00  0.00    -0.744 OA
ENDBRANCH  63  67
ENDBRANCH  46  60
BRANCH  47  71
ATOM     71  C   UNL     1      16.830   1.821  13.835  1.00  0.00     0.023 A 
ATOM     72  C   UNL     1      17.109   1.000  14.939  1.00  0.00     0.031 A 
ATOM     73  C   UNL     1      16.267   1.225  12.693  1.00  0.00     0.131 A 
ATOM     74  C   UNL     1      16.863  -0.379  14.864  1.00  0.00     0.055 A 
ATOM     75  C   UNL     1      15.983  -0.140  12.639  1.00  0.00     0.041 A 
ATOM     76  F   UNL     1      15.973   1.970  11.615  1.00  0.00    -0.206 F 
ATOM     77  C   UNL     1      16.292  -0.953  13.725  1.00  0.00     0.022 A 
BRANCH  74  78
ATOM     78  S   UNL     1      17.362  -1.427  16.258  1.00  0.00     0.124 S 
ATOM     79  O   UNL     1      18.794  -1.162  16.332  1.00  0.00    -0.237 OA
ATOM     80  O   UNL     1      16.552  -0.888  17.345  1.00  0.00    -0.237 OA
ATOM     81  O   UNL     1      16.997  -2.772  15.819  1.00  0.00    -0.744 OA
ENDBRANCH  74  78
ENDBRANCH  47  71
BRANCH  59  82
ATOM     82  C   UNL     1      22.809   5.381  14.104  1.00  0.00     0.023 A 
ATOM     83  C   UNL     1      23.472   4.693  13.073  1.00  0.00     0.031 A 
ATOM     84  C   UNL     1      23.514   5.632  15.295  1.00  0.00     0.131 A 
ATOM     85  C   UNL     1      24.783   4.234  13.272  1.00  0.00     0.055 A 
ATOM     86  C   UNL     1      24.835   5.218  15.467  1.00  0.00     0.041 A 
ATOM     87  F   UNL     1      22.926   6.284  16.311  1.00  0.00    -0.206 F 
ATOM     88  C   UNL     1      25.473   4.504  14.457  1.00  0.00     0.022 A 
BRANCH  85  89
ATOM     89  S   UNL     1      25.550   3.205  11.990  1.00  0.00     0.124 S 
ATOM     90  O   UNL     1      24.627   2.076  11.914  1.00  0.00    -0.237 OA
ATOM     91  O   UNL     1      25.560   4.099  10.836  1.00  0.00    -0.237 OA
ATOM     92  O   UNL     1      26.867   2.893  12.542  1.00  0.00    -0.744 OA
ENDBRANCH  85  89
ENDBRANCH  59  82
ENDBRANCH  33  34
ENDBRANCH  25  28
ENDBRANCH  23  24
ENDBRANCH  22  23
ENDBRANCH   1  22
TORSDOF 17
