REMARK SMILES O=C(Cn1c2ccccc2c(=O)c2ccccc21)N[C@@H](Cc1ccccc1)C(=O)NCCCNC(=O)c1ccc(-c2c3nc(c(-c4cc(S(=O)(=O)[O-])ccc4F)c4ccc([nH]4)c(-c4cc(S(=O)(=O)[O-])ccc4F)c4nc(c(-c5cc(S(=O)(=O)[O-])ccc5F)c5ccc2[nH]5)C=C4)C=C3)cc1
REMARK SMILES IDX 32 1 31 2 30 3 28 4 29 5 20 7 19 8 1 9 2 10 3 12 4 13 5 14
REMARK SMILES IDX 18 15 6 16 10 17 13 18 17 19 7 20 9 21 11 22 14 23 16 24
REMARK SMILES IDX 8 25 12 26 15 27 21 28 22 29 23 30 27 31 24 32 26 33 25 34
REMARK SMILES IDX 33 35 34 36 35 37 36 39 37 40 38 41 99 42 39 43 98 44 40 45
REMARK SMILES IDX 41 46 42 47 92 48 43 49 97 50 91 51 93 52 44 53 96 54 90 55
REMARK SMILES IDX 89 56 45 58 77 59 57 60 76 61 58 62 61 63 75 64 94 65 59 66
REMARK SMILES IDX 60 67 74 69 95 70 62 71 46 72 47 73 55 74 48 75 54 76 56 77
REMARK SMILES IDX 53 78 49 79 50 80 51 81 52 82 78 83 79 84 87 85 80 86 86 87
REMARK SMILES IDX 88 88 85 89 81 90 82 91 83 92 84 93 63 94 64 95 72 96 65 97
REMARK SMILES IDX 71 98 73 99 70 100 66 101 67 102 68 103 69 104
REMARK H PARENT 30 6 19 11 34 38 93 57 61 68
REMARK Flexibility Score: inf
ROOT
ATOM      1  C   UNL     1       6.092   2.331   1.991  1.00  0.00     0.042 C 
ENDROOT
BRANCH   1   2
ATOM      2  C   UNL     1       5.040   1.633   2.820  1.00  0.00     0.117 C 
BRANCH   2   3
ATOM      3  N   UNL     1       3.732   2.259   2.768  1.00  0.00    -0.354 N 
ATOM      4  C   UNL     1       2.510   1.672   2.932  1.00  0.00     0.242 C 
ATOM      5  O   UNL     1       1.613   2.361   3.429  1.00  0.00    -0.273 OA
ATOM      6  H   UNL     1       3.725   3.228   2.593  1.00  0.00     0.163 HD
BRANCH   4   7
ATOM      7  C   UNL     1       2.267   0.188   2.590  1.00  0.00     0.175 C 
BRANCH   7   8
ATOM      8  N   UNL     1       2.870  -0.154   1.297  1.00  0.00    -0.342 N 
ATOM      9  O   UNL     1       0.934  -0.884   0.317  1.00  0.00    -0.273 OA
ATOM     10  C   UNL     1       2.097  -0.495   0.211  1.00  0.00     0.240 C 
ATOM     11  H   UNL     1       3.850  -0.139   1.204  1.00  0.00     0.164 HD
BRANCH  10  12
ATOM     12  C   UNL     1       2.784  -0.388  -1.161  1.00  0.00     0.222 C 
BRANCH  12  13
ATOM     13  N   UNL     1       3.701   0.781  -1.293  1.00  0.00    -0.331 N 
ATOM     14  C   UNL     1       3.133   2.087  -1.214  1.00  0.00     0.053 A 
ATOM     15  C   UNL     1       5.035   0.576  -1.744  1.00  0.00     0.053 A 
ATOM     16  C   UNL     1       1.777   2.345  -0.942  1.00  0.00     0.027 A 
ATOM     17  C   UNL     1       3.943   3.221  -1.411  1.00  0.00     0.046 A 
ATOM     18  C   UNL     1       5.874   1.687  -1.984  1.00  0.00     0.046 A 
ATOM     19  C   UNL     1       5.610  -0.684  -1.989  1.00  0.00     0.027 A 
ATOM     20  C   UNL     1       1.275   3.652  -0.830  1.00  0.00     0.002 A 
ATOM     21  C   UNL     1       3.446   4.532  -1.313  1.00  0.00     0.014 A 
ATOM     22  C   UNL     1       5.368   3.048  -1.733  1.00  0.00     0.197 A 
ATOM     23  C   UNL     1       7.191   1.555  -2.452  1.00  0.00     0.014 A 
ATOM     24  C   UNL     1       6.926  -0.824  -2.458  1.00  0.00     0.002 A 
ATOM     25  C   UNL     1       2.109   4.746  -1.012  1.00  0.00     0.001 A 
ATOM     26  O   UNL     1       6.118   4.018  -1.760  1.00  0.00    -0.288 OA
ATOM     27  C   UNL     1       7.714   0.294  -2.690  1.00  0.00     0.001 A 
ENDBRANCH  12  13
ENDBRANCH  10  12
ENDBRANCH   7   8
BRANCH   7  28
ATOM     28  C   UNL     1       2.503  -0.793   3.759  1.00  0.00     0.070 C 
BRANCH  28  29
ATOM     29  C   UNL     1       3.920  -1.051   4.212  1.00  0.00    -0.045 A 
ATOM     30  C   UNL     1       4.477  -0.327   5.278  1.00  0.00     0.004 A 
ATOM     31  C   UNL     1       4.716  -1.996   3.549  1.00  0.00     0.004 A 
ATOM     32  C   UNL     1       5.825  -0.485   5.616  1.00  0.00     0.000 A 
ATOM     33  C   UNL     1       6.057  -2.165   3.901  1.00  0.00     0.000 A 
ATOM     34  C   UNL     1       6.616  -1.395   4.919  1.00  0.00     0.000 A 
ENDBRANCH  28  29
ENDBRANCH   7  28
ENDBRANCH   4   7
ENDBRANCH   2   3
ENDBRANCH   1   2
BRANCH   1  35
ATOM     35  C   UNL     1       6.578   3.608   2.657  1.00  0.00     0.118 C 
BRANCH  35  36
ATOM     36  N   UNL     1       7.346   3.353   3.881  1.00  0.00    -0.352 N 
ATOM     37  C   UNL     1       8.706   3.282   4.098  1.00  0.00     0.251 C 
ATOM     38  H   UNL     1       6.797   3.207   4.684  1.00  0.00     0.163 HD
ATOM     39  O   UNL     1       9.129   2.849   5.168  1.00  0.00    -0.269 OA
BRANCH  37  40
ATOM     40  C   UNL     1       9.641   3.680   3.027  1.00  0.00     0.039 A 
ATOM     41  C   UNL     1       9.350   4.785   2.237  1.00  0.00     0.014 A 
ATOM     42  C   UNL     1      10.780   2.915   2.760  1.00  0.00     0.014 A 
ATOM     43  C   UNL     1       9.995   4.938   1.023  1.00  0.00     0.010 A 
ATOM     44  C   UNL     1      11.539   3.182   1.614  1.00  0.00     0.010 A 
ATOM     45  C   UNL     1      11.105   4.144   0.691  1.00  0.00    -0.014 A 
BRANCH  45  46
ATOM     46  C   UNL     1      11.763   4.354  -0.628  1.00  0.00     0.031 A 
ATOM     47  C   UNL     1      11.870   3.234  -1.632  1.00  0.00     0.074 A 
ATOM     48  C   UNL     1      12.176   5.596  -0.957  1.00  0.00     0.049 A 
ATOM     49  N   UNL     1      12.398   3.256  -2.829  1.00  0.00    -0.248 NA
ATOM     50  C   UNL     1      11.332   1.918  -1.247  1.00  0.00     0.031 C 
ATOM     51  C   UNL     1      12.111   6.757  -0.066  1.00  0.00     0.029 A 
ATOM     52  N   UNL     1      12.677   6.109  -2.127  1.00  0.00    -0.354 N 
ATOM     53  C   UNL     1      12.293   1.960  -3.321  1.00  0.00     0.074 A 
ATOM     54  C   UNL     1      11.671   1.166  -2.287  1.00  0.00     0.031 C 
ATOM     55  C   UNL     1      12.452   7.856  -0.748  1.00  0.00     0.029 A 
ATOM     56  C   UNL     1      12.875   7.471  -2.090  1.00  0.00     0.049 A 
ATOM     57  H   UNL     1      12.876   5.556  -2.917  1.00  0.00     0.167 HD
ATOM     58  C   UNL     1      12.671   1.485  -4.531  1.00  0.00     0.034 A 
ATOM     59  C   UNL     1      13.360   8.321  -3.018  1.00  0.00     0.034 A 
ATOM     60  C   UNL     1      13.236   2.304  -5.571  1.00  0.00     0.049 A 
ATOM     61  C   UNL     1      13.751   7.768  -4.361  1.00  0.00     0.074 A 
ATOM     62  C   UNL     1      13.648   1.913  -6.833  1.00  0.00     0.029 A 
ATOM     63  N   UNL     1      13.440   3.673  -5.489  1.00  0.00    -0.354 N 
ATOM     64  N   UNL     1      13.654   6.534  -4.799  1.00  0.00    -0.248 NA
ATOM     65  C   UNL     1      14.326   8.706  -5.333  1.00  0.00     0.031 C 
ATOM     66  C   UNL     1      14.136   3.037  -7.499  1.00  0.00     0.029 A 
ATOM     67  C   UNL     1      13.980   4.140  -6.675  1.00  0.00     0.049 A 
ATOM     68  H   UNL     1      13.232   4.230  -4.704  1.00  0.00     0.167 HD
ATOM     69  C   UNL     1      14.153   6.548  -6.096  1.00  0.00     0.074 A 
ATOM     70  C   UNL     1      14.515   7.921  -6.387  1.00  0.00     0.031 C 
ATOM     71  C   UNL     1      14.314   5.515  -6.959  1.00  0.00     0.034 A 
BRANCH  58  72
ATOM     72  C   UNL     1      12.474   0.022  -4.836  1.00  0.00     0.023 A 
ATOM     73  C   UNL     1      13.588  -0.817  -5.026  1.00  0.00     0.031 A 
ATOM     74  C   UNL     1      11.196  -0.500  -5.092  1.00  0.00     0.131 A 
ATOM     75  C   UNL     1      13.400  -2.128  -5.484  1.00  0.00     0.055 A 
ATOM     76  C   UNL     1      11.010  -1.819  -5.507  1.00  0.00     0.041 A 
ATOM     77  F   UNL     1      10.108   0.273  -4.953  1.00  0.00    -0.206 F 
ATOM     78  C   UNL     1      12.117  -2.636  -5.717  1.00  0.00     0.022 A 
BRANCH  75  79
ATOM     79  S   UNL     1      14.811  -3.198  -5.879  1.00  0.00     0.124 S 
ATOM     80  O   UNL     1      14.610  -4.308  -4.950  1.00  0.00    -0.237 OA
ATOM     81  O   UNL     1      14.573  -3.511  -7.285  1.00  0.00    -0.237 OA
ATOM     82  O   UNL     1      15.973  -2.361  -5.606  1.00  0.00    -0.744 OA
ENDBRANCH  75  79
ENDBRANCH  58  72
BRANCH  59  83
ATOM     83  C   UNL     1      13.469   9.773  -2.685  1.00  0.00     0.023 A 
ATOM     84  C   UNL     1      14.243  10.202  -1.590  1.00  0.00     0.031 A 
ATOM     85  C   UNL     1      12.697  10.733  -3.359  1.00  0.00     0.131 A 
ATOM     86  C   UNL     1      14.152  11.525  -1.142  1.00  0.00     0.055 A 
ATOM     87  C   UNL     1      12.675  12.072  -2.962  1.00  0.00     0.041 A 
ATOM     88  F   UNL     1      11.934  10.376  -4.404  1.00  0.00    -0.206 F 
ATOM     89  C   UNL     1      13.386  12.468  -1.832  1.00  0.00     0.022 A 
BRANCH  86  90
ATOM     90  S   UNL     1      14.879  12.016   0.448  1.00  0.00     0.124 S 
ATOM     91  O   UNL     1      15.876  12.997   0.035  1.00  0.00    -0.237 OA
ATOM     92  O   UNL     1      13.719  12.553   1.155  1.00  0.00    -0.237 OA
ATOM     93  O   UNL     1      15.404  10.766   0.986  1.00  0.00    -0.744 OA
ENDBRANCH  86  90
ENDBRANCH  59  83
BRANCH  71  94
ATOM     94  C   UNL     1      14.913   5.795  -8.314  1.00  0.00     0.023 A 
ATOM     95  C   UNL     1      14.153   5.571  -9.477  1.00  0.00     0.031 A 
ATOM     96  C   UNL     1      16.275   6.109  -8.453  1.00  0.00     0.131 A 
ATOM     97  C   UNL     1      14.775   5.618 -10.731  1.00  0.00     0.055 A 
ATOM     98  C   UNL     1      16.879   6.200  -9.707  1.00  0.00     0.041 A 
ATOM     99  F   UNL     1      17.040   6.317  -7.369  1.00  0.00    -0.206 F 
ATOM    100  C   UNL     1      16.131   5.938 -10.852  1.00  0.00     0.022 A 
BRANCH  97 101
ATOM    101  S   UNL     1      13.872   5.173 -12.239  1.00  0.00     0.124 S 
ATOM    102  O   UNL     1      13.966   6.403 -13.022  1.00  0.00    -0.237 OA
ATOM    103  O   UNL     1      14.656   4.050 -12.746  1.00  0.00    -0.237 OA
ATOM    104  O   UNL     1      12.533   4.840 -11.764  1.00  0.00    -0.744 OA
ENDBRANCH  97 101
ENDBRANCH  71  94
ENDBRANCH  45  46
ENDBRANCH  37  40
ENDBRANCH  35  36
ENDBRANCH   1  35
TORSDOF 18
