REMARK SMILES COC(=O)[C@@H]([NH2+]CC(C)(C)C(=O)NCCCNC(=O)c1ccc(-c2c3nc(c(-c4cc(S(=O)(=O)[O-])ccc4F)c4ccc([nH]4)c(-c4cc(S(=O)(=O)[O-])ccc4F)c4nc(c(-c5cc(S(=O)(=O)[O-])ccc5F)c5ccc2[nH]5)C=C4)C=C3)cc1)c1ccccc1
REMARK SMILES IDX 14 1 13 2 11 3 12 4 8 6 9 7 10 8 7 9 6 10 5 13 3 14 4 15
REMARK SMILES IDX 2 16 1 17 83 18 84 19 88 20 85 21 87 22 86 23 15 24 16 25
REMARK SMILES IDX 17 26 18 27 19 29 20 30 21 31 82 32 22 33 81 34 23 35 24 36
REMARK SMILES IDX 25 37 75 38 26 39 80 40 74 41 76 42 27 43 79 44 73 45 72 46
REMARK SMILES IDX 28 48 60 49 40 50 59 51 41 52 44 53 58 54 77 55 42 56 43 57
REMARK SMILES IDX 57 59 78 60 45 61 29 62 30 63 38 64 31 65 37 66 39 67 36 68
REMARK SMILES IDX 32 69 33 70 34 71 35 72 61 73 62 74 70 75 63 76 69 77 71 78
REMARK SMILES IDX 68 79 64 80 65 81 66 82 67 83 46 84 47 85 55 86 48 87 54 88
REMARK SMILES IDX 56 89 53 90 49 91 50 92 51 93 52 94
REMARK H PARENT 13 5 6 11 6 12 17 28 76 47 44 58
REMARK Flexibility Score: inf
ROOT
ATOM      1  C   UNL     1       2.060   2.930   8.151  1.00  0.00     0.117 C 
ENDROOT
BRANCH   1   2
ATOM      2  N   UNL     1       1.269   2.350   7.084  1.00  0.00    -0.355 N 
ATOM      3  C   UNL     1       0.582   2.977   6.096  1.00  0.00     0.231 C 
ATOM      4  O   UNL     1      -0.538   2.519   5.862  1.00  0.00    -0.274 OA
ATOM      5  H   UNL     1       1.224   1.367   7.074  1.00  0.00     0.163 HD
BRANCH   3   6
ATOM      6  C   UNL     1       1.150   4.185   5.336  1.00  0.00     0.092 C 
ATOM      7  C   UNL     1       2.667   4.109   5.106  1.00  0.00     0.027 C 
ATOM      8  C   UNL     1       0.787   5.451   6.139  1.00  0.00     0.027 C 
BRANCH   6   9
ATOM      9  C   UNL     1       0.436   4.311   3.946  1.00  0.00     0.277 C 
BRANCH   9  10
ATOM     10  N   UNL     1       0.767   3.383   2.843  1.00  0.00    -0.330 N 
ATOM     11  H   UNL     1       0.413   3.786   1.975  1.00  0.00     0.347 HD
ATOM     12  H   UNL     1       1.781   3.275   2.860  1.00  0.00     0.347 HD
BRANCH  10  13
ATOM     13  C   UNL     1       0.203   2.008   2.975  1.00  0.00     0.324 C 
BRANCH  13  14
ATOM     14  C   UNL     1       0.918   1.077   1.974  1.00  0.00     0.369 C 
ATOM     15  O   UNL     1       1.964   0.491   2.249  1.00  0.00    -0.245 OA
BRANCH  14  16
ATOM     16  O   UNL     1       0.316   1.027   0.754  1.00  0.00    -0.464 OA
ATOM     17  C   UNL     1       0.950   0.137  -0.165  1.00  0.00     0.282 C 
ENDBRANCH  14  16
ENDBRANCH  13  14
BRANCH  13  18
ATOM     18  C   UNL     1      -1.318   1.881   2.932  1.00  0.00     0.021 A 
ATOM     19  C   UNL     1      -2.171   2.924   2.539  1.00  0.00     0.010 A 
ATOM     20  C   UNL     1      -1.906   0.688   3.395  1.00  0.00     0.010 A 
ATOM     21  C   UNL     1      -3.554   2.821   2.709  1.00  0.00     0.001 A 
ATOM     22  C   UNL     1      -3.291   0.573   3.532  1.00  0.00     0.001 A 
ATOM     23  C   UNL     1      -4.113   1.650   3.213  1.00  0.00     0.000 A 
ENDBRANCH  13  18
ENDBRANCH  10  13
ENDBRANCH   9  10
ENDBRANCH   6   9
ENDBRANCH   3   6
ENDBRANCH   1   2
BRANCH   1  24
ATOM     24  C   UNL     1       1.194   3.185   9.383  1.00  0.00     0.042 C 
BRANCH  24  25
ATOM     25  C   UNL     1       0.557   1.926   9.965  1.00  0.00     0.118 C 
BRANCH  25  26
ATOM     26  N   UNL     1       1.554   0.945  10.379  1.00  0.00    -0.352 N 
ATOM     27  C   UNL     1       1.893   0.517  11.633  1.00  0.00     0.251 C 
ATOM     28  H   UNL     1       2.061   0.529   9.644  1.00  0.00     0.163 HD
ATOM     29  O   UNL     1       2.939  -0.121  11.788  1.00  0.00    -0.269 OA
BRANCH  27  30
ATOM     30  C   UNL     1       1.032   0.826  12.792  1.00  0.00     0.039 A 
ATOM     31  C   UNL     1       1.626   1.189  14.004  1.00  0.00     0.014 A 
ATOM     32  C   UNL     1      -0.360   0.734  12.696  1.00  0.00     0.014 A 
ATOM     33  C   UNL     1       0.823   1.518  15.098  1.00  0.00     0.010 A 
ATOM     34  C   UNL     1      -1.159   1.145  13.760  1.00  0.00     0.010 A 
ATOM     35  C   UNL     1      -0.577   1.533  14.975  1.00  0.00    -0.014 A 
BRANCH  35  36
ATOM     36  C   UNL     1      -1.446   1.935  16.112  1.00  0.00     0.031 A 
ATOM     37  C   UNL     1      -2.409   0.946  16.711  1.00  0.00     0.074 A 
ATOM     38  C   UNL     1      -1.405   3.203  16.565  1.00  0.00     0.049 A 
ATOM     39  N   UNL     1      -3.294   1.121  17.659  1.00  0.00    -0.248 NA
ATOM     40  C   UNL     1      -2.397  -0.412  16.146  1.00  0.00     0.031 C 
ATOM     41  C   UNL     1      -0.543   4.263  16.035  1.00  0.00     0.029 A 
ATOM     42  N   UNL     1      -2.105   3.820  17.571  1.00  0.00    -0.354 N 
ATOM     43  C   UNL     1      -3.952  -0.098  17.795  1.00  0.00     0.074 A 
ATOM     44  C   UNL     1      -3.408  -0.980  16.784  1.00  0.00     0.031 C 
ATOM     45  C   UNL     1      -0.744   5.387  16.739  1.00  0.00     0.029 A 
ATOM     46  C   UNL     1      -1.779   5.146  17.739  1.00  0.00     0.049 A 
ATOM     47  H   UNL     1      -2.779   3.357  18.120  1.00  0.00     0.167 HD
ATOM     48  C   UNL     1      -4.901  -0.456  18.696  1.00  0.00     0.034 A 
ATOM     49  C   UNL     1      -2.264   6.064  18.598  1.00  0.00     0.034 A 
ATOM     50  C   UNL     1      -5.422   0.435  19.705  1.00  0.00     0.049 A 
ATOM     51  C   UNL     1      -3.330   5.649  19.579  1.00  0.00     0.074 A 
ATOM     52  C   UNL     1      -6.348   0.167  20.698  1.00  0.00     0.029 A 
ATOM     53  N   UNL     1      -5.066   1.770  19.848  1.00  0.00    -0.354 N 
ATOM     54  N   UNL     1      -3.909   4.479  19.725  1.00  0.00    -0.248 NA
ATOM     55  C   UNL     1      -3.799   6.675  20.518  1.00  0.00     0.031 C 
ATOM     56  C   UNL     1      -6.599   1.352  21.398  1.00  0.00     0.029 A 
ATOM     57  C   UNL     1      -5.773   2.344  20.894  1.00  0.00     0.049 A 
ATOM     58  H   UNL     1      -4.406   2.241  19.288  1.00  0.00     0.167 HD
ATOM     59  C   UNL     1      -4.788   4.622  20.795  1.00  0.00     0.074 A 
ATOM     60  C   UNL     1      -4.648   5.985  21.265  1.00  0.00     0.031 C 
ATOM     61  C   UNL     1      -5.632   3.710  21.342  1.00  0.00     0.034 A 
BRANCH  48  62
ATOM     62  C   UNL     1      -5.445  -1.863  18.608  1.00  0.00     0.023 A 
ATOM     63  C   UNL     1      -4.620  -2.986  18.796  1.00  0.00     0.031 A 
ATOM     64  C   UNL     1      -6.799  -2.088  18.299  1.00  0.00     0.131 A 
ATOM     65  C   UNL     1      -5.134  -4.277  18.594  1.00  0.00     0.055 A 
ATOM     66  C   UNL     1      -7.324  -3.377  18.184  1.00  0.00     0.041 A 
ATOM     67  F   UNL     1      -7.633  -1.057  18.088  1.00  0.00    -0.206 F 
ATOM     68  C   UNL     1      -6.487  -4.481  18.315  1.00  0.00     0.022 A 
BRANCH  65  69
ATOM     69  S   UNL     1      -3.976  -5.672  18.554  1.00  0.00     0.124 S 
ATOM     70  O   UNL     1      -3.089  -5.287  17.458  1.00  0.00    -0.237 OA
ATOM     71  O   UNL     1      -3.393  -5.638  19.890  1.00  0.00    -0.237 OA
ATOM     72  O   UNL     1      -4.834  -6.822  18.276  1.00  0.00    -0.744 OA
ENDBRANCH  65  69
ENDBRANCH  48  62
BRANCH  49  73
ATOM     73  C   UNL     1      -1.754   7.465  18.575  1.00  0.00     0.023 A 
ATOM     74  C   UNL     1      -1.058   7.998  19.672  1.00  0.00     0.031 A 
ATOM     75  C   UNL     1      -1.989   8.305  17.472  1.00  0.00     0.131 A 
ATOM     76  C   UNL     1      -0.664   9.345  19.663  1.00  0.00     0.055 A 
ATOM     77  C   UNL     1      -1.548   9.630  17.447  1.00  0.00     0.041 A 
ATOM     78  F   UNL     1      -2.643   7.844  16.394  1.00  0.00    -0.206 F 
ATOM     79  C   UNL     1      -0.893  10.161  18.553  1.00  0.00     0.022 A 
BRANCH  76  80
ATOM     80  S   UNL     1       0.082  10.040  21.164  1.00  0.00     0.124 S 
ATOM     81  O   UNL     1      -0.961   9.797  22.154  1.00  0.00    -0.237 OA
ATOM     82  O   UNL     1       1.294   9.239  21.298  1.00  0.00    -0.237 OA
ATOM     83  O   UNL     1       0.299  11.443  20.817  1.00  0.00    -0.744 OA
ENDBRANCH  76  80
ENDBRANCH  49  73
BRANCH  61  84
ATOM     84  C   UNL     1      -6.434   4.156  22.541  1.00  0.00     0.023 A 
ATOM     85  C   UNL     1      -7.424   5.149  22.441  1.00  0.00     0.031 A 
ATOM     86  C   UNL     1      -6.185   3.595  23.806  1.00  0.00     0.131 A 
ATOM     87  C   UNL     1      -8.084   5.597  23.595  1.00  0.00     0.055 A 
ATOM     88  C   UNL     1      -6.890   3.999  24.941  1.00  0.00     0.041 A 
ATOM     89  F   UNL     1      -5.249   2.645  23.960  1.00  0.00    -0.206 F 
ATOM     90  C   UNL     1      -7.835   5.016  24.842  1.00  0.00     0.022 A 
BRANCH  87  91
ATOM     91  S   UNL     1      -9.198   7.022  23.464  1.00  0.00     0.124 S 
ATOM     92  O   UNL     1      -8.315   8.049  22.920  1.00  0.00    -0.237 OA
ATOM     93  O   UNL     1     -10.232   6.527  22.561  1.00  0.00    -0.237 OA
ATOM     94  O   UNL     1      -9.634   7.245  24.841  1.00  0.00    -0.744 OA
ENDBRANCH  87  91
ENDBRANCH  61  84
ENDBRANCH  35  36
ENDBRANCH  27  30
ENDBRANCH  25  26
ENDBRANCH  24  25
ENDBRANCH   1  24
TORSDOF 19
