REMARK SMILES O=C(NCCCNC(=O)[C@H]1CCCN(C(=O)C2CCN(S(=O)(=O)c3ccccc3)CC2)C1)c1ccc(-c2c3nc(c(-c4cc(S(=O)(=O)[O-])ccc4F)c4ccc([nH]4)c(-c4cc(S(=O)(=O)[O-])ccc4F)c4nc(c(-c5cc(S(=O)(=O)[O-])ccc5F)c5ccc2[nH]5)C=C4)C=C3)cc1
REMARK SMILES IDX 5 1 4 2 3 3 1 4 2 5 33 7 34 8 95 9 35 10 94 11 36 12 37 13
REMARK SMILES IDX 38 14 88 15 39 16 93 17 87 18 89 19 40 20 92 21 86 22 85 23
REMARK SMILES IDX 41 25 73 26 53 27 72 28 54 29 57 30 71 31 90 32 55 33 56 34
REMARK SMILES IDX 70 36 91 37 58 38 42 39 43 40 51 41 44 42 50 43 52 44 49 45
REMARK SMILES IDX 45 46 46 47 47 48 48 49 74 50 75 51 83 52 76 53 82 54 84 55
REMARK SMILES IDX 81 56 77 57 78 58 79 59 80 60 59 61 60 62 68 63 61 64 67 65
REMARK SMILES IDX 69 66 66 67 62 68 63 69 64 70 65 71 6 72 7 73 8 74 9 76
REMARK SMILES IDX 10 77 11 78 32 79 12 80 14 81 13 82 15 83 16 84 17 85 18 86
REMARK SMILES IDX 31 87 19 88 30 89 20 90 21 91 22 92 23 93 24 94 25 95 29 96
REMARK SMILES IDX 26 97 28 98 27 99
REMARK H PARENT 3 6 89 24 57 35 7 75
REMARK Flexibility Score: inf
ROOT
ATOM      1  C   UNL     1       4.431   2.363   0.916  1.00  0.00     0.042 C 
ENDROOT
BRANCH   1   2
ATOM      2  C   UNL     1       4.049   1.867  -0.476  1.00  0.00     0.118 C 
BRANCH   2   3
ATOM      3  N   UNL     1       4.643   0.570  -0.768  1.00  0.00    -0.352 N 
ATOM      4  O   UNL     1       4.665  -1.656  -1.069  1.00  0.00    -0.269 OA
ATOM      5  C   UNL     1       4.028  -0.607  -1.106  1.00  0.00     0.251 C 
ATOM      6  H   UNL     1       5.625   0.534  -0.715  1.00  0.00     0.163 HD
BRANCH   5   7
ATOM      7  C   UNL     1       2.611  -0.604  -1.522  1.00  0.00     0.039 A 
ATOM      8  C   UNL     1       2.136   0.374  -2.402  1.00  0.00     0.014 A 
ATOM      9  C   UNL     1       1.770  -1.629  -1.081  1.00  0.00     0.014 A 
ATOM     10  C   UNL     1       0.799   0.373  -2.779  1.00  0.00     0.010 A 
ATOM     11  C   UNL     1       0.444  -1.669  -1.518  1.00  0.00     0.010 A 
ATOM     12  C   UNL     1      -0.048  -0.669  -2.370  1.00  0.00    -0.014 A 
BRANCH  12  13
ATOM     13  C   UNL     1      -1.405  -0.764  -2.955  1.00  0.00     0.031 A 
ATOM     14  C   UNL     1      -2.629  -0.561  -2.113  1.00  0.00     0.074 A 
ATOM     15  C   UNL     1      -1.506  -1.041  -4.271  1.00  0.00     0.049 A 
ATOM     16  N   UNL     1      -3.886  -0.623  -2.467  1.00  0.00    -0.248 NA
ATOM     17  C   UNL     1      -2.418  -0.258  -0.690  1.00  0.00     0.031 C 
ATOM     18  C   UNL     1      -0.368  -1.271  -5.169  1.00  0.00     0.029 A 
ATOM     19  N   UNL     1      -2.598  -1.171  -5.086  1.00  0.00    -0.354 N 
ATOM     20  C   UNL     1      -4.620  -0.386  -1.311  1.00  0.00     0.074 A 
ATOM     21  C   UNL     1      -3.665  -0.193  -0.239  1.00  0.00     0.031 C 
ATOM     22  C   UNL     1      -0.822  -1.485  -6.411  1.00  0.00     0.029 A 
ATOM     23  C   UNL     1      -2.279  -1.475  -6.389  1.00  0.00     0.049 A 
ATOM     24  H   UNL     1      -3.524  -1.059  -4.770  1.00  0.00     0.167 HD
ATOM     25  C   UNL     1      -5.967  -0.336  -1.168  1.00  0.00     0.034 A 
ATOM     26  C   UNL     1      -3.071  -1.746  -7.444  1.00  0.00     0.034 A 
ATOM     27  C   UNL     1      -6.896  -0.519  -2.258  1.00  0.00     0.049 A 
ATOM     28  C   UNL     1      -4.561  -1.709  -7.243  1.00  0.00     0.074 A 
ATOM     29  C   UNL     1      -8.276  -0.413  -2.240  1.00  0.00     0.029 A 
ATOM     30  N   UNL     1      -6.542  -0.861  -3.557  1.00  0.00    -0.354 N 
ATOM     31  N   UNL     1      -5.237  -1.433  -6.151  1.00  0.00    -0.248 NA
ATOM     32  C   UNL     1      -5.393  -2.021  -8.410  1.00  0.00     0.031 C 
ATOM     33  C   UNL     1      -8.758  -0.756  -3.509  1.00  0.00     0.029 A 
ATOM     34  C   UNL     1      -7.678  -1.014  -4.337  1.00  0.00     0.049 A 
ATOM     35  H   UNL     1      -5.618  -0.978  -3.877  1.00  0.00     0.167 HD
ATOM     36  C   UNL     1      -6.578  -1.534  -6.504  1.00  0.00     0.074 A 
ATOM     37  C   UNL     1      -6.611  -1.863  -7.915  1.00  0.00     0.031 C 
ATOM     38  C   UNL     1      -7.684  -1.375  -5.734  1.00  0.00     0.034 A 
BRANCH  25  39
ATOM     39  C   UNL     1      -6.522  -0.123   0.217  1.00  0.00     0.023 A 
ATOM     40  C   UNL     1      -6.387   1.099   0.897  1.00  0.00     0.031 A 
ATOM     41  C   UNL     1      -7.222  -1.162   0.857  1.00  0.00     0.131 A 
ATOM     42  C   UNL     1      -6.912   1.240   2.192  1.00  0.00     0.055 A 
ATOM     43  C   UNL     1      -7.791  -0.998   2.121  1.00  0.00     0.041 A 
ATOM     44  F   UNL     1      -7.364  -2.357   0.261  1.00  0.00    -0.206 F 
ATOM     45  C   UNL     1      -7.632   0.207   2.799  1.00  0.00     0.022 A 
BRANCH  42  46
ATOM     46  S   UNL     1      -6.578   2.768   3.110  1.00  0.00     0.124 S 
ATOM     47  O   UNL     1      -5.122   2.733   3.222  1.00  0.00    -0.237 OA
ATOM     48  O   UNL     1      -7.127   3.793   2.229  1.00  0.00    -0.237 OA
ATOM     49  O   UNL     1      -7.298   2.578   4.368  1.00  0.00    -0.744 OA
ENDBRANCH  42  46
ENDBRANCH  25  39
BRANCH  26  50
ATOM     50  C   UNL     1      -2.478  -2.131  -8.755  1.00  0.00     0.023 A 
ATOM     51  C   UNL     1      -2.670  -1.343  -9.900  1.00  0.00     0.031 A 
ATOM     52  C   UNL     1      -1.738  -3.321  -8.889  1.00  0.00     0.131 A 
ATOM     53  C   UNL     1      -2.167  -1.775 -11.137  1.00  0.00     0.055 A 
ATOM     54  C   UNL     1      -1.193  -3.718 -10.110  1.00  0.00     0.041 A 
ATOM     55  F   UNL     1      -1.523  -4.110  -7.824  1.00  0.00    -0.206 F 
ATOM     56  C   UNL     1      -1.419  -2.950 -11.247  1.00  0.00     0.022 A 
BRANCH  53  57
ATOM     57  S   UNL     1      -2.588  -0.828 -12.624  1.00  0.00     0.124 S 
ATOM     58  O   UNL     1      -4.043  -0.769 -12.540  1.00  0.00    -0.237 OA
ATOM     59  O   UNL     1      -1.881   0.427 -12.392  1.00  0.00    -0.237 OA
ATOM     60  O   UNL     1      -2.059  -1.648 -13.711  1.00  0.00    -0.744 OA
ENDBRANCH  53  57
ENDBRANCH  26  50
BRANCH  38  61
ATOM     61  C   UNL     1      -9.009  -1.552  -6.425  1.00  0.00     0.023 A 
ATOM     62  C   UNL     1      -9.429  -2.814  -6.880  1.00  0.00     0.031 A 
ATOM     63  C   UNL     1      -9.841  -0.446  -6.666  1.00  0.00     0.131 A 
ATOM     64  C   UNL     1     -10.623  -2.931  -7.605  1.00  0.00     0.055 A 
ATOM     65  C   UNL     1     -11.055  -0.577  -7.340  1.00  0.00     0.041 A 
ATOM     66  F   UNL     1      -9.482   0.781  -6.255  1.00  0.00    -0.206 F 
ATOM     67  C   UNL     1     -11.446  -1.823  -7.825  1.00  0.00     0.022 A 
BRANCH  64  68
ATOM     68  S   UNL     1     -11.044  -4.537  -8.333  1.00  0.00     0.124 S 
ATOM     69  O   UNL     1      -9.920  -4.765  -9.235  1.00  0.00    -0.237 OA
ATOM     70  O   UNL     1     -11.108  -5.405  -7.162  1.00  0.00    -0.237 OA
ATOM     71  O   UNL     1     -12.326  -4.290  -8.990  1.00  0.00    -0.744 OA
ENDBRANCH  64  68
ENDBRANCH  38  61
ENDBRANCH  12  13
ENDBRANCH   5   7
ENDBRANCH   2   3
ENDBRANCH   1   2
BRANCH   1  72
ATOM     72  C   UNL     1       5.935   2.554   1.085  1.00  0.00     0.117 C 
BRANCH  72  73
ATOM     73  N   UNL     1       6.447   3.517   0.129  1.00  0.00    -0.356 N 
ATOM     74  C   UNL     1       6.352   4.877   0.179  1.00  0.00     0.224 C 
ATOM     75  H   UNL     1       6.919   3.145  -0.651  1.00  0.00     0.163 HD
ATOM     76  O   UNL     1       6.609   5.529  -0.832  1.00  0.00    -0.275 OA
BRANCH  74  77
ATOM     77  C   UNL     1       6.063   5.534   1.511  1.00  0.00     0.098 C 
ATOM     78  C   UNL     1       7.409   6.061   2.037  1.00  0.00     0.017 C 
ATOM     79  C   UNL     1       5.029   6.656   1.367  1.00  0.00     0.133 C 
ATOM     80  C   UNL     1       7.211   6.904   3.285  1.00  0.00     0.022 C 
ATOM     81  N   UNL     1       4.911   7.390   2.640  1.00  0.00    -0.342 N 
ATOM     82  C   UNL     1       6.165   7.990   3.036  1.00  0.00     0.119 C 
BRANCH  81  83
ATOM     83  C   UNL     1       3.756   7.285   3.391  1.00  0.00     0.225 C 
ATOM     84  O   UNL     1       2.866   6.511   3.012  1.00  0.00    -0.275 OA
BRANCH  83  85
ATOM     85  C   UNL     1       3.494   8.043   4.723  1.00  0.00     0.081 C 
ATOM     86  C   UNL     1       3.591   9.558   4.779  1.00  0.00     0.030 C 
ATOM     87  C   UNL     1       4.058   7.419   5.986  1.00  0.00     0.030 C 
ATOM     88  C   UNL     1       4.861  10.172   5.355  1.00  0.00     0.103 C 
ATOM     89  C   UNL     1       5.449   7.891   6.345  1.00  0.00     0.103 C 
ATOM     90  N   UNL     1       5.647   9.360   6.356  1.00  0.00    -0.198 NA
BRANCH  90  91
ATOM     91  S   UNL     1       7.312   9.900   6.328  1.00  0.00     0.243 S 
ATOM     92  O   UNL     1       7.866   9.550   5.029  1.00  0.00    -0.207 OA
ATOM     93  O   UNL     1       7.302  11.279   6.753  1.00  0.00    -0.207 OA
BRANCH  91  94
ATOM     94  C   UNL     1       8.256   8.959   7.507  1.00  0.00     0.082 A 
ATOM     95  C   UNL     1       8.948   9.638   8.514  1.00  0.00     0.022 A 
ATOM     96  C   UNL     1       8.518   7.600   7.282  1.00  0.00     0.022 A 
ATOM     97  C   UNL     1       9.867   8.950   9.311  1.00  0.00     0.001 A 
ATOM     98  C   UNL     1       9.402   6.907   8.108  1.00  0.00     0.001 A 
ATOM     99  C   UNL     1      10.082   7.585   9.118  1.00  0.00     0.000 A 
ENDBRANCH  91  94
ENDBRANCH  90  91
ENDBRANCH  83  85
ENDBRANCH  81  83
ENDBRANCH  74  77
ENDBRANCH  72  73
ENDBRANCH   1  72
TORSDOF 17
