REMARK SMILES O=C(NCCCNC(=O)c1ccc(-c2c3nc(c(-c4cc(S(=O)(=O)[O-])ccc4F)c4ccc([nH]4)c(-c4cc(S(=O)(=O)[O-])ccc4F)c4nc(c(-c5cc(S(=O)(=O)[O-])ccc5F)c5ccc2[nH]5)C=C4)C=C3)cc1)C1=Cc2c(cc(Cl)c(Cl)c2Cl)O[C@H]1C(F)(F)F
REMARK SMILES IDX 6 1 5 2 4 3 3 4 1 5 2 6 73 8 74 9 85 10 75 11 84 12 76 13
REMARK SMILES IDX 82 14 77 15 80 16 83 17 78 18 81 19 79 20 86 21 87 22 88 23
REMARK SMILES IDX 89 24 7 25 8 26 9 28 10 29 11 30 72 31 12 32 71 33 13 34
REMARK SMILES IDX 14 35 15 36 65 37 16 38 70 39 64 40 66 41 17 42 69 43 63 44
REMARK SMILES IDX 62 45 18 47 50 48 30 49 49 50 31 51 34 52 48 53 67 54 32 55
REMARK SMILES IDX 33 56 47 58 68 59 35 60 19 61 20 62 28 63 21 64 27 65 29 66
REMARK SMILES IDX 26 67 22 68 23 69 24 70 25 71 51 72 52 73 60 74 53 75 59 76
REMARK SMILES IDX 61 77 58 78 54 79 55 80 56 81 57 82 36 83 37 84 45 85 38 86
REMARK SMILES IDX 44 87 46 88 43 89 39 90 40 91 41 92 42 93
REMARK H PARENT 3 7 7 27 66 46 34 57
REMARK Flexibility Score: inf
ROOT
ATOM      1  C   UNL     1       3.523   1.726  -3.899  1.00  0.00     0.118 C 
ENDROOT
BRANCH   1   2
ATOM      2  C   UNL     1       3.939   0.493  -3.111  1.00  0.00     0.042 C 
BRANCH   2   3
ATOM      3  C   UNL     1       3.742   0.604  -1.610  1.00  0.00     0.118 C 
BRANCH   3   4
ATOM      4  N   UNL     1       2.408   0.341  -1.102  1.00  0.00    -0.352 N 
ATOM      5  O   UNL     1       0.868  -0.258   0.437  1.00  0.00    -0.270 OA
ATOM      6  C   UNL     1       2.045  -0.050   0.161  1.00  0.00     0.251 C 
ATOM      7  H   UNL     1       1.671   0.457  -1.745  1.00  0.00     0.163 HD
BRANCH   6   8
ATOM      8  C   UNL     1       3.082  -0.272   1.207  1.00  0.00     0.067 C 
ATOM      9  C   UNL     1       3.663   0.805   1.765  1.00  0.00     0.027 C 
ATOM     10  C   UNL     1       3.803  -1.593   1.137  1.00  0.00     0.314 C 
ATOM     11  C   UNL     1       5.059   0.967   1.280  1.00  0.00     0.037 A 
ATOM     12  O   UNL     1       5.253  -1.451   1.010  1.00  0.00    -0.475 OA
ATOM     13  C   UNL     1       5.751  -0.180   0.863  1.00  0.00     0.131 A 
ATOM     14  C   UNL     1       5.602   2.244   1.036  1.00  0.00     0.072 A 
ATOM     15  C   UNL     1       6.936  -0.059   0.143  1.00  0.00     0.069 A 
ATOM     16  C   UNL     1       6.779   2.369   0.277  1.00  0.00     0.079 A 
ATOM     17  Cl  UNL     1       4.742   3.648   1.599  1.00  0.00    -0.082 Cl
ATOM     18  C   UNL     1       7.422   1.210  -0.189  1.00  0.00     0.064 A 
ATOM     19  Cl  UNL     1       7.394   3.939  -0.136  1.00  0.00    -0.081 Cl
ATOM     20  Cl  UNL     1       8.788   1.272  -1.248  1.00  0.00    -0.083 Cl
BRANCH  10  21
ATOM     21  C   UNL     1       3.455  -2.506   2.331  1.00  0.00     0.429 C 
ATOM     22  F   UNL     1       2.488  -1.990   3.127  1.00  0.00    -0.167 F 
ATOM     23  F   UNL     1       3.018  -3.717   1.910  1.00  0.00    -0.167 F 
ATOM     24  F   UNL     1       4.529  -2.727   3.129  1.00  0.00    -0.167 F 
ENDBRANCH  10  21
ENDBRANCH   6   8
ENDBRANCH   3   4
ENDBRANCH   2   3
ENDBRANCH   1   2
BRANCH   1  25
ATOM     25  N   UNL     1       4.304   2.921  -3.590  1.00  0.00    -0.352 N 
ATOM     26  C   UNL     1       5.350   3.550  -4.229  1.00  0.00     0.251 C 
ATOM     27  H   UNL     1       4.027   3.368  -2.757  1.00  0.00     0.163 HD
ATOM     28  O   UNL     1       5.882   4.510  -3.671  1.00  0.00    -0.269 OA
BRANCH  26  29
ATOM     29  C   UNL     1       5.878   3.077  -5.531  1.00  0.00     0.039 A 
ATOM     30  C   UNL     1       7.258   3.135  -5.770  1.00  0.00     0.014 A 
ATOM     31  C   UNL     1       5.039   2.595  -6.531  1.00  0.00     0.014 A 
ATOM     32  C   UNL     1       7.793   2.591  -6.945  1.00  0.00     0.010 A 
ATOM     33  C   UNL     1       5.577   1.952  -7.642  1.00  0.00     0.010 A 
ATOM     34  C   UNL     1       6.963   1.924  -7.857  1.00  0.00    -0.014 A 
BRANCH  34  35
ATOM     35  C   UNL     1       7.489   1.174  -9.034  1.00  0.00     0.031 A 
ATOM     36  C   UNL     1       6.990   1.507 -10.416  1.00  0.00     0.074 A 
ATOM     37  C   UNL     1       8.309   0.118  -8.851  1.00  0.00     0.049 A 
ATOM     38  N   UNL     1       7.107   0.829 -11.529  1.00  0.00    -0.248 NA
ATOM     39  C   UNL     1       6.216   2.752 -10.551  1.00  0.00     0.031 C 
ATOM     40  C   UNL     1       8.856  -0.323  -7.565  1.00  0.00     0.029 A 
ATOM     41  N   UNL     1       8.809  -0.797  -9.747  1.00  0.00    -0.354 N 
ATOM     42  C   UNL     1       6.398   1.547 -12.487  1.00  0.00     0.074 A 
ATOM     43  C   UNL     1       5.805   2.679 -11.808  1.00  0.00     0.031 C 
ATOM     44  C   UNL     1       9.625  -1.406  -7.758  1.00  0.00     0.029 A 
ATOM     45  C   UNL     1       9.572  -1.785  -9.165  1.00  0.00     0.049 A 
ATOM     46  H   UNL     1       8.637  -0.750 -10.716  1.00  0.00     0.167 HD
ATOM     47  C   UNL     1       6.273   1.298 -13.815  1.00  0.00     0.034 A 
ATOM     48  C   UNL     1      10.136  -2.889  -9.696  1.00  0.00     0.034 A 
ATOM     49  C   UNL     1       6.899   0.186 -14.484  1.00  0.00     0.049 A 
ATOM     50  C   UNL     1       9.937  -3.173 -11.165  1.00  0.00     0.074 A 
ATOM     51  C   UNL     1       6.880  -0.133 -15.831  1.00  0.00     0.029 A 
ATOM     52  N   UNL     1       7.664  -0.789 -13.857  1.00  0.00    -0.354 N 
ATOM     53  N   UNL     1       9.273  -2.476 -12.058  1.00  0.00    -0.248 NA
ATOM     54  C   UNL     1      10.556  -4.395 -11.696  1.00  0.00     0.031 C 
ATOM     55  C   UNL     1       7.584  -1.328 -16.010  1.00  0.00     0.029 A 
ATOM     56  C   UNL     1       8.098  -1.722 -14.786  1.00  0.00     0.049 A 
ATOM     57  H   UNL     1       7.868  -0.814 -12.895  1.00  0.00     0.167 HD
ATOM     58  C   UNL     1       9.424  -3.161 -13.261  1.00  0.00     0.074 A 
ATOM     59  C   UNL     1      10.252  -4.315 -12.982  1.00  0.00     0.031 C 
ATOM     60  C   UNL     1       8.924  -2.866 -14.486  1.00  0.00     0.034 A 
BRANCH  47  61
ATOM     61  C   UNL     1       5.421   2.245 -14.624  1.00  0.00     0.023 A 
ATOM     62  C   UNL     1       5.770   3.598 -14.777  1.00  0.00     0.031 A 
ATOM     63  C   UNL     1       4.240   1.797 -15.242  1.00  0.00     0.131 A 
ATOM     64  C   UNL     1       4.912   4.470 -15.462  1.00  0.00     0.055 A 
ATOM     65  C   UNL     1       3.432   2.653 -15.993  1.00  0.00     0.041 A 
ATOM     66  F   UNL     1       3.845   0.520 -15.118  1.00  0.00    -0.206 F 
ATOM     67  C   UNL     1       3.759   4.002 -16.094  1.00  0.00     0.022 A 
BRANCH  64  68
ATOM     68  S   UNL     1       5.262   6.248 -15.401  1.00  0.00     0.124 S 
ATOM     69  O   UNL     1       5.173   6.515 -13.967  1.00  0.00    -0.237 OA
ATOM     70  O   UNL     1       6.596   6.329 -15.984  1.00  0.00    -0.237 OA
ATOM     71  O   UNL     1       4.192   6.835 -16.205  1.00  0.00    -0.744 OA
ENDBRANCH  64  68
ENDBRANCH  47  61
BRANCH  48  72
ATOM     72  C   UNL     1      10.914  -3.839  -8.846  1.00  0.00     0.023 A 
ATOM     73  C   UNL     1      12.274  -4.076  -9.101  1.00  0.00     0.031 A 
ATOM     74  C   UNL     1      10.300  -4.579  -7.819  1.00  0.00     0.131 A 
ATOM     75  C   UNL     1      12.960  -5.070  -8.386  1.00  0.00     0.055 A 
ATOM     76  C   UNL     1      11.003  -5.522  -7.067  1.00  0.00     0.041 A 
ATOM     77  F   UNL     1       9.002  -4.394  -7.530  1.00  0.00    -0.206 F 
ATOM     78  C   UNL     1      12.337  -5.786  -7.361  1.00  0.00     0.022 A 
BRANCH  75  79
ATOM     79  S   UNL     1      14.646  -5.498  -8.899  1.00  0.00     0.124 S 
ATOM     80  O   UNL     1      14.451  -5.832 -10.306  1.00  0.00    -0.237 OA
ATOM     81  O   UNL     1      15.368  -4.260  -8.627  1.00  0.00    -0.237 OA
ATOM     82  O   UNL     1      14.989  -6.623  -8.033  1.00  0.00    -0.744 OA
ENDBRANCH  75  79
ENDBRANCH  48  72
BRANCH  60  83
ATOM     83  C   UNL     1       9.299  -3.785 -15.620  1.00  0.00     0.023 A 
ATOM     84  C   UNL     1       8.803  -5.097 -15.698  1.00  0.00     0.031 A 
ATOM     85  C   UNL     1      10.159  -3.336 -16.638  1.00  0.00     0.131 A 
ATOM     86  C   UNL     1       9.202  -5.931 -16.753  1.00  0.00     0.055 A 
ATOM     87  C   UNL     1      10.511  -4.153 -17.712  1.00  0.00     0.041 A 
ATOM     88  F   UNL     1      10.661  -2.091 -16.609  1.00  0.00    -0.206 F 
ATOM     89  C   UNL     1      10.039  -5.462 -17.769  1.00  0.00     0.022 A 
BRANCH  86  90
ATOM     90  S   UNL     1       8.658  -7.661 -16.748  1.00  0.00     0.124 S 
ATOM     91  O   UNL     1       9.270  -8.168 -15.524  1.00  0.00    -0.237 OA
ATOM     92  O   UNL     1       7.205  -7.533 -16.728  1.00  0.00    -0.237 OA
ATOM     93  O   UNL     1       9.214  -8.198 -17.989  1.00  0.00    -0.744 OA
ENDBRANCH  86  90
ENDBRANCH  60  83
ENDBRANCH  34  35
ENDBRANCH  26  29
ENDBRANCH   1  25
TORSDOF 14
