REMARK SMILES CC(C)[N@@H+]1CC[C@@H]([N@@H+]2CC[C@@H](C(=O)NCCCNC(=O)c3ccc(-c4c5nc(c(-c6cc(S(=O)(=O)[O-])ccc6F)c6ccc([nH]6)c(-c6cc(S(=O)(=O)[O-])ccc6F)c6nc(c(-c7cc(S(=O)(=O)[O-])ccc7F)c7ccc4[nH]7)C=C6)C=C5)cc3)[C@H]2C)C1
REMARK SMILES IDX 16 1 15 2 14 3 12 4 13 5 11 7 8 8 9 9 84 10 10 12 85 13 7 14
REMARK SMILES IDX 4 15 5 16 86 17 6 19 2 20 1 21 3 22 17 23 18 24 19 25 20 27
REMARK SMILES IDX 21 28 22 29 83 30 23 31 82 32 24 33 25 34 26 35 76 36 27 37
REMARK SMILES IDX 81 38 75 39 77 40 28 41 80 42 74 43 73 44 29 46 61 47 41 48
REMARK SMILES IDX 60 49 42 50 45 51 59 52 78 53 43 54 44 55 58 57 79 58 46 59
REMARK SMILES IDX 30 60 31 61 39 62 32 63 38 64 40 65 37 66 33 67 34 68 35 69
REMARK SMILES IDX 36 70 62 71 63 72 71 73 64 74 70 75 72 76 69 77 65 78 66 79
REMARK SMILES IDX 67 80 68 81 47 82 48 83 56 84 49 85 55 86 57 87 54 88 50 89
REMARK SMILES IDX 51 90 52 91 53 92
REMARK H PARENT 14 6 8 11 4 18 18 26 77 45 45 56
REMARK Flexibility Score: inf
ROOT
ATOM      1  C   UNL     1      -5.981   7.021   1.043  1.00  0.00     0.042 C 
ENDROOT
BRANCH   1   2
ATOM      2  C   UNL     1      -5.735   6.070   2.210  1.00  0.00     0.117 C 
BRANCH   2   3
ATOM      3  N   UNL     1      -6.472   4.830   2.056  1.00  0.00    -0.356 N 
ATOM      4  C   UNL     1      -6.078   3.624   1.565  1.00  0.00     0.229 C 
ATOM      5  O   UNL     1      -6.946   2.772   1.375  1.00  0.00    -0.275 OA
ATOM      6  H   UNL     1      -7.409   4.866   2.355  1.00  0.00     0.163 HD
BRANCH   4   7
ATOM      7  C   UNL     1      -4.613   3.376   1.254  1.00  0.00     0.142 C 
ATOM      8  N   UNL     1      -3.399   1.272   1.157  1.00  0.00    -0.325 N 
ATOM      9  C   UNL     1      -4.165   1.443  -0.084  1.00  0.00     0.263 C 
ATOM     10  C   UNL     1      -3.937   2.277   2.104  1.00  0.00     0.194 C 
ATOM     11  H   UNL     1      -3.533   0.318   1.491  1.00  0.00     0.348 HD
ATOM     12  C   UNL     1      -4.473   2.920  -0.193  1.00  0.00     0.081 C 
ATOM     13  C   UNL     1      -4.817   1.571   3.137  1.00  0.00     0.076 C 
BRANCH   8  14
ATOM     14  C   UNL     1      -1.926   1.286   1.045  1.00  0.00     0.245 C 
ATOM     15  N   UNL     1      -0.542   0.906  -0.939  1.00  0.00    -0.328 N 
ATOM     16  C   UNL     1      -0.965   2.316  -0.895  1.00  0.00     0.269 C 
ATOM     17  C   UNL     1      -1.345   0.214   0.085  1.00  0.00     0.328 C 
ATOM     18  H   UNL     1      -0.737   0.425  -1.817  1.00  0.00     0.348 HD
ATOM     19  C   UNL     1      -1.248   2.571   0.572  1.00  0.00     0.132 C 
BRANCH  15  20
ATOM     20  C   UNL     1       0.924   0.789  -0.911  1.00  0.00     0.177 C 
ATOM     21  C   UNL     1       1.530  -0.337  -0.071  1.00  0.00     0.075 C 
ATOM     22  C   UNL     1       1.360   0.616  -2.373  1.00  0.00     0.075 C 
ENDBRANCH  15  20
ENDBRANCH   8  14
ENDBRANCH   4   7
ENDBRANCH   2   3
ENDBRANCH   1   2
BRANCH   1  23
ATOM     23  C   UNL     1      -7.446   7.418   0.866  1.00  0.00     0.118 C 
BRANCH  23  24
ATOM     24  N   UNL     1      -8.014   8.009   2.070  1.00  0.00    -0.352 N 
ATOM     25  C   UNL     1      -8.587   9.238   2.270  1.00  0.00     0.251 C 
ATOM     26  H   UNL     1      -7.981   7.433   2.869  1.00  0.00     0.163 HD
ATOM     27  O   UNL     1      -8.805   9.617   3.420  1.00  0.00    -0.269 OA
BRANCH  25  28
ATOM     28  C   UNL     1      -8.920  10.106   1.122  1.00  0.00     0.039 A 
ATOM     29  C   UNL     1      -8.665  11.476   1.215  1.00  0.00     0.014 A 
ATOM     30  C   UNL     1      -9.498   9.578  -0.036  1.00  0.00     0.014 A 
ATOM     31  C   UNL     1      -8.924  12.304   0.121  1.00  0.00     0.010 A 
ATOM     32  C   UNL     1      -9.680  10.390  -1.152  1.00  0.00     0.010 A 
ATOM     33  C   UNL     1      -9.394  11.762  -1.087  1.00  0.00    -0.014 A 
BRANCH  33  34
ATOM     34  C   UNL     1      -9.582  12.614  -2.290  1.00  0.00     0.031 A 
ATOM     35  C   UNL     1     -10.950  12.780  -2.895  1.00  0.00     0.074 A 
ATOM     36  C   UNL     1      -8.509  13.188  -2.871  1.00  0.00     0.049 A 
ATOM     37  N   UNL     1     -11.302  13.421  -3.980  1.00  0.00    -0.248 NA
ATOM     38  C   UNL     1     -12.064  12.115  -2.204  1.00  0.00     0.031 C 
ATOM     39  C   UNL     1      -7.128  13.067  -2.397  1.00  0.00     0.029 A 
ATOM     40  N   UNL     1      -8.406  13.980  -3.987  1.00  0.00    -0.354 N 
ATOM     41  C   UNL     1     -12.673  13.228  -4.108  1.00  0.00     0.074 A 
ATOM     42  C   UNL     1     -13.075  12.358  -3.023  1.00  0.00     0.031 C 
ATOM     43  C   UNL     1      -6.323  13.781  -3.199  1.00  0.00     0.029 A 
ATOM     44  C   UNL     1      -7.116  14.365  -4.275  1.00  0.00     0.049 A 
ATOM     45  H   UNL     1      -9.182  14.247  -4.531  1.00  0.00     0.167 HD
ATOM     46  C   UNL     1     -13.520  13.747  -5.032  1.00  0.00     0.034 A 
ATOM     47  C   UNL     1      -6.625  15.091  -5.299  1.00  0.00     0.034 A 
ATOM     48  C   UNL     1     -13.100  14.618  -6.103  1.00  0.00     0.049 A 
ATOM     49  C   UNL     1      -7.582  15.625  -6.336  1.00  0.00     0.074 A 
ATOM     50  C   UNL     1     -13.881  15.242  -7.061  1.00  0.00     0.029 A 
ATOM     51  N   UNL     1     -11.785  14.979  -6.369  1.00  0.00    -0.354 N 
ATOM     52  N   UNL     1      -8.885  15.477  -6.411  1.00  0.00    -0.248 NA
ATOM     53  C   UNL     1      -7.004  16.432  -7.418  1.00  0.00     0.031 C 
ATOM     54  C   UNL     1     -13.034  15.911  -7.950  1.00  0.00     0.029 A 
ATOM     55  C   UNL     1     -11.731  15.785  -7.497  1.00  0.00     0.049 A 
ATOM     56  H   UNL     1     -11.006  14.704  -5.835  1.00  0.00     0.167 HD
ATOM     57  C   UNL     1      -9.284  16.203  -7.531  1.00  0.00     0.074 A 
ATOM     58  C   UNL     1      -8.087  16.799  -8.086  1.00  0.00     0.031 C 
ATOM     59  C   UNL     1     -10.528  16.366  -8.049  1.00  0.00     0.034 A 
BRANCH  46  60
ATOM     60  C   UNL     1     -14.978  13.359  -4.939  1.00  0.00     0.023 A 
ATOM     61  C   UNL     1     -15.762  13.688  -3.819  1.00  0.00     0.031 A 
ATOM     62  C   UNL     1     -15.591  12.638  -5.980  1.00  0.00     0.131 A 
ATOM     63  C   UNL     1     -17.087  13.234  -3.732  1.00  0.00     0.055 A 
ATOM     64  C   UNL     1     -16.935  12.264  -5.926  1.00  0.00     0.041 A 
ATOM     65  F   UNL     1     -14.890  12.275  -7.065  1.00  0.00    -0.206 F 
ATOM     66  C   UNL     1     -17.688  12.549  -4.790  1.00  0.00     0.022 A 
BRANCH  63  67
ATOM     67  S   UNL     1     -17.966  13.424  -2.158  1.00  0.00     0.124 S 
ATOM     68  O   UNL     1     -17.089  12.700  -1.241  1.00  0.00    -0.237 OA
ATOM     69  O   UNL     1     -18.007  14.872  -1.992  1.00  0.00    -0.237 OA
ATOM     70  O   UNL     1     -19.257  12.786  -2.406  1.00  0.00    -0.744 OA
ENDBRANCH  63  67
ENDBRANCH  46  60
BRANCH  47  71
ATOM     71  C   UNL     1      -5.159  15.344  -5.413  1.00  0.00     0.023 A 
ATOM     72  C   UNL     1      -4.641  16.648  -5.356  1.00  0.00     0.031 A 
ATOM     73  C   UNL     1      -4.255  14.287  -5.629  1.00  0.00     0.131 A 
ATOM     74  C   UNL     1      -3.271  16.867  -5.566  1.00  0.00     0.055 A 
ATOM     75  C   UNL     1      -2.884  14.505  -5.775  1.00  0.00     0.041 A 
ATOM     76  F   UNL     1      -4.694  13.020  -5.690  1.00  0.00    -0.206 F 
ATOM     77  C   UNL     1      -2.387  15.804  -5.760  1.00  0.00     0.022 A 
BRANCH  74  78
ATOM     78  S   UNL     1      -2.673  18.576  -5.684  1.00  0.00     0.124 S 
ATOM     79  O   UNL     1      -3.481  19.097  -6.781  1.00  0.00    -0.237 OA
ATOM     80  O   UNL     1      -2.981  19.096  -4.356  1.00  0.00    -0.237 OA
ATOM     81  O   UNL     1      -1.250  18.418  -5.975  1.00  0.00    -0.744 OA
ENDBRANCH  74  78
ENDBRANCH  47  71
BRANCH  59  82
ATOM     82  C   UNL     1     -10.660  17.268  -9.254  1.00  0.00     0.023 A 
ATOM     83  C   UNL     1     -10.079  16.945 -10.492  1.00  0.00     0.031 A 
ATOM     84  C   UNL     1     -11.372  18.477  -9.154  1.00  0.00     0.131 A 
ATOM     85  C   UNL     1     -10.170  17.848 -11.563  1.00  0.00     0.055 A 
ATOM     86  C   UNL     1     -11.518  19.338 -10.242  1.00  0.00     0.041 A 
ATOM     87  F   UNL     1     -11.944  18.841  -7.995  1.00  0.00    -0.206 F 
ATOM     88  C   UNL     1     -10.902  19.032 -11.452  1.00  0.00     0.022 A 
BRANCH  85  89
ATOM     89  S   UNL     1      -9.228  17.503 -13.075  1.00  0.00     0.124 S 
ATOM     90  O   UNL     1      -7.862  17.416 -12.568  1.00  0.00    -0.237 OA
ATOM     91  O   UNL     1      -9.819  16.249 -13.532  1.00  0.00    -0.237 OA
ATOM     92  O   UNL     1      -9.503  18.662 -13.922  1.00  0.00    -0.744 OA
ENDBRANCH  85  89
ENDBRANCH  59  82
ENDBRANCH  33  34
ENDBRANCH  25  28
ENDBRANCH  23  24
ENDBRANCH   1  23
TORSDOF 15
