REMARK SMILES COC(=O)c1ccccc1N1C(=O)/C(=C\c2ccc(-c3ccc(Cl)c(C(=O)NCCCNC(=O)c4ccc(-c5c6nc(c(-c7cc(S(=O)(=O)[O-])ccc7F)c7ccc([nH]7)c(-c7cc(S(=O)(=O)[O-])ccc7F)c7nc(c(-c8cc(S(=O)(=O)[O-])ccc8F)c8ccc5[nH]8)C=C7)C=C6)cc4)c3)o2)SC1=S
REMARK SMILES IDX 29 1 28 2 26 3 27 4 25 6 20 7 21 8 98 9 22 10 23 11 24 12
REMARK SMILES IDX 19 13 16 14 17 15 99 16 18 17 15 18 11 19 12 20 101 21 13 22
REMARK SMILES IDX 14 23 100 24 102 25 10 26 5 27 6 28 7 29 9 30 8 31 3 32 4 33
REMARK SMILES IDX 2 34 1 35 30 36 31 37 32 38 33 39 34 41 35 42 36 43 97 44
REMARK SMILES IDX 37 45 96 46 38 47 39 48 40 49 90 50 41 51 95 52 89 53 91 54
REMARK SMILES IDX 42 55 94 56 88 57 87 58 43 60 75 61 55 62 74 63 56 64 59 65
REMARK SMILES IDX 73 66 92 67 57 68 58 69 72 71 93 72 60 73 44 74 45 75 53 76
REMARK SMILES IDX 46 77 52 78 54 79 51 80 47 81 48 82 49 83 50 84 76 85 77 86
REMARK SMILES IDX 85 87 78 88 84 89 86 90 83 91 79 92 80 93 81 94 82 95 61 96
REMARK SMILES IDX 62 97 70 98 63 99 69 100 71 101 68 102 64 103 65 104 66 105
REMARK SMILES IDX 67 106
REMARK H PARENT 28 5 32 40 91 59 59 70
REMARK Flexibility Score: inf
ROOT
ATOM      1  C   UNL     1      -4.169  -5.092   7.938  1.00  0.00     0.118 C 
ENDROOT
BRANCH   1   2
ATOM      2  N   UNL     1      -5.192  -6.091   8.251  1.00  0.00    -0.352 N 
ATOM      3  C   UNL     1      -6.081  -6.835   7.498  1.00  0.00     0.252 C 
ATOM      4  O   UNL     1      -6.728  -7.694   8.094  1.00  0.00    -0.269 OA
ATOM      5  H   UNL     1      -5.263  -6.274   9.215  1.00  0.00     0.163 HD
BRANCH   3   6
ATOM      6  C   UNL     1      -6.285  -6.622   6.036  1.00  0.00     0.059 A 
ATOM      7  C   UNL     1      -5.389  -5.675   3.978  1.00  0.00     0.018 A 
ATOM      8  C   UNL     1      -6.638  -5.791   3.372  1.00  0.00     0.013 A 
ATOM      9  C   UNL     1      -5.202  -6.234   5.246  1.00  0.00     0.027 A 
ATOM     10  C   UNL     1      -7.693  -6.383   4.068  1.00  0.00     0.022 A 
ATOM     11  C   UNL     1      -7.537  -6.755   5.413  1.00  0.00     0.053 A 
ATOM     12  Cl  UNL     1      -8.960  -7.328   6.208  1.00  0.00    -0.083 Cl
BRANCH   7  13
ATOM     13  C   UNL     1      -4.327  -4.847   3.428  1.00  0.00     0.134 A 
ATOM     14  C   UNL     1      -3.635  -2.996   2.417  1.00  0.00     0.128 A 
ATOM     15  C   UNL     1      -2.529  -3.599   3.001  1.00  0.00     0.051 A 
ATOM     16  O   UNL     1      -4.735  -3.766   2.706  1.00  0.00    -0.457 OA
ATOM     17  C   UNL     1      -2.964  -4.793   3.616  1.00  0.00     0.051 A 
BRANCH  14  18
ATOM     18  C   UNL     1      -3.707  -1.807   1.648  1.00  0.00     0.068 C 
ATOM     19  N   UNL     1      -1.843  -2.271  -1.451  1.00  0.00    -0.260 N 
ATOM     20  C   UNL     1      -2.403  -2.781  -0.289  1.00  0.00     0.270 C 
ATOM     21  C   UNL     1      -2.164  -0.967  -1.782  1.00  0.00     0.152 C 
ATOM     22  O   UNL     1      -2.322  -3.943   0.090  1.00  0.00    -0.268 OA
ATOM     23  C   UNL     1      -3.134  -1.706   0.442  1.00  0.00     0.084 C 
ATOM     24  S   UNL     1      -3.140  -0.259  -0.495  1.00  0.00    -0.054 SA
ATOM     25  S   UNL     1      -1.827  -0.133  -3.191  1.00  0.00    -0.051 S 
BRANCH  19  26
ATOM     26  C   UNL     1      -0.975  -3.114  -2.203  1.00  0.00     0.065 A 
ATOM     27  C   UNL     1       0.389  -2.829  -2.411  1.00  0.00     0.084 A 
ATOM     28  C   UNL     1       1.178  -3.732  -3.146  1.00  0.00     0.018 A 
ATOM     29  C   UNL     1       0.634  -4.920  -3.639  1.00  0.00     0.001 A 
ATOM     30  C   UNL     1      -1.500  -4.325  -2.691  1.00  0.00     0.028 A 
ATOM     31  C   UNL     1      -0.703  -5.220  -3.404  1.00  0.00     0.002 A 
BRANCH  27  32
ATOM     32  C   UNL     1       1.111  -1.663  -1.833  1.00  0.00     0.339 C 
ATOM     33  O   UNL     1       2.081  -1.153  -2.355  1.00  0.00    -0.246 OA
BRANCH  32  34
ATOM     34  O   UNL     1       0.573  -1.320  -0.633  1.00  0.00    -0.465 OA
ATOM     35  C   UNL     1       1.185  -0.184  -0.016  1.00  0.00     0.282 C 
ENDBRANCH  32  34
ENDBRANCH  27  32
ENDBRANCH  19  26
ENDBRANCH  14  18
ENDBRANCH   7  13
ENDBRANCH   3   6
ENDBRANCH   1   2
BRANCH   1  36
ATOM     36  C   UNL     1      -4.334  -3.759   8.648  1.00  0.00     0.042 C 
BRANCH  36  37
ATOM     37  C   UNL     1      -4.170  -3.807  10.158  1.00  0.00     0.118 C 
BRANCH  37  38
ATOM     38  N   UNL     1      -2.840  -4.236  10.572  1.00  0.00    -0.352 N 
ATOM     39  C   UNL     1      -1.777  -3.538  11.094  1.00  0.00     0.251 C 
ATOM     40  H   UNL     1      -2.674  -5.199  10.458  1.00  0.00     0.163 HD
ATOM     41  O   UNL     1      -0.685  -4.099  11.162  1.00  0.00    -0.269 OA
BRANCH  39  42
ATOM     42  C   UNL     1      -1.912  -2.132  11.546  1.00  0.00     0.039 A 
ATOM     43  C   UNL     1      -0.830  -1.259  11.380  1.00  0.00     0.014 A 
ATOM     44  C   UNL     1      -3.067  -1.672  12.179  1.00  0.00     0.014 A 
ATOM     45  C   UNL     1      -0.938   0.077  11.781  1.00  0.00     0.010 A 
ATOM     46  C   UNL     1      -3.214  -0.320  12.479  1.00  0.00     0.010 A 
ATOM     47  C   UNL     1      -2.146   0.570  12.298  1.00  0.00    -0.014 A 
BRANCH  47  48
ATOM     48  C   UNL     1      -2.305   1.998  12.686  1.00  0.00     0.031 A 
ATOM     49  C   UNL     1      -2.634   2.361  14.112  1.00  0.00     0.074 A 
ATOM     50  C   UNL     1      -2.220   2.961  11.747  1.00  0.00     0.049 A 
ATOM     51  N   UNL     1      -2.897   3.533  14.631  1.00  0.00    -0.248 NA
ATOM     52  C   UNL     1      -2.716   1.250  15.072  1.00  0.00     0.031 C 
ATOM     53  C   UNL     1      -1.955   2.733  10.324  1.00  0.00     0.029 A 
ATOM     54  N   UNL     1      -2.355   4.323  11.842  1.00  0.00    -0.354 N 
ATOM     55  C   UNL     1      -3.194   3.298  15.970  1.00  0.00     0.074 A 
ATOM     56  C   UNL     1      -3.151   1.864  16.161  1.00  0.00     0.031 C 
ATOM     57  C   UNL     1      -1.914   3.915   9.689  1.00  0.00     0.029 A 
ATOM     58  C   UNL     1      -2.197   4.981  10.644  1.00  0.00     0.049 A 
ATOM     59  H   UNL     1      -2.546   4.787  12.689  1.00  0.00     0.167 HD
ATOM     60  C   UNL     1      -3.451   4.194  16.956  1.00  0.00     0.034 A 
ATOM     61  C   UNL     1      -2.280   6.293  10.346  1.00  0.00     0.034 A 
ATOM     62  C   UNL     1      -3.471   5.623  16.751  1.00  0.00     0.049 A 
ATOM     63  C   UNL     1      -2.574   7.272  11.454  1.00  0.00     0.074 A 
ATOM     64  C   UNL     1      -3.663   6.626  17.685  1.00  0.00     0.029 A 
ATOM     65  N   UNL     1      -3.295   6.252  15.525  1.00  0.00    -0.354 N 
ATOM     66  N   UNL     1      -2.803   7.037  12.726  1.00  0.00    -0.248 NA
ATOM     67  C   UNL     1      -2.608   8.693  11.088  1.00  0.00     0.031 C 
ATOM     68  C   UNL     1      -3.670   7.855  17.014  1.00  0.00     0.029 A 
ATOM     69  C   UNL     1      -3.403   7.627  15.674  1.00  0.00     0.049 A 
ATOM     70  H   UNL     1      -3.119   5.790  14.674  1.00  0.00     0.167 HD
ATOM     71  C   UNL     1      -2.976   8.285  13.317  1.00  0.00     0.074 A 
ATOM     72  C   UNL     1      -2.808   9.267  12.265  1.00  0.00     0.031 C 
ATOM     73  C   UNL     1      -3.246   8.594  14.612  1.00  0.00     0.034 A 
BRANCH  60  74
ATOM     74  C   UNL     1      -3.751   3.646  18.333  1.00  0.00     0.023 A 
ATOM     75  C   UNL     1      -2.811   2.876  19.043  1.00  0.00     0.031 A 
ATOM     76  C   UNL     1      -5.006   3.858  18.930  1.00  0.00     0.131 A 
ATOM     77  C   UNL     1      -3.170   2.273  20.258  1.00  0.00     0.055 A 
ATOM     78  C   UNL     1      -5.326   3.330  20.184  1.00  0.00     0.041 A 
ATOM     79  F   UNL     1      -5.954   4.566  18.297  1.00  0.00    -0.206 F 
ATOM     80  C   UNL     1      -4.411   2.517  20.847  1.00  0.00     0.022 A 
BRANCH  77  81
ATOM     81  S   UNL     1      -2.050   1.038  20.972  1.00  0.00     0.124 S 
ATOM     82  O   UNL     1      -1.968   0.056  19.893  1.00  0.00    -0.237 OA
ATOM     83  O   UNL     1      -0.842   1.814  21.223  1.00  0.00    -0.237 OA
ATOM     84  O   UNL     1      -2.760   0.582  22.166  1.00  0.00    -0.744 OA
ENDBRANCH  77  81
ENDBRANCH  60  74
BRANCH  61  85
ATOM     85  C   UNL     1      -2.079   6.764   8.945  1.00  0.00     0.023 A 
ATOM     86  C   UNL     1      -0.990   7.582   8.607  1.00  0.00     0.031 A 
ATOM     87  C   UNL     1      -2.993   6.430   7.929  1.00  0.00     0.131 A 
ATOM     88  C   UNL     1      -0.866   8.078   7.300  1.00  0.00     0.055 A 
ATOM     89  C   UNL     1      -2.836   6.883   6.618  1.00  0.00     0.041 A 
ATOM     90  F   UNL     1      -4.047   5.643   8.195  1.00  0.00    -0.206 F 
ATOM     91  C   UNL     1      -1.774   7.724   6.300  1.00  0.00     0.022 A 
BRANCH  88  92
ATOM     92  S   UNL     1       0.463   9.261   6.943  1.00  0.00     0.124 S 
ATOM     93  O   UNL     1       0.166  10.334   7.884  1.00  0.00    -0.237 OA
ATOM     94  O   UNL     1       1.655   8.469   7.226  1.00  0.00    -0.237 OA
ATOM     95  O   UNL     1       0.255   9.589   5.534  1.00  0.00    -0.744 OA
ENDBRANCH  88  92
ENDBRANCH  61  85
BRANCH  73  96
ATOM     96  C   UNL     1      -3.329  10.060  14.962  1.00  0.00     0.023 A 
ATOM     97  C   UNL     1      -4.348  10.886  14.456  1.00  0.00     0.031 A 
ATOM     98  C   UNL     1      -2.361  10.642  15.800  1.00  0.00     0.131 A 
ATOM     99  C   UNL     1      -4.340  12.259  14.741  1.00  0.00     0.055 A 
ATOM    100  C   UNL     1      -2.396  11.996  16.134  1.00  0.00     0.041 A 
ATOM    101  F   UNL     1      -1.364   9.902  16.310  1.00  0.00    -0.206 F 
ATOM    102  C   UNL     1      -3.381  12.816  15.591  1.00  0.00     0.022 A 
BRANCH  99 103
ATOM    103  S   UNL     1      -5.540  13.329  13.901  1.00  0.00     0.124 S 
ATOM    104  O   UNL     1      -5.245  13.071  12.495  1.00  0.00    -0.237 OA
ATOM    105  O   UNL     1      -6.814  12.812  14.389  1.00  0.00    -0.237 OA
ATOM    106  O   UNL     1      -5.194  14.669  14.372  1.00  0.00    -0.744 OA
ENDBRANCH  99 103
ENDBRANCH  73  96
ENDBRANCH  47  48
ENDBRANCH  39  42
ENDBRANCH  37  38
ENDBRANCH  36  37
ENDBRANCH   1  36
TORSDOF 18
