REMARK SMILES O=C(NCCCNC(=O)[C@@H](Cc1cccc(F)c1)[C@H]1CCCCC[C@@H]1O)c1ccc(-c2c3nc(c(-c4cc(S(=O)(=O)[O-])ccc4F)c4ccc([nH]4)c(-c4cc(S(=O)(=O)[O-])ccc4F)c4nc(c(-c5cc(S(=O)(=O)[O-])ccc5F)c5ccc2[nH]5)C=C4)C=C3)cc1
REMARK SMILES IDX 6 1 5 2 4 3 3 4 1 5 2 6 27 8 28 9 89 10 29 11 88 12 30 13
REMARK SMILES IDX 31 14 32 15 82 16 33 17 87 18 81 19 83 20 34 21 86 22 80 23
REMARK SMILES IDX 79 24 35 26 67 27 47 28 66 29 48 30 51 31 65 32 84 33 49 34
REMARK SMILES IDX 50 35 64 37 85 38 52 39 36 40 37 41 45 42 38 43 44 44 46 45
REMARK SMILES IDX 43 46 39 47 40 48 41 49 42 50 68 51 69 52 77 53 70 54 76 55
REMARK SMILES IDX 78 56 75 57 71 58 72 59 73 60 74 61 53 62 54 63 62 64 55 65
REMARK SMILES IDX 61 66 63 67 60 68 56 69 57 70 58 71 59 72 7 73 8 74 9 76
REMARK SMILES IDX 10 77 11 78 12 79 13 80 18 81 14 82 16 83 15 84 17 85 19 86
REMARK SMILES IDX 20 87 21 88 25 90 24 91 23 92 22 93 26 95
REMARK H PARENT 3 7 83 25 51 36 7 75 26 96
REMARK Flexibility Score: 90.00
ROOT
ATOM      1  C   UNL     1       3.943  -1.027  -3.467  1.00  0.00     0.117 C 
ENDROOT
BRANCH   1   2
ATOM      2  C   UNL     1       4.161  -0.454  -2.067  1.00  0.00     0.042 C 
BRANCH   2   3
ATOM      3  C   UNL     1       3.472   0.883  -1.839  1.00  0.00     0.118 C 
BRANCH   3   4
ATOM      4  N   UNL     1       2.207   0.734  -1.148  1.00  0.00    -0.352 N 
ATOM      5  O   UNL     1       0.686   0.178   0.363  1.00  0.00    -0.269 OA
ATOM      6  C   UNL     1       1.879   0.405   0.145  1.00  0.00     0.251 C 
ATOM      7  H   UNL     1       1.424   0.901  -1.721  1.00  0.00     0.163 HD
BRANCH   6   8
ATOM      8  C   UNL     1       2.849   0.298   1.279  1.00  0.00     0.039 A 
ATOM      9  C   UNL     1       4.053   0.998   1.365  1.00  0.00     0.014 A 
ATOM     10  C   UNL     1       2.449  -0.457   2.397  1.00  0.00     0.014 A 
ATOM     11  C   UNL     1       4.847   0.925   2.518  1.00  0.00     0.010 A 
ATOM     12  C   UNL     1       3.206  -0.471   3.580  1.00  0.00     0.010 A 
ATOM     13  C   UNL     1       4.411   0.235   3.659  1.00  0.00    -0.014 A 
BRANCH  13  14
ATOM     14  C   UNL     1       5.160   0.366   4.944  1.00  0.00     0.031 A 
ATOM     15  C   UNL     1       5.810  -0.820   5.605  1.00  0.00     0.074 A 
ATOM     16  C   UNL     1       5.256   1.581   5.525  1.00  0.00     0.049 A 
ATOM     17  N   UNL     1       6.481  -0.871   6.729  1.00  0.00    -0.248 NA
ATOM     18  C   UNL     1       5.681  -2.117   4.925  1.00  0.00     0.031 C 
ATOM     19  C   UNL     1       4.657   2.813   5.003  1.00  0.00     0.029 A 
ATOM     20  N   UNL     1       5.903   1.992   6.665  1.00  0.00    -0.354 N 
ATOM     21  C   UNL     1       6.850  -2.200   6.898  1.00  0.00     0.074 A 
ATOM     22  C   UNL     1       6.298  -2.930   5.774  1.00  0.00     0.031 C 
ATOM     23  C   UNL     1       5.014   3.844   5.782  1.00  0.00     0.029 A 
ATOM     24  C   UNL     1       5.811   3.346   6.898  1.00  0.00     0.049 A 
ATOM     25  H   UNL     1       6.388   1.376   7.261  1.00  0.00     0.167 HD
ATOM     26  C   UNL     1       7.587  -2.758   7.891  1.00  0.00     0.034 A 
ATOM     27  C   UNL     1       6.295   4.109   7.899  1.00  0.00     0.034 A 
ATOM     28  C   UNL     1       8.147  -2.025   9.002  1.00  0.00     0.049 A 
ATOM     29  C   UNL     1       7.076   3.460   9.007  1.00  0.00     0.074 A 
ATOM     30  C   UNL     1       8.937  -2.503  10.035  1.00  0.00     0.029 A 
ATOM     31  N   UNL     1       7.979  -0.667   9.230  1.00  0.00    -0.354 N 
ATOM     32  N   UNL     1       7.399   2.198   9.154  1.00  0.00    -0.248 NA
ATOM     33  C   UNL     1       7.547   4.334  10.090  1.00  0.00     0.031 C 
ATOM     34  C   UNL     1       9.197  -1.448  10.916  1.00  0.00     0.029 A 
ATOM     35  C   UNL     1       8.626  -0.297  10.401  1.00  0.00     0.049 A 
ATOM     36  H   UNL     1       7.474  -0.055   8.647  1.00  0.00     0.167 HD
ATOM     37  C   UNL     1       8.119   2.127  10.341  1.00  0.00     0.074 A 
ATOM     38  C   UNL     1       8.193   3.475  10.867  1.00  0.00     0.031 C 
ATOM     39  C   UNL     1       8.674   1.042  10.935  1.00  0.00     0.034 A 
BRANCH  26  40
ATOM     40  C   UNL     1       7.815  -4.247   7.844  1.00  0.00     0.023 A 
ATOM     41  C   UNL     1       8.641  -4.837   6.873  1.00  0.00     0.031 A 
ATOM     42  C   UNL     1       7.227  -5.083   8.810  1.00  0.00     0.131 A 
ATOM     43  C   UNL     1       8.827  -6.228   6.866  1.00  0.00     0.055 A 
ATOM     44  C   UNL     1       7.463  -6.459   8.835  1.00  0.00     0.041 A 
ATOM     45  F   UNL     1       6.418  -4.573   9.753  1.00  0.00    -0.206 F 
ATOM     46  C   UNL     1       8.263  -7.040   7.854  1.00  0.00     0.022 A 
BRANCH  43  47
ATOM     47  S   UNL     1       9.763  -6.976   5.505  1.00  0.00     0.124 S 
ATOM     48  O   UNL     1       8.899  -6.688   4.361  1.00  0.00    -0.237 OA
ATOM     49  O   UNL     1      11.025  -6.254   5.550  1.00  0.00    -0.237 OA
ATOM     50  O   UNL     1       9.838  -8.389   5.877  1.00  0.00    -0.744 OA
ENDBRANCH  43  47
ENDBRANCH  26  40
BRANCH  27  51
ATOM     51  C   UNL     1       6.024   5.573   7.911  1.00  0.00     0.023 A 
ATOM     52  C   UNL     1       7.053   6.502   7.689  1.00  0.00     0.031 A 
ATOM     53  C   UNL     1       4.724   6.062   8.133  1.00  0.00     0.131 A 
ATOM     54  C   UNL     1       6.766   7.876   7.707  1.00  0.00     0.055 A 
ATOM     55  C   UNL     1       4.437   7.427   8.111  1.00  0.00     0.041 A 
ATOM     56  F   UNL     1       3.708   5.211   8.342  1.00  0.00    -0.206 F 
ATOM     57  C   UNL     1       5.463   8.343   7.901  1.00  0.00     0.022 A 
BRANCH  54  58
ATOM     58  S   UNL     1       8.126   9.056   7.488  1.00  0.00     0.124 S 
ATOM     59  O   UNL     1       8.919   8.821   8.689  1.00  0.00    -0.237 OA
ATOM     60  O   UNL     1       8.717   8.613   6.229  1.00  0.00    -0.237 OA
ATOM     61  O   UNL     1       7.448  10.350   7.430  1.00  0.00    -0.744 OA
ENDBRANCH  54  58
ENDBRANCH  27  51
BRANCH  39  62
ATOM     62  C   UNL     1       9.431   1.266  12.217  1.00  0.00     0.023 A 
ATOM     63  C   UNL     1       8.767   1.548  13.423  1.00  0.00     0.031 A 
ATOM     64  C   UNL     1      10.832   1.162  12.235  1.00  0.00     0.131 A 
ATOM     65  C   UNL     1       9.510   1.742  14.597  1.00  0.00     0.055 A 
ATOM     66  C   UNL     1      11.563   1.314  13.414  1.00  0.00     0.041 A 
ATOM     67  F   UNL     1      11.511   0.894  11.109  1.00  0.00    -0.206 F 
ATOM     68  C   UNL     1      10.902   1.611  14.603  1.00  0.00     0.022 A 
BRANCH  65  69
ATOM     69  S   UNL     1       8.638   2.195  16.122  1.00  0.00     0.124 S 
ATOM     70  O   UNL     1       8.129   3.523  15.794  1.00  0.00    -0.237 OA
ATOM     71  O   UNL     1       7.637   1.140  16.240  1.00  0.00    -0.237 OA
ATOM     72  O   UNL     1       9.687   2.166  17.139  1.00  0.00    -0.744 OA
ENDBRANCH  65  69
ENDBRANCH  39  62
ENDBRANCH  13  14
ENDBRANCH   6   8
ENDBRANCH   3   4
ENDBRANCH   2   3
ENDBRANCH   1   2
BRANCH   1  73
ATOM     73  N   UNL     1       4.894  -0.453  -4.407  1.00  0.00    -0.356 N 
ATOM     74  C   UNL     1       5.834  -1.030  -5.196  1.00  0.00     0.223 C 
ATOM     75  H   UNL     1       4.847   0.527  -4.483  1.00  0.00     0.163 HD
ATOM     76  O   UNL     1       6.588  -0.267  -5.811  1.00  0.00    -0.275 OA
BRANCH  74  77
ATOM     77  C   UNL     1       5.965  -2.547  -5.389  1.00  0.00     0.088 C 
BRANCH  77  78
ATOM     78  C   UNL     1       6.885  -3.225  -4.337  1.00  0.00     0.049 C 
BRANCH  78  79
ATOM     79  C   UNL     1       6.482  -3.430  -2.898  1.00  0.00    -0.044 A 
ATOM     80  C   UNL     1       5.939  -4.644  -2.449  1.00  0.00     0.004 A 
ATOM     81  C   UNL     1       6.729  -2.440  -1.940  1.00  0.00     0.043 A 
ATOM     82  C   UNL     1       5.527  -4.815  -1.124  1.00  0.00     0.003 A 
ATOM     83  C   UNL     1       6.332  -2.621  -0.614  1.00  0.00     0.123 A 
ATOM     84  C   UNL     1       5.707  -3.789  -0.204  1.00  0.00     0.039 A 
ATOM     85  F   UNL     1       6.512  -1.626   0.264  1.00  0.00    -0.207 F 
ENDBRANCH  78  79
ENDBRANCH  77  78
BRANCH  77  86
ATOM     86  C   UNL     1       4.633  -3.179  -5.942  1.00  0.00     0.030 C 
BRANCH  86  87
ATOM     87  C   UNL     1       4.659  -3.260  -7.495  1.00  0.00     0.007 C 
BRANCH  87  88
ATOM     88  C   UNL     1       5.653  -4.258  -8.087  1.00  0.00     0.000 CG0
ATOM     89  G   UNL     1       5.119  -5.675  -8.261  1.00  0.00     0.000 G0
ENDBRANCH  87  88
ENDBRANCH  86  87
BRANCH  86  90
ATOM     90  C   UNL     1       4.126  -4.474  -5.296  1.00  0.00     0.118 C 
BRANCH  90  91
ATOM     91  C   UNL     1       4.837  -5.777  -5.683  1.00  0.00     0.032 C 
BRANCH  91  92
ATOM     92  C   UNL     1       4.483  -6.351  -7.051  1.00  0.00     0.003 C 
BRANCH  92  93
ATOM     93  C   UNL     1       5.119  -5.675  -8.261  1.00  0.00     0.000 CG0
ATOM     94  G   UNL     1       5.653  -4.258  -8.087  1.00  0.00     0.000 G0
ENDBRANCH  92  93
ENDBRANCH  91  92
ENDBRANCH  90  91
BRANCH  90  95
ATOM     95  O   UNL     1       2.718  -4.610  -5.530  1.00  0.00    -0.393 OA
ATOM     96  H   UNL     1       2.557  -4.719  -6.481  1.00  0.00     0.210 HD
ENDBRANCH  90  95
ENDBRANCH  86  90
ENDBRANCH  77  86
ENDBRANCH  74  77
ENDBRANCH   1  73
TORSDOF 17
