REMARK SMILES O=C(CCCCCc1cc2c(cc1Br)OCCCO2)NCCCNC(=O)c1ccc(-c2c3nc(c(-c4cc(S(=O)(=O)[O-])ccc4F)c4ccc([nH]4)c(-c4cc(S(=O)(=O)[O-])ccc4F)c4nc(c(-c5cc(S(=O)(=O)[O-])ccc5F)c5ccc2[nH]5)C=C4)C=C3)cc1
REMARK SMILES IDX 1 1 2 2 20 3 3 5 4 6 5 7 6 8 7 9 8 10 9 11 13 12 10 13 12 14
REMARK SMILES IDX 14 15 11 16 19 17 18 18 17 19 15 21 16 22 21 24 22 25 23 26
REMARK SMILES IDX 24 27 25 28 26 30 27 31 28 32 89 33 29 34 88 35 30 36 31 37
REMARK SMILES IDX 32 38 82 39 33 40 87 41 81 42 83 43 34 44 86 45 80 46 79 47
REMARK SMILES IDX 35 49 67 50 47 51 66 52 48 53 51 54 65 55 84 56 49 57 50 58
REMARK SMILES IDX 64 60 85 61 52 62 36 63 37 64 45 65 38 66 44 67 46 68 43 69
REMARK SMILES IDX 39 70 40 71 41 72 42 73 68 74 69 75 77 76 70 77 76 78 78 79
REMARK SMILES IDX 75 80 71 81 72 82 73 83 74 84 53 85 54 86 62 87 55 88 61 89
REMARK SMILES IDX 63 90 60 91 56 92 57 93 58 94 59 95
REMARK H PARENT 20 4 24 29 83 48 51 59
REMARK Flexibility Score: 80.00
ROOT
ATOM      1  O   UNL     1       0.720   0.576   0.445  1.00  0.00    -0.275 OA
ATOM      2  C   UNL     1       1.799   0.092   0.123  1.00  0.00     0.219 C 
ATOM      3  N   UNL     1       2.367  -1.005   0.727  1.00  0.00    -0.356 N 
ATOM      4  H   UNL     1       3.175  -1.402   0.329  1.00  0.00     0.163 HD
ENDROOT
BRANCH   2   5
ATOM      5  C   UNL     1       2.680   0.714  -0.938  1.00  0.00     0.100 C 
BRANCH   5   6
ATOM      6  C   UNL     1       3.620   1.748  -0.318  1.00  0.00     0.010 C 
BRANCH   6   7
ATOM      7  C   UNL     1       4.762   1.176   0.535  1.00  0.00     0.001 C 
BRANCH   7   8
ATOM      8  C   UNL     1       5.802   0.337  -0.222  1.00  0.00     0.005 C 
BRANCH   8   9
ATOM      9  C   UNL     1       6.600   1.093  -1.296  1.00  0.00     0.037 C 
BRANCH   9  10
ATOM     10  C   UNL     1       7.468   2.193  -0.727  1.00  0.00    -0.030 A 
ATOM     11  C   UNL     1       6.916   3.482  -0.617  1.00  0.00     0.055 A 
ATOM     12  C   UNL     1       8.765   1.986  -0.227  1.00  0.00     0.025 A 
ATOM     13  C   UNL     1       7.622   4.527  -0.022  1.00  0.00     0.161 A 
ATOM     14  C   UNL     1       9.477   3.036   0.364  1.00  0.00     0.066 A 
ATOM     15  Br  UNL     1       9.624   0.293  -0.294  1.00  0.00    -0.050 Br
ATOM     16  C   UNL     1       8.910   4.307   0.459  1.00  0.00     0.162 A 
BRANCH  13  17
ATOM     17  O   UNL     1       6.927   5.687   0.175  1.00  0.00    -0.490 OA
BRANCH  17  18
ATOM     18  C   UNL     1       7.534   6.804  -0.467  1.00  0.00     0.233 C 
BRANCH  18  19
ATOM     19  C   UNL     1       8.688   7.367   0.346  1.00  0.00     0.083 CG0
ATOM     20  G   UNL     1       9.874   6.416   0.341  1.00  0.00     0.000 G0
ENDBRANCH  18  19
ENDBRANCH  17  18
ENDBRANCH  13  17
BRANCH  16  21
ATOM     21  O   UNL     1       9.634   5.253   1.132  1.00  0.00    -0.490 OA
BRANCH  21  22
ATOM     22  C   UNL     1       9.874   6.416   0.341  1.00  0.00     0.233 CG0
ATOM     23  G   UNL     1       8.688   7.367   0.346  1.00  0.00     0.000 G0
ENDBRANCH  21  22
ENDBRANCH  16  21
ENDBRANCH   9  10
ENDBRANCH   8   9
ENDBRANCH   7   8
ENDBRANCH   6   7
ENDBRANCH   5   6
ENDBRANCH   2   5
BRANCH   3  24
ATOM     24  C   UNL     1       1.816  -1.595   1.928  1.00  0.00     0.117 C 
BRANCH  24  25
ATOM     25  C   UNL     1       2.117  -3.081   2.042  1.00  0.00     0.042 C 
BRANCH  25  26
ATOM     26  C   UNL     1       3.599  -3.436   2.097  1.00  0.00     0.118 C 
BRANCH  26  27
ATOM     27  N   UNL     1       4.267  -3.019   3.322  1.00  0.00    -0.352 N 
ATOM     28  C   UNL     1       5.056  -3.769   4.169  1.00  0.00     0.251 C 
ATOM     29  H   UNL     1       4.138  -2.078   3.580  1.00  0.00     0.163 HD
ATOM     30  O   UNL     1       5.474  -3.284   5.217  1.00  0.00    -0.269 OA
BRANCH  28  31
ATOM     31  C   UNL     1       5.347  -5.178   3.827  1.00  0.00     0.039 A 
ATOM     32  C   UNL     1       5.811  -5.518   2.554  1.00  0.00     0.014 A 
ATOM     33  C   UNL     1       5.060  -6.176   4.762  1.00  0.00     0.014 A 
ATOM     34  C   UNL     1       5.799  -6.851   2.153  1.00  0.00     0.010 A 
ATOM     35  C   UNL     1       5.127  -7.519   4.380  1.00  0.00     0.010 A 
ATOM     36  C   UNL     1       5.429  -7.864   3.053  1.00  0.00    -0.014 A 
BRANCH  36  37
ATOM     37  C   UNL     1       5.319  -9.270   2.579  1.00  0.00     0.031 A 
ATOM     38  C   UNL     1       3.982  -9.964   2.547  1.00  0.00     0.074 A 
ATOM     39  C   UNL     1       6.416  -9.907   2.126  1.00  0.00     0.049 A 
ATOM     40  N   UNL     1       3.695 -11.181   2.158  1.00  0.00    -0.248 NA
ATOM     41  C   UNL     1       2.814  -9.196   3.009  1.00  0.00     0.031 C 
ATOM     42  C   UNL     1       7.759  -9.329   2.087  1.00  0.00     0.029 A 
ATOM     43  N   UNL     1       6.576 -11.163   1.596  1.00  0.00    -0.354 N 
ATOM     44  C   UNL     1       2.324 -11.329   2.344  1.00  0.00     0.074 A 
ATOM     45  C   UNL     1       1.840 -10.091   2.911  1.00  0.00     0.031 C 
ATOM     46  C   UNL     1       8.597 -10.209   1.520  1.00  0.00     0.029 A 
ATOM     47  C   UNL     1       7.869 -11.440   1.218  1.00  0.00     0.049 A 
ATOM     48  H   UNL     1       5.836 -11.804   1.496  1.00  0.00     0.167 HD
ATOM     49  C   UNL     1       1.540 -12.394   2.052  1.00  0.00     0.034 A 
ATOM     50  C   UNL     1       8.416 -12.559   0.700  1.00  0.00     0.034 A 
ATOM     51  C   UNL     1       2.026 -13.615   1.462  1.00  0.00     0.049 A 
ATOM     52  C   UNL     1       7.531 -13.748   0.433  1.00  0.00     0.074 A 
ATOM     53  C   UNL     1       1.300 -14.736   1.100  1.00  0.00     0.029 A 
ATOM     54  N   UNL     1       3.350 -13.877   1.143  1.00  0.00    -0.354 N 
ATOM     55  N   UNL     1       6.232 -13.858   0.583  1.00  0.00    -0.248 NA
ATOM     56  C   UNL     1       8.181 -14.968  -0.067  1.00  0.00     0.031 C 
ATOM     57  C   UNL     1       2.189 -15.693   0.609  1.00  0.00     0.029 A 
ATOM     58  C   UNL     1       3.465 -15.151   0.613  1.00  0.00     0.049 A 
ATOM     59  H   UNL     1       4.097 -13.249   1.274  1.00  0.00     0.167 HD
ATOM     60  C   UNL     1       5.908 -15.153   0.188  1.00  0.00     0.074 A 
ATOM     61  C   UNL     1       7.143 -15.779  -0.236  1.00  0.00     0.031 C 
ATOM     62  C   UNL     1       4.699 -15.767   0.186  1.00  0.00     0.034 A 
BRANCH  49  63
ATOM     63  C   UNL     1       0.063 -12.303   2.344  1.00  0.00     0.023 A 
ATOM     64  C   UNL     1      -0.519 -13.143   3.311  1.00  0.00     0.031 A 
ATOM     65  C   UNL     1      -0.783 -11.478   1.582  1.00  0.00     0.131 A 
ATOM     66  C   UNL     1      -1.910 -13.157   3.474  1.00  0.00     0.055 A 
ATOM     67  C   UNL     1      -2.166 -11.472   1.770  1.00  0.00     0.041 A 
ATOM     68  F   UNL     1      -0.274 -10.658   0.648  1.00  0.00    -0.206 F 
ATOM     69  C   UNL     1      -2.736 -12.323   2.713  1.00  0.00     0.022 A 
BRANCH  66  70
ATOM     70  S   UNL     1      -2.709 -14.292   4.642  1.00  0.00     0.124 S 
ATOM     71  O   UNL     1      -3.401 -13.365   5.534  1.00  0.00    -0.237 OA
ATOM     72  O   UNL     1      -3.574 -15.075   3.764  1.00  0.00    -0.237 OA
ATOM     73  O   UNL     1      -1.596 -15.019   5.243  1.00  0.00    -0.744 OA
ENDBRANCH  66  70
ENDBRANCH  49  63
BRANCH  50  74
ATOM     74  C   UNL     1       9.872 -12.571   0.377  1.00  0.00     0.023 A 
ATOM     75  C   UNL     1      10.837 -12.382   1.383  1.00  0.00     0.031 A 
ATOM     76  C   UNL     1      10.310 -12.656  -0.954  1.00  0.00     0.131 A 
ATOM     77  C   UNL     1      12.182 -12.204   1.033  1.00  0.00     0.055 A 
ATOM     78  C   UNL     1      11.661 -12.550  -1.292  1.00  0.00     0.041 A 
ATOM     79  F   UNL     1       9.425 -12.827  -1.948  1.00  0.00    -0.206 F 
ATOM     80  C   UNL     1      12.602 -12.303  -0.297  1.00  0.00     0.022 A 
BRANCH  77  81
ATOM     81  S   UNL     1      13.404 -11.695   2.274  1.00  0.00     0.124 S 
ATOM     82  O   UNL     1      14.333 -12.820   2.264  1.00  0.00    -0.237 OA
ATOM     83  O   UNL     1      13.911 -10.451   1.701  1.00  0.00    -0.237 OA
ATOM     84  O   UNL     1      12.614 -11.539   3.491  1.00  0.00    -0.744 OA
ENDBRANCH  77  81
ENDBRANCH  50  74
BRANCH  62  85
ATOM     85  C   UNL     1       4.620 -17.202  -0.274  1.00  0.00     0.023 A 
ATOM     86  C   UNL     1       3.892 -17.535  -1.431  1.00  0.00     0.031 A 
ATOM     87  C   UNL     1       5.131 -18.245   0.517  1.00  0.00     0.131 A 
ATOM     88  C   UNL     1       3.659 -18.880  -1.743  1.00  0.00     0.055 A 
ATOM     89  C   UNL     1       4.931 -19.584   0.179  1.00  0.00     0.041 A 
ATOM     90  F   UNL     1       5.825 -17.975   1.634  1.00  0.00    -0.206 F 
ATOM     91  C   UNL     1       4.180 -19.906  -0.948  1.00  0.00     0.022 A 
BRANCH  88  92
ATOM     92  S   UNL     1       2.605 -19.348  -3.144  1.00  0.00     0.124 S 
ATOM     93  O   UNL     1       3.523 -20.135  -3.963  1.00  0.00    -0.237 OA
ATOM     94  O   UNL     1       1.544 -20.110  -2.489  1.00  0.00    -0.237 OA
ATOM     95  O   UNL     1       2.197 -18.072  -3.720  1.00  0.00    -0.744 OA
ENDBRANCH  88  92
ENDBRANCH  62  85
ENDBRANCH  36  37
ENDBRANCH  28  31
ENDBRANCH  26  27
ENDBRANCH  25  26
ENDBRANCH  24  25
ENDBRANCH   3  24
TORSDOF 18
