REMARK SMILES CC(C)CCc1cc2c(cc1Cl)C=C(C(=O)NCCCNC(=O)c1ccc(-c3c4nc(c(-c5cc(S(=O)(=O)[O-])ccc5F)c5ccc([nH]5)c(-c5cc(S(=O)(=O)[O-])ccc5F)c5nc(c(-c6cc(S(=O)(=O)[O-])ccc6F)c6ccc3[nH]6)C=C5)C=C4)cc1)[C@@H](C(F)(F)F)O2
REMARK SMILES IDX 19 1 18 2 17 3 15 4 16 5 14 7 6 8 7 9 11 10 8 11 10 12 12 13
REMARK SMILES IDX 9 14 92 15 13 16 87 17 5 18 4 19 2 20 1 21 3 22 88 23 89 24
REMARK SMILES IDX 90 25 91 26 20 27 21 28 22 29 23 31 24 32 25 33 86 34 26 35
REMARK SMILES IDX 85 36 27 37 28 38 29 39 79 40 30 41 84 42 78 43 80 44 31 45
REMARK SMILES IDX 83 46 77 47 76 48 32 50 64 51 44 52 63 53 45 54 48 55 62 56
REMARK SMILES IDX 81 57 46 58 47 59 61 61 82 62 49 63 33 64 34 65 42 66 35 67
REMARK SMILES IDX 41 68 43 69 40 70 36 71 37 72 38 73 39 74 65 75 66 76 74 77
REMARK SMILES IDX 67 78 73 79 75 80 72 81 68 82 69 83 70 84 71 85 50 86 51 87
REMARK SMILES IDX 59 88 52 89 58 90 60 91 57 92 53 93 54 94 55 95 56 96
REMARK H PARENT 17 6 21 30 80 49 48 60
REMARK Flexibility Score: inf
ROOT
ATOM      1  C   UNL     1      -0.904  10.534  -2.819  1.00  0.00     0.042 C 
ENDROOT
BRANCH   1   2
ATOM      2  C   UNL     1      -1.712   9.659  -3.761  1.00  0.00     0.118 C 
BRANCH   2   3
ATOM      3  N   UNL     1      -0.864   8.969  -4.720  1.00  0.00    -0.352 N 
ATOM      4  C   UNL     1      -0.392   7.715  -4.900  1.00  0.00     0.251 C 
ATOM      5  O   UNL     1       0.335   7.565  -5.888  1.00  0.00    -0.270 OA
ATOM      6  H   UNL     1      -0.549   9.578  -5.426  1.00  0.00     0.163 HD
BRANCH   4   7
ATOM      7  C   UNL     1      -0.698   6.550  -4.026  1.00  0.00     0.067 C 
ATOM      8  C   UNL     1      -1.176   1.915  -2.083  1.00  0.00    -0.026 A 
ATOM      9  C   UNL     1      -1.295   3.224  -1.568  1.00  0.00     0.052 A 
ATOM     10  C   UNL     1      -0.751   1.781  -3.418  1.00  0.00     0.045 A 
ATOM     11  C   UNL     1      -0.998   4.336  -2.352  1.00  0.00     0.128 A 
ATOM     12  C   UNL     1      -0.376   2.904  -4.173  1.00  0.00     0.032 A 
ATOM     13  Cl  UNL     1      -0.718   0.278  -4.268  1.00  0.00    -0.084 Cl
ATOM     14  C   UNL     1      -0.507   4.184  -3.644  1.00  0.00     0.019 A 
ATOM     15  O   UNL     1      -1.226   5.571  -1.810  1.00  0.00    -0.475 OA
ATOM     16  C   UNL     1      -0.178   5.372  -4.421  1.00  0.00     0.025 C 
ATOM     17  C   UNL     1      -1.558   6.598  -2.793  1.00  0.00     0.314 C 
BRANCH   8  18
ATOM     18  C   UNL     1      -1.627   0.798  -1.161  1.00  0.00     0.037 C 
BRANCH  18  19
ATOM     19  C   UNL     1      -0.924  -0.566  -1.184  1.00  0.00     0.008 C 
BRANCH  19  20
ATOM     20  C   UNL     1       0.610  -0.526  -1.057  1.00  0.00    -0.017 C 
ATOM     21  C   UNL     1       1.054  -0.163   0.359  1.00  0.00     0.007 C 
ATOM     22  C   UNL     1       1.192  -1.883  -1.459  1.00  0.00     0.007 C 
ENDBRANCH  19  20
ENDBRANCH  18  19
ENDBRANCH   8  18
BRANCH  17  23
ATOM     23  C   UNL     1      -3.067   6.543  -3.126  1.00  0.00     0.429 C 
ATOM     24  F   UNL     1      -3.803   6.973  -2.071  1.00  0.00    -0.167 F 
ATOM     25  F   UNL     1      -3.397   7.335  -4.175  1.00  0.00    -0.167 F 
ATOM     26  F   UNL     1      -3.497   5.299  -3.437  1.00  0.00    -0.167 F 
ENDBRANCH  17  23
ENDBRANCH   4   7
ENDBRANCH   2   3
ENDBRANCH   1   2
BRANCH   1  27
ATOM     27  C   UNL     1      -0.424  11.815  -3.485  1.00  0.00     0.118 C 
BRANCH  27  28
ATOM     28  N   UNL     1      -1.530  12.708  -3.826  1.00  0.00    -0.352 N 
ATOM     29  C   UNL     1      -1.839  13.959  -3.344  1.00  0.00     0.251 C 
ATOM     30  H   UNL     1      -2.151  12.360  -4.506  1.00  0.00     0.163 HD
ATOM     31  O   UNL     1      -2.935  14.452  -3.593  1.00  0.00    -0.269 OA
BRANCH  29  32
ATOM     32  C   UNL     1      -0.859  14.684  -2.511  1.00  0.00     0.039 A 
ATOM     33  C   UNL     1       0.496  14.647  -2.839  1.00  0.00     0.014 A 
ATOM     34  C   UNL     1      -1.289  15.382  -1.379  1.00  0.00     0.014 A 
ATOM     35  C   UNL     1       1.431  15.112  -1.929  1.00  0.00     0.010 A 
ATOM     36  C   UNL     1      -0.345  15.963  -0.526  1.00  0.00     0.010 A 
ATOM     37  C   UNL     1       1.026  15.782  -0.763  1.00  0.00    -0.014 A 
BRANCH  37  38
ATOM     38  C   UNL     1       2.068  16.292   0.166  1.00  0.00     0.031 A 
ATOM     39  C   UNL     1       2.169  15.789   1.578  1.00  0.00     0.074 A 
ATOM     40  C   UNL     1       2.976  17.168  -0.308  1.00  0.00     0.049 A 
ATOM     41  N   UNL     1       3.068  16.071   2.486  1.00  0.00    -0.248 NA
ATOM     42  C   UNL     1       1.127  14.859   2.041  1.00  0.00     0.031 C 
ATOM     43  C   UNL     1       2.961  17.729  -1.659  1.00  0.00     0.029 A 
ATOM     44  N   UNL     1       4.101  17.706   0.263  1.00  0.00    -0.354 N 
ATOM     45  C   UNL     1       2.684  15.386   3.632  1.00  0.00     0.074 A 
ATOM     46  C   UNL     1       1.456  14.693   3.314  1.00  0.00     0.031 C 
ATOM     47  C   UNL     1       4.066  18.459  -1.844  1.00  0.00     0.029 A 
ATOM     48  C   UNL     1       4.827  18.497  -0.598  1.00  0.00     0.049 A 
ATOM     49  H   UNL     1       4.365  17.543   1.197  1.00  0.00     0.167 HD
ATOM     50  C   UNL     1       3.308  15.335   4.834  1.00  0.00     0.034 A 
ATOM     51  C   UNL     1       5.971  19.186  -0.413  1.00  0.00     0.034 A 
ATOM     52  C   UNL     1       4.551  16.007   5.118  1.00  0.00     0.049 A 
ATOM     53  C   UNL     1       6.654  19.101   0.924  1.00  0.00     0.074 A 
ATOM     54  C   UNL     1       5.291  15.973   6.286  1.00  0.00     0.029 A 
ATOM     55  N   UNL     1       5.239  16.828   4.234  1.00  0.00    -0.354 N 
ATOM     56  N   UNL     1       6.305  18.406   1.981  1.00  0.00    -0.248 NA
ATOM     57  C   UNL     1       7.880  19.890   1.101  1.00  0.00     0.031 C 
ATOM     58  C   UNL     1       6.388  16.822   6.133  1.00  0.00     0.029 A 
ATOM     59  C   UNL     1       6.377  17.331   4.843  1.00  0.00     0.049 A 
ATOM     60  H   UNL     1       4.959  17.024   3.311  1.00  0.00     0.167 HD
ATOM     61  C   UNL     1       7.266  18.671   2.949  1.00  0.00     0.074 A 
ATOM     62  C   UNL     1       8.232  19.562   2.339  1.00  0.00     0.031 C 
ATOM     63  C   UNL     1       7.335  18.223   4.228  1.00  0.00     0.034 A 
BRANCH  50  64
ATOM     64  C   UNL     1       2.671  14.537   5.946  1.00  0.00     0.023 A 
ATOM     65  C   UNL     1       2.245  15.188   7.119  1.00  0.00     0.031 A 
ATOM     66  C   UNL     1       2.581  13.134   5.896  1.00  0.00     0.131 A 
ATOM     67  C   UNL     1       1.770  14.437   8.202  1.00  0.00     0.055 A 
ATOM     68  C   UNL     1       2.071  12.393   6.963  1.00  0.00     0.041 A 
ATOM     69  F   UNL     1       2.974  12.464   4.800  1.00  0.00    -0.206 F 
ATOM     70  C   UNL     1       1.673  13.044   8.127  1.00  0.00     0.022 A 
BRANCH  67  71
ATOM     71  S   UNL     1       1.319  15.230   9.769  1.00  0.00     0.124 S 
ATOM     72  O   UNL     1      -0.104  14.911   9.865  1.00  0.00    -0.237 OA
ATOM     73  O   UNL     1       2.179  14.535  10.723  1.00  0.00    -0.237 OA
ATOM     74  O   UNL     1       1.628  16.639   9.553  1.00  0.00    -0.744 OA
ENDBRANCH  67  71
ENDBRANCH  50  64
BRANCH  51  75
ATOM     75  C   UNL     1       6.531  19.959  -1.560  1.00  0.00     0.023 A 
ATOM     76  C   UNL     1       5.785  20.992  -2.158  1.00  0.00     0.031 A 
ATOM     77  C   UNL     1       7.727  19.562  -2.179  1.00  0.00     0.131 A 
ATOM     78  C   UNL     1       6.186  21.514  -3.394  1.00  0.00     0.055 A 
ATOM     79  C   UNL     1       8.167  20.147  -3.369  1.00  0.00     0.041 A 
ATOM     80  F   UNL     1       8.465  18.573  -1.654  1.00  0.00    -0.206 F 
ATOM     81  C   UNL     1       7.381  21.110  -3.995  1.00  0.00     0.022 A 
BRANCH  78  82
ATOM     82  S   UNL     1       5.080  22.597  -4.342  1.00  0.00     0.124 S 
ATOM     83  O   UNL     1       5.907  23.784  -4.535  1.00  0.00    -0.237 OA
ATOM     84  O   UNL     1       4.836  21.796  -5.539  1.00  0.00    -0.237 OA
ATOM     85  O   UNL     1       3.927  22.767  -3.464  1.00  0.00    -0.744 OA
ENDBRANCH  78  82
ENDBRANCH  51  75
BRANCH  63  86
ATOM     86  C   UNL     1       8.481  18.689   5.092  1.00  0.00     0.023 A 
ATOM     87  C   UNL     1       9.408  17.758   5.596  1.00  0.00     0.031 A 
ATOM     88  C   UNL     1       8.563  20.020   5.538  1.00  0.00     0.131 A 
ATOM     89  C   UNL     1      10.348  18.159   6.553  1.00  0.00     0.055 A 
ATOM     90  C   UNL     1       9.533  20.425   6.456  1.00  0.00     0.041 A 
ATOM     91  F   UNL     1       7.696  20.942   5.092  1.00  0.00    -0.206 F 
ATOM     92  C   UNL     1      10.420  19.489   6.980  1.00  0.00     0.022 A 
BRANCH  89  93
ATOM     93  S   UNL     1      11.446  16.954   7.348  1.00  0.00     0.124 S 
ATOM     94  O   UNL     1      12.765  17.436   6.945  1.00  0.00    -0.237 OA
ATOM     95  O   UNL     1      11.123  17.128   8.762  1.00  0.00    -0.237 OA
ATOM     96  O   UNL     1      11.047  15.676   6.768  1.00  0.00    -0.744 OA
ENDBRANCH  89  93
ENDBRANCH  63  86
ENDBRANCH  37  38
ENDBRANCH  29  32
ENDBRANCH  27  28
ENDBRANCH   1  27
TORSDOF 17
