REMARK SMILES CC(C)[C@H]([NH2+]Cc1ccc(N(C)C)cc1)C(=O)NCCCNC(=O)c1ccc(-c2c3nc(c(-c4cc(S(=O)(=O)[O-])ccc4F)c4ccc([nH]4)c(-c4cc(S(=O)(=O)[O-])ccc4F)c4nc(c(-c5cc(S(=O)(=O)[O-])ccc5F)c5ccc2[nH]5)C=C4)C=C3)cc1
REMARK SMILES IDX 19 1 18 2 16 3 17 4 4 6 2 7 1 8 3 9 5 10 6 13 7 14 8 15
REMARK SMILES IDX 15 16 9 17 14 18 10 19 11 20 12 21 13 22 20 23 21 24 22 25
REMARK SMILES IDX 23 26 24 28 25 29 26 30 87 31 27 32 86 33 28 34 29 35 30 36
REMARK SMILES IDX 80 37 31 38 85 39 79 40 81 41 32 42 84 43 78 44 77 45 33 47
REMARK SMILES IDX 65 48 45 49 64 50 46 51 49 52 63 53 82 54 47 55 48 56 62 58
REMARK SMILES IDX 83 59 50 60 34 61 35 62 43 63 36 64 42 65 44 66 41 67 37 68
REMARK SMILES IDX 38 69 39 70 40 71 66 72 67 73 75 74 68 75 74 76 76 77 73 78
REMARK SMILES IDX 69 79 70 80 71 81 72 82 51 83 52 84 60 85 53 86 59 87 61 88
REMARK SMILES IDX 58 89 54 90 55 91 56 92 57 93
REMARK H PARENT 18 5 5 11 5 12 22 27 81 46 49 57
REMARK Flexibility Score: inf
ROOT
ATOM      1  C   UNL     1      -0.475  -0.075   4.086  1.00  0.00     0.118 C 
ENDROOT
BRANCH   1   2
ATOM      2  N   UNL     1      -1.347   0.995   3.626  1.00  0.00    -0.351 N 
ATOM      3  C   UNL     1      -1.597   1.425   2.352  1.00  0.00     0.278 C 
ATOM      4  O   UNL     1      -2.371   2.374   2.199  1.00  0.00    -0.268 OA
ATOM      5  H   UNL     1      -1.828   1.480   4.335  1.00  0.00     0.163 HD
BRANCH   3   6
ATOM      6  C   UNL     1      -0.944   0.732   1.130  1.00  0.00     0.275 C 
BRANCH   6   7
ATOM      7  C   UNL     1      -1.511  -0.720   1.002  1.00  0.00     0.051 C 
ATOM      8  C   UNL     1      -2.774  -0.730   0.135  1.00  0.00     0.014 C 
ATOM      9  C   UNL     1      -0.515  -1.753   0.463  1.00  0.00     0.014 C 
ENDBRANCH   6   7
BRANCH   6  10
ATOM     10  N   UNL     1       0.530   0.772   1.225  1.00  0.00    -0.332 N 
ATOM     11  H   UNL     1       0.913   0.381   0.364  1.00  0.00     0.347 HD
ATOM     12  H   UNL     1       0.778   0.236   2.056  1.00  0.00     0.347 HD
BRANCH  10  13
ATOM     13  C   UNL     1       1.100   2.111   1.411  1.00  0.00     0.297 C 
BRANCH  13  14
ATOM     14  C   UNL     1       2.612   2.035   1.474  1.00  0.00     0.006 A 
ATOM     15  C   UNL     1       3.264   0.970   2.105  1.00  0.00     0.012 A 
ATOM     16  C   UNL     1       3.405   3.058   0.957  1.00  0.00     0.012 A 
ATOM     17  C   UNL     1       4.661   0.916   2.193  1.00  0.00     0.026 A 
ATOM     18  C   UNL     1       4.806   2.992   1.049  1.00  0.00     0.026 A 
ATOM     19  C   UNL     1       5.481   1.921   1.667  1.00  0.00     0.036 A 
BRANCH  19  20
ATOM     20  N   UNL     1       6.864   1.877   1.759  1.00  0.00    -0.378 N 
ATOM     21  C   UNL     1       7.585   0.856   2.514  1.00  0.00     0.143 C 
ATOM     22  C   UNL     1       7.691   2.816   1.011  1.00  0.00     0.143 C 
ENDBRANCH  19  20
ENDBRANCH  13  14
ENDBRANCH  10  13
ENDBRANCH   6  10
ENDBRANCH   3   6
ENDBRANCH   1   2
BRANCH   1  23
ATOM     23  C   UNL     1       0.756   0.439   4.814  1.00  0.00     0.042 C 
BRANCH  23  24
ATOM     24  C   UNL     1       0.455   1.176   6.106  1.00  0.00     0.118 C 
BRANCH  24  25
ATOM     25  N   UNL     1      -0.137   0.313   7.116  1.00  0.00    -0.352 N 
ATOM     26  C   UNL     1       0.371  -0.128   8.312  1.00  0.00     0.251 C 
ATOM     27  H   UNL     1      -1.046  -0.005   6.910  1.00  0.00     0.163 HD
ATOM     28  O   UNL     1      -0.213  -1.033   8.911  1.00  0.00    -0.269 OA
BRANCH  26  29
ATOM     29  C   UNL     1       1.615   0.450   8.867  1.00  0.00     0.039 A 
ATOM     30  C   UNL     1       2.520  -0.391   9.522  1.00  0.00     0.014 A 
ATOM     31  C   UNL     1       1.889   1.815   8.766  1.00  0.00     0.014 A 
ATOM     32  C   UNL     1       3.720   0.129  10.015  1.00  0.00     0.010 A 
ATOM     33  C   UNL     1       3.130   2.309   9.157  1.00  0.00     0.010 A 
ATOM     34  C   UNL     1       4.053   1.477   9.804  1.00  0.00    -0.014 A 
BRANCH  34  35
ATOM     35  C   UNL     1       5.341   2.044  10.283  1.00  0.00     0.031 A 
ATOM     36  C   UNL     1       5.343   3.162  11.292  1.00  0.00     0.074 A 
ATOM     37  C   UNL     1       6.505   1.591   9.777  1.00  0.00     0.049 A 
ATOM     38  N   UNL     1       6.351   3.832  11.790  1.00  0.00    -0.248 NA
ATOM     39  C   UNL     1       4.029   3.607  11.778  1.00  0.00     0.031 C 
ATOM     40  C   UNL     1       6.636   0.535   8.771  1.00  0.00     0.029 A 
ATOM     41  N   UNL     1       7.800   1.960  10.040  1.00  0.00    -0.354 N 
ATOM     42  C   UNL     1       5.792   4.782  12.638  1.00  0.00     0.074 A 
ATOM     43  C   UNL     1       4.356   4.657  12.514  1.00  0.00     0.031 C 
ATOM     44  C   UNL     1       7.938   0.309   8.539  1.00  0.00     0.029 A 
ATOM     45  C   UNL     1       8.735   1.239   9.334  1.00  0.00     0.049 A 
ATOM     46  H   UNL     1       8.039   2.674  10.675  1.00  0.00     0.167 HD
ATOM     47  C   UNL     1       6.415   5.655  13.470  1.00  0.00     0.034 A 
ATOM     48  C   UNL     1      10.080   1.321   9.325  1.00  0.00     0.034 A 
ATOM     49  C   UNL     1       7.850   5.769  13.578  1.00  0.00     0.049 A 
ATOM     50  C   UNL     1      10.754   2.340  10.208  1.00  0.00     0.074 A 
ATOM     51  C   UNL     1       8.592   6.592  14.407  1.00  0.00     0.029 A 
ATOM     52  N   UNL     1       8.764   5.044  12.821  1.00  0.00    -0.354 N 
ATOM     53  N   UNL     1      10.215   3.206  11.035  1.00  0.00    -0.248 NA
ATOM     54  C   UNL     1      12.220   2.385  10.160  1.00  0.00     0.031 C 
ATOM     55  C   UNL     1       9.946   6.421  14.098  1.00  0.00     0.029 A 
ATOM     56  C   UNL     1      10.059   5.426  13.140  1.00  0.00     0.049 A 
ATOM     57  H   UNL     1       8.527   4.358  12.156  1.00  0.00     0.167 HD
ATOM     58  C   UNL     1      11.280   3.872  11.635  1.00  0.00     0.074 A 
ATOM     59  C   UNL     1      12.490   3.300  11.079  1.00  0.00     0.031 C 
ATOM     60  C   UNL     1      11.260   4.859  12.568  1.00  0.00     0.034 A 
BRANCH  47  61
ATOM     61  C   UNL     1       5.533   6.566  14.297  1.00  0.00     0.023 A 
ATOM     62  C   UNL     1       4.584   6.049  15.199  1.00  0.00     0.031 A 
ATOM     63  C   UNL     1       5.585   7.961  14.133  1.00  0.00     0.131 A 
ATOM     64  C   UNL     1       3.656   6.905  15.809  1.00  0.00     0.055 A 
ATOM     65  C   UNL     1       4.726   8.817  14.826  1.00  0.00     0.041 A 
ATOM     66  F   UNL     1       6.453   8.518  13.274  1.00  0.00    -0.206 F 
ATOM     67  C   UNL     1       3.737   8.290  15.652  1.00  0.00     0.022 A 
BRANCH  64  68
ATOM     68  S   UNL     1       2.221   6.168  16.642  1.00  0.00     0.124 S 
ATOM     69  O   UNL     1       1.643   5.360  15.570  1.00  0.00    -0.237 OA
ATOM     70  O   UNL     1       2.838   5.429  17.737  1.00  0.00    -0.237 OA
ATOM     71  O   UNL     1       1.423   7.325  17.039  1.00  0.00    -0.744 OA
ENDBRANCH  64  68
ENDBRANCH  47  61
BRANCH  48  72
ATOM     72  C   UNL     1      10.883   0.403   8.467  1.00  0.00     0.023 A 
ATOM     73  C   UNL     1      11.744  -0.544   9.043  1.00  0.00     0.031 A 
ATOM     74  C   UNL     1      10.823   0.473   7.064  1.00  0.00     0.131 A 
ATOM     75  C   UNL     1      12.540  -1.357   8.222  1.00  0.00     0.055 A 
ATOM     76  C   UNL     1      11.578  -0.374   6.251  1.00  0.00     0.041 A 
ATOM     77  F   UNL     1      10.011   1.357   6.461  1.00  0.00    -0.206 F 
ATOM     78  C   UNL     1      12.452  -1.288   6.830  1.00  0.00     0.022 A 
BRANCH  75  79
ATOM     79  S   UNL     1      13.751  -2.459   9.002  1.00  0.00     0.124 S 
ATOM     80  O   UNL     1      14.591  -1.512   9.726  1.00  0.00    -0.237 OA
ATOM     81  O   UNL     1      12.898  -3.316   9.819  1.00  0.00    -0.237 OA
ATOM     82  O   UNL     1      14.389  -3.121   7.866  1.00  0.00    -0.744 OA
ENDBRANCH  75  79
ENDBRANCH  48  72
BRANCH  60  83
ATOM     83  C   UNL     1      12.595   5.346  13.083  1.00  0.00     0.023 A 
ATOM     84  C   UNL     1      13.516   6.011  12.255  1.00  0.00     0.031 A 
ATOM     85  C   UNL     1      12.955   5.125  14.425  1.00  0.00     0.131 A 
ATOM     86  C   UNL     1      14.774   6.377  12.760  1.00  0.00     0.055 A 
ATOM     87  C   UNL     1      14.180   5.553  14.940  1.00  0.00     0.041 A 
ATOM     88  F   UNL     1      12.119   4.490  15.262  1.00  0.00    -0.206 F 
ATOM     89  C   UNL     1      15.103   6.170  14.102  1.00  0.00     0.022 A 
BRANCH  86  90
ATOM     90  S   UNL     1      16.017   7.033  11.612  1.00  0.00     0.124 S 
ATOM     91  O   UNL     1      16.126   5.954  10.635  1.00  0.00    -0.237 OA
ATOM     92  O   UNL     1      15.387   8.261  11.138  1.00  0.00    -0.237 OA
ATOM     93  O   UNL     1      17.195   7.226  12.456  1.00  0.00    -0.744 OA
ENDBRANCH  86  90
ENDBRANCH  60  83
ENDBRANCH  34  35
ENDBRANCH  26  29
ENDBRANCH  24  25
ENDBRANCH  23  24
ENDBRANCH   1  23
TORSDOF 18
