REMARK SMILES CCOc1cc([C@@H]([NH3+])C(=O)NCCCNC(=O)c2ccc(-c3c4nc(c(-c5cc(S(=O)(=O)[O-])ccc5F)c5ccc([nH]5)c(-c5cc(S(=O)(=O)[O-])ccc5F)c5nc(c(-c6cc(S(=O)(=O)[O-])ccc6F)c6ccc3[nH]6)C=C5)C=C4)cc2)ccc1OCc1ccccc1
REMARK SMILES IDX 12 1 11 2 9 3 10 4 7 6 6 7 4 8 5 9 83 10 82 11 81 12 3 13
REMARK SMILES IDX 2 14 1 15 84 16 85 17 86 18 87 19 91 20 88 21 90 22 89 23
REMARK SMILES IDX 8 24 13 28 14 29 15 30 16 31 17 33 18 34 19 35 80 36 20 37
REMARK SMILES IDX 79 38 21 39 22 40 23 41 73 42 24 43 78 44 72 45 74 46 25 47
REMARK SMILES IDX 77 48 71 49 70 50 26 52 58 53 38 54 57 55 39 56 42 57 56 58
REMARK SMILES IDX 75 59 40 60 41 61 55 63 76 64 43 65 27 66 28 67 36 68 29 69
REMARK SMILES IDX 35 70 37 71 34 72 30 73 31 74 32 75 33 76 59 77 60 78 68 79
REMARK SMILES IDX 61 80 67 81 69 82 66 83 62 84 63 85 64 86 65 87 44 88 45 89
REMARK SMILES IDX 53 90 46 91 52 92 54 93 51 94 47 95 48 96 49 97 50 98
REMARK H PARENT 11 5 8 25 8 26 8 27 15 32 74 51 42 62
REMARK Flexibility Score: inf
ROOT
ATOM      1  C   UNL     1       1.967   1.011   6.596  1.00  0.00     0.118 C 
ENDROOT
BRANCH   1   2
ATOM      2  N   UNL     1       3.375   0.746   6.811  1.00  0.00    -0.351 N 
ATOM      3  C   UNL     1       4.453   1.246   6.142  1.00  0.00     0.283 C 
ATOM      4  O   UNL     1       5.558   0.759   6.412  1.00  0.00    -0.268 OA
ATOM      5  H   UNL     1       3.582   0.119   7.541  1.00  0.00     0.163 HD
BRANCH   3   6
ATOM      6  C   UNL     1       4.330   2.394   5.108  1.00  0.00     0.302 C 
BRANCH   6   7
ATOM      7  C   UNL     1       3.986   1.936   3.699  1.00  0.00     0.023 A 
ATOM      8  C   UNL     1       2.486   1.441   1.813  1.00  0.00     0.161 A 
ATOM      9  C   UNL     1       2.690   1.923   3.125  1.00  0.00     0.061 A 
ATOM     10  C   UNL     1       3.585   0.959   1.087  1.00  0.00     0.161 A 
ATOM     11  C   UNL     1       4.871   1.054   1.617  1.00  0.00     0.051 A 
ATOM     12  C   UNL     1       5.067   1.515   2.910  1.00  0.00     0.014 A 
BRANCH   8  13
ATOM     13  O   UNL     1       1.284   1.561   1.167  1.00  0.00    -0.490 OA
BRANCH  13  14
ATOM     14  C   UNL     1       0.166   0.874   1.744  1.00  0.00     0.226 C 
ATOM     15  C   UNL     1      -0.783   0.482   0.611  1.00  0.00     0.049 C 
ENDBRANCH  13  14
ENDBRANCH   8  13
BRANCH  10  16
ATOM     16  O   UNL     1       3.583   0.303  -0.109  1.00  0.00    -0.485 OA
BRANCH  16  17
ATOM     17  C   UNL     1       2.525  -0.610  -0.409  1.00  0.00     0.265 C 
BRANCH  17  18
ATOM     18  C   UNL     1       2.237  -1.810   0.493  1.00  0.00    -0.011 A 
ATOM     19  C   UNL     1       2.486  -1.867   1.873  1.00  0.00     0.007 A 
ATOM     20  C   UNL     1       1.566  -2.905  -0.078  1.00  0.00     0.007 A 
ATOM     21  C   UNL     1       2.025  -2.927   2.662  1.00  0.00     0.000 A 
ATOM     22  C   UNL     1       1.142  -3.984   0.704  1.00  0.00     0.000 A 
ATOM     23  C   UNL     1       1.346  -3.984   2.078  1.00  0.00     0.000 A 
ENDBRANCH  17  18
ENDBRANCH  16  17
ENDBRANCH  10  16
ENDBRANCH   6   7
BRANCH   6  24
ATOM     24  N   UNL     1       3.527   3.527   5.607  1.00  0.00    -0.343 N 
ATOM     25  H   UNL     1       2.562   3.226   5.740  1.00  0.00     0.345 HD
ATOM     26  H   UNL     1       3.555   4.288   4.929  1.00  0.00     0.345 HD
ATOM     27  H   UNL     1       3.909   3.849   6.496  1.00  0.00     0.345 HD
ENDBRANCH   6  24
ENDBRANCH   3   6
ENDBRANCH   1   2
BRANCH   1  28
ATOM     28  C   UNL     1       1.325  -0.091   5.766  1.00  0.00     0.042 C 
BRANCH  28  29
ATOM     29  C   UNL     1       1.036  -1.344   6.580  1.00  0.00     0.118 C 
BRANCH  29  30
ATOM     30  N   UNL     1      -0.049  -1.135   7.531  1.00  0.00    -0.352 N 
ATOM     31  C   UNL     1      -1.296  -1.711   7.576  1.00  0.00     0.251 C 
ATOM     32  H   UNL     1       0.140  -0.485   8.246  1.00  0.00     0.163 HD
ATOM     33  O   UNL     1      -2.163  -1.224   8.291  1.00  0.00    -0.269 OA
BRANCH  31  34
ATOM     34  C   UNL     1      -1.586  -2.902   6.747  1.00  0.00     0.039 A 
ATOM     35  C   UNL     1      -2.810  -2.990   6.080  1.00  0.00     0.014 A 
ATOM     36  C   UNL     1      -0.650  -3.933   6.636  1.00  0.00     0.014 A 
ATOM     37  C   UNL     1      -3.066  -4.082   5.245  1.00  0.00     0.010 A 
ATOM     38  C   UNL     1      -0.870  -4.972   5.739  1.00  0.00     0.010 A 
ATOM     39  C   UNL     1      -2.083  -5.062   5.038  1.00  0.00    -0.014 A 
BRANCH  39  40
ATOM     40  C   UNL     1      -2.294  -6.212   4.120  1.00  0.00     0.031 A 
ATOM     41  C   UNL     1      -2.261  -7.614   4.670  1.00  0.00     0.074 A 
ATOM     42  C   UNL     1      -2.423  -6.003   2.794  1.00  0.00     0.049 A 
ATOM     43  N   UNL     1      -2.260  -8.756   4.034  1.00  0.00    -0.248 NA
ATOM     44  C   UNL     1      -2.182  -7.742   6.134  1.00  0.00     0.031 C 
ATOM     45  C   UNL     1      -2.462  -4.691   2.143  1.00  0.00     0.029 A 
ATOM     46  N   UNL     1      -2.531  -6.890   1.752  1.00  0.00    -0.354 N 
ATOM     47  C   UNL     1      -2.148  -9.736   5.015  1.00  0.00     0.074 A 
ATOM     48  C   UNL     1      -2.029  -9.048   6.282  1.00  0.00     0.031 C 
ATOM     49  C   UNL     1      -2.614  -4.861   0.819  1.00  0.00     0.029 A 
ATOM     50  C   UNL     1      -2.620  -6.288   0.517  1.00  0.00     0.049 A 
ATOM     51  H   UNL     1      -2.543  -7.867   1.877  1.00  0.00     0.167 HD
ATOM     52  C   UNL     1      -2.157 -11.085   4.870  1.00  0.00     0.034 A 
ATOM     53  C   UNL     1      -2.679  -6.827  -0.718  1.00  0.00     0.034 A 
ATOM     54  C   UNL     1      -2.296 -11.747   3.595  1.00  0.00     0.049 A 
ATOM     55  C   UNL     1      -2.634  -8.329  -0.856  1.00  0.00     0.074 A 
ATOM     56  C   UNL     1      -2.379 -13.104   3.335  1.00  0.00     0.029 A 
ATOM     57  N   UNL     1      -2.361 -11.103   2.365  1.00  0.00    -0.354 N 
ATOM     58  N   UNL     1      -2.550  -9.244   0.082  1.00  0.00    -0.248 NA
ATOM     59  C   UNL     1      -2.692  -8.868  -2.220  1.00  0.00     0.031 C 
ATOM     60  C   UNL     1      -2.408 -13.282   1.948  1.00  0.00     0.029 A 
ATOM     61  C   UNL     1      -2.443 -12.036   1.343  1.00  0.00     0.049 A 
ATOM     62  H   UNL     1      -2.351 -10.127   2.239  1.00  0.00     0.167 HD
ATOM     63  C   UNL     1      -2.592 -10.469  -0.579  1.00  0.00     0.074 A 
ATOM     64  C   UNL     1      -2.707 -10.173  -1.992  1.00  0.00     0.031 C 
ATOM     65  C   UNL     1      -2.554 -11.725  -0.064  1.00  0.00     0.034 A 
BRANCH  52  66
ATOM     66  C   UNL     1      -1.968 -11.925   6.113  1.00  0.00     0.023 A 
ATOM     67  C   UNL     1      -2.870 -11.876   7.190  1.00  0.00     0.031 A 
ATOM     68  C   UNL     1      -0.848 -12.767   6.235  1.00  0.00     0.131 A 
ATOM     69  C   UNL     1      -2.594 -12.585   8.370  1.00  0.00     0.055 A 
ATOM     70  C   UNL     1      -0.627 -13.542   7.376  1.00  0.00     0.041 A 
ATOM     71  F   UNL     1       0.063 -12.841   5.252  1.00  0.00    -0.206 F 
ATOM     72  C   UNL     1      -1.494 -13.440   8.459  1.00  0.00     0.022 A 
BRANCH  69  73
ATOM     73  S   UNL     1      -3.600 -12.244   9.840  1.00  0.00     0.124 S 
ATOM     74  O   UNL     1      -3.413 -10.804   9.998  1.00  0.00    -0.237 OA
ATOM     75  O   UNL     1      -4.929 -12.673   9.419  1.00  0.00    -0.237 OA
ATOM     76  O   UNL     1      -2.978 -13.063  10.879  1.00  0.00    -0.744 OA
ENDBRANCH  69  73
ENDBRANCH  52  66
BRANCH  53  77
ATOM     77  C   UNL     1      -2.775  -5.957  -1.927  1.00  0.00     0.023 A 
ATOM     78  C   UNL     1      -3.908  -5.990  -2.753  1.00  0.00     0.031 A 
ATOM     79  C   UNL     1      -1.716  -5.115  -2.308  1.00  0.00     0.131 A 
ATOM     80  C   UNL     1      -3.938  -5.226  -3.932  1.00  0.00     0.055 A 
ATOM     81  C   UNL     1      -1.776  -4.305  -3.442  1.00  0.00     0.041 A 
ATOM     82  F   UNL     1      -0.593  -5.072  -1.580  1.00  0.00    -0.206 F 
ATOM     83  C   UNL     1      -2.890  -4.367  -4.270  1.00  0.00     0.022 A 
BRANCH  80  84
ATOM     84  S   UNL     1      -5.328  -5.446  -5.074  1.00  0.00     0.124 S 
ATOM     85  O   UNL     1      -5.231  -6.868  -5.384  1.00  0.00    -0.237 OA
ATOM     86  O   UNL     1      -6.463  -5.043  -4.251  1.00  0.00    -0.237 OA
ATOM     87  O   UNL     1      -5.008  -4.542  -6.177  1.00  0.00    -0.744 OA
ENDBRANCH  80  84
ENDBRANCH  53  77
BRANCH  65  88
ATOM     88  C   UNL     1      -2.710 -12.875  -1.031  1.00  0.00     0.023 A 
ATOM     89  C   UNL     1      -1.743 -13.170  -2.006  1.00  0.00     0.031 A 
ATOM     90  C   UNL     1      -3.854 -13.692  -0.967  1.00  0.00     0.131 A 
ATOM     91  C   UNL     1      -1.960 -14.222  -2.910  1.00  0.00     0.055 A 
ATOM     92  C   UNL     1      -4.034 -14.777  -1.824  1.00  0.00     0.041 A 
ATOM     93  F   UNL     1      -4.814 -13.453  -0.058  1.00  0.00    -0.206 F 
ATOM     94  C   UNL     1      -3.089 -15.040  -2.811  1.00  0.00     0.022 A 
BRANCH  91  95
ATOM     95  S   UNL     1      -0.793 -14.452  -4.279  1.00  0.00     0.124 S 
ATOM     96  O   UNL     1      -0.861 -13.161  -4.955  1.00  0.00    -0.237 OA
ATOM     97  O   UNL     1       0.455 -14.741  -3.580  1.00  0.00    -0.237 OA
ATOM     98  O   UNL     1      -1.358 -15.575  -5.027  1.00  0.00    -0.744 OA
ENDBRANCH  91  95
ENDBRANCH  65  88
ENDBRANCH  39  40
ENDBRANCH  31  34
ENDBRANCH  29  30
ENDBRANCH  28  29
ENDBRANCH   1  28
TORSDOF 20
