REMARK SMILES CC[C@]1(C(=O)NCCCNC(=O)c2ccc(-c3c4nc(c(-c5cc(S(=O)(=O)[O-])ccc5F)c5ccc([nH]5)c(-c5cc(S(=O)(=O)[O-])ccc5F)c5nc(c(-c6cc(S(=O)(=O)[O-])ccc6F)c6ccc3[nH]6)C=C5)C=C4)cc2)CCN(C(=O)[C@]2(C)CCCO2)C1
REMARK SMILES IDX 8 1 7 2 6 3 4 4 5 5 3 7 76 8 87 9 77 10 78 11 2 12 1 13
REMARK SMILES IDX 79 14 80 15 81 16 83 17 86 18 82 19 84 20 85 21 9 22 10 23
REMARK SMILES IDX 11 24 12 26 13 27 14 28 75 29 15 30 74 31 16 32 17 33 18 34
REMARK SMILES IDX 68 35 19 36 73 37 67 38 69 39 20 40 72 41 66 42 65 43 21 45
REMARK SMILES IDX 53 46 33 47 52 48 34 49 37 50 51 51 70 52 35 53 36 54 50 56
REMARK SMILES IDX 71 57 38 58 22 59 23 60 31 61 24 62 30 63 32 64 29 65 25 66
REMARK SMILES IDX 26 67 27 68 28 69 54 70 55 71 63 72 56 73 62 74 64 75 61 76
REMARK SMILES IDX 57 77 58 78 59 79 60 80 39 81 40 82 48 83 41 84 47 85 49 86
REMARK SMILES IDX 46 87 42 88 43 89 44 90 45 91
REMARK H PARENT 6 6 10 25 69 44 37 55
REMARK Flexibility Score: inf
ROOT
ATOM      1  C   UNL     1       2.717  -7.406  -8.323  1.00  0.00     0.042 C 
ENDROOT
BRANCH   1   2
ATOM      2  C   UNL     1       3.250  -8.320  -7.231  1.00  0.00     0.117 C 
BRANCH   2   3
ATOM      3  N   UNL     1       4.337  -9.164  -7.702  1.00  0.00    -0.355 N 
ATOM      4  C   UNL     1       5.614  -9.344  -7.277  1.00  0.00     0.228 C 
ATOM      5  O   UNL     1       6.247 -10.230  -7.862  1.00  0.00    -0.274 OA
ATOM      6  H   UNL     1       4.100  -9.713  -8.483  1.00  0.00     0.163 HD
BRANCH   4   7
ATOM      7  C   UNL     1       6.250  -8.525  -6.144  1.00  0.00     0.068 C 
ATOM      8  C   UNL     1       6.267  -7.006  -6.414  1.00  0.00     0.040 C 
ATOM      9  C   UNL     1       5.389  -8.651  -4.853  1.00  0.00     0.136 C 
ATOM     10  C   UNL     1       6.154  -6.419  -5.020  1.00  0.00     0.121 C 
ATOM     11  N   UNL     1       5.163  -7.272  -4.414  1.00  0.00    -0.339 N 
BRANCH   7  12
ATOM     12  C   UNL     1       7.695  -9.039  -5.849  1.00  0.00     0.015 C 
ATOM     13  C   UNL     1       8.748  -8.713  -6.910  1.00  0.00     0.005 C 
ENDBRANCH   7  12
BRANCH  11  14
ATOM     14  C   UNL     1       4.038  -6.901  -3.700  1.00  0.00     0.254 C 
ATOM     15  O   UNL     1       3.166  -7.745  -3.458  1.00  0.00    -0.272 OA
BRANCH  14  16
ATOM     16  C   UNL     1       3.857  -5.410  -3.244  1.00  0.00     0.144 C 
ATOM     17  C   UNL     1       3.497  -4.452  -4.386  1.00  0.00     0.048 C 
ATOM     18  O   UNL     1       5.062  -4.921  -2.633  1.00  0.00    -0.365 OA
ATOM     19  C   UNL     1       2.748  -5.354  -2.178  1.00  0.00     0.053 C 
ATOM     20  C   UNL     1       4.567  -3.382  -4.387  1.00  0.00     0.032 C 
ATOM     21  C   UNL     1       5.376  -3.623  -3.134  1.00  0.00     0.162 C 
ENDBRANCH  14  16
ENDBRANCH  11  14
ENDBRANCH   4   7
ENDBRANCH   2   3
ENDBRANCH   1   2
BRANCH   1  22
ATOM     22  C   UNL     1       2.106  -8.146  -9.505  1.00  0.00     0.118 C 
BRANCH  22  23
ATOM     23  N   UNL     1       0.938  -8.932  -9.134  1.00  0.00    -0.352 N 
ATOM     24  C   UNL     1      -0.365  -8.834  -9.563  1.00  0.00     0.251 C 
ATOM     25  H   UNL     1       1.107  -9.644  -8.475  1.00  0.00     0.163 HD
ATOM     26  O   UNL     1      -1.240  -9.467  -8.986  1.00  0.00    -0.269 OA
BRANCH  24  27
ATOM     27  C   UNL     1      -0.707  -7.942 -10.694  1.00  0.00     0.039 A 
ATOM     28  C   UNL     1      -1.855  -7.152 -10.608  1.00  0.00     0.014 A 
ATOM     29  C   UNL     1       0.100  -7.881 -11.832  1.00  0.00     0.014 A 
ATOM     30  C   UNL     1      -2.150  -6.248 -11.631  1.00  0.00     0.010 A 
ATOM     31  C   UNL     1      -0.141  -6.914 -12.802  1.00  0.00     0.010 A 
ATOM     32  C   UNL     1      -1.272  -6.088 -12.716  1.00  0.00    -0.014 A 
BRANCH  32  33
ATOM     33  C   UNL     1      -1.523  -5.072 -13.771  1.00  0.00     0.031 A 
ATOM     34  C   UNL     1      -1.724  -5.502 -15.200  1.00  0.00     0.074 A 
ATOM     35  C   UNL     1      -1.510  -3.761 -13.453  1.00  0.00     0.049 A 
ATOM     36  N   UNL     1      -1.879  -4.767 -16.271  1.00  0.00    -0.248 NA
ATOM     37  C   UNL     1      -1.719  -6.949 -15.460  1.00  0.00     0.031 C 
ATOM     38  C   UNL     1      -1.287  -3.220 -12.110  1.00  0.00     0.029 A 
ATOM     39  N   UNL     1      -1.683  -2.645 -14.233  1.00  0.00    -0.354 N 
ATOM     40  C   UNL     1      -1.977  -5.661 -17.333  1.00  0.00     0.074 A 
ATOM     41  C   UNL     1      -1.793  -6.987 -16.782  1.00  0.00     0.031 C 
ATOM     42  C   UNL     1      -1.369  -1.881 -12.156  1.00  0.00     0.029 A 
ATOM     43  C   UNL     1      -1.594  -1.462 -13.536  1.00  0.00     0.049 A 
ATOM     44  H   UNL     1      -1.854  -2.687 -15.202  1.00  0.00     0.167 HD
ATOM     45  C   UNL     1      -2.224  -5.402 -18.641  1.00  0.00     0.034 A 
ATOM     46  C   UNL     1      -1.669  -0.184 -13.960  1.00  0.00     0.034 A 
ATOM     47  C   UNL     1      -2.415  -4.074 -19.171  1.00  0.00     0.049 A 
ATOM     48  C   UNL     1      -1.906   0.080 -15.426  1.00  0.00     0.074 A 
ATOM     49  C   UNL     1      -2.720  -3.700 -20.468  1.00  0.00     0.029 A 
ATOM     50  N   UNL     1      -2.308  -2.900 -18.436  1.00  0.00    -0.354 N 
ATOM     51  N   UNL     1      -2.046  -0.779 -16.410  1.00  0.00    -0.248 NA
ATOM     52  C   UNL     1      -2.005   1.486 -15.838  1.00  0.00     0.031 C 
ATOM     53  C   UNL     1      -2.719  -2.303 -20.534  1.00  0.00     0.029 A 
ATOM     54  C   UNL     1      -2.504  -1.802 -19.260  1.00  0.00     0.049 A 
ATOM     55  H   UNL     1      -2.120  -2.854 -17.470  1.00  0.00     0.167 HD
ATOM     56  C   UNL     1      -2.285  -0.016 -17.549  1.00  0.00     0.074 A 
ATOM     57  C   UNL     1      -2.286   1.369 -17.127  1.00  0.00     0.031 C 
ATOM     58  C   UNL     1      -2.492  -0.423 -18.828  1.00  0.00     0.034 A 
BRANCH  45  59
ATOM     59  C   UNL     1      -2.275  -6.580 -19.587  1.00  0.00     0.023 A 
ATOM     60  C   UNL     1      -3.228  -7.604 -19.445  1.00  0.00     0.031 A 
ATOM     61  C   UNL     1      -1.342  -6.694 -20.633  1.00  0.00     0.131 A 
ATOM     62  C   UNL     1      -3.178  -8.730 -20.279  1.00  0.00     0.055 A 
ATOM     63  C   UNL     1      -1.354  -7.776 -21.517  1.00  0.00     0.041 A 
ATOM     64  F   UNL     1      -0.392  -5.762 -20.808  1.00  0.00    -0.206 F 
ATOM     65  C   UNL     1      -2.265  -8.810 -21.333  1.00  0.00     0.022 A 
BRANCH  62  66
ATOM     66  S   UNL     1      -4.221 -10.157 -19.869  1.00  0.00     0.124 S 
ATOM     67  O   UNL     1      -3.772 -10.469 -18.514  1.00  0.00    -0.237 OA
ATOM     68  O   UNL     1      -5.566  -9.609 -19.987  1.00  0.00    -0.237 OA
ATOM     69  O   UNL     1      -3.859 -11.148 -20.881  1.00  0.00    -0.744 OA
ENDBRANCH  62  66
ENDBRANCH  45  59
BRANCH  46  70
ATOM     70  C   UNL     1      -1.507   0.945 -12.998  1.00  0.00     0.023 A 
ATOM     71  C   UNL     1      -2.553   1.853 -12.764  1.00  0.00     0.031 A 
ATOM     72  C   UNL     1      -0.287   1.162 -12.333  1.00  0.00     0.131 A 
ATOM     73  C   UNL     1      -2.343   2.963 -11.931  1.00  0.00     0.055 A 
ATOM     74  C   UNL     1      -0.103   2.234 -11.457  1.00  0.00     0.041 A 
ATOM     75  F   UNL     1       0.746   0.324 -12.517  1.00  0.00    -0.206 F 
ATOM     76  C   UNL     1      -1.131   3.151 -11.264  1.00  0.00     0.022 A 
BRANCH  73  77
ATOM     77  S   UNL     1      -3.648   4.217 -11.810  1.00  0.00     0.124 S 
ATOM     78  O   UNL     1      -3.808   4.613 -13.204  1.00  0.00    -0.237 OA
ATOM     79  O   UNL     1      -4.747   3.454 -11.228  1.00  0.00    -0.237 OA
ATOM     80  O   UNL     1      -3.064   5.231 -10.935  1.00  0.00    -0.744 OA
ENDBRANCH  73  77
ENDBRANCH  46  70
BRANCH  58  81
ATOM     81  C   UNL     1      -2.786   0.647 -19.853  1.00  0.00     0.023 A 
ATOM     82  C   UNL     1      -1.832   1.617 -20.211  1.00  0.00     0.031 A 
ATOM     83  C   UNL     1      -4.047   0.701 -20.474  1.00  0.00     0.131 A 
ATOM     84  C   UNL     1      -2.174   2.633 -21.116  1.00  0.00     0.055 A 
ATOM     85  C   UNL     1      -4.357   1.673 -21.426  1.00  0.00     0.041 A 
ATOM     86  F   UNL     1      -4.999  -0.195 -20.169  1.00  0.00    -0.206 F 
ATOM     87  C   UNL     1      -3.423   2.655 -21.741  1.00  0.00     0.022 A 
BRANCH  84  88
ATOM     88  S   UNL     1      -1.000   3.989 -21.386  1.00  0.00     0.124 S 
ATOM     89  O   UNL     1      -0.828   4.514 -20.036  1.00  0.00    -0.237 OA
ATOM     90  O   UNL     1       0.153   3.295 -21.952  1.00  0.00    -0.237 OA
ATOM     91  O   UNL     1      -1.705   4.874 -22.311  1.00  0.00    -0.744 OA
ENDBRANCH  84  88
ENDBRANCH  58  81
ENDBRANCH  32  33
ENDBRANCH  24  27
ENDBRANCH  22  23
ENDBRANCH   1  22
TORSDOF 16
