REMARK SMILES O=C(Nc1nc(C2CC2)cs1)N[C@@H]1C=C[C@@H](C(=O)NCCCNC(=O)c2ccc(-c3c4nc(c(-c5cc(S(=O)(=O)[O-])ccc5F)c5ccc([nH]5)c(-c5cc(S(=O)(=O)[O-])ccc5F)c5nc(c(-c6cc(S(=O)(=O)[O-])ccc6F)c6ccc3[nH]6)C=C5)C=C4)cc2)C1
REMARK SMILES IDX 21 1 20 2 19 3 17 4 18 5 16 7 13 8 14 9 89 10 15 11 12 12
REMARK SMILES IDX 1 13 2 14 3 15 4 18 5 19 11 20 6 21 10 22 7 23 8 24 9 25
REMARK SMILES IDX 22 26 23 27 24 28 25 30 26 31 27 32 88 33 28 34 87 35 29 36
REMARK SMILES IDX 30 37 31 38 81 39 32 40 86 41 80 42 82 43 33 44 85 45 79 46
REMARK SMILES IDX 78 47 34 49 66 50 46 51 65 52 47 53 50 54 64 55 83 56 48 57
REMARK SMILES IDX 49 58 63 60 84 61 51 62 35 63 36 64 44 65 37 66 43 67 45 68
REMARK SMILES IDX 42 69 38 70 39 71 40 72 41 73 67 74 68 75 76 76 69 77 75 78
REMARK SMILES IDX 77 79 74 80 70 81 71 82 72 83 73 84 52 85 53 86 61 87 54 88
REMARK SMILES IDX 60 89 62 90 59 91 55 92 56 93 57 94 58 95
REMARK H PARENT 19 6 3 16 12 17 23 29 82 48 50 59
REMARK Flexibility Score: inf
ROOT
ATOM      1  C   UNL     1       0.145   0.131   0.779  1.00  0.00     0.042 C 
ENDROOT
BRANCH   1   2
ATOM      2  C   UNL     1      -0.290  -0.912  -0.243  1.00  0.00     0.117 C 
BRANCH   2   3
ATOM      3  N   UNL     1      -1.304  -0.418  -1.158  1.00  0.00    -0.356 N 
ATOM      4  C   UNL     1      -1.261  -0.148  -2.490  1.00  0.00     0.227 C 
ATOM      5  O   UNL     1      -2.323   0.179  -3.032  1.00  0.00    -0.274 OA
ATOM      6  H   UNL     1      -2.179  -0.248  -0.739  1.00  0.00     0.163 HD
BRANCH   4   7
ATOM      7  C   UNL     1       0.022  -0.233  -3.321  1.00  0.00     0.103 C 
ATOM      8  C   UNL     1       2.405  -0.169  -2.693  1.00  0.00     0.107 C 
ATOM      9  C   UNL     1       1.934  -1.553  -3.020  1.00  0.00    -0.006 C 
ATOM     10  C   UNL     1       1.149   0.699  -2.857  1.00  0.00     0.047 C 
ATOM     11  C   UNL     1       0.640  -1.594  -3.353  1.00  0.00    -0.016 C 
BRANCH   8  12
ATOM     12  N   UNL     1       3.433   0.170  -3.638  1.00  0.00    -0.332 N 
ATOM     13  O   UNL     1       5.198  -0.475  -2.351  1.00  0.00    -0.248 OA
ATOM     14  C   UNL     1       4.755  -0.081  -3.420  1.00  0.00     0.321 C 
ATOM     15  N   UNL     1       5.588   0.026  -4.494  1.00  0.00    -0.284 N 
ATOM     16  H   UNL     1       6.533  -0.214  -4.357  1.00  0.00     0.174 HD
ATOM     17  H   UNL     1       3.171   0.604  -4.482  1.00  0.00     0.165 HD
BRANCH  15  18
ATOM     18  C   UNL     1       5.224   0.435  -5.741  1.00  0.00     0.191 A 
ATOM     19  N   UNL     1       4.128   1.060  -6.098  1.00  0.00    -0.225 NA
ATOM     20  S   UNL     1       6.315   0.024  -6.984  1.00  0.00    -0.105 S 
ATOM     21  C   UNL     1       4.125   1.206  -7.470  1.00  0.00     0.057 A 
ATOM     22  C   UNL     1       5.189   0.630  -8.133  1.00  0.00     0.092 A 
BRANCH  21  23
ATOM     23  C   UNL     1       3.024   1.964  -8.198  1.00  0.00     0.039 C 
ATOM     24  C   UNL     1       1.753   2.315  -7.455  1.00  0.00     0.011 C 
ATOM     25  C   UNL     1       2.748   3.385  -7.753  1.00  0.00     0.011 C 
ENDBRANCH  21  23
ENDBRANCH  15  18
ENDBRANCH   8  12
ENDBRANCH   4   7
ENDBRANCH   2   3
ENDBRANCH   1   2
BRANCH   1  26
ATOM     26  C   UNL     1      -0.945   0.541   1.762  1.00  0.00     0.118 C 
BRANCH  26  27
ATOM     27  N   UNL     1      -1.379  -0.563   2.603  1.00  0.00    -0.352 N 
ATOM     28  C   UNL     1      -1.374  -0.701   3.968  1.00  0.00     0.251 C 
ATOM     29  H   UNL     1      -1.736  -1.338   2.112  1.00  0.00     0.163 HD
ATOM     30  O   UNL     1      -1.599  -1.812   4.446  1.00  0.00    -0.269 OA
BRANCH  28  31
ATOM     31  C   UNL     1      -1.094   0.448   4.862  1.00  0.00     0.039 A 
ATOM     32  C   UNL     1      -0.396   0.212   6.051  1.00  0.00     0.014 A 
ATOM     33  C   UNL     1      -1.562   1.734   4.582  1.00  0.00     0.014 A 
ATOM     34  C   UNL     1      -0.140   1.266   6.933  1.00  0.00     0.010 A 
ATOM     35  C   UNL     1      -1.233   2.799   5.419  1.00  0.00     0.010 A 
ATOM     36  C   UNL     1      -0.538   2.574   6.616  1.00  0.00    -0.014 A 
BRANCH  36  37
ATOM     37  C   UNL     1      -0.275   3.700   7.551  1.00  0.00     0.031 A 
ATOM     38  C   UNL     1      -1.425   4.437   8.189  1.00  0.00     0.074 A 
ATOM     39  C   UNL     1       0.993   4.080   7.803  1.00  0.00     0.049 A 
ATOM     40  N   UNL     1      -1.406   5.461   9.004  1.00  0.00    -0.248 NA
ATOM     41  C   UNL     1      -2.778   3.981   7.835  1.00  0.00     0.031 C 
ATOM     42  C   UNL     1       2.189   3.477   7.210  1.00  0.00     0.029 A 
ATOM     43  N   UNL     1       1.489   5.064   8.621  1.00  0.00    -0.354 N 
ATOM     44  C   UNL     1      -2.738   5.780   9.248  1.00  0.00     0.074 A 
ATOM     45  C   UNL     1      -3.535   4.883   8.438  1.00  0.00     0.031 C 
ATOM     46  C   UNL     1       3.279   4.083   7.707  1.00  0.00     0.029 A 
ATOM     47  C   UNL     1       2.863   5.138   8.625  1.00  0.00     0.049 A 
ATOM     48  H   UNL     1       0.916   5.660   9.155  1.00  0.00     0.167 HD
ATOM     49  C   UNL     1      -3.251   6.714  10.088  1.00  0.00     0.034 A 
ATOM     50  C   UNL     1       3.692   5.965   9.292  1.00  0.00     0.034 A 
ATOM     51  C   UNL     1      -2.443   7.588  10.903  1.00  0.00     0.049 A 
ATOM     52  C   UNL     1       3.101   6.989  10.227  1.00  0.00     0.074 A 
ATOM     53  C   UNL     1      -2.853   8.534  11.827  1.00  0.00     0.029 A 
ATOM     54  N   UNL     1      -1.053   7.627  10.891  1.00  0.00    -0.354 N 
ATOM     55  N   UNL     1       1.838   7.242  10.486  1.00  0.00    -0.248 NA
ATOM     56  C   UNL     1       4.049   7.825  10.972  1.00  0.00     0.031 C 
ATOM     57  C   UNL     1      -1.718   9.184  12.327  1.00  0.00     0.029 A 
ATOM     58  C   UNL     1      -0.594   8.595  11.772  1.00  0.00     0.049 A 
ATOM     59  H   UNL     1      -0.479   7.050  10.338  1.00  0.00     0.167 HD
ATOM     60  C   UNL     1       1.844   8.250  11.446  1.00  0.00     0.074 A 
ATOM     61  C   UNL     1       3.234   8.537  11.736  1.00  0.00     0.031 C 
ATOM     62  C   UNL     1       0.797   8.884  12.035  1.00  0.00     0.034 A 
BRANCH  49  63
ATOM     63  C   UNL     1      -4.757   6.845  10.142  1.00  0.00     0.023 A 
ATOM     64  C   UNL     1      -5.576   5.783  10.570  1.00  0.00     0.031 A 
ATOM     65  C   UNL     1      -5.386   8.030   9.725  1.00  0.00     0.131 A 
ATOM     66  C   UNL     1      -6.972   5.897  10.489  1.00  0.00     0.055 A 
ATOM     67  C   UNL     1      -6.777   8.168   9.729  1.00  0.00     0.041 A 
ATOM     68  F   UNL     1      -4.662   9.072   9.288  1.00  0.00    -0.206 F 
ATOM     69  C   UNL     1      -7.579   7.091  10.095  1.00  0.00     0.022 A 
BRANCH  66  70
ATOM     70  S   UNL     1      -7.979   4.412  10.757  1.00  0.00     0.124 S 
ATOM     71  O   UNL     1      -7.471   3.520   9.716  1.00  0.00    -0.237 OA
ATOM     72  O   UNL     1      -7.645   4.048  12.129  1.00  0.00    -0.237 OA
ATOM     73  O   UNL     1      -9.347   4.883  10.550  1.00  0.00    -0.744 OA
ENDBRANCH  66  70
ENDBRANCH  49  63
BRANCH  50  74
ATOM     74  C   UNL     1       5.168   5.862   9.112  1.00  0.00     0.023 A 
ATOM     75  C   UNL     1       6.002   5.477  10.174  1.00  0.00     0.031 A 
ATOM     76  C   UNL     1       5.772   6.192   7.886  1.00  0.00     0.131 A 
ATOM     77  C   UNL     1       7.396   5.478  10.006  1.00  0.00     0.055 A 
ATOM     78  C   UNL     1       7.156   6.141   7.708  1.00  0.00     0.041 A 
ATOM     79  F   UNL     1       5.020   6.559   6.836  1.00  0.00    -0.206 F 
ATOM     80  C   UNL     1       7.977   5.796   8.777  1.00  0.00     0.022 A 
BRANCH  77  81
ATOM     81  S   UNL     1       8.444   5.136  11.446  1.00  0.00     0.124 S 
ATOM     82  O   UNL     1       8.020   6.176  12.377  1.00  0.00    -0.237 OA
ATOM     83  O   UNL     1       8.054   3.772  11.787  1.00  0.00    -0.237 OA
ATOM     84  O   UNL     1       9.800   5.282  10.922  1.00  0.00    -0.744 OA
ENDBRANCH  77  81
ENDBRANCH  50  74
BRANCH  62  85
ATOM     85  C   UNL     1       1.133   9.925  13.076  1.00  0.00     0.023 A 
ATOM     86  C   UNL     1       1.810  11.111  12.742  1.00  0.00     0.031 A 
ATOM     87  C   UNL     1       0.810   9.707  14.427  1.00  0.00     0.131 A 
ATOM     88  C   UNL     1       2.208  11.998  13.752  1.00  0.00     0.055 A 
ATOM     89  C   UNL     1       1.150  10.626  15.421  1.00  0.00     0.041 A 
ATOM     90  F   UNL     1       0.166   8.591  14.806  1.00  0.00    -0.206 F 
ATOM     91  C   UNL     1       1.869  11.771  15.089  1.00  0.00     0.022 A 
BRANCH  88  92
ATOM     92  S   UNL     1       3.281  13.393  13.312  1.00  0.00     0.124 S 
ATOM     93  O   UNL     1       4.406  12.720  12.671  1.00  0.00    -0.237 OA
ATOM     94  O   UNL     1       2.423  14.180  12.432  1.00  0.00    -0.237 OA
ATOM     95  O   UNL     1       3.583  14.014  14.600  1.00  0.00    -0.744 OA
ENDBRANCH  88  92
ENDBRANCH  62  85
ENDBRANCH  36  37
ENDBRANCH  28  31
ENDBRANCH  26  27
ENDBRANCH   1  26
TORSDOF 16
