REMARK SMILES Cc1sc(C(=O)NCCCNC(=O)c2ccc(-c3c4nc(c(-c5cc(S(=O)(=O)[O-])ccc5F)c5ccc([nH]5)c(-c5cc(S(=O)(=O)[O-])ccc5F)c5nc(c(-c6cc(S(=O)(=O)[O-])ccc6F)c6ccc3[nH]6)C=C5)C=C4)cc2)cc1S(=O)(=O)N1C[C@@H](C)[C@H](C)C1
REMARK SMILES IDX 9 1 8 2 7 3 5 4 6 5 4 7 1 8 2 9 3 10 78 11 77 12 79 13 80 14
REMARK SMILES IDX 81 15 82 16 83 17 88 18 84 19 86 20 85 21 87 22 10 23 11 24
REMARK SMILES IDX 12 25 13 27 14 28 15 29 76 30 16 31 75 32 17 33 18 34 19 35
REMARK SMILES IDX 69 36 20 37 74 38 68 39 70 40 21 41 73 42 67 43 66 44 22 46
REMARK SMILES IDX 54 47 34 48 53 49 35 50 38 51 52 52 71 53 36 54 37 55 51 57
REMARK SMILES IDX 72 58 39 59 23 60 24 61 32 62 25 63 31 64 33 65 30 66 26 67
REMARK SMILES IDX 27 68 28 69 29 70 55 71 56 72 64 73 57 74 63 75 65 76 62 77
REMARK SMILES IDX 58 78 59 79 60 80 61 81 40 82 41 83 49 84 42 85 48 86 50 87
REMARK SMILES IDX 47 88 43 89 44 90 45 91 46 92
REMARK H PARENT 7 6 11 26 70 45 38 56
REMARK Flexibility Score: inf
ROOT
ATOM      1  C   UNL     1      -4.685  -2.240   0.802  1.00  0.00     0.042 C 
ENDROOT
BRANCH   1   2
ATOM      2  C   UNL     1      -4.292  -1.520  -0.484  1.00  0.00     0.118 C 
BRANCH   2   3
ATOM      3  N   UNL     1      -4.196  -0.092  -0.266  1.00  0.00    -0.351 N 
ATOM      4  C   UNL     1      -3.135   0.722   0.032  1.00  0.00     0.261 C 
ATOM      5  O   UNL     1      -3.419   1.916   0.169  1.00  0.00    -0.268 OA
ATOM      6  H   UNL     1      -5.055   0.383  -0.347  1.00  0.00     0.163 HD
BRANCH   4   7
ATOM      7  C   UNL     1      -1.777   0.206   0.124  1.00  0.00     0.093 A 
ATOM      8  C   UNL     1       2.107   0.681  -0.007  1.00  0.00     0.058 C 
ATOM      9  C   UNL     1       0.724   0.157   0.060  1.00  0.00     0.022 A 
ATOM     10  S   UNL     1      -0.507   1.355   0.055  1.00  0.00    -0.134 S 
ATOM     11  C   UNL     1       0.182  -1.113   0.133  1.00  0.00     0.097 A 
ATOM     12  C   UNL     1      -1.249  -1.059   0.274  1.00  0.00     0.047 A 
BRANCH  11  13
ATOM     13  S   UNL     1       0.953  -2.678   0.045  1.00  0.00     0.244 S 
ATOM     14  O   UNL     1       0.532  -3.309   1.278  1.00  0.00    -0.207 OA
ATOM     15  O   UNL     1       0.512  -3.165  -1.244  1.00  0.00    -0.207 OA
BRANCH  13  16
ATOM     16  N   UNL     1       2.608  -2.631   0.032  1.00  0.00    -0.197 NA
ATOM     17  C   UNL     1       3.376  -2.396  -1.187  1.00  0.00     0.106 C 
ATOM     18  C   UNL     1       3.394  -2.473   1.249  1.00  0.00     0.106 C 
ATOM     19  C   UNL     1       4.792  -2.055  -0.702  1.00  0.00     0.005 C 
ATOM     20  C   UNL     1       4.651  -1.730   0.798  1.00  0.00     0.005 C 
ATOM     21  C   UNL     1       5.391  -0.892  -1.490  1.00  0.00     0.009 C 
ATOM     22  C   UNL     1       5.875  -2.129   1.610  1.00  0.00     0.009 C 
ENDBRANCH  13  16
ENDBRANCH  11  13
ENDBRANCH   4   7
ENDBRANCH   2   3
ENDBRANCH   1   2
BRANCH   1  23
ATOM     23  C   UNL     1      -6.124  -1.948   1.222  1.00  0.00     0.118 C 
BRANCH  23  24
ATOM     24  N   UNL     1      -7.075  -2.388   0.210  1.00  0.00    -0.352 N 
ATOM     25  C   UNL     1      -8.077  -3.318   0.288  1.00  0.00     0.251 C 
ATOM     26  H   UNL     1      -6.983  -1.948  -0.667  1.00  0.00     0.163 HD
ATOM     27  O   UNL     1      -8.552  -3.771  -0.750  1.00  0.00    -0.269 OA
BRANCH  25  28
ATOM     28  C   UNL     1      -8.585  -3.759   1.602  1.00  0.00     0.039 A 
ATOM     29  C   UNL     1      -8.992  -5.086   1.757  1.00  0.00     0.014 A 
ATOM     30  C   UNL     1      -8.724  -2.854   2.659  1.00  0.00     0.014 A 
ATOM     31  C   UNL     1      -9.510  -5.510   2.981  1.00  0.00     0.010 A 
ATOM     32  C   UNL     1      -9.157  -3.299   3.903  1.00  0.00     0.010 A 
ATOM     33  C   UNL     1      -9.577  -4.625   4.070  1.00  0.00    -0.014 A 
BRANCH  33  34
ATOM     34  C   UNL     1     -10.119  -5.067   5.379  1.00  0.00     0.031 A 
ATOM     35  C   UNL     1     -11.369  -4.434   5.929  1.00  0.00     0.074 A 
ATOM     36  C   UNL     1      -9.462  -6.010   6.082  1.00  0.00     0.049 A 
ATOM     37  N   UNL     1     -11.976  -4.652   7.067  1.00  0.00    -0.248 NA
ATOM     38  C   UNL     1     -12.002  -3.393   5.103  1.00  0.00     0.031 C 
ATOM     39  C   UNL     1      -8.219  -6.661   5.663  1.00  0.00     0.029 A 
ATOM     40  N   UNL     1      -9.745  -6.586   7.293  1.00  0.00    -0.354 N 
ATOM     41  C   UNL     1     -13.053  -3.772   7.098  1.00  0.00     0.074 A 
ATOM     42  C   UNL     1     -12.971  -2.968   5.898  1.00  0.00     0.031 C 
ATOM     43  C   UNL     1      -7.868  -7.572   6.583  1.00  0.00     0.029 A 
ATOM     44  C   UNL     1      -8.829  -7.537   7.680  1.00  0.00     0.049 A 
ATOM     45  H   UNL     1     -10.530  -6.342   7.835  1.00  0.00     0.167 HD
ATOM     46  C   UNL     1     -14.034  -3.665   8.028  1.00  0.00     0.034 A 
ATOM     47  C   UNL     1      -8.769  -8.288   8.797  1.00  0.00     0.034 A 
ATOM     48  C   UNL     1     -14.099  -4.485   9.213  1.00  0.00     0.049 A 
ATOM     49  C   UNL     1      -9.860  -8.136   9.826  1.00  0.00     0.074 A 
ATOM     50  C   UNL     1     -15.066  -4.497  10.203  1.00  0.00     0.029 A 
ATOM     51  N   UNL     1     -13.152  -5.437   9.575  1.00  0.00    -0.354 N 
ATOM     52  N   UNL     1     -10.900  -7.334   9.819  1.00  0.00    -0.248 NA
ATOM     53  C   UNL     1      -9.777  -9.005  11.006  1.00  0.00     0.031 C 
ATOM     54  C   UNL     1     -14.667  -5.397  11.196  1.00  0.00     0.029 A 
ATOM     55  C   UNL     1     -13.498  -6.018  10.786  1.00  0.00     0.049 A 
ATOM     56  H   UNL     1     -12.353  -5.666   9.048  1.00  0.00     0.167 HD
ATOM     57  C   UNL     1     -11.615  -7.630  10.976  1.00  0.00     0.074 A 
ATOM     58  C   UNL     1     -10.896  -8.696  11.643  1.00  0.00     0.031 C 
ATOM     59  C   UNL     1     -12.764  -7.075  11.444  1.00  0.00     0.034 A 
BRANCH  46  60
ATOM     60  C   UNL     1     -15.092  -2.607   7.807  1.00  0.00     0.023 A 
ATOM     61  C   UNL     1     -15.934  -2.624   6.681  1.00  0.00     0.031 A 
ATOM     62  C   UNL     1     -15.243  -1.548   8.720  1.00  0.00     0.131 A 
ATOM     63  C   UNL     1     -16.828  -1.566   6.455  1.00  0.00     0.055 A 
ATOM     64  C   UNL     1     -16.197  -0.544   8.536  1.00  0.00     0.041 A 
ATOM     65  F   UNL     1     -14.454  -1.460   9.803  1.00  0.00    -0.206 F 
ATOM     66  C   UNL     1     -16.985  -0.541   7.389  1.00  0.00     0.022 A 
BRANCH  63  67
ATOM     67  S   UNL     1     -17.667  -1.469   4.849  1.00  0.00     0.124 S 
ATOM     68  O   UNL     1     -16.535  -1.415   3.928  1.00  0.00    -0.237 OA
ATOM     69  O   UNL     1     -18.452  -2.697   4.828  1.00  0.00    -0.237 OA
ATOM     70  O   UNL     1     -18.443  -0.234   4.943  1.00  0.00    -0.744 OA
ENDBRANCH  63  67
ENDBRANCH  46  60
BRANCH  47  71
ATOM     71  C   UNL     1      -7.645  -9.247   9.004  1.00  0.00     0.023 A 
ATOM     72  C   UNL     1      -7.879 -10.628   9.100  1.00  0.00     0.031 A 
ATOM     73  C   UNL     1      -6.323  -8.792   9.152  1.00  0.00     0.131 A 
ATOM     74  C   UNL     1      -6.818 -11.499   9.391  1.00  0.00     0.055 A 
ATOM     75  C   UNL     1      -5.261  -9.669   9.380  1.00  0.00     0.041 A 
ATOM     76  F   UNL     1      -6.041  -7.482   9.065  1.00  0.00    -0.206 F 
ATOM     77  C   UNL     1      -5.508 -11.031   9.517  1.00  0.00     0.022 A 
BRANCH  74  78
ATOM     78  S   UNL     1      -7.191 -13.247   9.703  1.00  0.00     0.124 S 
ATOM     79  O   UNL     1      -8.140 -13.155  10.807  1.00  0.00    -0.237 OA
ATOM     80  O   UNL     1      -7.739 -13.674   8.420  1.00  0.00    -0.237 OA
ATOM     81  O   UNL     1      -5.889 -13.816  10.044  1.00  0.00    -0.744 OA
ENDBRANCH  74  78
ENDBRANCH  47  71
BRANCH  59  82
ATOM     82  C   UNL     1     -13.336  -7.658  12.715  1.00  0.00     0.023 A 
ATOM     83  C   UNL     1     -12.653  -7.582  13.941  1.00  0.00     0.031 A 
ATOM     84  C   UNL     1     -14.573  -8.328  12.689  1.00  0.00     0.131 A 
ATOM     85  C   UNL     1     -13.173  -8.230  15.072  1.00  0.00     0.055 A 
ATOM     86  C   UNL     1     -15.122  -8.904  13.835  1.00  0.00     0.041 A 
ATOM     87  F   UNL     1     -15.269  -8.435  11.546  1.00  0.00    -0.206 F 
ATOM     88  C   UNL     1     -14.413  -8.873  15.031  1.00  0.00     0.022 A 
BRANCH  85  89
ATOM     89  S   UNL     1     -12.147  -8.330  16.564  1.00  0.00     0.124 S 
ATOM     90  O   UNL     1     -10.936  -8.967  16.057  1.00  0.00    -0.237 OA
ATOM     91  O   UNL     1     -12.017  -6.929  16.948  1.00  0.00    -0.237 OA
ATOM     92  O   UNL     1     -12.945  -9.151  17.474  1.00  0.00    -0.744 OA
ENDBRANCH  85  89
ENDBRANCH  59  82
ENDBRANCH  33  34
ENDBRANCH  25  28
ENDBRANCH  23  24
ENDBRANCH   1  23
TORSDOF 15
