REMARK SMILES CN(CCS(C)(=O)=O)C(=O)Nc1cccc(C(=O)NCCCNC(=O)c2ccc(-c3c4nc(c(-c5cc(S(=O)(=O)[O-])ccc5F)c5ccc([nH]5)c(-c5cc(S(=O)(=O)[O-])ccc5F)c5nc(c(-c6cc(S(=O)(=O)[O-])ccc6F)c6ccc3[nH]6)C=C5)C=C4)cc2)c1
REMARK SMILES IDX 20 1 19 2 17 3 18 4 16 6 12 7 13 8 89 9 14 10 15 11 11 12
REMARK SMILES IDX 9 13 10 14 2 16 1 17 3 18 4 19 5 20 6 21 7 22 8 23 21 24
REMARK SMILES IDX 22 25 23 26 24 27 25 29 26 30 27 31 88 32 28 33 87 34 29 35
REMARK SMILES IDX 30 36 31 37 81 38 32 39 86 40 80 41 82 42 33 43 85 44 79 45
REMARK SMILES IDX 78 46 34 48 66 49 46 50 65 51 47 52 50 53 64 54 83 55 48 56
REMARK SMILES IDX 49 57 63 59 84 60 51 61 35 62 36 63 44 64 37 65 43 66 45 67
REMARK SMILES IDX 42 68 38 69 39 70 40 71 41 72 67 73 68 74 76 75 69 76 75 77
REMARK SMILES IDX 77 78 74 79 70 80 71 81 72 82 73 83 52 84 53 85 61 86 54 87
REMARK SMILES IDX 60 88 62 89 59 90 55 91 56 92 57 93 58 94
REMARK H PARENT 19 5 11 15 23 28 82 47 50 58
REMARK Flexibility Score: inf
ROOT
ATOM      1  C   UNL     1      -3.750   0.248  -1.833  1.00  0.00     0.118 C 
ENDROOT
BRANCH   1   2
ATOM      2  N   UNL     1      -4.364  -0.423  -2.961  1.00  0.00    -0.352 N 
ATOM      3  C   UNL     1      -3.889  -0.726  -4.228  1.00  0.00     0.251 C 
ATOM      4  O   UNL     1      -4.659  -1.333  -4.976  1.00  0.00    -0.269 OA
ATOM      5  H   UNL     1      -5.289  -0.719  -2.798  1.00  0.00     0.163 HD
BRANCH   3   6
ATOM      6  C   UNL     1      -2.529  -0.359  -4.774  1.00  0.00     0.041 A 
ATOM      7  C   UNL     1      -0.131   0.226  -4.535  1.00  0.00     0.043 A 
ATOM      8  C   UNL     1      -0.072   0.320  -5.937  1.00  0.00     0.026 A 
ATOM      9  C   UNL     1      -1.374  -0.144  -3.995  1.00  0.00     0.040 A 
ATOM     10  C   UNL     1      -1.180   0.057  -6.745  1.00  0.00     0.003 A 
ATOM     11  C   UNL     1      -2.400  -0.280  -6.164  1.00  0.00     0.014 A 
BRANCH   7  12
ATOM     12  N   UNL     1       1.087   0.580  -3.897  1.00  0.00    -0.308 N 
ATOM     13  C   UNL     1       1.784   0.747  -2.756  1.00  0.00     0.321 C 
ATOM     14  O   UNL     1       2.950   1.118  -2.963  1.00  0.00    -0.248 OA
ATOM     15  H   UNL     1       1.709   0.809  -4.624  1.00  0.00     0.171 HD
BRANCH  13  16
ATOM     16  N   UNL     1       1.347   0.566  -1.489  1.00  0.00    -0.327 N 
ATOM     17  C   UNL     1       2.309   0.615  -0.385  1.00  0.00     0.148 C 
BRANCH  16  18
ATOM     18  C   UNL     1       0.014   0.314  -1.057  1.00  0.00     0.137 C 
BRANCH  18  19
ATOM     19  C   UNL     1      -0.821   1.507  -0.649  1.00  0.00     0.158 C 
BRANCH  19  20
ATOM     20  S   UNL     1      -0.884   3.094  -1.458  1.00  0.00     0.149 S 
ATOM     21  C   UNL     1      -0.839   3.069  -3.233  1.00  0.00     0.158 C 
ATOM     22  O   UNL     1      -2.204   3.614  -1.151  1.00  0.00    -0.229 OA
ATOM     23  O   UNL     1       0.294   3.834  -1.036  1.00  0.00    -0.229 OA
ENDBRANCH  19  20
ENDBRANCH  18  19
ENDBRANCH  16  18
ENDBRANCH  13  16
ENDBRANCH   7  12
ENDBRANCH   3   6
ENDBRANCH   1   2
BRANCH   1  24
ATOM     24  C   UNL     1      -4.633   1.157  -0.976  1.00  0.00     0.042 C 
BRANCH  24  25
ATOM     25  C   UNL     1      -5.330   0.591   0.263  1.00  0.00     0.118 C 
BRANCH  25  26
ATOM     26  N   UNL     1      -4.454   0.102   1.327  1.00  0.00    -0.352 N 
ATOM     27  C   UNL     1      -4.328   0.430   2.667  1.00  0.00     0.251 C 
ATOM     28  H   UNL     1      -3.830  -0.601   1.033  1.00  0.00     0.163 HD
ATOM     29  O   UNL     1      -3.470  -0.176   3.314  1.00  0.00    -0.269 OA
BRANCH  27  30
ATOM     30  C   UNL     1      -5.129   1.496   3.341  1.00  0.00     0.039 A 
ATOM     31  C   UNL     1      -4.558   2.201   4.412  1.00  0.00     0.014 A 
ATOM     32  C   UNL     1      -6.432   1.815   2.969  1.00  0.00     0.014 A 
ATOM     33  C   UNL     1      -5.236   3.280   5.005  1.00  0.00     0.010 A 
ATOM     34  C   UNL     1      -7.056   2.961   3.473  1.00  0.00     0.010 A 
ATOM     35  C   UNL     1      -6.466   3.720   4.493  1.00  0.00    -0.014 A 
BRANCH  35  36
ATOM     36  C   UNL     1      -7.135   4.964   4.987  1.00  0.00     0.031 A 
ATOM     37  C   UNL     1      -8.545   4.922   5.528  1.00  0.00     0.074 A 
ATOM     38  C   UNL     1      -6.507   6.155   4.870  1.00  0.00     0.049 A 
ATOM     39  N   UNL     1      -9.319   5.907   5.913  1.00  0.00    -0.248 NA
ATOM     40  C   UNL     1      -9.183   3.600   5.609  1.00  0.00     0.031 C 
ATOM     41  C   UNL     1      -5.170   6.353   4.306  1.00  0.00     0.029 A 
ATOM     42  N   UNL     1      -6.909   7.427   5.207  1.00  0.00    -0.354 N 
ATOM     43  C   UNL     1     -10.536   5.327   6.259  1.00  0.00     0.074 A 
ATOM     44  C   UNL     1     -10.418   3.914   5.969  1.00  0.00     0.031 C 
ATOM     45  C   UNL     1      -4.848   7.655   4.371  1.00  0.00     0.029 A 
ATOM     46  C   UNL     1      -5.973   8.399   4.928  1.00  0.00     0.049 A 
ATOM     47  H   UNL     1      -7.785   7.625   5.610  1.00  0.00     0.167 HD
ATOM     48  C   UNL     1     -11.641   5.909   6.793  1.00  0.00     0.034 A 
ATOM     49  C   UNL     1      -6.013   9.738   5.087  1.00  0.00     0.034 A 
ATOM     50  C   UNL     1     -11.740   7.318   7.095  1.00  0.00     0.049 A 
ATOM     51  C   UNL     1      -7.254  10.364   5.673  1.00  0.00     0.074 A 
ATOM     52  C   UNL     1     -12.783   7.998   7.701  1.00  0.00     0.029 A 
ATOM     53  N   UNL     1     -10.767   8.267   6.805  1.00  0.00    -0.354 N 
ATOM     54  N   UNL     1      -8.370   9.787   6.058  1.00  0.00    -0.248 NA
ATOM     55  C   UNL     1      -7.235  11.820   5.858  1.00  0.00     0.031 C 
ATOM     56  C   UNL     1     -12.476   9.363   7.705  1.00  0.00     0.029 A 
ATOM     57  C   UNL     1     -11.203   9.529   7.185  1.00  0.00     0.049 A 
ATOM     58  H   UNL     1      -9.896   8.072   6.391  1.00  0.00     0.167 HD
ATOM     59  C   UNL     1      -9.174  10.810   6.554  1.00  0.00     0.074 A 
ATOM     60  C   UNL     1      -8.402  12.032   6.446  1.00  0.00     0.031 C 
ATOM     61  C   UNL     1     -10.435  10.747   7.053  1.00  0.00     0.034 A 
BRANCH  48  62
ATOM     62  C   UNL     1     -12.837   5.022   7.066  1.00  0.00     0.023 A 
ATOM     63  C   UNL     1     -12.769   3.940   7.961  1.00  0.00     0.031 A 
ATOM     64  C   UNL     1     -14.059   5.247   6.405  1.00  0.00     0.131 A 
ATOM     65  C   UNL     1     -13.866   3.076   8.107  1.00  0.00     0.055 A 
ATOM     66  C   UNL     1     -15.177   4.438   6.624  1.00  0.00     0.041 A 
ATOM     67  F   UNL     1     -14.186   6.251   5.523  1.00  0.00    -0.206 F 
ATOM     68  C   UNL     1     -15.079   3.334   7.466  1.00  0.00     0.022 A 
BRANCH  65  69
ATOM     69  S   UNL     1     -13.633   1.526   9.020  1.00  0.00     0.124 S 
ATOM     70  O   UNL     1     -12.547   0.902   8.267  1.00  0.00    -0.237 OA
ATOM     71  O   UNL     1     -13.294   1.996  10.358  1.00  0.00    -0.237 OA
ATOM     72  O   UNL     1     -14.927   0.859   8.900  1.00  0.00    -0.744 OA
ENDBRANCH  65  69
ENDBRANCH  48  62
BRANCH  49  73
ATOM     73  C   UNL     1      -4.853  10.588   4.681  1.00  0.00     0.023 A 
ATOM     74  C   UNL     1      -4.140  11.343   5.626  1.00  0.00     0.031 A 
ATOM     75  C   UNL     1      -4.468  10.695   3.332  1.00  0.00     0.131 A 
ATOM     76  C   UNL     1      -3.113  12.205   5.208  1.00  0.00     0.055 A 
ATOM     77  C   UNL     1      -3.406  11.506   2.928  1.00  0.00     0.041 A 
ATOM     78  F   UNL     1      -5.116   9.999   2.384  1.00  0.00    -0.206 F 
ATOM     79  C   UNL     1      -2.730  12.279   3.867  1.00  0.00     0.022 A 
BRANCH  76  80
ATOM     80  S   UNL     1      -2.345  13.304   6.431  1.00  0.00     0.124 S 
ATOM     81  O   UNL     1      -3.498  14.047   6.927  1.00  0.00    -0.237 OA
ATOM     82  O   UNL     1      -1.747  12.352   7.361  1.00  0.00    -0.237 OA
ATOM     83  O   UNL     1      -1.394  14.082   5.641  1.00  0.00    -0.744 OA
ENDBRANCH  76  80
ENDBRANCH  49  73
BRANCH  61  84
ATOM     84  C   UNL     1     -11.040  12.040   7.550  1.00  0.00     0.023 A 
ATOM     85  C   UNL     1     -11.295  13.118   6.684  1.00  0.00     0.031 A 
ATOM     86  C   UNL     1     -11.334  12.209   8.915  1.00  0.00     0.131 A 
ATOM     87  C   UNL     1     -11.753  14.339   7.201  1.00  0.00     0.055 A 
ATOM     88  C   UNL     1     -11.862  13.401   9.413  1.00  0.00     0.041 A 
ATOM     89  F   UNL     1     -11.109  11.217   9.792  1.00  0.00    -0.206 F 
ATOM     90  C   UNL     1     -12.057  14.482   8.557  1.00  0.00     0.022 A 
BRANCH  87  91
ATOM     91  S   UNL     1     -11.823  15.778   6.099  1.00  0.00     0.124 S 
ATOM     92  O   UNL     1     -10.447  15.861   5.621  1.00  0.00    -0.237 OA
ATOM     93  O   UNL     1     -12.817  15.367   5.112  1.00  0.00    -0.237 OA
ATOM     94  O   UNL     1     -12.240  16.866   6.981  1.00  0.00    -0.744 OA
ENDBRANCH  87  91
ENDBRANCH  61  84
ENDBRANCH  35  36
ENDBRANCH  27  30
ENDBRANCH  25  26
ENDBRANCH  24  25
ENDBRANCH   1  24
TORSDOF 18
