REMARK SMILES NC(=O)C[C@H](NC(=O)c1cccc2[nH]ccc12)C(=O)NCCCNC(=O)c1ccc(-c2c3nc(c(-c4cc(S(=O)(=O)[O-])ccc4F)c4ccc([nH]4)c(-c4cc(S(=O)(=O)[O-])ccc4F)c4nc(c(-c5cc(S(=O)(=O)[O-])ccc5F)c5ccc2[nH]5)C=C4)C=C3)cc1
REMARK SMILES IDX 22 1 21 2 20 3 18 4 19 5 5 7 4 8 2 9 1 10 3 13 6 14 7 15
REMARK SMILES IDX 8 17 9 18 10 19 17 20 11 21 13 22 16 23 12 24 14 25 15 26
REMARK SMILES IDX 23 28 24 29 25 30 26 32 27 33 28 34 89 35 29 36 88 37 30 38
REMARK SMILES IDX 31 39 32 40 82 41 33 42 87 43 81 44 83 45 34 46 86 47 80 48
REMARK SMILES IDX 79 49 35 51 67 52 47 53 66 54 48 55 51 56 65 57 84 58 49 59
REMARK SMILES IDX 50 60 64 62 85 63 52 64 36 65 37 66 45 67 38 68 44 69 46 70
REMARK SMILES IDX 43 71 39 72 40 73 41 74 42 75 68 76 69 77 77 78 70 79 76 80
REMARK SMILES IDX 78 81 75 82 71 83 72 84 73 85 74 86 53 87 54 88 62 89 55 90
REMARK SMILES IDX 61 91 63 92 60 93 56 94 57 95 58 96 59 97
REMARK H PARENT 20 6 1 11 1 12 6 16 14 27 24 31 83 50 51 61
REMARK Flexibility Score: inf
ROOT
ATOM      1  C   UNL     1       3.520  -1.536   4.037  1.00  0.00     0.042 C 
ENDROOT
BRANCH   1   2
ATOM      2  C   UNL     1       3.967  -2.023   2.664  1.00  0.00     0.117 C 
BRANCH   2   3
ATOM      3  N   UNL     1       3.401  -3.317   2.346  1.00  0.00    -0.354 N 
ATOM      4  C   UNL     1       2.413  -3.640   1.469  1.00  0.00     0.243 C 
ATOM      5  O   UNL     1       2.168  -4.841   1.300  1.00  0.00    -0.273 OA
ATOM      6  H   UNL     1       3.789  -4.077   2.838  1.00  0.00     0.163 HD
BRANCH   4   7
ATOM      7  C   UNL     1       1.753  -2.589   0.546  1.00  0.00     0.180 C 
BRANCH   7   8
ATOM      8  C   UNL     1       2.692  -2.406  -0.651  1.00  0.00     0.134 C 
BRANCH   8   9
ATOM      9  C   UNL     1       1.991  -2.355  -1.992  1.00  0.00     0.220 C 
ATOM     10  N   UNL     1       1.153  -3.383  -2.296  1.00  0.00    -0.370 N 
ATOM     11  H   UNL     1       0.676  -3.392  -3.157  1.00  0.00     0.159 HD
ATOM     12  H   UNL     1       1.024  -4.118  -1.654  1.00  0.00     0.159 HD
ATOM     13  O   UNL     1       2.203  -1.487  -2.834  1.00  0.00    -0.275 OA
ENDBRANCH   8   9
ENDBRANCH   7   8
BRANCH   7  14
ATOM     14  N   UNL     1       1.139  -1.454   1.275  1.00  0.00    -0.340 N 
ATOM     15  C   UNL     1       1.327  -0.110   1.470  1.00  0.00     0.252 C 
ATOM     16  H   UNL     1       0.349  -1.761   1.775  1.00  0.00     0.164 HD
ATOM     17  O   UNL     1       0.669   0.442   2.349  1.00  0.00    -0.269 OA
BRANCH  15  18
ATOM     18  C   UNL     1       2.292   0.677   0.693  1.00  0.00     0.049 A 
ATOM     19  C   UNL     1       2.216   0.710  -0.701  1.00  0.00     0.014 A 
ATOM     20  C   UNL     1       3.292   1.436   1.343  1.00  0.00     0.012 A 
ATOM     21  C   UNL     1       3.246   1.272  -1.450  1.00  0.00     0.003 A 
ATOM     22  C   UNL     1       4.317   1.981   0.565  1.00  0.00     0.046 A 
ATOM     23  C   UNL     1       3.557   1.821   2.689  1.00  0.00     0.029 A 
ATOM     24  C   UNL     1       4.345   1.871  -0.830  1.00  0.00     0.027 A 
ATOM     25  N   UNL     1       5.209   2.583   1.425  1.00  0.00    -0.361 N 
ATOM     26  C   UNL     1       4.740   2.523   2.708  1.00  0.00     0.083 A 
ATOM     27  H   UNL     1       6.061   2.996   1.155  1.00  0.00     0.166 HD
ENDBRANCH  15  18
ENDBRANCH   7  14
ENDBRANCH   4   7
ENDBRANCH   2   3
ENDBRANCH   1   2
BRANCH   1  28
ATOM     28  C   UNL     1       4.206  -2.256   5.192  1.00  0.00     0.118 C 
BRANCH  28  29
ATOM     29  N   UNL     1       5.641  -2.000   5.225  1.00  0.00    -0.352 N 
ATOM     30  C   UNL     1       6.423  -1.434   6.200  1.00  0.00     0.251 C 
ATOM     31  H   UNL     1       6.128  -2.278   4.416  1.00  0.00     0.163 HD
ATOM     32  O   UNL     1       7.576  -1.106   5.919  1.00  0.00    -0.269 OA
BRANCH  30  33
ATOM     33  C   UNL     1       5.895  -1.205   7.563  1.00  0.00     0.039 A 
ATOM     34  C   UNL     1       6.280  -0.050   8.250  1.00  0.00     0.014 A 
ATOM     35  C   UNL     1       5.056  -2.134   8.183  1.00  0.00     0.014 A 
ATOM     36  C   UNL     1       5.774   0.201   9.528  1.00  0.00     0.010 A 
ATOM     37  C   UNL     1       4.484  -1.841   9.418  1.00  0.00     0.010 A 
ATOM     38  C   UNL     1       4.841  -0.674  10.108  1.00  0.00    -0.014 A 
BRANCH  38  39
ATOM     39  C   UNL     1       4.234  -0.384  11.434  1.00  0.00     0.031 A 
ATOM     40  C   UNL     1       4.461  -1.314  12.595  1.00  0.00     0.074 A 
ATOM     41  C   UNL     1       3.438   0.694  11.580  1.00  0.00     0.049 A 
ATOM     42  N   UNL     1       3.977  -1.259  13.810  1.00  0.00    -0.248 NA
ATOM     43  C   UNL     1       5.324  -2.478  12.344  1.00  0.00     0.031 C 
ATOM     44  C   UNL     1       3.115   1.654  10.522  1.00  0.00     0.029 A 
ATOM     45  N   UNL     1       2.756   1.165  12.673  1.00  0.00    -0.354 N 
ATOM     46  C   UNL     1       4.473  -2.380  14.468  1.00  0.00     0.074 A 
ATOM     47  C   UNL     1       5.227  -3.135  13.489  1.00  0.00     0.031 C 
ATOM     48  C   UNL     1       2.336   2.622  11.029  1.00  0.00     0.029 A 
ATOM     49  C   UNL     1       2.057   2.325  12.430  1.00  0.00     0.049 A 
ATOM     50  H   UNL     1       2.765   0.716  13.549  1.00  0.00     0.167 HD
ATOM     51  C   UNL     1       4.338  -2.732  15.772  1.00  0.00     0.034 A 
ATOM     52  C   UNL     1       1.275   3.063  13.243  1.00  0.00     0.034 A 
ATOM     53  C   UNL     1       3.575  -1.970  16.732  1.00  0.00     0.049 A 
ATOM     54  C   UNL     1       1.084   2.618  14.670  1.00  0.00     0.074 A 
ATOM     55  C   UNL     1       3.395  -2.215  18.082  1.00  0.00     0.029 A 
ATOM     56  N   UNL     1       2.851  -0.819  16.441  1.00  0.00    -0.354 N 
ATOM     57  N   UNL     1       1.594   1.578  15.290  1.00  0.00    -0.248 NA
ATOM     58  C   UNL     1       0.218   3.454  15.510  1.00  0.00     0.031 C 
ATOM     59  C   UNL     1       2.504  -1.262  18.588  1.00  0.00     0.029 A 
ATOM     60  C   UNL     1       2.196  -0.365  17.578  1.00  0.00     0.049 A 
ATOM     61  H   UNL     1       2.809  -0.389  15.557  1.00  0.00     0.167 HD
ATOM     62  C   UNL     1       1.139   1.659  16.603  1.00  0.00     0.074 A 
ATOM     63  C   UNL     1       0.328   2.857  16.686  1.00  0.00     0.031 C 
ATOM     64  C   UNL     1       1.376   0.823  17.648  1.00  0.00     0.034 A 
BRANCH  51  65
ATOM     65  C   UNL     1       5.013  -4.013  16.213  1.00  0.00     0.023 A 
ATOM     66  C   UNL     1       6.405  -4.187  16.102  1.00  0.00     0.031 A 
ATOM     67  C   UNL     1       4.256  -5.094  16.699  1.00  0.00     0.131 A 
ATOM     68  C   UNL     1       6.980  -5.438  16.370  1.00  0.00     0.055 A 
ATOM     69  C   UNL     1       4.849  -6.306  17.060  1.00  0.00     0.041 A 
ATOM     70  F   UNL     1       2.922  -5.001  16.810  1.00  0.00    -0.206 F 
ATOM     71  C   UNL     1       6.216  -6.491  16.875  1.00  0.00     0.022 A 
BRANCH  68  72
ATOM     72  S   UNL     1       8.700  -5.721  15.867  1.00  0.00     0.124 S 
ATOM     73  O   UNL     1       8.643  -5.417  14.439  1.00  0.00    -0.237 OA
ATOM     74  O   UNL     1       9.432  -4.769  16.694  1.00  0.00    -0.237 OA
ATOM     75  O   UNL     1       8.924  -7.130  16.187  1.00  0.00    -0.744 OA
ENDBRANCH  68  72
ENDBRANCH  51  65
BRANCH  52  76
ATOM     76  C   UNL     1       0.619   4.303  12.739  1.00  0.00     0.023 A 
ATOM     77  C   UNL     1       0.945   5.557  13.280  1.00  0.00     0.031 A 
ATOM     78  C   UNL     1      -0.370   4.253  11.741  1.00  0.00     0.131 A 
ATOM     79  C   UNL     1       0.256   6.703  12.856  1.00  0.00     0.055 A 
ATOM     80  C   UNL     1      -1.012   5.404  11.280  1.00  0.00     0.041 A 
ATOM     81  F   UNL     1      -0.719   3.080  11.188  1.00  0.00    -0.206 F 
ATOM     82  C   UNL     1      -0.709   6.638  11.848  1.00  0.00     0.022 A 
BRANCH  79  83
ATOM     83  S   UNL     1       0.579   8.273  13.706  1.00  0.00     0.124 S 
ATOM     84  O   UNL     1       0.231   7.941  15.083  1.00  0.00    -0.237 OA
ATOM     85  O   UNL     1       1.997   8.479  13.434  1.00  0.00    -0.237 OA
ATOM     86  O   UNL     1      -0.324   9.211  13.042  1.00  0.00    -0.744 OA
ENDBRANCH  79  83
ENDBRANCH  52  76
BRANCH  64  87
ATOM     87  C   UNL     1       0.785   1.212  18.984  1.00  0.00     0.023 A 
ATOM     88  C   UNL     1      -0.604   1.268  19.195  1.00  0.00     0.031 A 
ATOM     89  C   UNL     1       1.628   1.557  20.055  1.00  0.00     0.131 A 
ATOM     90  C   UNL     1      -1.108   1.727  20.422  1.00  0.00     0.055 A 
ATOM     91  C   UNL     1       1.121   1.942  21.297  1.00  0.00     0.041 A 
ATOM     92  F   UNL     1       2.963   1.527  19.913  1.00  0.00    -0.206 F 
ATOM     93  C   UNL     1      -0.254   2.045  21.481  1.00  0.00     0.022 A 
BRANCH  90  94
ATOM     94  S   UNL     1      -2.893   2.012  20.579  1.00  0.00     0.124 S 
ATOM     95  O   UNL     1      -3.143   2.963  19.501  1.00  0.00    -0.237 OA
ATOM     96  O   UNL     1      -3.441   0.673  20.389  1.00  0.00    -0.237 OA
ATOM     97  O   UNL     1      -3.036   2.553  21.930  1.00  0.00    -0.744 OA
ENDBRANCH  90  94
ENDBRANCH  64  87
ENDBRANCH  38  39
ENDBRANCH  30  33
ENDBRANCH  28  29
ENDBRANCH   1  28
TORSDOF 17
