REMARK SMILES C[C@@H](Oc1cccc(Cl)c1)C(=O)N1CSC[C@@H]1C(=O)NCCCNC(=O)c1ccc(-c2c3nc(c(-c4cc(S(=O)(=O)[O-])ccc4F)c4ccc([nH]4)c(-c4cc(S(=O)(=O)[O-])ccc4F)c4nc(c(-c5cc(S(=O)(=O)[O-])ccc5F)c5ccc2[nH]5)C=C4)C=C3)cc1
REMARK SMILES IDX 21 1 20 2 18 3 19 4 17 6 13 7 14 8 15 9 16 10 11 11 12 12
REMARK SMILES IDX 2 13 1 14 3 15 4 16 5 17 10 18 6 19 8 20 7 21 9 22 22 23
REMARK SMILES IDX 23 24 24 25 25 26 26 28 27 29 28 30 89 31 29 32 88 33 30 34
REMARK SMILES IDX 31 35 32 36 82 37 33 38 87 39 81 40 83 41 34 42 86 43 80 44
REMARK SMILES IDX 79 45 35 47 67 48 47 49 66 50 48 51 51 52 65 53 84 54 49 55
REMARK SMILES IDX 50 56 64 58 85 59 52 60 36 61 37 62 45 63 38 64 44 65 46 66
REMARK SMILES IDX 43 67 39 68 40 69 41 70 42 71 68 72 69 73 77 74 70 75 76 76
REMARK SMILES IDX 78 77 75 78 71 79 72 80 73 81 74 82 53 83 54 84 62 85 55 86
REMARK SMILES IDX 61 87 63 88 60 89 56 90 57 91 58 92 59 93
REMARK H PARENT 20 5 24 27 83 46 51 57
REMARK Flexibility Score: inf
ROOT
ATOM      1  C   UNL     1      -4.056  -4.828   1.293  1.00  0.00     0.117 C 
ENDROOT
BRANCH   1   2
ATOM      2  N   UNL     1      -3.100  -4.549   0.239  1.00  0.00    -0.354 N 
ATOM      3  C   UNL     1      -2.273  -3.490   0.022  1.00  0.00     0.243 C 
ATOM      4  O   UNL     1      -1.399  -3.688  -0.831  1.00  0.00    -0.273 OA
ATOM      5  H   UNL     1      -3.039  -5.255  -0.445  1.00  0.00     0.163 HD
BRANCH   3   6
ATOM      6  C   UNL     1      -2.478  -2.104   0.708  1.00  0.00     0.185 C 
ATOM      7  N   UNL     1      -1.280  -1.274   0.500  1.00  0.00    -0.317 N 
ATOM      8  C   UNL     1      -1.028  -0.300   1.527  1.00  0.00     0.190 C 
ATOM      9  S   UNL     1      -1.897  -0.800   3.006  1.00  0.00    -0.138 SA
ATOM     10  C   UNL     1      -2.654  -2.237   2.221  1.00  0.00     0.106 C 
BRANCH   7  11
ATOM     11  C   UNL     1      -0.836  -0.987  -0.785  1.00  0.00     0.264 C 
ATOM     12  O   UNL     1      -1.613  -0.789  -1.718  1.00  0.00    -0.271 OA
BRANCH  11  13
ATOM     13  C   UNL     1       0.700  -0.937  -0.961  1.00  0.00     0.259 C 
ATOM     14  C   UNL     1       1.205   0.496  -0.821  1.00  0.00     0.064 C 
BRANCH  13  15
ATOM     15  O   UNL     1       1.301  -1.783   0.035  1.00  0.00    -0.481 OA
BRANCH  15  16
ATOM     16  C   UNL     1       2.561  -2.201  -0.277  1.00  0.00     0.121 A 
ATOM     17  C   UNL     1       3.629  -1.567   0.355  1.00  0.00     0.046 A 
ATOM     18  C   UNL     1       2.769  -3.324  -1.075  1.00  0.00     0.067 A 
ATOM     19  C   UNL     1       4.929  -2.025   0.155  1.00  0.00     0.005 A 
ATOM     20  C   UNL     1       4.072  -3.783  -1.264  1.00  0.00     0.044 A 
ATOM     21  C   UNL     1       5.152  -3.136  -0.658  1.00  0.00     0.021 A 
ATOM     22  Cl  UNL     1       4.364  -5.178  -2.232  1.00  0.00    -0.084 Cl
ENDBRANCH  15  16
ENDBRANCH  13  15
ENDBRANCH  11  13
ENDBRANCH   7  11
ENDBRANCH   3   6
ENDBRANCH   1   2
BRANCH   1  23
ATOM     23  C   UNL     1      -5.246  -5.658   0.842  1.00  0.00     0.042 C 
BRANCH  23  24
ATOM     24  C   UNL     1      -4.897  -6.979   0.172  1.00  0.00     0.118 C 
BRANCH  24  25
ATOM     25  N   UNL     1      -4.275  -7.938   1.074  1.00  0.00    -0.352 N 
ATOM     26  C   UNL     1      -4.800  -9.046   1.706  1.00  0.00     0.251 C 
ATOM     27  H   UNL     1      -3.324  -7.769   1.263  1.00  0.00     0.163 HD
ATOM     28  O   UNL     1      -4.136  -9.624   2.556  1.00  0.00    -0.269 OA
BRANCH  26  29
ATOM     29  C   UNL     1      -6.173  -9.505   1.391  1.00  0.00     0.039 A 
ATOM     30  C   UNL     1      -7.019  -9.899   2.433  1.00  0.00     0.014 A 
ATOM     31  C   UNL     1      -6.632  -9.546   0.076  1.00  0.00     0.014 A 
ATOM     32  C   UNL     1      -8.351 -10.235   2.160  1.00  0.00     0.010 A 
ATOM     33  C   UNL     1      -7.980  -9.765  -0.179  1.00  0.00     0.010 A 
ATOM     34  C   UNL     1      -8.858 -10.119   0.858  1.00  0.00    -0.014 A 
BRANCH  34  35
ATOM     35  C   UNL     1     -10.280 -10.398   0.517  1.00  0.00     0.031 A 
ATOM     36  C   UNL     1     -10.592 -11.446  -0.520  1.00  0.00     0.074 A 
ATOM     37  C   UNL     1     -11.271  -9.645   1.035  1.00  0.00     0.049 A 
ATOM     38  N   UNL     1     -11.710 -11.681  -1.157  1.00  0.00    -0.248 NA
ATOM     39  C   UNL     1      -9.472 -12.305  -0.934  1.00  0.00     0.031 C 
ATOM     40  C   UNL     1     -11.102  -8.582   2.029  1.00  0.00     0.029 A 
ATOM     41  N   UNL     1     -12.620  -9.641   0.776  1.00  0.00    -0.354 N 
ATOM     42  C   UNL     1     -11.414 -12.678  -2.082  1.00  0.00     0.074 A 
ATOM     43  C   UNL     1      -9.999 -12.958  -1.958  1.00  0.00     0.031 C 
ATOM     44  C   UNL     1     -12.300  -8.042   2.305  1.00  0.00     0.029 A 
ATOM     45  C   UNL     1     -13.315  -8.674   1.468  1.00  0.00     0.049 A 
ATOM     46  H   UNL     1     -13.050 -10.271   0.154  1.00  0.00     0.167 HD
ATOM     47  C   UNL     1     -12.248 -13.315  -2.941  1.00  0.00     0.034 A 
ATOM     48  C   UNL     1     -14.615  -8.319   1.413  1.00  0.00     0.034 A 
ATOM     49  C   UNL     1     -13.665 -13.060  -3.011  1.00  0.00     0.049 A 
ATOM     50  C   UNL     1     -15.531  -9.052   0.464  1.00  0.00     0.074 A 
ATOM     51  C   UNL     1     -14.617 -13.681  -3.800  1.00  0.00     0.029 A 
ATOM     52  N   UNL     1     -14.336 -12.110  -2.252  1.00  0.00    -0.354 N 
ATOM     53  N   UNL     1     -15.239  -9.997  -0.399  1.00  0.00    -0.248 NA
ATOM     54  C   UNL     1     -16.951  -8.675   0.485  1.00  0.00     0.031 C 
ATOM     55  C   UNL     1     -15.854 -13.077  -3.553  1.00  0.00     0.029 A 
ATOM     56  C   UNL     1     -15.686 -12.123  -2.561  1.00  0.00     0.049 A 
ATOM     57  H   UNL     1     -13.915 -11.514  -1.591  1.00  0.00     0.167 HD
ATOM     58  C   UNL     1     -16.447 -10.357  -0.990  1.00  0.00     0.074 A 
ATOM     59  C   UNL     1     -17.469  -9.525  -0.391  1.00  0.00     0.031 C 
ATOM     60  C   UNL     1     -16.691 -11.298  -1.936  1.00  0.00     0.034 A 
BRANCH  47  61
ATOM     61  C   UNL     1     -11.638 -14.329  -3.879  1.00  0.00     0.023 A 
ATOM     62  C   UNL     1     -10.992 -15.482  -3.402  1.00  0.00     0.031 A 
ATOM     63  C   UNL     1     -11.662 -14.119  -5.269  1.00  0.00     0.131 A 
ATOM     64  C   UNL     1     -10.316 -16.328  -4.294  1.00  0.00     0.055 A 
ATOM     65  C   UNL     1     -11.067 -15.015  -6.161  1.00  0.00     0.041 A 
ATOM     66  F   UNL     1     -12.248 -13.027  -5.786  1.00  0.00    -0.206 F 
ATOM     67  C   UNL     1     -10.372 -16.117  -5.673  1.00  0.00     0.022 A 
BRANCH  64  68
ATOM     68  S   UNL     1      -9.231 -17.610  -3.611  1.00  0.00     0.124 S 
ATOM     69  O   UNL     1      -8.276 -16.809  -2.849  1.00  0.00    -0.237 OA
ATOM     70  O   UNL     1     -10.155 -18.420  -2.825  1.00  0.00    -0.237 OA
ATOM     71  O   UNL     1      -8.681 -18.262  -4.797  1.00  0.00    -0.744 OA
ENDBRANCH  64  68
ENDBRANCH  47  61
BRANCH  48  72
ATOM     72  C   UNL     1     -15.134  -7.215   2.269  1.00  0.00     0.023 A 
ATOM     73  C   UNL     1     -16.068  -7.472   3.286  1.00  0.00     0.031 A 
ATOM     74  C   UNL     1     -14.736  -5.883   2.062  1.00  0.00     0.131 A 
ATOM     75  C   UNL     1     -16.607  -6.409   4.027  1.00  0.00     0.055 A 
ATOM     76  C   UNL     1     -15.238  -4.834   2.835  1.00  0.00     0.041 A 
ATOM     77  F   UNL     1     -13.839  -5.582   1.109  1.00  0.00    -0.206 F 
ATOM     78  C   UNL     1     -16.190  -5.093   3.816  1.00  0.00     0.022 A 
BRANCH  75  79
ATOM     79  S   UNL     1     -17.928  -6.764   5.218  1.00  0.00     0.124 S 
ATOM     80  O   UNL     1     -18.936  -7.385   4.366  1.00  0.00    -0.237 OA
ATOM     81  O   UNL     1     -17.253  -7.647   6.163  1.00  0.00    -0.237 OA
ATOM     82  O   UNL     1     -18.278  -5.445   5.741  1.00  0.00    -0.744 OA
ENDBRANCH  75  79
ENDBRANCH  48  72
BRANCH  60  83
ATOM     83  C   UNL     1     -18.128 -11.539  -2.318  1.00  0.00     0.023 A 
ATOM     84  C   UNL     1     -18.863 -10.614  -3.077  1.00  0.00     0.031 A 
ATOM     85  C   UNL     1     -18.756 -12.738  -1.936  1.00  0.00     0.131 A 
ATOM     86  C   UNL     1     -20.200 -10.891  -3.405  1.00  0.00     0.055 A 
ATOM     87  C   UNL     1     -20.069 -13.028  -2.304  1.00  0.00     0.041 A 
ATOM     88  F   UNL     1     -18.094 -13.654  -1.211  1.00  0.00    -0.206 F 
ATOM     89  C   UNL     1     -20.801 -12.098  -3.037  1.00  0.00     0.022 A 
BRANCH  86  90
ATOM     90  S   UNL     1     -21.163  -9.632  -4.285  1.00  0.00     0.124 S 
ATOM     91  O   UNL     1     -21.158  -8.526  -3.333  1.00  0.00    -0.237 OA
ATOM     92  O   UNL     1     -20.379  -9.430  -5.500  1.00  0.00    -0.237 OA
ATOM     93  O   UNL     1     -22.462 -10.271  -4.487  1.00  0.00    -0.744 OA
ENDBRANCH  86  90
ENDBRANCH  60  83
ENDBRANCH  34  35
ENDBRANCH  26  29
ENDBRANCH  24  25
ENDBRANCH  23  24
ENDBRANCH   1  23
TORSDOF 17
