REMARK SMILES CCCC[C@@H](C(=O)NCCCNC(=O)c1ccc(-c2c3nc(c(-c4cc(S(=O)(=O)[O-])ccc4F)c4ccc([nH]4)c(-c4cc(S(=O)(=O)[O-])ccc4F)c4nc(c(-c5cc(S(=O)(=O)[O-])ccc5F)c5ccc2[nH]5)C=C4)C=C3)cc1)[C@H](O)c1ccc(Br)cc1F
REMARK SMILES IDX 10 1 9 2 8 3 6 4 7 5 5 7 4 8 3 9 2 10 1 11 78 12 80 13 81 14
REMARK SMILES IDX 86 15 82 16 85 17 87 18 83 19 84 20 79 21 11 23 12 24 13 25
REMARK SMILES IDX 14 27 15 28 16 29 77 30 17 31 76 32 18 33 19 34 20 35 70 36
REMARK SMILES IDX 21 37 75 38 69 39 71 40 22 41 74 42 68 43 67 44 23 46 55 47
REMARK SMILES IDX 35 48 54 49 36 50 39 51 53 52 72 53 37 54 38 55 52 57 73 58
REMARK SMILES IDX 40 59 24 60 25 61 33 62 26 63 32 64 34 65 31 66 27 67 28 68
REMARK SMILES IDX 29 69 30 70 56 71 57 72 65 73 58 74 64 75 66 76 63 77 59 78
REMARK SMILES IDX 60 79 61 80 62 81 41 82 42 83 50 84 43 85 49 86 51 87 48 88
REMARK SMILES IDX 44 89 45 90 46 91 47 92
REMARK H PARENT 8 6 79 22 12 26 71 45 39 56
REMARK Flexibility Score: inf
ROOT
ATOM      1  C   UNL     1       0.934   5.745   3.249  1.00  0.00     0.042 C 
ENDROOT
BRANCH   1   2
ATOM      2  C   UNL     1       1.286   4.268   3.094  1.00  0.00     0.117 C 
BRANCH   2   3
ATOM      3  N   UNL     1       0.823   3.526   4.251  1.00  0.00    -0.356 N 
ATOM      4  C   UNL     1      -0.328   2.822   4.449  1.00  0.00     0.226 C 
ATOM      5  O   UNL     1      -0.617   2.561   5.620  1.00  0.00    -0.275 OA
ATOM      6  H   UNL     1       1.439   3.532   5.019  1.00  0.00     0.163 HD
BRANCH   4   7
ATOM      7  C   UNL     1      -1.192   2.335   3.275  1.00  0.00     0.112 C 
BRANCH   7   8
ATOM      8  C   UNL     1      -2.269   3.353   2.830  1.00  0.00     0.016 C 
BRANCH   8   9
ATOM      9  C   UNL     1      -1.937   4.474   1.842  1.00  0.00     0.001 C 
BRANCH   9  10
ATOM     10  C   UNL     1      -1.368   4.071   0.485  1.00  0.00    -0.003 C 
ATOM     11  C   UNL     1      -2.438   3.581  -0.472  1.00  0.00     0.004 C 
ENDBRANCH   9  10
ENDBRANCH   8   9
ENDBRANCH   7   8
BRANCH   7  12
ATOM     12  C   UNL     1      -1.765   0.919   3.720  1.00  0.00     0.160 C 
BRANCH  12  13
ATOM     13  C   UNL     1      -3.264   0.682   3.934  1.00  0.00     0.017 A 
ATOM     14  C   UNL     1      -4.116   1.649   4.495  1.00  0.00     0.010 A 
ATOM     15  C   UNL     1      -3.852  -0.561   3.644  1.00  0.00     0.130 A 
ATOM     16  C   UNL     1      -5.503   1.460   4.556  1.00  0.00     0.016 A 
ATOM     17  C   UNL     1      -5.226  -0.784   3.744  1.00  0.00     0.055 A 
ATOM     18  F   UNL     1      -3.083  -1.600   3.282  1.00  0.00    -0.207 F 
ATOM     19  C   UNL     1      -6.054   0.247   4.160  1.00  0.00     0.020 A 
ATOM     20  Br  UNL     1      -7.925  -0.005   4.215  1.00  0.00    -0.051 Br
ENDBRANCH  12  13
BRANCH  12  21
ATOM     21  O   UNL     1      -1.254   0.004   2.726  1.00  0.00    -0.387 OA
ATOM     22  H   UNL     1      -1.625   0.228   1.859  1.00  0.00     0.211 HD
ENDBRANCH  12  21
ENDBRANCH   7  12
ENDBRANCH   4   7
ENDBRANCH   2   3
ENDBRANCH   1   2
BRANCH   1  23
ATOM     23  C   UNL     1       1.914   6.531   4.103  1.00  0.00     0.118 C 
BRANCH  23  24
ATOM     24  N   UNL     1       3.124   6.864   3.374  1.00  0.00    -0.352 N 
ATOM     25  C   UNL     1       3.600   8.082   2.949  1.00  0.00     0.251 C 
ATOM     26  H   UNL     1       3.696   6.095   3.149  1.00  0.00     0.163 HD
ATOM     27  O   UNL     1       4.526   8.099   2.142  1.00  0.00    -0.269 OA
BRANCH  25  28
ATOM     28  C   UNL     1       3.005   9.357   3.425  1.00  0.00     0.039 A 
ATOM     29  C   UNL     1       2.962  10.445   2.548  1.00  0.00     0.014 A 
ATOM     30  C   UNL     1       2.536   9.513   4.732  1.00  0.00     0.014 A 
ATOM     31  C   UNL     1       2.409  11.661   2.964  1.00  0.00     0.010 A 
ATOM     32  C   UNL     1       1.889  10.688   5.111  1.00  0.00     0.010 A 
ATOM     33  C   UNL     1       1.837  11.785   4.240  1.00  0.00    -0.014 A 
BRANCH  33  34
ATOM     34  C   UNL     1       1.218  13.062   4.691  1.00  0.00     0.031 A 
ATOM     35  C   UNL     1       1.768  13.788   5.892  1.00  0.00     0.074 A 
ATOM     36  C   UNL     1       0.122  13.533   4.062  1.00  0.00     0.049 A 
ATOM     37  N   UNL     1       1.330  14.872   6.480  1.00  0.00    -0.248 NA
ATOM     38  C   UNL     1       2.945  13.191   6.540  1.00  0.00     0.031 C 
ATOM     39  C   UNL     1      -0.543  12.887   2.928  1.00  0.00     0.029 A 
ATOM     40  N   UNL     1      -0.633  14.655   4.293  1.00  0.00    -0.354 N 
ATOM     41  C   UNL     1       2.158  15.069   7.582  1.00  0.00     0.074 A 
ATOM     42  C   UNL     1       3.079  13.953   7.614  1.00  0.00     0.031 C 
ATOM     43  C   UNL     1      -1.592  13.633   2.550  1.00  0.00     0.029 A 
ATOM     44  C   UNL     1      -1.704  14.786   3.438  1.00  0.00     0.049 A 
ATOM     45  H   UNL     1      -0.428  15.306   5.002  1.00  0.00     0.167 HD
ATOM     46  C   UNL     1       2.166  16.096   8.468  1.00  0.00     0.034 A 
ATOM     47  C   UNL     1      -2.675  15.719   3.384  1.00  0.00     0.034 A 
ATOM     48  C   UNL     1       1.254  17.213   8.401  1.00  0.00     0.049 A 
ATOM     49  C   UNL     1      -2.642  16.861   4.365  1.00  0.00     0.074 A 
ATOM     50  C   UNL     1       1.226  18.352   9.186  1.00  0.00     0.029 A 
ATOM     51  N   UNL     1       0.197  17.324   7.505  1.00  0.00    -0.354 N 
ATOM     52  N   UNL     1      -1.802  17.077   5.352  1.00  0.00    -0.248 NA
ATOM     53  C   UNL     1      -3.674  17.893   4.215  1.00  0.00     0.031 C 
ATOM     54  C   UNL     1       0.111  19.113   8.816  1.00  0.00     0.029 A 
ATOM     55  C   UNL     1      -0.512  18.492   7.745  1.00  0.00     0.049 A 
ATOM     56  H   UNL     1      -0.018  16.669   6.803  1.00  0.00     0.167 HD
ATOM     57  C   UNL     1      -2.196  18.281   5.929  1.00  0.00     0.074 A 
ATOM     58  C   UNL     1      -3.334  18.752   5.165  1.00  0.00     0.031 C 
ATOM     59  C   UNL     1      -1.662  18.939   6.991  1.00  0.00     0.034 A 
BRANCH  46  60
ATOM     60  C   UNL     1       3.172  16.034   9.598  1.00  0.00     0.023 A 
ATOM     61  C   UNL     1       4.558  15.991   9.359  1.00  0.00     0.031 A 
ATOM     62  C   UNL     1       2.738  15.969  10.934  1.00  0.00     0.131 A 
ATOM     63  C   UNL     1       5.448  15.784  10.424  1.00  0.00     0.055 A 
ATOM     64  C   UNL     1       3.636  15.859  11.998  1.00  0.00     0.041 A 
ATOM     65  F   UNL     1       1.428  15.987  11.230  1.00  0.00    -0.206 F 
ATOM     66  C   UNL     1       5.000  15.744  11.745  1.00  0.00     0.022 A 
BRANCH  63  67
ATOM     67  S   UNL     1       7.177  15.388  10.040  1.00  0.00     0.124 S 
ATOM     68  O   UNL     1       7.028  14.214   9.184  1.00  0.00    -0.237 OA
ATOM     69  O   UNL     1       7.640  16.604   9.382  1.00  0.00    -0.237 OA
ATOM     70  O   UNL     1       7.768  15.122  11.350  1.00  0.00    -0.744 OA
ENDBRANCH  63  67
ENDBRANCH  46  60
BRANCH  47  71
ATOM     71  C   UNL     1      -3.767  15.599   2.375  1.00  0.00     0.023 A 
ATOM     72  C   UNL     1      -3.897  16.522   1.325  1.00  0.00     0.031 A 
ATOM     73  C   UNL     1      -4.701  14.550   2.451  1.00  0.00     0.131 A 
ATOM     74  C   UNL     1      -4.955  16.396   0.411  1.00  0.00     0.055 A 
ATOM     75  C   UNL     1      -5.724  14.403   1.513  1.00  0.00     0.041 A 
ATOM     76  F   UNL     1      -4.616  13.636   3.430  1.00  0.00    -0.206 F 
ATOM     77  C   UNL     1      -5.861  15.335   0.490  1.00  0.00     0.022 A 
BRANCH  74  78
ATOM     78  S   UNL     1      -5.168  17.675  -0.858  1.00  0.00     0.124 S 
ATOM     79  O   UNL     1      -5.356  18.872  -0.046  1.00  0.00    -0.237 OA
ATOM     80  O   UNL     1      -3.909  17.587  -1.591  1.00  0.00    -0.237 OA
ATOM     81  O   UNL     1      -6.348  17.229  -1.596  1.00  0.00    -0.744 OA
ENDBRANCH  74  78
ENDBRANCH  47  71
BRANCH  59  82
ATOM     82  C   UNL     1      -2.295  20.257   7.367  1.00  0.00     0.023 A 
ATOM     83  C   UNL     1      -3.608  20.333   7.862  1.00  0.00     0.031 A 
ATOM     84  C   UNL     1      -1.575  21.456   7.216  1.00  0.00     0.131 A 
ATOM     85  C   UNL     1      -4.182  21.584   8.135  1.00  0.00     0.055 A 
ATOM     86  C   UNL     1      -2.129  22.693   7.550  1.00  0.00     0.041 A 
ATOM     87  F   UNL     1      -0.319  21.445   6.743  1.00  0.00    -0.206 F 
ATOM     88  C   UNL     1      -3.444  22.763   7.999  1.00  0.00     0.022 A 
BRANCH  85  89
ATOM     89  S   UNL     1      -5.940  21.660   8.573  1.00  0.00     0.124 S 
ATOM     90  O   UNL     1      -6.568  21.032   7.415  1.00  0.00    -0.237 OA
ATOM     91  O   UNL     1      -5.986  20.896   9.816  1.00  0.00    -0.237 OA
ATOM     92  O   UNL     1      -6.197  23.092   8.716  1.00  0.00    -0.744 OA
ENDBRANCH  85  89
ENDBRANCH  59  82
ENDBRANCH  33  34
ENDBRANCH  25  28
ENDBRANCH  23  24
ENDBRANCH   1  23
TORSDOF 19
