REMARK SMILES O=C(NCCCNC(=O)[C@H]1CC2=c3ccccc3=N[C@H]2[C@H](c2ccccc2F)[NH2+]1)c1ccc(-c2c3nc(c(-c4cc(S(=O)(=O)[O-])ccc4F)c4ccc([nH]4)c(-c4cc(S(=O)(=O)[O-])ccc4F)c4nc(c(-c5cc(S(=O)(=O)[O-])ccc5F)c5ccc2[nH]5)C=C4)C=C3)cc1
REMARK SMILES IDX 4 1 3 2 1 3 2 4 30 6 31 7 92 8 32 9 91 10 33 11 34 12 35 13
REMARK SMILES IDX 85 14 36 15 90 16 84 17 86 18 37 19 89 20 83 21 82 22 38 24
REMARK SMILES IDX 70 25 50 26 69 27 51 28 54 29 68 30 87 31 52 32 53 33 67 35
REMARK SMILES IDX 88 36 55 37 39 38 40 39 48 40 41 41 47 42 49 43 46 44 42 45
REMARK SMILES IDX 43 46 44 47 45 48 71 49 72 50 80 51 73 52 79 53 81 54 78 55
REMARK SMILES IDX 74 56 75 57 76 58 77 59 56 60 57 61 65 62 58 63 64 64 66 65
REMARK SMILES IDX 63 66 59 67 60 68 61 69 62 70 5 71 6 72 7 73 8 74 9 76 10 77
REMARK SMILES IDX 11 78 29 79 12 80 21 81 13 84 20 85 14 86 18 87 19 88 15 89
REMARK SMILES IDX 17 90 16 91 22 92 23 93 27 94 24 95 26 96 28 97 25 98
REMARK H PARENT 3 5 86 23 54 34 7 75 29 82 29 83
REMARK Flexibility Score: inf
ROOT
ATOM      1  C   UNL     1       4.527   1.071  -0.581  1.00  0.00     0.118 C 
ENDROOT
BRANCH   1   2
ATOM      2  N   UNL     1       3.089   0.976  -0.402  1.00  0.00    -0.352 N 
ATOM      3  O   UNL     1       1.117   0.035   0.117  1.00  0.00    -0.269 OA
ATOM      4  C   UNL     1       2.344  -0.014   0.191  1.00  0.00     0.251 C 
ATOM      5  H   UNL     1       2.572   1.734  -0.758  1.00  0.00     0.163 HD
BRANCH   4   6
ATOM      6  C   UNL     1       2.999  -1.146   0.890  1.00  0.00     0.039 A 
ATOM      7  C   UNL     1       2.442  -2.422   0.771  1.00  0.00     0.014 A 
ATOM      8  C   UNL     1       4.140  -0.963   1.676  1.00  0.00     0.014 A 
ATOM      9  C   UNL     1       3.050  -3.509   1.404  1.00  0.00     0.010 A 
ATOM     10  C   UNL     1       4.809  -2.062   2.208  1.00  0.00     0.010 A 
ATOM     11  C   UNL     1       4.253  -3.344   2.110  1.00  0.00    -0.014 A 
BRANCH  11  12
ATOM     12  C   UNL     1       4.909  -4.494   2.788  1.00  0.00     0.031 A 
ATOM     13  C   UNL     1       5.093  -4.491   4.283  1.00  0.00     0.074 A 
ATOM     14  C   UNL     1       5.360  -5.533   2.059  1.00  0.00     0.049 A 
ATOM     15  N   UNL     1       5.616  -5.413   5.051  1.00  0.00    -0.248 NA
ATOM     16  C   UNL     1       4.666  -3.284   5.008  1.00  0.00     0.031 C 
ATOM     17  C   UNL     1       5.309  -5.617   0.600  1.00  0.00     0.029 A 
ATOM     18  N   UNL     1       5.942  -6.716   2.442  1.00  0.00    -0.354 N 
ATOM     19  C   UNL     1       5.577  -4.897   6.341  1.00  0.00     0.074 A 
ATOM     20  C   UNL     1       5.072  -3.547   6.240  1.00  0.00     0.031 C 
ATOM     21  C   UNL     1       5.793  -6.807   0.214  1.00  0.00     0.029 A 
ATOM     22  C   UNL     1       6.221  -7.559   1.392  1.00  0.00     0.049 A 
ATOM     23  H   UNL     1       6.142  -6.939   3.380  1.00  0.00     0.167 HD
ATOM     24  C   UNL     1       5.886  -5.505   7.511  1.00  0.00     0.034 A 
ATOM     25  C   UNL     1       6.746  -8.802   1.377  1.00  0.00     0.034 A 
ATOM     26  C   UNL     1       6.370  -6.857   7.603  1.00  0.00     0.049 A 
ATOM     27  C   UNL     1       7.066  -9.474   2.688  1.00  0.00     0.074 A 
ATOM     28  C   UNL     1       6.666  -7.585   8.741  1.00  0.00     0.029 A 
ATOM     29  N   UNL     1       6.622  -7.689   6.520  1.00  0.00    -0.354 N 
ATOM     30  N   UNL     1       6.933  -9.008   3.908  1.00  0.00    -0.248 NA
ATOM     31  C   UNL     1       7.591 -10.845   2.627  1.00  0.00     0.031 C 
ATOM     32  C   UNL     1       7.145  -8.836   8.346  1.00  0.00     0.029 A 
ATOM     33  C   UNL     1       7.091  -8.915   6.963  1.00  0.00     0.049 A 
ATOM     34  H   UNL     1       6.488  -7.443   5.577  1.00  0.00     0.167 HD
ATOM     35  C   UNL     1       7.352 -10.026   4.758  1.00  0.00     0.074 A 
ATOM     36  C   UNL     1       7.702 -11.150   3.913  1.00  0.00     0.031 C 
ATOM     37  C   UNL     1       7.450 -10.027   6.113  1.00  0.00     0.034 A 
BRANCH  24  38
ATOM     38  C   UNL     1       5.668  -4.732   8.790  1.00  0.00     0.023 A 
ATOM     39  C   UNL     1       6.748  -4.437   9.641  1.00  0.00     0.031 A 
ATOM     40  C   UNL     1       4.375  -4.355   9.203  1.00  0.00     0.131 A 
ATOM     41  C   UNL     1       6.514  -3.796  10.864  1.00  0.00     0.055 A 
ATOM     42  C   UNL     1       4.153  -3.677  10.401  1.00  0.00     0.041 A 
ATOM     43  F   UNL     1       3.309  -4.615   8.428  1.00  0.00    -0.206 F 
ATOM     44  C   UNL     1       5.225  -3.403  11.243  1.00  0.00     0.022 A 
BRANCH  41  45
ATOM     45  S   UNL     1       7.860  -3.490  12.040  1.00  0.00     0.124 S 
ATOM     46  O   UNL     1       7.843  -2.033  12.142  1.00  0.00    -0.237 OA
ATOM     47  O   UNL     1       7.396  -4.204  13.226  1.00  0.00    -0.237 OA
ATOM     48  O   UNL     1       9.034  -4.054  11.383  1.00  0.00    -0.744 OA
ENDBRANCH  41  45
ENDBRANCH  24  38
BRANCH  25  49
ATOM     49  C   UNL     1       6.903  -9.498   0.066  1.00  0.00     0.023 A 
ATOM     50  C   UNL     1       7.756  -8.983  -0.927  1.00  0.00     0.031 A 
ATOM     51  C   UNL     1       6.096 -10.600  -0.262  1.00  0.00     0.131 A 
ATOM     52  C   UNL     1       7.722  -9.519  -2.221  1.00  0.00     0.055 A 
ATOM     53  C   UNL     1       6.121 -11.179  -1.532  1.00  0.00     0.041 A 
ATOM     54  F   UNL     1       5.255 -11.116   0.647  1.00  0.00    -0.206 F 
ATOM     55  C   UNL     1       6.922 -10.625  -2.526  1.00  0.00     0.022 A 
BRANCH  52  56
ATOM     56  S   UNL     1       8.597  -8.704  -3.587  1.00  0.00     0.124 S 
ATOM     57  O   UNL     1       9.467  -9.770  -4.073  1.00  0.00    -0.237 OA
ATOM     58  O   UNL     1       7.492  -8.337  -4.470  1.00  0.00    -0.237 OA
ATOM     59  O   UNL     1       9.272  -7.582  -2.944  1.00  0.00    -0.744 OA
ENDBRANCH  52  56
ENDBRANCH  25  49
BRANCH  37  60
ATOM     60  C   UNL     1       7.993 -11.263   6.791  1.00  0.00     0.023 A 
ATOM     61  C   UNL     1       7.195 -11.988   7.697  1.00  0.00     0.031 A 
ATOM     62  C   UNL     1       9.340 -11.639   6.644  1.00  0.00     0.131 A 
ATOM     63  C   UNL     1       7.760 -13.029   8.445  1.00  0.00     0.055 A 
ATOM     64  C   UNL     1       9.886 -12.707   7.357  1.00  0.00     0.041 A 
ATOM     65  F   UNL     1      10.146 -10.972   5.803  1.00  0.00    -0.206 F 
ATOM     66  C   UNL     1       9.098 -13.399   8.273  1.00  0.00     0.022 A 
BRANCH  63  67
ATOM     67  S   UNL     1       6.809 -13.884   9.732  1.00  0.00     0.124 S 
ATOM     68  O   UNL     1       6.750 -15.246   9.208  1.00  0.00    -0.237 OA
ATOM     69  O   UNL     1       7.653 -13.704  10.910  1.00  0.00    -0.237 OA
ATOM     70  O   UNL     1       5.536 -13.172   9.760  1.00  0.00    -0.744 OA
ENDBRANCH  63  67
ENDBRANCH  37  60
ENDBRANCH  11  12
ENDBRANCH   4   6
ENDBRANCH   1   2
BRANCH   1  71
ATOM     71  C   UNL     1       4.946   1.224  -2.029  1.00  0.00     0.042 C 
BRANCH  71  72
ATOM     72  C   UNL     1       4.561   2.537  -2.687  1.00  0.00     0.118 C 
BRANCH  72  73
ATOM     73  N   UNL     1       5.151   3.687  -2.026  1.00  0.00    -0.351 N 
ATOM     74  C   UNL     1       5.876   4.749  -2.463  1.00  0.00     0.278 C 
ATOM     75  H   UNL     1       4.992   3.700  -1.054  1.00  0.00     0.163 HD
ATOM     76  O   UNL     1       6.274   5.527  -1.585  1.00  0.00    -0.268 OA
BRANCH  74  77
ATOM     77  C   UNL     1       6.284   4.984  -3.930  1.00  0.00     0.277 C 
ATOM     78  C   UNL     1       7.638   4.302  -4.256  1.00  0.00     0.109 C 
ATOM     79  N   UNL     1       5.151   4.798  -4.889  1.00  0.00    -0.327 N 
ATOM     80  C   UNL     1       7.371   3.084  -5.055  1.00  0.00    -0.024 C 
ATOM     81  C   UNL     1       5.606   4.505  -6.274  1.00  0.00     0.246 C 
ATOM     82  H   UNL     1       4.593   5.652  -4.903  1.00  0.00     0.347 HD
ATOM     83  H   UNL     1       4.609   3.995  -4.569  1.00  0.00     0.347 HD
ATOM     84  C   UNL     1       7.562   1.811  -4.740  1.00  0.00     0.002 A 
ATOM     85  C   UNL     1       6.530   3.222  -6.285  1.00  0.00     0.196 C 
ATOM     86  C   UNL     1       8.268   1.126  -3.710  1.00  0.00     0.010 A 
ATOM     87  C   UNL     1       6.534   1.152  -5.576  1.00  0.00     0.066 A 
ATOM     88  N   UNL     1       5.819   1.907  -6.369  1.00  0.00    -0.270 NA
ATOM     89  C   UNL     1       8.056  -0.190  -3.556  1.00  0.00     0.001 A 
ATOM     90  C   UNL     1       6.349  -0.297  -5.328  1.00  0.00     0.028 A 
ATOM     91  C   UNL     1       7.088  -0.899  -4.379  1.00  0.00     0.002 A 
BRANCH  81  92
ATOM     92  C   UNL     1       6.268   5.737  -6.933  1.00  0.00     0.048 A 
ATOM     93  C   UNL     1       7.103   5.595  -8.059  1.00  0.00     0.013 A 
ATOM     94  C   UNL     1       6.099   7.047  -6.450  1.00  0.00     0.132 A 
ATOM     95  C   UNL     1       7.871   6.661  -8.539  1.00  0.00     0.001 A 
ATOM     96  C   UNL     1       6.872   8.111  -6.915  1.00  0.00     0.040 A 
ATOM     97  F   UNL     1       5.204   7.334  -5.494  1.00  0.00    -0.206 F 
ATOM     98  C   UNL     1       7.786   7.912  -7.940  1.00  0.00     0.003 A 
ENDBRANCH  81  92
ENDBRANCH  74  77
ENDBRANCH  72  73
ENDBRANCH  71  72
ENDBRANCH   1  71
TORSDOF 14
