REMARK SMILES Cc1ccc(C(C)C)c(OCC(=O)Nc2nc(CC(=O)NCCCNC(=O)c3ccc(-c4c5nc(c(-c6cc(S(=O)(=O)[O-])ccc6F)c6ccc([nH]6)c(-c6cc(S(=O)(=O)[O-])ccc6F)c6nc(c(-c7cc(S(=O)(=O)[O-])ccc7F)c7ccc4[nH]7)C=C6)C=C5)cc3)cs2)c1
REMARK SMILES IDX 19 1 20 2 21 3 18 5 17 6 15 7 16 8 92 9 91 10 14 11 12 12
REMARK SMILES IDX 13 13 11 15 10 16 9 17 1 18 2 19 3 20 93 21 4 22 5 23 6 24
REMARK SMILES IDX 7 25 8 26 22 27 23 28 24 29 25 30 26 31 27 33 28 34 29 35
REMARK SMILES IDX 90 36 30 37 89 38 31 39 32 40 33 41 83 42 34 43 88 44 82 45
REMARK SMILES IDX 84 46 35 47 87 48 81 49 80 50 36 52 68 53 48 54 67 55 49 56
REMARK SMILES IDX 52 57 66 58 85 59 50 60 51 61 65 63 86 64 53 65 37 66 38 67
REMARK SMILES IDX 46 68 39 69 45 70 47 71 44 72 40 73 41 74 42 75 43 76 69 77
REMARK SMILES IDX 70 78 78 79 71 80 77 81 79 82 76 83 72 84 73 85 74 86 75 87
REMARK SMILES IDX 54 88 55 89 63 90 56 91 62 92 64 93 61 94 57 95 58 96 59 97
REMARK SMILES IDX 60 98
REMARK H PARENT 21 4 14 14 25 32 84 51 52 62
REMARK Flexibility Score: inf
ROOT
ATOM      1  C   UNL     1      -6.226   1.454   3.035  1.00  0.00     0.226 C 
ATOM      2  O   UNL     1      -7.356   1.655   3.485  1.00  0.00    -0.275 OA
ATOM      3  N   UNL     1      -5.470   0.437   3.554  1.00  0.00    -0.356 N 
ATOM      4  H   UNL     1      -5.867  -0.046   4.314  1.00  0.00     0.163 HD
ENDROOT
BRANCH   1   5
ATOM      5  C   UNL     1      -5.661   2.346   1.941  1.00  0.00     0.157 C 
BRANCH   5   6
ATOM      6  C   UNL     1      -4.596   3.244   2.478  1.00  0.00     0.063 A 
ATOM      7  C   UNL     1      -2.521   3.964   2.536  1.00  0.00     0.189 A 
ATOM      8  N   UNL     1      -3.383   3.314   1.806  1.00  0.00    -0.224 NA
ATOM      9  S   UNL     1      -3.111   4.665   3.974  1.00  0.00    -0.105 S 
ATOM     10  C   UNL     1      -4.656   4.003   3.635  1.00  0.00     0.093 A 
BRANCH   7  11
ATOM     11  N   UNL     1      -1.191   4.148   2.330  1.00  0.00    -0.299 N 
ATOM     12  C   UNL     1      -0.490   3.823   1.211  1.00  0.00     0.264 C 
ATOM     13  O   UNL     1       0.733   4.016   1.232  1.00  0.00    -0.271 OA
ATOM     14  H   UNL     1      -0.682   4.559   3.066  1.00  0.00     0.172 HD
BRANCH  12  15
ATOM     15  C   UNL     1      -1.186   3.358  -0.084  1.00  0.00     0.329 C 
BRANCH  15  16
ATOM     16  O   UNL     1      -1.746   2.063  -0.174  1.00  0.00    -0.483 OA
BRANCH  16  17
ATOM     17  C   UNL     1      -0.932   0.966  -0.251  1.00  0.00     0.123 A 
ATOM     18  C   UNL     1       2.727  -0.097  -0.039  1.00  0.00     0.044 C 
ATOM     19  C   UNL     1       1.236  -0.153  -0.177  1.00  0.00    -0.047 A 
ATOM     20  C   UNL     1       0.595  -1.387  -0.281  1.00  0.00     0.004 A 
ATOM     21  C   UNL     1       0.466   1.018  -0.177  1.00  0.00     0.050 A 
ATOM     22  C   UNL     1      -0.791  -1.450  -0.403  1.00  0.00     0.008 A 
ATOM     23  C   UNL     1      -1.576  -0.284  -0.386  1.00  0.00    -0.003 A 
BRANCH  23  24
ATOM     24  C   UNL     1      -3.092  -0.398  -0.526  1.00  0.00     0.017 C 
ATOM     25  C   UNL     1      -3.503  -0.533  -1.994  1.00  0.00     0.012 C 
ATOM     26  C   UNL     1      -3.682  -1.568   0.274  1.00  0.00     0.012 C 
ENDBRANCH  23  24
ENDBRANCH  16  17
ENDBRANCH  15  16
ENDBRANCH  12  15
ENDBRANCH   7  11
ENDBRANCH   5   6
ENDBRANCH   1   5
BRANCH   3  27
ATOM     27  C   UNL     1      -4.156  -0.024   3.127  1.00  0.00     0.117 C 
BRANCH  27  28
ATOM     28  C   UNL     1      -3.008   0.466   4.000  1.00  0.00     0.042 C 
BRANCH  28  29
ATOM     29  C   UNL     1      -2.791  -0.390   5.237  1.00  0.00     0.118 C 
BRANCH  29  30
ATOM     30  N   UNL     1      -1.697  -1.356   5.151  1.00  0.00    -0.352 N 
ATOM     31  C   UNL     1      -1.268  -2.278   6.105  1.00  0.00     0.251 C 
ATOM     32  H   UNL     1      -1.195  -1.355   4.304  1.00  0.00     0.163 HD
ATOM     33  O   UNL     1      -0.284  -2.963   5.926  1.00  0.00    -0.269 OA
BRANCH  31  34
ATOM     34  C   UNL     1      -2.107  -2.477   7.317  1.00  0.00     0.039 A 
ATOM     35  C   UNL     1      -2.534  -3.775   7.621  1.00  0.00     0.014 A 
ATOM     36  C   UNL     1      -2.670  -1.382   7.958  1.00  0.00     0.014 A 
ATOM     37  C   UNL     1      -3.699  -3.948   8.367  1.00  0.00     0.010 A 
ATOM     38  C   UNL     1      -3.900  -1.543   8.555  1.00  0.00     0.010 A 
ATOM     39  C   UNL     1      -4.441  -2.822   8.719  1.00  0.00    -0.014 A 
BRANCH  39  40
ATOM     40  C   UNL     1      -5.842  -2.865   9.122  1.00  0.00     0.031 A 
ATOM     41  C   UNL     1      -6.259  -2.419  10.469  1.00  0.00     0.074 A 
ATOM     42  C   UNL     1      -6.789  -3.202   8.218  1.00  0.00     0.049 A 
ATOM     43  N   UNL     1      -7.342  -2.801  11.056  1.00  0.00    -0.248 NA
ATOM     44  C   UNL     1      -5.458  -1.520  11.291  1.00  0.00     0.031 C 
ATOM     45  C   UNL     1      -8.229  -2.983   8.324  1.00  0.00     0.029 A 
ATOM     46  N   UNL     1      -6.649  -4.000   7.090  1.00  0.00    -0.354 N 
ATOM     47  C   UNL     1      -7.542  -1.981  12.143  1.00  0.00     0.074 A 
ATOM     48  C   UNL     1      -6.301  -1.260  12.294  1.00  0.00     0.031 C 
ATOM     49  C   UNL     1      -8.861  -3.800   7.467  1.00  0.00     0.029 A 
ATOM     50  C   UNL     1      -7.861  -4.676   6.885  1.00  0.00     0.049 A 
ATOM     51  H   UNL     1      -5.842  -4.079   6.532  1.00  0.00     0.167 HD
ATOM     52  C   UNL     1      -8.786  -1.890  12.694  1.00  0.00     0.034 A 
ATOM     53  C   UNL     1      -7.918  -6.040   6.898  1.00  0.00     0.034 A 
ATOM     54  C   UNL     1      -9.737  -2.771  12.013  1.00  0.00     0.049 A 
ATOM     55  C   UNL     1      -8.789  -6.596   8.002  1.00  0.00     0.074 A 
ATOM     56  C   UNL     1     -10.735  -2.529  11.081  1.00  0.00     0.029 A 
ATOM     57  N   UNL     1      -9.566  -4.150  12.056  1.00  0.00    -0.354 N 
ATOM     58  N   UNL     1      -9.181  -5.911   9.041  1.00  0.00    -0.248 NA
ATOM     59  C   UNL     1      -9.278  -7.970   8.030  1.00  0.00     0.031 C 
ATOM     60  C   UNL     1     -11.146  -3.774  10.543  1.00  0.00     0.029 A 
ATOM     61  C   UNL     1     -10.415  -4.774  11.162  1.00  0.00     0.049 A 
ATOM     62  H   UNL     1      -8.929  -4.617  12.642  1.00  0.00     0.167 HD
ATOM     63  C   UNL     1      -9.936  -6.706   9.868  1.00  0.00     0.074 A 
ATOM     64  C   UNL     1      -9.979  -7.984   9.178  1.00  0.00     0.031 C 
ATOM     65  C   UNL     1     -10.447  -6.228  11.045  1.00  0.00     0.034 A 
BRANCH  52  66
ATOM     66  C   UNL     1      -9.236  -0.783  13.630  1.00  0.00     0.023 A 
ATOM     67  C   UNL     1     -10.606  -0.445  13.674  1.00  0.00     0.031 A 
ATOM     68  C   UNL     1      -8.405  -0.001  14.454  1.00  0.00     0.131 A 
ATOM     69  C   UNL     1     -11.072   0.674  14.388  1.00  0.00     0.055 A 
ATOM     70  C   UNL     1      -8.856   1.145  15.126  1.00  0.00     0.041 A 
ATOM     71  F   UNL     1      -7.133  -0.339  14.702  1.00  0.00    -0.206 F 
ATOM     72  C   UNL     1     -10.195   1.498  15.082  1.00  0.00     0.022 A 
BRANCH  69  73
ATOM     73  S   UNL     1     -12.849   1.032  14.394  1.00  0.00     0.124 S 
ATOM     74  O   UNL     1     -13.126   1.244  12.977  1.00  0.00    -0.237 OA
ATOM     75  O   UNL     1     -13.406  -0.177  14.989  1.00  0.00    -0.237 OA
ATOM     76  O   UNL     1     -12.949   2.230  15.227  1.00  0.00    -0.744 OA
ENDBRANCH  69  73
ENDBRANCH  52  66
BRANCH  53  77
ATOM     77  C   UNL     1      -6.684  -6.676   6.357  1.00  0.00     0.023 A 
ATOM     78  C   UNL     1      -6.366  -6.414   5.008  1.00  0.00     0.031 A 
ATOM     79  C   UNL     1      -5.659  -7.128   7.199  1.00  0.00     0.131 A 
ATOM     80  C   UNL     1      -5.032  -6.449   4.577  1.00  0.00     0.055 A 
ATOM     81  C   UNL     1      -4.335  -7.218   6.747  1.00  0.00     0.041 A 
ATOM     82  F   UNL     1      -5.892  -7.355   8.500  1.00  0.00    -0.206 F 
ATOM     83  C   UNL     1      -4.010  -6.836   5.444  1.00  0.00     0.022 A 
BRANCH  80  84
ATOM     84  S   UNL     1      -4.642  -5.741   2.949  1.00  0.00     0.124 S 
ATOM     85  O   UNL     1      -5.163  -6.758   2.042  1.00  0.00    -0.237 OA
ATOM     86  O   UNL     1      -5.374  -4.475   2.978  1.00  0.00    -0.237 OA
ATOM     87  O   UNL     1      -3.189  -5.603   2.969  1.00  0.00    -0.744 OA
ENDBRANCH  80  84
ENDBRANCH  53  77
BRANCH  65  88
ATOM     88  C   UNL     1     -11.114  -7.031  12.152  1.00  0.00     0.023 A 
ATOM     89  C   UNL     1     -11.154  -8.431  12.189  1.00  0.00     0.031 A 
ATOM     90  C   UNL     1     -11.698  -6.384  13.275  1.00  0.00     0.131 A 
ATOM     91  C   UNL     1     -11.799  -9.122  13.234  1.00  0.00     0.055 A 
ATOM     92  C   UNL     1     -12.278  -7.072  14.346  1.00  0.00     0.041 A 
ATOM     93  F   UNL     1     -11.722  -5.049  13.396  1.00  0.00    -0.206 F 
ATOM     94  C   UNL     1     -12.345  -8.453  14.324  1.00  0.00     0.022 A 
BRANCH  91  95
ATOM     95  S   UNL     1     -11.955 -10.923  13.103  1.00  0.00     0.124 S 
ATOM     96  O   UNL     1     -12.741 -11.069  11.880  1.00  0.00    -0.237 OA
ATOM     97  O   UNL     1     -10.563 -11.351  13.015  1.00  0.00    -0.237 OA
ATOM     98  O   UNL     1     -12.646 -11.302  14.334  1.00  0.00    -0.744 OA
ENDBRANCH  91  95
ENDBRANCH  65  88
ENDBRANCH  39  40
ENDBRANCH  31  34
ENDBRANCH  29  30
ENDBRANCH  28  29
ENDBRANCH  27  28
ENDBRANCH   3  27
TORSDOF 19
