REMARK SMILES O=C(NCCCNC(=O)c1cc(Br)ccc1NC(=O)c1ccc(Br)s1)c1ccc(-c2c3nc(c(-c4cc(S(=O)(=O)[O-])ccc4F)c4ccc([nH]4)c(-c4cc(S(=O)(=O)[O-])ccc4F)c4nc(c(-c5cc(S(=O)(=O)[O-])ccc5F)c5ccc2[nH]5)C=C4)C=C3)cc1
REMARK SMILES IDX 4 1 3 2 1 3 2 4 26 6 27 7 88 8 28 9 87 10 29 11 30 12 31 13
REMARK SMILES IDX 81 14 32 15 86 16 80 17 82 18 33 19 85 20 79 21 78 22 34 24
REMARK SMILES IDX 66 25 46 26 65 27 47 28 50 29 64 30 83 31 48 32 49 33 63 35
REMARK SMILES IDX 84 36 51 37 35 38 36 39 44 40 37 41 43 42 45 43 42 44 38 45
REMARK SMILES IDX 39 46 40 47 41 48 67 49 68 50 76 51 69 52 75 53 77 54 74 55
REMARK SMILES IDX 70 56 71 57 72 58 73 59 52 60 53 61 61 62 54 63 60 64 62 65
REMARK SMILES IDX 59 66 55 67 56 68 57 69 58 70 5 71 6 72 7 73 8 74 9 76 10 77
REMARK SMILES IDX 11 78 16 79 12 80 15 81 13 82 14 83 17 84 18 85 19 87 20 88
REMARK SMILES IDX 21 89 25 90 22 91 23 92 24 93
REMARK H PARENT 3 5 82 23 50 34 7 75 17 86
REMARK Flexibility Score: inf
ROOT
ATOM      1  C   UNL     1       4.497  -0.483   1.329  1.00  0.00     0.118 C 
ENDROOT
BRANCH   1   2
ATOM      2  N   UNL     1       3.061  -0.527   1.088  1.00  0.00    -0.352 N 
ATOM      3  O   UNL     1       1.099  -0.061   0.102  1.00  0.00    -0.269 OA
ATOM      4  C   UNL     1       2.324  -0.101   0.009  1.00  0.00     0.251 C 
ATOM      5  H   UNL     1       2.533  -0.927   1.816  1.00  0.00     0.163 HD
BRANCH   4   6
ATOM      6  C   UNL     1       2.987   0.319  -1.246  1.00  0.00     0.039 A 
ATOM      7  C   UNL     1       4.078  -0.388  -1.757  1.00  0.00     0.014 A 
ATOM      8  C   UNL     1       2.476   1.413  -1.952  1.00  0.00     0.014 A 
ATOM      9  C   UNL     1       4.747   0.083  -2.881  1.00  0.00     0.010 A 
ATOM     10  C   UNL     1       3.093   1.828  -3.136  1.00  0.00     0.010 A 
ATOM     11  C   UNL     1       4.252   1.184  -3.595  1.00  0.00    -0.014 A 
BRANCH  11  12
ATOM     12  C   UNL     1       4.925   1.605  -4.851  1.00  0.00     0.031 A 
ATOM     13  C   UNL     1       5.572   2.956  -4.968  1.00  0.00     0.074 A 
ATOM     14  C   UNL     1       4.948   0.750  -5.893  1.00  0.00     0.049 A 
ATOM     15  N   UNL     1       6.176   3.497  -5.996  1.00  0.00    -0.248 NA
ATOM     16  C   UNL     1       5.520   3.818  -3.779  1.00  0.00     0.031 C 
ATOM     17  C   UNL     1       4.337  -0.582  -5.898  1.00  0.00     0.029 A 
ATOM     18  N   UNL     1       5.500   0.867  -7.142  1.00  0.00    -0.354 N 
ATOM     19  C   UNL     1       6.561   4.769  -5.587  1.00  0.00     0.074 A 
ATOM     20  C   UNL     1       6.086   4.929  -4.228  1.00  0.00     0.031 C 
ATOM     21  C   UNL     1       4.565  -1.165  -7.083  1.00  0.00     0.029 A 
ATOM     22  C   UNL     1       5.277  -0.228  -7.943  1.00  0.00     0.049 A 
ATOM     23  H   UNL     1       6.006   1.658  -7.437  1.00  0.00     0.167 HD
ATOM     24  C   UNL     1       7.253   5.709  -6.281  1.00  0.00     0.034 A 
ATOM     25  C   UNL     1       5.577  -0.445  -9.238  1.00  0.00     0.034 A 
ATOM     26  C   UNL     1       7.716   5.526  -7.637  1.00  0.00     0.049 A 
ATOM     27  C   UNL     1       6.311   0.622 -10.000  1.00  0.00     0.074 A 
ATOM     28  C   UNL     1       8.471   6.386  -8.416  1.00  0.00     0.029 A 
ATOM     29  N   UNL     1       7.452   4.411  -8.426  1.00  0.00    -0.354 N 
ATOM     30  N   UNL     1       6.701   1.806  -9.588  1.00  0.00    -0.248 NA
ATOM     31  C   UNL     1       6.648   0.325 -11.396  1.00  0.00     0.031 C 
ATOM     32  C   UNL     1       8.601   5.826  -9.693  1.00  0.00     0.029 A 
ATOM     33  C   UNL     1       7.994   4.580  -9.692  1.00  0.00     0.049 A 
ATOM     34  H   UNL     1       6.952   3.616  -8.129  1.00  0.00     0.167 HD
ATOM     35  C   UNL     1       7.343   2.392 -10.673  1.00  0.00     0.074 A 
ATOM     36  C   UNL     1       7.300   1.423 -11.752  1.00  0.00     0.031 C 
ATOM     37  C   UNL     1       7.919   3.617 -10.767  1.00  0.00     0.034 A 
BRANCH  24  38
ATOM     38  C   UNL     1       7.501   7.034  -5.596  1.00  0.00     0.023 A 
ATOM     39  C   UNL     1       8.266   7.132  -4.420  1.00  0.00     0.031 A 
ATOM     40  C   UNL     1       6.928   8.214  -6.104  1.00  0.00     0.131 A 
ATOM     41  C   UNL     1       8.366   8.359  -3.746  1.00  0.00     0.055 A 
ATOM     42  C   UNL     1       7.101   9.449  -5.475  1.00  0.00     0.041 A 
ATOM     43  F   UNL     1       6.172   8.185  -7.212  1.00  0.00    -0.206 F 
ATOM     44  C   UNL     1       7.808   9.524  -4.278  1.00  0.00     0.022 A 
BRANCH  41  45
ATOM     45  S   UNL     1       9.090   8.378  -2.082  1.00  0.00     0.124 S 
ATOM     46  O   UNL     1       8.273   7.383  -1.391  1.00  0.00    -0.237 OA
ATOM     47  O   UNL     1      10.475   8.002  -2.338  1.00  0.00    -0.237 OA
ATOM     48  O   UNL     1       8.888   9.755  -1.635  1.00  0.00    -0.744 OA
ENDBRANCH  41  45
ENDBRANCH  24  38
BRANCH  25  49
ATOM     49  C   UNL     1       5.131  -1.705  -9.894  1.00  0.00     0.023 A 
ATOM     50  C   UNL     1       6.050  -2.676 -10.316  1.00  0.00     0.031 A 
ATOM     51  C   UNL     1       3.760  -1.958 -10.088  1.00  0.00     0.131 A 
ATOM     52  C   UNL     1       5.587  -3.850 -10.931  1.00  0.00     0.055 A 
ATOM     53  C   UNL     1       3.304  -3.146 -10.658  1.00  0.00     0.041 A 
ATOM     54  F   UNL     1       2.842  -1.063  -9.691  1.00  0.00    -0.206 F 
ATOM     55  C   UNL     1       4.221  -4.098 -11.091  1.00  0.00     0.022 A 
BRANCH  52  56
ATOM     56  S   UNL     1       6.802  -5.039 -11.562  1.00  0.00     0.124 S 
ATOM     57  O   UNL     1       7.534  -4.231 -12.531  1.00  0.00    -0.237 OA
ATOM     58  O   UNL     1       7.529  -5.402 -10.350  1.00  0.00    -0.237 OA
ATOM     59  O   UNL     1       5.976  -6.101 -12.131  1.00  0.00    -0.744 OA
ENDBRANCH  52  56
ENDBRANCH  25  49
BRANCH  37  60
ATOM     60  C   UNL     1       8.575   3.960 -12.081  1.00  0.00     0.023 A 
ATOM     61  C   UNL     1       7.822   4.178 -13.247  1.00  0.00     0.031 A 
ATOM     62  C   UNL     1       9.975   4.060 -12.165  1.00  0.00     0.131 A 
ATOM     63  C   UNL     1       8.476   4.442 -14.460  1.00  0.00     0.055 A 
ATOM     64  C   UNL     1      10.617   4.375 -13.363  1.00  0.00     0.041 A 
ATOM     65  F   UNL     1      10.741   3.857 -11.081  1.00  0.00    -0.206 F 
ATOM     66  C   UNL     1       9.868   4.558 -14.522  1.00  0.00     0.022 A 
BRANCH  63  67
ATOM     67  S   UNL     1       7.489   4.562 -15.977  1.00  0.00     0.124 S 
ATOM     68  O   UNL     1       6.884   3.236 -16.050  1.00  0.00    -0.237 OA
ATOM     69  O   UNL     1       6.580   5.663 -15.674  1.00  0.00    -0.237 OA
ATOM     70  O   UNL     1       8.482   4.848 -17.011  1.00  0.00    -0.744 OA
ENDBRANCH  63  67
ENDBRANCH  37  60
ENDBRANCH  11  12
ENDBRANCH   4   6
ENDBRANCH   1   2
BRANCH   1  71
ATOM     71  C   UNL     1       4.876   0.476   2.448  1.00  0.00     0.042 C 
BRANCH  71  72
ATOM     72  C   UNL     1       4.324   0.093   3.813  1.00  0.00     0.118 C 
BRANCH  72  73
ATOM     73  N   UNL     1       4.884  -1.154   4.327  1.00  0.00    -0.352 N 
ATOM     74  C   UNL     1       5.671  -1.371   5.432  1.00  0.00     0.253 C 
ATOM     75  H   UNL     1       4.666  -1.959   3.803  1.00  0.00     0.163 HD
ATOM     76  O   UNL     1       6.196  -2.465   5.617  1.00  0.00    -0.269 OA
BRANCH  74  77
ATOM     77  C   UNL     1       5.929  -0.263   6.378  1.00  0.00     0.064 A 
ATOM     78  C   UNL     1       4.829   0.449   6.882  1.00  0.00     0.031 A 
ATOM     79  C   UNL     1       7.244   0.076   6.755  1.00  0.00     0.054 A 
ATOM     80  C   UNL     1       5.039   1.604   7.620  1.00  0.00     0.018 A 
ATOM     81  C   UNL     1       7.424   1.292   7.421  1.00  0.00     0.028 A 
ATOM     82  Br  UNL     1       3.563   2.600   8.246  1.00  0.00    -0.051 Br
ATOM     83  C   UNL     1       6.332   2.052   7.856  1.00  0.00     0.018 A 
BRANCH  79  84
ATOM     84  N   UNL     1       8.312  -0.795   6.434  1.00  0.00    -0.321 N 
ATOM     85  C   UNL     1       9.611  -0.896   6.901  1.00  0.00     0.265 C 
ATOM     86  H   UNL     1       8.087  -1.459   5.743  1.00  0.00     0.170 HD
ATOM     87  O   UNL     1      10.377  -1.651   6.300  1.00  0.00    -0.268 OA
BRANCH  85  88
ATOM     88  C   UNL     1      10.004  -0.201   8.111  1.00  0.00     0.093 A 
ATOM     89  C   UNL     1       9.396  -0.190   9.357  1.00  0.00     0.027 A 
ATOM     90  S   UNL     1      11.434   0.747   8.105  1.00  0.00    -0.123 S 
ATOM     91  C   UNL     1      10.043   0.702  10.264  1.00  0.00     0.028 A 
ATOM     92  C   UNL     1      11.148   1.277   9.688  1.00  0.00     0.071 A 
ATOM     93  Br  UNL     1      12.237   2.525  10.561  1.00  0.00    -0.039 Br
ENDBRANCH  85  88
ENDBRANCH  79  84
ENDBRANCH  74  77
ENDBRANCH  72  73
ENDBRANCH  71  72
ENDBRANCH   1  71
TORSDOF 15
