REMARK SMILES CC(C)(C)c1csc(C[NH2+][C@H]2CCC[C@@H](C(=O)NCCCNC(=O)c3ccc(-c4c5nc(c(-c6cc(S(=O)(=O)[O-])ccc6F)c6ccc([nH]6)c(-c6cc(S(=O)(=O)[O-])ccc6F)c6nc(c(-c7cc(S(=O)(=O)[O-])ccc7F)c7ccc4[nH]7)C=C6)C=C5)cc3)C2)n1
REMARK SMILES IDX 19 1 18 2 16 3 17 4 15 6 11 7 12 8 88 9 13 10 14 11 10 12
REMARK SMILES IDX 9 15 8 16 5 17 6 18 89 19 7 20 2 21 1 22 3 23 4 24 20 25
REMARK SMILES IDX 21 26 22 27 23 28 24 30 25 31 26 32 87 33 27 34 86 35 28 36
REMARK SMILES IDX 29 37 30 38 80 39 31 40 85 41 79 42 81 43 32 44 84 45 78 46
REMARK SMILES IDX 77 47 33 49 65 50 45 51 64 52 46 53 49 54 63 55 82 56 47 57
REMARK SMILES IDX 48 58 62 60 83 61 50 62 34 63 35 64 43 65 36 66 42 67 44 68
REMARK SMILES IDX 41 69 37 70 38 71 39 72 40 73 66 74 67 75 75 76 68 77 74 78
REMARK SMILES IDX 76 79 73 80 69 81 70 82 71 83 72 84 51 85 52 86 60 87 53 88
REMARK SMILES IDX 59 89 61 90 58 91 54 92 55 93 56 94 57 95
REMARK H PARENT 18 5 10 13 10 14 22 29 81 48 49 59
REMARK Flexibility Score: inf
ROOT
ATOM      1  C   UNL     1      -5.280   8.854   0.964  1.00  0.00     0.117 C 
ENDROOT
BRANCH   1   2
ATOM      2  N   UNL     1      -4.465   9.130  -0.204  1.00  0.00    -0.356 N 
ATOM      3  C   UNL     1      -3.195   9.612  -0.282  1.00  0.00     0.223 C 
ATOM      4  O   UNL     1      -2.817  10.071  -1.360  1.00  0.00    -0.275 OA
ATOM      5  H   UNL     1      -4.895   8.941  -1.069  1.00  0.00     0.163 HD
BRANCH   3   6
ATOM      6  C   UNL     1      -2.252   9.470   0.907  1.00  0.00     0.084 C 
ATOM      7  C   UNL     1      -0.292   8.130  -0.160  1.00  0.00     0.183 C 
ATOM      8  C   UNL     1       0.628   9.301   0.220  1.00  0.00     0.065 C 
ATOM      9  C   UNL     1      -1.498   8.127   0.811  1.00  0.00     0.078 C 
ATOM     10  C   UNL     1      -0.087  10.644   0.135  1.00  0.00     0.007 C 
ATOM     11  C   UNL     1      -1.315  10.680   1.040  1.00  0.00     0.014 C 
BRANCH   7  12
ATOM     12  N   UNL     1      -0.771   8.131  -1.547  1.00  0.00    -0.338 N 
ATOM     13  H   UNL     1      -1.317   7.282  -1.693  1.00  0.00     0.346 HD
ATOM     14  H   UNL     1      -1.313   8.988  -1.659  1.00  0.00     0.346 HD
BRANCH  12  15
ATOM     15  C   UNL     1       0.280   8.178  -2.570  1.00  0.00     0.329 C 
BRANCH  15  16
ATOM     16  C   UNL     1      -0.296   8.342  -3.957  1.00  0.00     0.147 A 
ATOM     17  C   UNL     1      -0.896   9.325  -5.866  1.00  0.00     0.057 A 
ATOM     18  C   UNL     1      -1.402   8.055  -6.085  1.00  0.00     0.091 A 
ATOM     19  N   UNL     1      -0.232   9.460  -4.653  1.00  0.00    -0.240 NA
ATOM     20  S   UNL     1      -1.082   7.035  -4.747  1.00  0.00    -0.121 S 
BRANCH  17  21
ATOM     21  C   UNL     1      -0.954  10.517  -6.814  1.00  0.00     0.005 C 
ATOM     22  C   UNL     1      -2.317  10.596  -7.533  1.00  0.00     0.017 C 
ATOM     23  C   UNL     1       0.160  10.384  -7.869  1.00  0.00     0.017 C 
ATOM     24  C   UNL     1      -0.752  11.846  -6.054  1.00  0.00     0.017 C 
ENDBRANCH  17  21
ENDBRANCH  15  16
ENDBRANCH  12  15
ENDBRANCH   7  12
ENDBRANCH   3   6
ENDBRANCH   1   2
BRANCH   1  25
ATOM     25  C   UNL     1      -6.180  10.045   1.292  1.00  0.00     0.042 C 
BRANCH  25  26
ATOM     26  C   UNL     1      -7.181  10.387   0.187  1.00  0.00     0.118 C 
BRANCH  26  27
ATOM     27  N   UNL     1      -8.097   9.293  -0.088  1.00  0.00    -0.352 N 
ATOM     28  C   UNL     1      -9.468   9.266  -0.102  1.00  0.00     0.251 C 
ATOM     29  H   UNL     1      -7.664   8.434  -0.298  1.00  0.00     0.163 HD
ATOM     30  O   UNL     1     -10.037   8.174  -0.154  1.00  0.00    -0.269 OA
BRANCH  28  31
ATOM     31  C   UNL     1     -10.260  10.514  -0.043  1.00  0.00     0.039 A 
ATOM     32  C   UNL     1     -11.448  10.515   0.693  1.00  0.00     0.014 A 
ATOM     33  C   UNL     1      -9.880  11.659  -0.749  1.00  0.00     0.014 A 
ATOM     34  C   UNL     1     -12.232  11.670   0.751  1.00  0.00     0.010 A 
ATOM     35  C   UNL     1     -10.623  12.833  -0.630  1.00  0.00     0.010 A 
ATOM     36  C   UNL     1     -11.817  12.846   0.107  1.00  0.00    -0.014 A 
BRANCH  36  37
ATOM     37  C   UNL     1     -12.644  14.081   0.171  1.00  0.00     0.031 A 
ATOM     38  C   UNL     1     -13.265  14.643  -1.081  1.00  0.00     0.074 A 
ATOM     39  C   UNL     1     -12.812  14.711   1.350  1.00  0.00     0.049 A 
ATOM     40  N   UNL     1     -13.995  15.718  -1.234  1.00  0.00    -0.248 NA
ATOM     41  C   UNL     1     -13.003  13.914  -2.331  1.00  0.00     0.031 C 
ATOM     42  C   UNL     1     -12.225  14.290   2.624  1.00  0.00     0.029 A 
ATOM     43  N   UNL     1     -13.524  15.839   1.672  1.00  0.00    -0.354 N 
ATOM     44  C   UNL     1     -14.270  15.801  -2.596  1.00  0.00     0.074 A 
ATOM     45  C   UNL     1     -13.569  14.704  -3.229  1.00  0.00     0.031 C 
ATOM     46  C   UNL     1     -12.626  15.129   3.592  1.00  0.00     0.029 A 
ATOM     47  C   UNL     1     -13.465  16.169   3.006  1.00  0.00     0.049 A 
ATOM     48  H   UNL     1     -14.030  16.364   1.010  1.00  0.00     0.167 HD
ATOM     49  C   UNL     1     -15.054  16.692  -3.254  1.00  0.00     0.034 A 
ATOM     50  C   UNL     1     -14.023  17.194   3.680  1.00  0.00     0.034 A 
ATOM     51  C   UNL     1     -15.756  17.775  -2.605  1.00  0.00     0.049 A 
ATOM     52  C   UNL     1     -14.891  18.171   2.929  1.00  0.00     0.074 A 
ATOM     53  C   UNL     1     -16.610  18.709  -3.165  1.00  0.00     0.029 A 
ATOM     54  N   UNL     1     -15.682  18.072  -1.250  1.00  0.00    -0.354 N 
ATOM     55  N   UNL     1     -15.182  18.206   1.648  1.00  0.00    -0.248 NA
ATOM     56  C   UNL     1     -15.522  19.234   3.720  1.00  0.00     0.031 C 
ATOM     57  C   UNL     1     -17.001  19.606  -2.163  1.00  0.00     0.029 A 
ATOM     58  C   UNL     1     -16.455  19.187  -0.961  1.00  0.00     0.049 A 
ATOM     59  H   UNL     1     -15.157  17.564  -0.589  1.00  0.00     0.167 HD
ATOM     60  C   UNL     1     -16.057  19.278   1.488  1.00  0.00     0.074 A 
ATOM     61  C   UNL     1     -16.262  19.843   2.807  1.00  0.00     0.031 C 
ATOM     62  C   UNL     1     -16.639  19.752   0.356  1.00  0.00     0.034 A 
BRANCH  49  63
ATOM     63  C   UNL     1     -15.167  16.540  -4.755  1.00  0.00     0.023 A 
ATOM     64  C   UNL     1     -15.713  15.384  -5.341  1.00  0.00     0.031 A 
ATOM     65  C   UNL     1     -14.690  17.547  -5.613  1.00  0.00     0.131 A 
ATOM     66  C   UNL     1     -15.689  15.225  -6.736  1.00  0.00     0.055 A 
ATOM     67  C   UNL     1     -14.750  17.420  -7.003  1.00  0.00     0.041 A 
ATOM     68  F   UNL     1     -14.140  18.666  -5.116  1.00  0.00    -0.206 F 
ATOM     69  C   UNL     1     -15.236  16.247  -7.572  1.00  0.00     0.022 A 
BRANCH  66  70
ATOM     70  S   UNL     1     -16.115  13.604  -7.430  1.00  0.00     0.124 S 
ATOM     71  O   UNL     1     -15.128  12.740  -6.787  1.00  0.00    -0.237 OA
ATOM     72  O   UNL     1     -17.497  13.428  -6.998  1.00  0.00    -0.237 OA
ATOM     73  O   UNL     1     -15.929  13.788  -8.868  1.00  0.00    -0.744 OA
ENDBRANCH  66  70
ENDBRANCH  49  63
BRANCH  50  74
ATOM     74  C   UNL     1     -13.788  17.354   5.144  1.00  0.00     0.023 A 
ATOM     75  C   UNL     1     -14.844  17.243   6.063  1.00  0.00     0.031 A 
ATOM     76  C   UNL     1     -12.511  17.666   5.642  1.00  0.00     0.131 A 
ATOM     77  C   UNL     1     -14.617  17.494   7.425  1.00  0.00     0.055 A 
ATOM     78  C   UNL     1     -12.279  17.862   7.005  1.00  0.00     0.041 A 
ATOM     79  F   UNL     1     -11.465  17.776   4.808  1.00  0.00    -0.206 F 
ATOM     80  C   UNL     1     -13.338  17.791   7.903  1.00  0.00     0.022 A 
BRANCH  77  81
ATOM     81  S   UNL     1     -16.036  17.512   8.554  1.00  0.00     0.124 S 
ATOM     82  O   UNL     1     -16.878  18.543   7.958  1.00  0.00    -0.237 OA
ATOM     83  O   UNL     1     -16.525  16.141   8.445  1.00  0.00    -0.237 OA
ATOM     84  O   UNL     1     -15.441  17.858   9.843  1.00  0.00    -0.744 OA
ENDBRANCH  77  81
ENDBRANCH  50  74
BRANCH  62  85
ATOM     85  C   UNL     1     -17.588  20.916   0.517  1.00  0.00     0.023 A 
ATOM     86  C   UNL     1     -17.148  22.174   0.967  1.00  0.00     0.031 A 
ATOM     87  C   UNL     1     -18.961  20.752   0.259  1.00  0.00     0.131 A 
ATOM     88  C   UNL     1     -18.080  23.191   1.222  1.00  0.00     0.055 A 
ATOM     89  C   UNL     1     -19.875  21.791   0.447  1.00  0.00     0.041 A 
ATOM     90  F   UNL     1     -19.440  19.574  -0.171  1.00  0.00    -0.206 F 
ATOM     91  C   UNL     1     -19.439  23.013   0.950  1.00  0.00     0.022 A 
BRANCH  88  92
ATOM     92  S   UNL     1     -17.510  24.707   2.041  1.00  0.00     0.124 S 
ATOM     93  O   UNL     1     -16.875  24.181   3.246  1.00  0.00    -0.237 OA
ATOM     94  O   UNL     1     -16.610  25.279   1.044  1.00  0.00    -0.237 OA
ATOM     95  O   UNL     1     -18.742  25.459   2.268  1.00  0.00    -0.744 OA
ENDBRANCH  88  92
ENDBRANCH  62  85
ENDBRANCH  36  37
ENDBRANCH  28  31
ENDBRANCH  26  27
ENDBRANCH  25  26
ENDBRANCH   1  25
TORSDOF 17
