REMARK SMILES COc1cc2c(cc1OC)[C@H](C(=O)NCCCNC(=O)c1ccc(-c3c4nc(c(-c5cc(S(=O)(=O)[O-])ccc5F)c5ccc([nH]5)c(-c5cc(S(=O)(=O)[O-])ccc5F)c5nc(c(-c6cc(S(=O)(=O)[O-])ccc6F)c6ccc3[nH]6)C=C5)C=C4)cc1)[C@@H](c1ccc(SC)cc1)N(C)C2=O
REMARK SMILES IDX 16 1 15 2 14 3 12 4 13 5 11 7 3 8 4 9 8 10 5 11 7 12 6 13
REMARK SMILES IDX 95 14 93 15 96 16 84 17 94 18 2 19 1 20 9 21 10 22 85 23
REMARK SMILES IDX 86 24 92 25 87 26 91 27 88 28 89 29 90 30 17 31 18 32 19 33
REMARK SMILES IDX 20 35 21 36 22 37 83 38 23 39 82 40 24 41 25 42 26 43 76 44
REMARK SMILES IDX 27 45 81 46 75 47 77 48 28 49 80 50 74 51 73 52 29 54 61 55
REMARK SMILES IDX 41 56 60 57 42 58 45 59 59 60 78 61 43 62 44 63 58 65 79 66
REMARK SMILES IDX 46 67 30 68 31 69 39 70 32 71 38 72 40 73 37 74 33 75 34 76
REMARK SMILES IDX 35 77 36 78 62 79 63 80 71 81 64 82 70 83 72 84 69 85 65 86
REMARK SMILES IDX 66 87 67 88 68 89 47 90 48 91 56 92 49 93 55 94 57 95 54 96
REMARK SMILES IDX 50 97 51 98 52 99 53 100
REMARK H PARENT 14 6 18 34 77 53 45 64
REMARK Flexibility Score: inf
ROOT
ATOM      1  C   UNL     1      -0.990  -8.146   1.312  1.00  0.00     0.042 C 
ENDROOT
BRANCH   1   2
ATOM      2  C   UNL     1      -0.591  -6.800   1.887  1.00  0.00     0.117 C 
BRANCH   2   3
ATOM      3  N   UNL     1       0.027  -6.907   3.204  1.00  0.00    -0.355 N 
ATOM      4  C   UNL     1       1.214  -6.372   3.639  1.00  0.00     0.230 C 
ATOM      5  O   UNL     1       1.463  -6.381   4.844  1.00  0.00    -0.274 OA
ATOM      6  H   UNL     1      -0.474  -7.434   3.869  1.00  0.00     0.163 HD
BRANCH   4   7
ATOM      7  C   UNL     1       2.141  -5.740   2.604  1.00  0.00     0.136 C 
ATOM      8  C   UNL     1       1.125  -1.628   1.586  1.00  0.00     0.161 A 
ATOM      9  C   UNL     1       2.413  -2.140   1.370  1.00  0.00     0.064 A 
ATOM     10  C   UNL     1       0.169  -2.429   2.213  1.00  0.00     0.161 A 
ATOM     11  C   UNL     1       2.743  -3.459   1.729  1.00  0.00     0.048 A 
ATOM     12  C   UNL     1       0.522  -3.732   2.593  1.00  0.00     0.056 A 
ATOM     13  C   UNL     1       1.792  -4.279   2.336  1.00  0.00    -0.016 A 
ATOM     14  C   UNL     1       4.107  -3.970   1.427  1.00  0.00     0.254 C 
ATOM     15  N   UNL     1       4.468  -5.216   1.949  1.00  0.00    -0.334 N 
ATOM     16  O   UNL     1       4.851  -3.287   0.727  1.00  0.00    -0.269 OA
ATOM     17  C   UNL     1       3.637  -5.866   3.010  1.00  0.00     0.132 C 
ATOM     18  C   UNL     1       5.812  -5.690   1.643  1.00  0.00     0.147 C 
BRANCH   8  19
ATOM     19  O   UNL     1       0.831  -0.326   1.280  1.00  0.00    -0.493 OA
ATOM     20  C   UNL     1       1.202   0.051  -0.045  1.00  0.00     0.278 C 
ENDBRANCH   8  19
BRANCH  10  21
ATOM     21  O   UNL     1      -1.129  -2.133   2.529  1.00  0.00    -0.493 OA
ATOM     22  C   UNL     1      -1.728  -0.989   1.943  1.00  0.00     0.278 C 
ENDBRANCH  10  21
BRANCH  17  23
ATOM     23  C   UNL     1       4.101  -7.291   3.363  1.00  0.00    -0.024 A 
ATOM     24  C   UNL     1       3.454  -8.452   2.913  1.00  0.00     0.007 A 
ATOM     25  C   UNL     1       5.227  -7.462   4.191  1.00  0.00     0.007 A 
ATOM     26  C   UNL     1       3.894  -9.724   3.306  1.00  0.00     0.015 A 
ATOM     27  C   UNL     1       5.691  -8.737   4.548  1.00  0.00     0.015 A 
ATOM     28  C   UNL     1       5.024  -9.882   4.114  1.00  0.00     0.007 A 
BRANCH  28  29
ATOM     29  S   UNL     1       5.481 -11.549   4.568  1.00  0.00    -0.130 SA
ATOM     30  C   UNL     1       7.264 -11.415   4.858  1.00  0.00     0.091 C 
ENDBRANCH  28  29
ENDBRANCH  17  23
ENDBRANCH   4   7
ENDBRANCH   2   3
ENDBRANCH   1   2
BRANCH   1  31
ATOM     31  C   UNL     1      -2.084  -8.846   2.103  1.00  0.00     0.118 C 
BRANCH  31  32
ATOM     32  N   UNL     1      -3.328  -8.087   2.144  1.00  0.00    -0.352 N 
ATOM     33  C   UNL     1      -4.587  -8.432   1.716  1.00  0.00     0.251 C 
ATOM     34  H   UNL     1      -3.254  -7.188   2.539  1.00  0.00     0.163 HD
ATOM     35  O   UNL     1      -5.466  -7.574   1.676  1.00  0.00    -0.269 OA
BRANCH  33  36
ATOM     36  C   UNL     1      -4.871  -9.815   1.277  1.00  0.00     0.039 A 
ATOM     37  C   UNL     1      -5.652 -10.017   0.137  1.00  0.00     0.014 A 
ATOM     38  C   UNL     1      -4.363 -10.910   1.979  1.00  0.00     0.014 A 
ATOM     39  C   UNL     1      -5.855 -11.313  -0.342  1.00  0.00     0.010 A 
ATOM     40  C   UNL     1      -4.486 -12.190   1.448  1.00  0.00     0.010 A 
ATOM     41  C   UNL     1      -5.235 -12.408   0.282  1.00  0.00    -0.014 A 
BRANCH  41  42
ATOM     42  C   UNL     1      -5.356 -13.785  -0.265  1.00  0.00     0.031 A 
ATOM     43  C   UNL     1      -5.993 -14.870   0.563  1.00  0.00     0.074 A 
ATOM     44  C   UNL     1      -4.829 -14.072  -1.474  1.00  0.00     0.049 A 
ATOM     45  N   UNL     1      -6.112 -16.146   0.302  1.00  0.00    -0.248 NA
ATOM     46  C   UNL     1      -6.542 -14.475   1.871  1.00  0.00     0.031 C 
ATOM     47  C   UNL     1      -4.151 -13.113  -2.351  1.00  0.00     0.029 A 
ATOM     48  N   UNL     1      -4.769 -15.252  -2.173  1.00  0.00    -0.354 N 
ATOM     49  C   UNL     1      -6.725 -16.708   1.417  1.00  0.00     0.074 A 
ATOM     50  C   UNL     1      -6.910 -15.642   2.377  1.00  0.00     0.031 C 
ATOM     51  C   UNL     1      -3.768 -13.737  -3.477  1.00  0.00     0.029 A 
ATOM     52  C   UNL     1      -4.120 -15.150  -3.384  1.00  0.00     0.049 A 
ATOM     53  H   UNL     1      -5.155 -16.094  -1.840  1.00  0.00     0.167 HD
ATOM     54  C   UNL     1      -7.111 -17.992   1.613  1.00  0.00     0.034 A 
ATOM     55  C   UNL     1      -3.825 -16.090  -4.304  1.00  0.00     0.034 A 
ATOM     56  C   UNL     1      -6.950 -19.035   0.631  1.00  0.00     0.049 A 
ATOM     57  C   UNL     1      -4.258 -17.515  -4.049  1.00  0.00     0.074 A 
ATOM     58  C   UNL     1      -7.385 -20.348   0.696  1.00  0.00     0.029 A 
ATOM     59  N   UNL     1      -6.298 -18.892  -0.586  1.00  0.00    -0.354 N 
ATOM     60  N   UNL     1      -4.906 -18.010  -3.019  1.00  0.00    -0.248 NA
ATOM     61  C   UNL     1      -3.933 -18.505  -5.085  1.00  0.00     0.031 C 
ATOM     62  C   UNL     1      -6.927 -21.017  -0.442  1.00  0.00     0.029 A 
ATOM     63  C   UNL     1      -6.285 -20.103  -1.260  1.00  0.00     0.049 A 
ATOM     64  H   UNL     1      -5.904 -18.055  -0.920  1.00  0.00     0.167 HD
ATOM     65  C   UNL     1      -5.101 -19.359  -3.308  1.00  0.00     0.074 A 
ATOM     66  C   UNL     1      -4.519 -19.593  -4.612  1.00  0.00     0.031 C 
ATOM     67  C   UNL     1      -5.707 -20.319  -2.565  1.00  0.00     0.034 A 
BRANCH  54  68
ATOM     68  C   UNL     1      -7.722 -18.354   2.944  1.00  0.00     0.023 A 
ATOM     69  C   UNL     1      -8.958 -17.835   3.364  1.00  0.00     0.031 A 
ATOM     70  C   UNL     1      -7.065 -19.263   3.795  1.00  0.00     0.131 A 
ATOM     71  C   UNL     1      -9.478 -18.194   4.617  1.00  0.00     0.055 A 
ATOM     72  C   UNL     1      -7.622 -19.671   5.007  1.00  0.00     0.041 A 
ATOM     73  F   UNL     1      -5.870 -19.773   3.456  1.00  0.00    -0.206 F 
ATOM     74  C   UNL     1      -8.832 -19.130   5.429  1.00  0.00     0.022 A 
BRANCH  71  75
ATOM     75  S   UNL     1     -10.965 -17.346   5.217  1.00  0.00     0.124 S 
ATOM     76  O   UNL     1     -10.513 -15.958   5.264  1.00  0.00    -0.237 OA
ATOM     77  O   UNL     1     -11.947 -17.663   4.187  1.00  0.00    -0.237 OA
ATOM     78  O   UNL     1     -11.207 -17.961   6.521  1.00  0.00    -0.744 OA
ENDBRANCH  71  75
ENDBRANCH  54  68
BRANCH  55  79
ATOM     79  C   UNL     1      -3.064 -15.746  -5.543  1.00  0.00     0.023 A 
ATOM     80  C   UNL     1      -3.619 -15.962  -6.815  1.00  0.00     0.031 A 
ATOM     81  C   UNL     1      -1.736 -15.286  -5.479  1.00  0.00     0.131 A 
ATOM     82  C   UNL     1      -2.829 -15.800  -7.963  1.00  0.00     0.055 A 
ATOM     83  C   UNL     1      -0.977 -15.055  -6.627  1.00  0.00     0.041 A 
ATOM     84  F   UNL     1      -1.151 -15.059  -4.291  1.00  0.00    -0.206 F 
ATOM     85  C   UNL     1      -1.516 -15.334  -7.879  1.00  0.00     0.022 A 
BRANCH  82  86
ATOM     86  S   UNL     1      -3.497 -16.349  -9.558  1.00  0.00     0.124 S 
ATOM     87  O   UNL     1      -3.861 -17.731  -9.266  1.00  0.00    -0.237 OA
ATOM     88  O   UNL     1      -4.606 -15.421  -9.756  1.00  0.00    -0.237 OA
ATOM     89  O   UNL     1      -2.371 -16.179 -10.474  1.00  0.00    -0.744 OA
ENDBRANCH  82  86
ENDBRANCH  55  79
BRANCH  67  90
ATOM     90  C   UNL     1      -5.827 -21.693  -3.178  1.00  0.00     0.023 A 
ATOM     91  C   UNL     1      -4.700 -22.488  -3.449  1.00  0.00     0.031 A 
ATOM     92  C   UNL     1      -7.094 -22.210  -3.503  1.00  0.00     0.131 A 
ATOM     93  C   UNL     1      -4.858 -23.730  -4.082  1.00  0.00     0.055 A 
ATOM     94  C   UNL     1      -7.250 -23.475  -4.070  1.00  0.00     0.041 A 
ATOM     95  F   UNL     1      -8.206 -21.493  -3.269  1.00  0.00    -0.206 F 
ATOM     96  C   UNL     1      -6.126 -24.237  -4.376  1.00  0.00     0.022 A 
BRANCH  93  97
ATOM     97  S   UNL     1      -3.375 -24.634  -4.606  1.00  0.00     0.124 S 
ATOM     98  O   UNL     1      -2.731 -23.672  -5.494  1.00  0.00    -0.237 OA
ATOM     99  O   UNL     1      -2.698 -24.885  -3.339  1.00  0.00    -0.237 OA
ATOM    100  O   UNL     1      -3.914 -25.823  -5.266  1.00  0.00    -0.744 OA
ENDBRANCH  93  97
ENDBRANCH  67  90
ENDBRANCH  41  42
ENDBRANCH  33  36
ENDBRANCH  31  32
ENDBRANCH   1  31
TORSDOF 17
