REMARK SMILES Cc1cc2c(c(C)c1Br)C=C(C(=O)NCCCNC(=O)c1ccc(-c3c4nc(c(-c5cc(S(=O)(=O)[O-])ccc5F)c5ccc([nH]5)c(-c5cc(S(=O)(=O)[O-])ccc5F)c5nc(c(-c6cc(S(=O)(=O)[O-])ccc6F)c6ccc3[nH]6)C=C5)C=C4)cc1)[C@@H](C(F)(F)F)O2
REMARK SMILES IDX 17 1 16 2 15 3 14 4 12 5 13 6 11 8 1 9 2 10 3 11 8 12 4 13
REMARK SMILES IDX 6 14 9 15 5 16 89 17 7 18 10 19 84 20 85 21 86 22 87 23
REMARK SMILES IDX 88 24 18 25 19 26 20 28 21 29 22 30 83 31 23 32 82 33 24 34
REMARK SMILES IDX 25 35 26 36 76 37 27 38 81 39 75 40 77 41 28 42 80 43 74 44
REMARK SMILES IDX 73 45 29 47 61 48 41 49 60 50 42 51 45 52 59 53 78 54 43 55
REMARK SMILES IDX 44 56 58 58 79 59 46 60 30 61 31 62 39 63 32 64 38 65 40 66
REMARK SMILES IDX 37 67 33 68 34 69 35 70 36 71 62 72 63 73 71 74 64 75 70 76
REMARK SMILES IDX 72 77 69 78 65 79 66 80 67 81 68 82 47 83 48 84 56 85 49 86
REMARK SMILES IDX 55 87 57 88 54 89 50 90 51 91 52 92 53 93
REMARK H PARENT 14 7 18 27 77 46 45 57
REMARK Flexibility Score: inf
ROOT
ATOM      1  C   UNL     1      -4.780   7.668   5.649  1.00  0.00     0.118 C 
ENDROOT
BRANCH   1   2
ATOM      2  C   UNL     1      -4.338   6.338   5.052  1.00  0.00     0.042 C 
BRANCH   2   3
ATOM      3  C   UNL     1      -4.376   6.349   3.532  1.00  0.00     0.118 C 
BRANCH   3   4
ATOM      4  N   UNL     1      -3.244   7.068   2.964  1.00  0.00    -0.352 N 
ATOM      5  C   UNL     1      -2.118   6.766   2.279  1.00  0.00     0.251 C 
ATOM      6  O   UNL     1      -1.414   7.733   1.969  1.00  0.00    -0.270 OA
ATOM      7  H   UNL     1      -3.319   8.037   3.121  1.00  0.00     0.163 HD
BRANCH   5   8
ATOM      8  C   UNL     1      -1.696   5.390   1.885  1.00  0.00     0.067 C 
ATOM      9  C   UNL     1       1.219  -0.059  -0.141  1.00  0.00     0.046 C 
ATOM     10  C   UNL     1       0.842   1.362   0.182  1.00  0.00    -0.033 A 
ATOM     11  C   UNL     1      -0.288   1.567   0.978  1.00  0.00     0.051 A 
ATOM     12  C   UNL     1       1.546   2.486  -0.302  1.00  0.00     0.024 A 
ATOM     13  C   UNL     1      -0.707   2.852   1.296  1.00  0.00     0.128 A 
ATOM     14  C   UNL     1       1.142   3.805   0.035  1.00  0.00    -0.026 A 
ATOM     15  Br  UNL     1       3.059   2.184  -1.437  1.00  0.00    -0.050 Br
ATOM     16  C   UNL     1      -0.004   3.975   0.852  1.00  0.00     0.021 A 
ATOM     17  O   UNL     1      -1.810   2.920   2.096  1.00  0.00    -0.475 OA
ATOM     18  C   UNL     1       1.888   5.030  -0.440  1.00  0.00     0.046 C 
ATOM     19  C   UNL     1      -0.489   5.287   1.298  1.00  0.00     0.026 C 
ATOM     20  C   UNL     1      -2.542   4.170   2.082  1.00  0.00     0.314 C 
BRANCH  20  21
ATOM     21  C   UNL     1      -3.696   4.079   1.066  1.00  0.00     0.429 C 
ATOM     22  F   UNL     1      -4.641   3.206   1.495  1.00  0.00    -0.167 F 
ATOM     23  F   UNL     1      -4.326   5.264   0.881  1.00  0.00    -0.167 F 
ATOM     24  F   UNL     1      -3.287   3.664  -0.154  1.00  0.00    -0.167 F 
ENDBRANCH  20  21
ENDBRANCH   5   8
ENDBRANCH   3   4
ENDBRANCH   2   3
ENDBRANCH   1   2
BRANCH   1  25
ATOM     25  N   UNL     1      -6.172   7.969   5.321  1.00  0.00    -0.352 N 
ATOM     26  C   UNL     1      -7.298   7.896   6.101  1.00  0.00     0.251 C 
ATOM     27  H   UNL     1      -6.325   8.271   4.397  1.00  0.00     0.163 HD
ATOM     28  O   UNL     1      -8.405   7.891   5.564  1.00  0.00    -0.269 OA
BRANCH  26  29
ATOM     29  C   UNL     1      -7.176   7.821   7.569  1.00  0.00     0.039 A 
ATOM     30  C   UNL     1      -8.040   6.996   8.292  1.00  0.00     0.014 A 
ATOM     31  C   UNL     1      -6.217   8.590   8.234  1.00  0.00     0.014 A 
ATOM     32  C   UNL     1      -7.896   6.896   9.676  1.00  0.00     0.010 A 
ATOM     33  C   UNL     1      -6.009   8.412   9.594  1.00  0.00     0.010 A 
ATOM     34  C   UNL     1      -6.856   7.576  10.332  1.00  0.00    -0.014 A 
BRANCH  34  35
ATOM     35  C   UNL     1      -6.659   7.462  11.797  1.00  0.00     0.031 A 
ATOM     36  C   UNL     1      -6.798   8.686  12.662  1.00  0.00     0.074 A 
ATOM     37  C   UNL     1      -6.309   6.278  12.334  1.00  0.00     0.049 A 
ATOM     38  N   UNL     1      -6.586   8.818  13.944  1.00  0.00    -0.248 NA
ATOM     39  C   UNL     1      -7.200   9.934  11.990  1.00  0.00     0.031 C 
ATOM     40  C   UNL     1      -6.117   5.033  11.585  1.00  0.00     0.029 A 
ATOM     41  N   UNL     1      -6.055   5.923  13.634  1.00  0.00    -0.354 N 
ATOM     42  C   UNL     1      -6.821  10.158  14.230  1.00  0.00     0.074 A 
ATOM     43  C   UNL     1      -7.124  10.813  12.978  1.00  0.00     0.031 C 
ATOM     44  C   UNL     1      -5.821   4.044  12.444  1.00  0.00     0.029 A 
ATOM     45  C   UNL     1      -5.752   4.591  13.795  1.00  0.00     0.049 A 
ATOM     46  H   UNL     1      -6.087   6.562  14.383  1.00  0.00     0.167 HD
ATOM     47  C   UNL     1      -6.817  10.777  15.434  1.00  0.00     0.034 A 
ATOM     48  C   UNL     1      -5.448   3.892  14.906  1.00  0.00     0.034 A 
ATOM     49  C   UNL     1      -6.545  10.105  16.676  1.00  0.00     0.049 A 
ATOM     50  C   UNL     1      -5.416   4.611  16.229  1.00  0.00     0.074 A 
ATOM     51  C   UNL     1      -6.558  10.627  17.956  1.00  0.00     0.029 A 
ATOM     52  N   UNL     1      -6.214   8.762  16.794  1.00  0.00    -0.354 N 
ATOM     53  N   UNL     1      -5.654   5.878  16.482  1.00  0.00    -0.248 NA
ATOM     54  C   UNL     1      -5.074   3.812  17.413  1.00  0.00     0.031 C 
ATOM     55  C   UNL     1      -6.178   9.616  18.843  1.00  0.00     0.029 A 
ATOM     56  C   UNL     1      -5.993   8.445  18.123  1.00  0.00     0.049 A 
ATOM     57  H   UNL     1      -6.147   8.128  16.044  1.00  0.00     0.167 HD
ATOM     58  C   UNL     1      -5.509   6.022  17.858  1.00  0.00     0.074 A 
ATOM     59  C   UNL     1      -5.173   4.713  18.381  1.00  0.00     0.031 C 
ATOM     60  C   UNL     1      -5.646   7.136  18.620  1.00  0.00     0.034 A 
BRANCH  47  61
ATOM     61  C   UNL     1      -7.118  12.253  15.462  1.00  0.00     0.023 A 
ATOM     62  C   UNL     1      -8.390  12.747  15.126  1.00  0.00     0.031 A 
ATOM     63  C   UNL     1      -6.129  13.175  15.846  1.00  0.00     0.131 A 
ATOM     64  C   UNL     1      -8.628  14.129  15.136  1.00  0.00     0.055 A 
ATOM     65  C   UNL     1      -6.391  14.544  15.919  1.00  0.00     0.041 A 
ATOM     66  F   UNL     1      -4.892  12.758  16.157  1.00  0.00    -0.206 F 
ATOM     67  C   UNL     1      -7.645  15.029  15.556  1.00  0.00     0.022 A 
BRANCH  64  68
ATOM     68  S   UNL     1     -10.217  14.741  14.516  1.00  0.00     0.124 S 
ATOM     69  O   UNL     1     -10.153  14.349  13.110  1.00  0.00    -0.237 OA
ATOM     70  O   UNL     1     -11.180  14.017  15.338  1.00  0.00    -0.237 OA
ATOM     71  O   UNL     1     -10.148  16.181  14.759  1.00  0.00    -0.744 OA
ENDBRANCH  64  68
ENDBRANCH  47  61
BRANCH  48  72
ATOM     72  C   UNL     1      -5.157   2.434  14.815  1.00  0.00     0.023 A 
ATOM     73  C   UNL     1      -6.036   1.489  15.366  1.00  0.00     0.031 A 
ATOM     74  C   UNL     1      -3.999   1.965  14.170  1.00  0.00     0.131 A 
ATOM     75  C   UNL     1      -5.733   0.121  15.281  1.00  0.00     0.055 A 
ATOM     76  C   UNL     1      -3.722   0.601  14.053  1.00  0.00     0.041 A 
ATOM     77  F   UNL     1      -3.132   2.828  13.618  1.00  0.00    -0.206 F 
ATOM     78  C   UNL     1      -4.589  -0.329  14.617  1.00  0.00     0.022 A 
BRANCH  75  79
ATOM     79  S   UNL     1      -6.845  -1.068  16.081  1.00  0.00     0.124 S 
ATOM     80  O   UNL     1      -6.721  -0.692  17.484  1.00  0.00    -0.237 OA
ATOM     81  O   UNL     1      -8.123  -0.765  15.444  1.00  0.00    -0.237 OA
ATOM     82  O   UNL     1      -6.269  -2.363  15.727  1.00  0.00    -0.744 OA
ENDBRANCH  75  79
ENDBRANCH  48  72
BRANCH  60  83
ATOM     83  C   UNL     1      -5.451   6.988  20.105  1.00  0.00     0.023 A 
ATOM     84  C   UNL     1      -4.178   6.770  20.656  1.00  0.00     0.031 A 
ATOM     85  C   UNL     1      -6.543   7.127  20.980  1.00  0.00     0.131 A 
ATOM     86  C   UNL     1      -4.030   6.672  22.046  1.00  0.00     0.055 A 
ATOM     87  C   UNL     1      -6.382   7.078  22.364  1.00  0.00     0.041 A 
ATOM     88  F   UNL     1      -7.779   7.342  20.500  1.00  0.00    -0.206 F 
ATOM     89  C   UNL     1      -5.121   6.844  22.904  1.00  0.00     0.022 A 
BRANCH  86  90
ATOM     90  S   UNL     1      -2.394   6.283  22.722  1.00  0.00     0.124 S 
ATOM     91  O   UNL     1      -2.158   4.944  22.189  1.00  0.00    -0.237 OA
ATOM     92  O   UNL     1      -1.562   7.345  22.166  1.00  0.00    -0.237 OA
ATOM     93  O   UNL     1      -2.595   6.349  24.168  1.00  0.00    -0.744 OA
ENDBRANCH  86  90
ENDBRANCH  60  83
ENDBRANCH  34  35
ENDBRANCH  26  29
ENDBRANCH   1  25
TORSDOF 14
