REMARK SMILES CN1C(=O)C[C@H](C(=O)Nc2ccc(C(=O)NCCCNC(=O)c3ccc(-c4c5nc(c(-c6cc(S(=O)(=O)[O-])ccc6F)c6ccc([nH]6)c(-c6cc(S(=O)(=O)[O-])ccc6F)c6nc(c(-c7cc(S(=O)(=O)[O-])ccc7F)c7ccc4[nH]7)C=C6)C=C5)cc3)cc2)S/C1=[NH+]\c1cccc(C(F)(F)F)c1
REMARK SMILES IDX 17 1 16 2 14 3 15 4 13 6 10 7 11 8 87 9 12 10 86 11 9 12
REMARK SMILES IDX 7 13 8 14 6 16 1 17 2 18 3 19 89 20 4 21 5 22 88 23 90 24
REMARK SMILES IDX 91 26 92 27 100 28 93 29 95 30 94 31 96 32 97 33 98 34 99 35
REMARK SMILES IDX 18 36 19 37 20 38 21 39 22 41 23 42 24 43 85 44 25 45 84 46
REMARK SMILES IDX 26 47 27 48 28 49 78 50 29 51 83 52 77 53 79 54 30 55 82 56
REMARK SMILES IDX 76 57 75 58 31 60 63 61 43 62 62 63 44 64 47 65 61 66 80 67
REMARK SMILES IDX 45 68 46 69 60 71 81 72 48 73 32 74 33 75 41 76 34 77 40 78
REMARK SMILES IDX 42 79 39 80 35 81 36 82 37 83 38 84 64 85 65 86 73 87 66 88
REMARK SMILES IDX 72 89 74 90 71 91 67 92 68 93 69 94 70 95 49 96 50 97 58 98
REMARK SMILES IDX 51 99 57 100 59 101 56 102 52 103 53 104 54 105 55 106
REMARK H PARENT 16 5 9 15 90 25 20 40 79 59 47 70
REMARK Flexibility Score: inf
ROOT
ATOM      1  C   UNL     1      -5.563   3.558  -4.268  1.00  0.00     0.118 C 
ENDROOT
BRANCH   1   2
ATOM      2  N   UNL     1      -6.522   4.504  -3.701  1.00  0.00    -0.352 N 
ATOM      3  C   UNL     1      -6.537   5.248  -2.543  1.00  0.00     0.251 C 
ATOM      4  O   UNL     1      -7.423   6.092  -2.405  1.00  0.00    -0.269 OA
ATOM      5  H   UNL     1      -7.320   4.636  -4.262  1.00  0.00     0.163 HD
BRANCH   3   6
ATOM      6  C   UNL     1      -5.521   5.108  -1.466  1.00  0.00     0.039 A 
ATOM      7  C   UNL     1      -3.538   4.949   0.549  1.00  0.00     0.041 A 
ATOM      8  C   UNL     1      -4.248   6.131   0.367  1.00  0.00     0.027 A 
ATOM      9  C   UNL     1      -3.959   3.832  -0.159  1.00  0.00     0.027 A 
ATOM     10  C   UNL     1      -5.223   6.213  -0.647  1.00  0.00     0.016 A 
ATOM     11  C   UNL     1      -4.927   3.896  -1.161  1.00  0.00     0.016 A 
BRANCH   7  12
ATOM     12  N   UNL     1      -2.527   4.856   1.522  1.00  0.00    -0.325 N 
ATOM     13  C   UNL     1      -1.360   4.113   1.519  1.00  0.00     0.238 C 
ATOM     14  O   UNL     1      -0.825   3.859   2.602  1.00  0.00    -0.273 OA
ATOM     15  H   UNL     1      -2.671   5.403   2.327  1.00  0.00     0.169 HD
BRANCH  13  16
ATOM     16  C   UNL     1      -0.635   3.820   0.191  1.00  0.00     0.160 C 
ATOM     17  C   UNL     1       1.289  -0.117   0.877  1.00  0.00     0.301 C 
ATOM     18  N   UNL     1       0.681   1.183   0.643  1.00  0.00    -0.194 N 
ATOM     19  C   UNL     1       1.494   2.307   0.587  1.00  0.00     0.311 C 
ATOM     20  C   UNL     1      -0.691   1.196   0.480  1.00  0.00     0.319 C 
ATOM     21  O   UNL     1       2.722   2.240   0.717  1.00  0.00    -0.247 OA
ATOM     22  C   UNL     1       0.876   3.688   0.365  1.00  0.00     0.153 C 
ATOM     23  S   UNL     1      -1.212   2.372  -0.680  1.00  0.00    -0.024 SA
ATOM     24  N   UNL     1      -1.433   0.349   1.117  1.00  0.00    -0.235 N 
ATOM     25  H   UNL     1      -0.997  -0.392   1.597  1.00  0.00     0.313 HD
BRANCH  24  26
ATOM     26  C   UNL     1      -2.830   0.441   1.152  1.00  0.00     0.126 A 
ATOM     27  C   UNL     1      -3.428   0.853   2.351  1.00  0.00     0.052 A 
ATOM     28  C   UNL     1      -3.648   0.122   0.066  1.00  0.00     0.064 A 
ATOM     29  C   UNL     1      -4.812   0.988   2.458  1.00  0.00     0.005 A 
ATOM     30  C   UNL     1      -5.044   0.293   0.147  1.00  0.00     0.060 A 
ATOM     31  C   UNL     1      -5.617   0.718   1.357  1.00  0.00     0.013 A 
BRANCH  30  32
ATOM     32  C   UNL     1      -5.924   0.068  -1.054  1.00  0.00     0.416 C 
ATOM     33  F   UNL     1      -6.600  -1.106  -1.019  1.00  0.00    -0.166 F 
ATOM     34  F   UNL     1      -6.866   1.047  -1.183  1.00  0.00    -0.166 F 
ATOM     35  F   UNL     1      -5.231   0.084  -2.227  1.00  0.00    -0.166 F 
ENDBRANCH  30  32
ENDBRANCH  24  26
ENDBRANCH  13  16
ENDBRANCH   7  12
ENDBRANCH   3   6
ENDBRANCH   1   2
BRANCH   1  36
ATOM     36  C   UNL     1      -6.118   2.133  -4.299  1.00  0.00     0.042 C 
BRANCH  36  37
ATOM     37  C   UNL     1      -7.101   1.867  -5.440  1.00  0.00     0.118 C 
BRANCH  37  38
ATOM     38  N   UNL     1      -6.422   1.532  -6.684  1.00  0.00    -0.352 N 
ATOM     39  C   UNL     1      -6.295   0.338  -7.358  1.00  0.00     0.251 C 
ATOM     40  H   UNL     1      -5.976   2.293  -7.121  1.00  0.00     0.163 HD
ATOM     41  O   UNL     1      -5.464   0.273  -8.264  1.00  0.00    -0.269 OA
BRANCH  39  42
ATOM     42  C   UNL     1      -7.109  -0.862  -7.024  1.00  0.00     0.039 A 
ATOM     43  C   UNL     1      -6.538  -2.130  -7.200  1.00  0.00     0.014 A 
ATOM     44  C   UNL     1      -8.445  -0.775  -6.630  1.00  0.00     0.014 A 
ATOM     45  C   UNL     1      -7.281  -3.290  -6.939  1.00  0.00     0.010 A 
ATOM     46  C   UNL     1      -9.159  -1.928  -6.288  1.00  0.00     0.010 A 
ATOM     47  C   UNL     1      -8.594  -3.203  -6.451  1.00  0.00    -0.014 A 
BRANCH  47  48
ATOM     48  C   UNL     1      -9.409  -4.419  -6.154  1.00  0.00     0.031 A 
ATOM     49  C   UNL     1     -10.697  -4.664  -6.902  1.00  0.00     0.074 A 
ATOM     50  C   UNL     1      -9.034  -5.275  -5.181  1.00  0.00     0.049 A 
ATOM     51  N   UNL     1     -11.620  -5.571  -6.699  1.00  0.00    -0.248 NA
ATOM     52  C   UNL     1     -10.998  -3.743  -8.008  1.00  0.00     0.031 C 
ATOM     53  C   UNL     1      -7.819  -5.158  -4.373  1.00  0.00     0.029 A 
ATOM     54  N   UNL     1      -9.642  -6.409  -4.698  1.00  0.00    -0.354 N 
ATOM     55  C   UNL     1     -12.621  -5.314  -7.632  1.00  0.00     0.074 A 
ATOM     56  C   UNL     1     -12.215  -4.130  -8.361  1.00  0.00     0.031 C 
ATOM     57  C   UNL     1      -7.761  -6.187  -3.512  1.00  0.00     0.029 A 
ATOM     58  C   UNL     1      -8.959  -7.008  -3.663  1.00  0.00     0.049 A 
ATOM     59  H   UNL     1     -10.488  -6.760  -5.058  1.00  0.00     0.167 HD
ATOM     60  C   UNL     1     -13.760  -6.010  -7.878  1.00  0.00     0.034 A 
ATOM     61  C   UNL     1      -9.269  -8.082  -2.908  1.00  0.00     0.034 A 
ATOM     62  C   UNL     1     -14.144  -7.205  -7.165  1.00  0.00     0.049 A 
ATOM     63  C   UNL     1     -10.561  -8.818  -3.171  1.00  0.00     0.074 A 
ATOM     64  C   UNL     1     -15.258  -8.004  -7.357  1.00  0.00     0.029 A 
ATOM     65  N   UNL     1     -13.424  -7.776  -6.124  1.00  0.00    -0.354 N 
ATOM     66  N   UNL     1     -11.489  -8.565  -4.065  1.00  0.00    -0.248 NA
ATOM     67  C   UNL     1     -10.843  -9.987  -2.327  1.00  0.00     0.031 C 
ATOM     68  C   UNL     1     -15.241  -9.023  -6.398  1.00  0.00     0.029 A 
ATOM     69  C   UNL     1     -14.080  -8.903  -5.653  1.00  0.00     0.049 A 
ATOM     70  H   UNL     1     -12.572  -7.431  -5.772  1.00  0.00     0.167 HD
ATOM     71  C   UNL     1     -12.444  -9.568  -3.913  1.00  0.00     0.074 A 
ATOM     72  C   UNL     1     -11.976 -10.432  -2.850  1.00  0.00     0.031 C 
ATOM     73  C   UNL     1     -13.601  -9.760  -4.595  1.00  0.00     0.034 A 
BRANCH  60  74
ATOM     74  C   UNL     1     -14.681  -5.479  -8.953  1.00  0.00     0.023 A 
ATOM     75  C   UNL     1     -14.274  -5.395 -10.296  1.00  0.00     0.031 A 
ATOM     76  C   UNL     1     -15.974  -5.029  -8.629  1.00  0.00     0.131 A 
ATOM     77  C   UNL     1     -15.116  -4.799 -11.248  1.00  0.00     0.055 A 
ATOM     78  C   UNL     1     -16.840  -4.517  -9.598  1.00  0.00     0.041 A 
ATOM     79  F   UNL     1     -16.415  -5.068  -7.362  1.00  0.00    -0.206 F 
ATOM     80  C   UNL     1     -16.406  -4.383 -10.914  1.00  0.00     0.022 A 
BRANCH  77  81
ATOM     81  S   UNL     1     -14.441  -4.442 -12.893  1.00  0.00     0.124 S 
ATOM     82  O   UNL     1     -13.331  -3.550 -12.567  1.00  0.00    -0.237 OA
ATOM     83  O   UNL     1     -14.078  -5.766 -13.380  1.00  0.00    -0.237 OA
ATOM     84  O   UNL     1     -15.558  -3.804 -13.589  1.00  0.00    -0.744 OA
ENDBRANCH  77  81
ENDBRANCH  60  74
BRANCH  61  85
ATOM     85  C   UNL     1      -8.358  -8.532  -1.813  1.00  0.00     0.023 A 
ATOM     86  C   UNL     1      -7.744  -9.793  -1.861  1.00  0.00     0.031 A 
ATOM     87  C   UNL     1      -8.138  -7.736  -0.676  1.00  0.00     0.131 A 
ATOM     88  C   UNL     1      -6.984 -10.245  -0.771  1.00  0.00     0.055 A 
ATOM     89  C   UNL     1      -7.334  -8.165   0.382  1.00  0.00     0.041 A 
ATOM     90  F   UNL     1      -8.701  -6.521  -0.577  1.00  0.00    -0.206 F 
ATOM     91  C   UNL     1      -6.764  -9.434   0.344  1.00  0.00     0.022 A 
BRANCH  88  92
ATOM     92  S   UNL     1      -6.372 -11.953  -0.788  1.00  0.00     0.124 S 
ATOM     93  O   UNL     1      -7.608 -12.710  -0.950  1.00  0.00    -0.237 OA
ATOM     94  O   UNL     1      -5.471 -11.939  -1.936  1.00  0.00    -0.237 OA
ATOM     95  O   UNL     1      -5.720 -12.093   0.512  1.00  0.00    -0.744 OA
ENDBRANCH  88  92
ENDBRANCH  61  85
BRANCH  73  96
ATOM     96  C   UNL     1     -14.406 -10.990  -4.254  1.00  0.00     0.023 A 
ATOM     97  C   UNL     1     -15.059 -11.132  -3.018  1.00  0.00     0.031 A 
ATOM     98  C   UNL     1     -14.517 -12.037  -5.187  1.00  0.00     0.131 A 
ATOM     99  C   UNL     1     -15.755 -12.316  -2.728  1.00  0.00     0.055 A 
ATOM    100  C   UNL     1     -15.256 -13.189  -4.914  1.00  0.00     0.041 A 
ATOM    101  F   UNL     1     -13.913 -11.953  -6.383  1.00  0.00    -0.206 F 
ATOM    102  C   UNL     1     -15.870 -13.338  -3.674  1.00  0.00     0.022 A 
BRANCH  99 103
ATOM    103  S   UNL     1     -16.448 -12.537  -1.066  1.00  0.00     0.124 S 
ATOM    104  O   UNL     1     -15.257 -12.450  -0.226  1.00  0.00    -0.237 OA
ATOM    105  O   UNL     1     -17.382 -11.421  -0.965  1.00  0.00    -0.237 OA
ATOM    106  O   UNL     1     -17.069 -13.860  -1.126  1.00  0.00    -0.744 OA
ENDBRANCH  99 103
ENDBRANCH  73  96
ENDBRANCH  47  48
ENDBRANCH  39  42
ENDBRANCH  37  38
ENDBRANCH  36  37
ENDBRANCH   1  36
TORSDOF 17
