REMARK SMILES Cc1cc(Br)cc2c1O[C@H](C(F)(F)F)C(C(=O)NCCCNC(=O)c1ccc(-c3c4nc(c(-c5cc(S(=O)(=O)[O-])ccc5F)c5ccc([nH]5)c(-c5cc(S(=O)(=O)[O-])ccc5F)c5nc(c(-c6cc(S(=O)(=O)[O-])ccc6F)c6ccc3[nH]6)C=C5)C=C4)cc1)=C2
REMARK SMILES IDX 21 1 20 2 19 3 18 4 16 5 17 6 15 8 1 9 2 10 3 11 8 12 4 13
REMARK SMILES IDX 7 14 9 15 5 16 6 17 88 18 10 19 11 20 12 21 13 22 14 23
REMARK SMILES IDX 22 24 23 25 24 27 25 28 26 29 87 30 27 31 86 32 28 33 29 34
REMARK SMILES IDX 30 35 80 36 31 37 85 38 79 39 81 40 32 41 84 42 78 43 77 44
REMARK SMILES IDX 33 46 65 47 45 48 64 49 46 50 49 51 63 52 82 53 47 54 48 55
REMARK SMILES IDX 62 57 83 58 50 59 34 60 35 61 43 62 36 63 42 64 44 65 41 66
REMARK SMILES IDX 37 67 38 68 39 69 40 70 66 71 67 72 75 73 68 74 74 75 76 76
REMARK SMILES IDX 73 77 69 78 70 79 71 80 72 81 51 82 52 83 60 84 53 85 59 86
REMARK SMILES IDX 61 87 58 88 54 89 55 90 56 91 57 92
REMARK H PARENT 18 7 22 26 81 45 49 56
REMARK Flexibility Score: inf
ROOT
ATOM      1  C   UNL     1       7.319  -5.327   3.503  1.00  0.00     0.118 C 
ENDROOT
BRANCH   1   2
ATOM      2  C   UNL     1       6.353  -4.294   2.937  1.00  0.00     0.042 C 
BRANCH   2   3
ATOM      3  C   UNL     1       6.041  -4.546   1.470  1.00  0.00     0.118 C 
BRANCH   3   4
ATOM      4  N   UNL     1       5.074  -5.620   1.295  1.00  0.00    -0.352 N 
ATOM      5  C   UNL     1       3.774  -5.738   0.941  1.00  0.00     0.251 C 
ATOM      6  O   UNL     1       3.337  -6.893   0.909  1.00  0.00    -0.270 OA
ATOM      7  H   UNL     1       5.475  -6.499   1.486  1.00  0.00     0.163 HD
BRANCH   5   8
ATOM      8  C   UNL     1       2.875  -4.600   0.592  1.00  0.00     0.067 C 
ATOM      9  C   UNL     1       0.617  -0.033  -0.064  1.00  0.00     0.048 C 
ATOM     10  C   UNL     1       0.203  -1.466  -0.241  1.00  0.00    -0.007 A 
ATOM     11  C   UNL     1      -1.079  -1.773  -0.713  1.00  0.00     0.023 A 
ATOM     12  C   UNL     1       1.062  -2.519   0.102  1.00  0.00     0.130 A 
ATOM     13  C   UNL     1      -1.476  -3.104  -0.851  1.00  0.00     0.019 A 
ATOM     14  C   UNL     1       0.667  -3.854  -0.038  1.00  0.00     0.019 A 
ATOM     15  O   UNL     1       2.281  -2.186   0.624  1.00  0.00    -0.475 OA
ATOM     16  Br  UNL     1      -3.212  -3.497  -1.490  1.00  0.00    -0.051 Br
ATOM     17  C   UNL     1      -0.612  -4.146  -0.517  1.00  0.00     0.027 A 
ATOM     18  C   UNL     1       1.589  -4.917   0.347  1.00  0.00     0.025 C 
ATOM     19  C   UNL     1       3.331  -3.175   0.473  1.00  0.00     0.314 C 
BRANCH  19  20
ATOM     20  C   UNL     1       4.101  -2.906  -0.835  1.00  0.00     0.429 C 
ATOM     21  F   UNL     1       4.804  -1.750  -0.744  1.00  0.00    -0.167 F 
ATOM     22  F   UNL     1       4.999  -3.879  -1.123  1.00  0.00    -0.167 F 
ATOM     23  F   UNL     1       3.287  -2.801  -1.910  1.00  0.00    -0.167 F 
ENDBRANCH  19  20
ENDBRANCH   5   8
ENDBRANCH   3   4
ENDBRANCH   2   3
ENDBRANCH   1   2
BRANCH   1  24
ATOM     24  N   UNL     1       8.624  -5.256   2.852  1.00  0.00    -0.352 N 
ATOM     25  C   UNL     1       9.809  -4.729   3.302  1.00  0.00     0.251 C 
ATOM     26  H   UNL     1       8.660  -5.648   1.949  1.00  0.00     0.163 HD
ATOM     27  O   UNL     1      10.707  -4.488   2.496  1.00  0.00    -0.269 OA
BRANCH  25  28
ATOM     28  C   UNL     1       9.995  -4.450   4.738  1.00  0.00     0.039 A 
ATOM     29  C   UNL     1      10.681  -3.300   5.133  1.00  0.00     0.014 A 
ATOM     30  C   UNL     1       9.511  -5.344   5.697  1.00  0.00     0.014 A 
ATOM     31  C   UNL     1      10.823  -3.018   6.493  1.00  0.00     0.010 A 
ATOM     32  C   UNL     1       9.562  -5.010   7.043  1.00  0.00     0.010 A 
ATOM     33  C   UNL     1      10.233  -3.853   7.456  1.00  0.00    -0.014 A 
BRANCH  33  34
ATOM     34  C   UNL     1      10.343  -3.558   8.905  1.00  0.00     0.031 A 
ATOM     35  C   UNL     1      11.064  -4.522   9.808  1.00  0.00     0.074 A 
ATOM     36  C   UNL     1       9.761  -2.451   9.407  1.00  0.00     0.049 A 
ATOM     37  N   UNL     1      11.216  -4.479  11.106  1.00  0.00    -0.248 NA
ATOM     38  C   UNL     1      11.666  -5.707   9.174  1.00  0.00     0.031 C 
ATOM     39  C   UNL     1       9.006  -1.466   8.628  1.00  0.00     0.029 A 
ATOM     40  N   UNL     1       9.717  -1.962  10.687  1.00  0.00    -0.354 N 
ATOM     41  C   UNL     1      11.924  -5.628  11.441  1.00  0.00     0.074 A 
ATOM     42  C   UNL     1      12.107  -6.384  10.223  1.00  0.00     0.031 C 
ATOM     43  C   UNL     1       8.619  -0.468   9.438  1.00  0.00     0.029 A 
ATOM     44  C   UNL     1       9.054  -0.762  10.799  1.00  0.00     0.049 A 
ATOM     45  H   UNL     1      10.123  -2.427  11.455  1.00  0.00     0.167 HD
ATOM     46  C   UNL     1      12.408  -5.999  12.649  1.00  0.00     0.034 A 
ATOM     47  C   UNL     1       8.824   0.012  11.878  1.00  0.00     0.034 A 
ATOM     48  C   UNL     1      12.248  -5.218  13.846  1.00  0.00     0.049 A 
ATOM     49  C   UNL     1       9.345  -0.439  13.217  1.00  0.00     0.074 A 
ATOM     50  C   UNL     1      12.742  -5.474  15.112  1.00  0.00     0.029 A 
ATOM     51  N   UNL     1      11.543  -4.024  13.924  1.00  0.00    -0.354 N 
ATOM     52  N   UNL     1      10.031  -1.518  13.511  1.00  0.00    -0.248 NA
ATOM     53  C   UNL     1       9.060   0.427  14.368  1.00  0.00     0.031 C 
ATOM     54  C   UNL     1      12.287  -4.467  15.968  1.00  0.00     0.029 A 
ATOM     55  C   UNL     1      11.564  -3.548  15.223  1.00  0.00     0.049 A 
ATOM     56  H   UNL     1      11.095  -3.582  13.167  1.00  0.00     0.167 HD
ATOM     57  C   UNL     1      10.275  -1.452  14.879  1.00  0.00     0.074 A 
ATOM     58  C   UNL     1       9.670  -0.223  15.351  1.00  0.00     0.031 C 
ATOM     59  C   UNL     1      10.942  -2.327  15.672  1.00  0.00     0.034 A 
BRANCH  46  60
ATOM     60  C   UNL     1      13.159  -7.302  12.731  1.00  0.00     0.023 A 
ATOM     61  C   UNL     1      14.400  -7.471  12.094  1.00  0.00     0.031 A 
ATOM     62  C   UNL     1      12.638  -8.381  13.465  1.00  0.00     0.131 A 
ATOM     63  C   UNL     1      15.057  -8.708  12.162  1.00  0.00     0.055 A 
ATOM     64  C   UNL     1      13.329  -9.588  13.585  1.00  0.00     0.041 A 
ATOM     65  F   UNL     1      11.447  -8.279  14.077  1.00  0.00    -0.206 F 
ATOM     66  C   UNL     1      14.542  -9.759  12.924  1.00  0.00     0.022 A 
BRANCH  63  67
ATOM     67  S   UNL     1      16.554  -8.950  11.169  1.00  0.00     0.124 S 
ATOM     68  O   UNL     1      16.026  -8.845   9.812  1.00  0.00    -0.237 OA
ATOM     69  O   UNL     1      17.408  -7.852  11.608  1.00  0.00    -0.237 OA
ATOM     70  O   UNL     1      17.008 -10.285  11.555  1.00  0.00    -0.744 OA
ENDBRANCH  63  67
ENDBRANCH  46  60
BRANCH  47  71
ATOM     71  C   UNL     1       8.073   1.290  11.733  1.00  0.00     0.023 A 
ATOM     72  C   UNL     1       8.716   2.525  11.907  1.00  0.00     0.031 A 
ATOM     73  C   UNL     1       6.705   1.295  11.409  1.00  0.00     0.131 A 
ATOM     74  C   UNL     1       7.986   3.716  11.777  1.00  0.00     0.055 A 
ATOM     75  C   UNL     1       5.992   2.483  11.243  1.00  0.00     0.041 A 
ATOM     76  F   UNL     1       6.048   0.139  11.221  1.00  0.00    -0.206 F 
ATOM     77  C   UNL     1       6.632   3.704  11.433  1.00  0.00     0.022 A 
BRANCH  74  78
ATOM     78  S   UNL     1       8.827   5.292  12.092  1.00  0.00     0.124 S 
ATOM     79  O   UNL     1       9.178   5.164  13.501  1.00  0.00    -0.237 OA
ATOM     80  O   UNL     1       9.937   5.240  11.145  1.00  0.00    -0.237 OA
ATOM     81  O   UNL     1       7.803   6.290  11.791  1.00  0.00    -0.744 OA
ENDBRANCH  74  78
ENDBRANCH  47  71
BRANCH  59  82
ATOM     82  C   UNL     1      11.067  -1.986  17.131  1.00  0.00     0.023 A 
ATOM     83  C   UNL     1       9.967  -2.087  17.998  1.00  0.00     0.031 A 
ATOM     84  C   UNL     1      12.316  -1.633  17.671  1.00  0.00     0.131 A 
ATOM     85  C   UNL     1      10.134  -1.820  19.364  1.00  0.00     0.055 A 
ATOM     86  C   UNL     1      12.485  -1.412  19.037  1.00  0.00     0.041 A 
ATOM     87  F   UNL     1      13.397  -1.531  16.881  1.00  0.00    -0.206 F 
ATOM     88  C   UNL     1      11.389  -1.502  19.892  1.00  0.00     0.022 A 
BRANCH  85  89
ATOM     89  S   UNL     1       8.681  -1.878  20.446  1.00  0.00     0.124 S 
ATOM     90  O   UNL     1       7.885  -0.764  19.940  1.00  0.00    -0.237 OA
ATOM     91  O   UNL     1       8.147  -3.211  20.189  1.00  0.00    -0.237 OA
ATOM     92  O   UNL     1       9.241  -1.684  21.782  1.00  0.00    -0.744 OA
ENDBRANCH  85  89
ENDBRANCH  59  82
ENDBRANCH  33  34
ENDBRANCH  25  28
ENDBRANCH   1  24
TORSDOF 14
