REMARK SMILES O=C(NCCCNC(=O)c1ccc(C[NH2+][C@H]2CCCNC2=O)nc1)c1ccc(-c2c3nc(c(-c4cc(S(=O)(=O)[O-])ccc4F)c4ccc([nH]4)c(-c4cc(S(=O)(=O)[O-])ccc4F)c4nc(c(-c5cc(S(=O)(=O)[O-])ccc5F)c5ccc2[nH]5)C=C4)C=C3)cc1
REMARK SMILES IDX 5 1 4 2 3 3 1 4 2 5 25 7 26 8 87 9 27 10 86 11 28 12 29 13
REMARK SMILES IDX 30 14 80 15 31 16 85 17 79 18 81 19 32 20 84 21 78 22 77 23
REMARK SMILES IDX 33 25 65 26 45 27 64 28 46 29 49 30 63 31 82 32 47 33 48 34
REMARK SMILES IDX 62 36 83 37 50 38 34 39 35 40 43 41 36 42 42 43 44 44 41 45
REMARK SMILES IDX 37 46 38 47 39 48 40 49 66 50 67 51 75 52 68 53 74 54 76 55
REMARK SMILES IDX 73 56 69 57 70 58 71 59 72 60 51 61 52 62 60 63 53 64 59 65
REMARK SMILES IDX 61 66 58 67 54 68 55 69 56 70 57 71 6 72 7 73 8 74 9 76
REMARK SMILES IDX 10 77 11 78 24 79 12 80 23 81 13 82 14 83 15 84 16 87 17 88
REMARK SMILES IDX 21 89 18 90 20 91 22 92 19 93
REMARK H PARENT 3 6 81 24 49 35 7 75 15 85 15 86 20 94
REMARK Flexibility Score: inf
ROOT
ATOM      1  C   UNL     1       4.913   2.565   0.316  1.00  0.00     0.042 C 
ENDROOT
BRANCH   1   2
ATOM      2  C   UNL     1       4.575   1.150   0.764  1.00  0.00     0.118 C 
BRANCH   2   3
ATOM      3  N   UNL     1       3.148   0.869   0.677  1.00  0.00    -0.352 N 
ATOM      4  O   UNL     1       1.247   0.055  -0.199  1.00  0.00    -0.269 OA
ATOM      5  C   UNL     1       2.471  -0.023  -0.118  1.00  0.00     0.251 C 
ATOM      6  H   UNL     1       2.582   1.401   1.281  1.00  0.00     0.163 HD
BRANCH   5   7
ATOM      7  C   UNL     1       3.202  -1.067  -0.869  1.00  0.00     0.039 A 
ATOM      8  C   UNL     1       4.271  -1.750  -0.284  1.00  0.00     0.014 A 
ATOM      9  C   UNL     1       2.772  -1.412  -2.154  1.00  0.00     0.014 A 
ATOM     10  C   UNL     1       4.983  -2.689  -1.021  1.00  0.00     0.010 A 
ATOM     11  C   UNL     1       3.433  -2.421  -2.861  1.00  0.00     0.010 A 
ATOM     12  C   UNL     1       4.550  -3.060  -2.302  1.00  0.00    -0.014 A 
BRANCH  12  13
ATOM     13  C   UNL     1       5.206  -4.206  -2.979  1.00  0.00     0.031 A 
ATOM     14  C   UNL     1       5.987  -4.020  -4.248  1.00  0.00     0.074 A 
ATOM     15  C   UNL     1       5.087  -5.426  -2.416  1.00  0.00     0.049 A 
ATOM     16  N   UNL     1       6.612  -4.918  -4.964  1.00  0.00    -0.248 NA
ATOM     17  C   UNL     1       6.074  -2.655  -4.788  1.00  0.00     0.031 C 
ATOM     18  C   UNL     1       4.334  -5.714  -1.190  1.00  0.00     0.029 A 
ATOM     19  N   UNL     1       5.592  -6.645  -2.784  1.00  0.00    -0.354 N 
ATOM     20  C   UNL     1       7.150  -4.237  -6.050  1.00  0.00     0.074 A 
ATOM     21  C   UNL     1       6.764  -2.848  -5.905  1.00  0.00     0.031 C 
ATOM     22  C   UNL     1       4.454  -7.015  -0.893  1.00  0.00     0.029 A 
ATOM     23  C   UNL     1       5.227  -7.669  -1.940  1.00  0.00     0.049 A 
ATOM     24  H   UNL     1       6.162  -6.776  -3.576  1.00  0.00     0.167 HD
ATOM     25  C   UNL     1       7.895  -4.732  -7.068  1.00  0.00     0.034 A 
ATOM     26  C   UNL     1       5.455  -8.993  -2.019  1.00  0.00     0.034 A 
ATOM     27  C   UNL     1       8.282  -6.119  -7.179  1.00  0.00     0.049 A 
ATOM     28  C   UNL     1       6.255  -9.513  -3.181  1.00  0.00     0.074 A 
ATOM     29  C   UNL     1       9.108  -6.708  -8.122  1.00  0.00     0.029 A 
ATOM     30  N   UNL     1       7.856  -7.135  -6.335  1.00  0.00    -0.354 N 
ATOM     31  N   UNL     1       6.803  -8.842  -4.168  1.00  0.00    -0.248 NA
ATOM     32  C   UNL     1       6.465 -10.964  -3.244  1.00  0.00     0.031 C 
ATOM     33  C   UNL     1       9.124  -8.088  -7.889  1.00  0.00     0.029 A 
ATOM     34  C   UNL     1       8.361  -8.354  -6.763  1.00  0.00     0.049 A 
ATOM     35  H   UNL     1       7.279  -7.010  -5.547  1.00  0.00     0.167 HD
ATOM     36  C   UNL     1       7.426  -9.793  -4.968  1.00  0.00     0.074 A 
ATOM     37  C   UNL     1       7.215 -11.077  -4.330  1.00  0.00     0.031 C 
ATOM     38  C   UNL     1       8.109  -9.625  -6.129  1.00  0.00     0.034 A 
BRANCH  25  39
ATOM     39  C   UNL     1       8.306  -3.789  -8.170  1.00  0.00     0.023 A 
ATOM     40  C   UNL     1       9.243  -2.763  -7.965  1.00  0.00     0.031 A 
ATOM     41  C   UNL     1       7.769  -3.947  -9.461  1.00  0.00     0.131 A 
ATOM     42  C   UNL     1       9.589  -1.911  -9.027  1.00  0.00     0.055 A 
ATOM     43  C   UNL     1       8.160  -3.133 -10.526  1.00  0.00     0.041 A 
ATOM     44  F   UNL     1       6.856  -4.899  -9.708  1.00  0.00    -0.206 F 
ATOM     45  C   UNL     1       9.071  -2.104 -10.310  1.00  0.00     0.022 A 
BRANCH  42  46
ATOM     46  S   UNL     1      10.671  -0.494  -8.693  1.00  0.00     0.124 S 
ATOM     47  O   UNL     1       9.875   0.266  -7.733  1.00  0.00    -0.237 OA
ATOM     48  O   UNL     1      11.872  -1.130  -8.165  1.00  0.00    -0.237 OA
ATOM     49  O   UNL     1      10.825   0.137 -10.003  1.00  0.00    -0.744 OA
ENDBRANCH  42  46
ENDBRANCH  25  39
BRANCH  26  50
ATOM     50  C   UNL     1       4.868  -9.922  -1.012  1.00  0.00     0.023 A 
ATOM     51  C   UNL     1       5.682 -10.707  -0.183  1.00  0.00     0.031 A 
ATOM     52  C   UNL     1       3.473 -10.068  -0.897  1.00  0.00     0.131 A 
ATOM     53  C   UNL     1       5.097 -11.635   0.693  1.00  0.00     0.055 A 
ATOM     54  C   UNL     1       2.895 -10.950   0.015  1.00  0.00     0.041 A 
ATOM     55  F   UNL     1       2.647  -9.341  -1.667  1.00  0.00    -0.206 F 
ATOM     56  C   UNL     1       3.710 -11.752   0.807  1.00  0.00     0.022 A 
BRANCH  53  57
ATOM     57  S   UNL     1       6.180 -12.765   1.609  1.00  0.00     0.124 S 
ATOM     58  O   UNL     1       6.978 -13.350   0.537  1.00  0.00    -0.237 OA
ATOM     59  O   UNL     1       6.881 -11.850   2.504  1.00  0.00    -0.237 OA
ATOM     60  O   UNL     1       5.244 -13.679   2.260  1.00  0.00    -0.744 OA
ENDBRANCH  53  57
ENDBRANCH  26  50
BRANCH  38  61
ATOM     61  C   UNL     1       8.671 -10.870  -6.762  1.00  0.00     0.023 A 
ATOM     62  C   UNL     1       7.828 -11.845  -7.324  1.00  0.00     0.031 A 
ATOM     63  C   UNL     1      10.056 -11.101  -6.772  1.00  0.00     0.131 A 
ATOM     64  C   UNL     1       8.375 -13.034  -7.823  1.00  0.00     0.055 A 
ATOM     65  C   UNL     1      10.600 -12.262  -7.323  1.00  0.00     0.041 A 
ATOM     66  F   UNL     1      10.903 -10.203  -6.245  1.00  0.00    -0.206 F 
ATOM     67  C   UNL     1       9.757 -13.243  -7.840  1.00  0.00     0.022 A 
BRANCH  64  68
ATOM     68  S   UNL     1       7.249 -14.344  -8.377  1.00  0.00     0.124 S 
ATOM     69  O   UNL     1       6.517 -14.651  -7.152  1.00  0.00    -0.237 OA
ATOM     70  O   UNL     1       6.484 -13.678  -9.426  1.00  0.00    -0.237 OA
ATOM     71  O   UNL     1       8.150 -15.396  -8.841  1.00  0.00    -0.744 OA
ENDBRANCH  64  68
ENDBRANCH  38  61
ENDBRANCH  12  13
ENDBRANCH   5   7
ENDBRANCH   2   3
ENDBRANCH   1   2
BRANCH   1  72
ATOM     72  C   UNL     1       4.277   3.647   1.179  1.00  0.00     0.118 C 
BRANCH  72  73
ATOM     73  N   UNL     1       4.792   3.643   2.542  1.00  0.00    -0.352 N 
ATOM     74  C   UNL     1       5.697   4.495   3.123  1.00  0.00     0.252 C 
ATOM     75  H   UNL     1       4.443   2.931   3.126  1.00  0.00     0.163 HD
ATOM     76  O   UNL     1       6.168   4.256   4.230  1.00  0.00    -0.269 OA
BRANCH  74  77
ATOM     77  C   UNL     1       6.105   5.703   2.400  1.00  0.00     0.058 A 
ATOM     78  C   UNL     1       5.172   6.647   1.975  1.00  0.00     0.017 A 
ATOM     79  C   UNL     1       7.441   5.903   2.108  1.00  0.00     0.125 A 
ATOM     80  C   UNL     1       5.603   7.713   1.194  1.00  0.00     0.030 A 
ATOM     81  N   UNL     1       7.884   6.932   1.349  1.00  0.00    -0.255 NA
ATOM     82  C   UNL     1       6.960   7.810   0.879  1.00  0.00     0.094 A 
BRANCH  82  83
ATOM     83  C   UNL     1       7.446   8.927  -0.025  1.00  0.00     0.318 C 
BRANCH  83  84
ATOM     84  N   UNL     1       7.709  10.161   0.712  1.00  0.00    -0.331 N 
ATOM     85  H   UNL     1       8.423   9.973   1.416  1.00  0.00     0.347 HD
ATOM     86  H   UNL     1       6.828  10.457   1.134  1.00  0.00     0.347 HD
BRANCH  84  87
ATOM     87  C   UNL     1       8.176  11.258  -0.150  1.00  0.00     0.272 C 
ATOM     88  C   UNL     1       7.052  11.892  -0.984  1.00  0.00     0.077 C 
ATOM     89  C   UNL     1       8.845  12.310   0.762  1.00  0.00     0.278 C 
ATOM     90  C   UNL     1       6.086  12.685  -0.110  1.00  0.00     0.028 C 
ATOM     91  N   UNL     1       8.072  13.353   1.204  1.00  0.00    -0.351 N 
ATOM     92  O   UNL     1      10.000  12.211   1.174  1.00  0.00    -0.268 OA
ATOM     93  C   UNL     1       6.842  13.796   0.596  1.00  0.00     0.116 C 
ATOM     94  H   UNL     1       8.382  13.838   2.002  1.00  0.00     0.163 HD
ENDBRANCH  84  87
ENDBRANCH  83  84
ENDBRANCH  82  83
ENDBRANCH  74  77
ENDBRANCH  72  73
ENDBRANCH   1  72
TORSDOF 16
