REMARK SMILES C[C@@](O)(c1ccc(Cl)cc1Cl)[C@@H](F)C(=O)NCCCNC(=O)c1ccc(-c2c3nc(c(-c4cc(S(=O)(=O)[O-])ccc4F)c4ccc([nH]4)c(-c4cc(S(=O)(=O)[O-])ccc4F)c4nc(c(-c5cc(S(=O)(=O)[O-])ccc5F)c5ccc2[nH]5)C=C4)C=C3)cc1
REMARK SMILES IDX 18 1 17 2 16 3 14 4 15 5 12 7 13 8 2 9 1 10 3 11 4 13 5 14
REMARK SMILES IDX 10 15 6 16 9 17 11 18 7 19 8 20 19 21 20 22 21 23 22 25
REMARK SMILES IDX 23 26 24 27 85 28 25 29 84 30 26 31 27 32 28 33 78 34 29 35
REMARK SMILES IDX 83 36 77 37 79 38 30 39 82 40 76 41 75 42 31 44 63 45 43 46
REMARK SMILES IDX 62 47 44 48 47 49 61 50 80 51 45 52 46 53 60 55 81 56 48 57
REMARK SMILES IDX 32 58 33 59 41 60 34 61 40 62 42 63 39 64 35 65 36 66 37 67
REMARK SMILES IDX 38 68 64 69 65 70 73 71 66 72 72 73 74 74 71 75 67 76 68 77
REMARK SMILES IDX 69 78 70 79 49 80 50 81 58 82 51 83 57 84 59 85 56 86 52 87
REMARK SMILES IDX 53 88 54 89 55 90
REMARK H PARENT 16 6 3 12 20 24 79 43 47 54
REMARK Flexibility Score: inf
ROOT
ATOM      1  C   UNL     1       3.114   0.952  -1.388  1.00  0.00     0.042 C 
ENDROOT
BRANCH   1   2
ATOM      2  C   UNL     1       2.799  -0.416  -1.989  1.00  0.00     0.117 C 
BRANCH   2   3
ATOM      3  N   UNL     1       3.073  -1.501  -1.057  1.00  0.00    -0.353 N 
ATOM      4  C   UNL     1       2.240  -2.258  -0.290  1.00  0.00     0.257 C 
ATOM      5  O   UNL     1       2.767  -3.018   0.532  1.00  0.00    -0.272 OA
ATOM      6  H   UNL     1       4.027  -1.727  -0.965  1.00  0.00     0.163 HD
BRANCH   4   7
ATOM      7  C   UNL     1       0.717  -2.162  -0.365  1.00  0.00     0.291 C 
ATOM      8  F   UNL     1       0.252  -1.531  -1.480  1.00  0.00    -0.233 F 
BRANCH   7   9
ATOM      9  C   UNL     1       0.113  -1.505   0.914  1.00  0.00     0.128 C 
ATOM     10  C   UNL     1       0.809  -0.183   1.237  1.00  0.00     0.051 C 
BRANCH   9  11
ATOM     11  O   UNL     1       0.359  -2.351   2.065  1.00  0.00    -0.382 OA
ATOM     12  H   UNL     1      -0.019  -1.938   2.857  1.00  0.00     0.212 HD
ENDBRANCH   9  11
BRANCH   9  13
ATOM     13  C   UNL     1      -1.426  -1.468   0.773  1.00  0.00     0.005 A 
ATOM     14  C   UNL     1      -2.086  -2.725   0.830  1.00  0.00     0.010 A 
ATOM     15  C   UNL     1      -2.247  -0.339   0.564  1.00  0.00     0.048 A 
ATOM     16  C   UNL     1      -3.471  -2.852   0.699  1.00  0.00     0.021 A 
ATOM     17  C   UNL     1      -3.643  -0.470   0.455  1.00  0.00     0.041 A 
ATOM     18  Cl  UNL     1      -1.689   1.286   0.386  1.00  0.00    -0.084 Cl
ATOM     19  C   UNL     1      -4.245  -1.719   0.520  1.00  0.00     0.042 A 
ATOM     20  Cl  UNL     1      -5.953  -1.859   0.373  1.00  0.00    -0.084 Cl
ENDBRANCH   9  13
ENDBRANCH   7   9
ENDBRANCH   4   7
ENDBRANCH   2   3
ENDBRANCH   1   2
BRANCH   1  21
ATOM     21  C   UNL     1       4.595   1.187  -1.122  1.00  0.00     0.118 C 
BRANCH  21  22
ATOM     22  N   UNL     1       5.306   1.540  -2.335  1.00  0.00    -0.352 N 
ATOM     23  C   UNL     1       5.841   2.742  -2.721  1.00  0.00     0.251 C 
ATOM     24  H   UNL     1       5.424   0.804  -2.980  1.00  0.00     0.163 HD
ATOM     25  O   UNL     1       6.135   2.894  -3.910  1.00  0.00    -0.269 OA
BRANCH  23  26
ATOM     26  C   UNL     1       6.065   3.849  -1.757  1.00  0.00     0.039 A 
ATOM     27  C   UNL     1       5.949   5.166  -2.214  1.00  0.00     0.014 A 
ATOM     28  C   UNL     1       6.484   3.617  -0.443  1.00  0.00     0.014 A 
ATOM     29  C   UNL     1       6.248   6.236  -1.364  1.00  0.00     0.010 A 
ATOM     30  C   UNL     1       6.694   4.685   0.432  1.00  0.00     0.010 A 
ATOM     31  C   UNL     1       6.623   6.007  -0.031  1.00  0.00    -0.014 A 
BRANCH  31  32
ATOM     32  C   UNL     1       7.040   7.136   0.847  1.00  0.00     0.031 A 
ATOM     33  C   UNL     1       8.464   7.221   1.338  1.00  0.00     0.074 A 
ATOM     34  C   UNL     1       6.148   8.081   1.206  1.00  0.00     0.049 A 
ATOM     35  N   UNL     1       9.029   8.122   2.103  1.00  0.00    -0.248 NA
ATOM     36  C   UNL     1       9.366   6.128   0.941  1.00  0.00     0.031 C 
ATOM     37  C   UNL     1       4.732   8.090   0.836  1.00  0.00     0.029 A 
ATOM     38  N   UNL     1       6.302   9.219   1.958  1.00  0.00    -0.354 N 
ATOM     39  C   UNL     1      10.341   7.696   2.291  1.00  0.00     0.074 A 
ATOM     40  C   UNL     1      10.464   6.420   1.619  1.00  0.00     0.031 C 
ATOM     41  C   UNL     1       4.155   9.197   1.334  1.00  0.00     0.029 A 
ATOM     42  C   UNL     1       5.151   9.961   2.081  1.00  0.00     0.049 A 
ATOM     43  H   UNL     1       7.157   9.479   2.372  1.00  0.00     0.167 HD
ATOM     44  C   UNL     1      11.359   8.320   2.936  1.00  0.00     0.034 A 
ATOM     45  C   UNL     1       4.925  11.129   2.715  1.00  0.00     0.034 A 
ATOM     46  C   UNL     1      11.230   9.604   3.581  1.00  0.00     0.049 A 
ATOM     47  C   UNL     1       6.076  11.822   3.401  1.00  0.00     0.074 A 
ATOM     48  C   UNL     1      12.201  10.348   4.230  1.00  0.00     0.029 A 
ATOM     49  N   UNL     1      10.054  10.340   3.655  1.00  0.00    -0.354 N 
ATOM     50  N   UNL     1       7.322  11.428   3.527  1.00  0.00    -0.248 NA
ATOM     51  C   UNL     1       5.793  13.130   4.005  1.00  0.00     0.031 C 
ATOM     52  C   UNL     1      11.601  11.505   4.741  1.00  0.00     0.029 A 
ATOM     53  C   UNL     1      10.271  11.520   4.351  1.00  0.00     0.049 A 
ATOM     54  H   UNL     1       9.191  10.064   3.271  1.00  0.00     0.167 HD
ATOM     55  C   UNL     1       7.979  12.459   4.195  1.00  0.00     0.074 A 
ATOM     56  C   UNL     1       6.994  13.495   4.427  1.00  0.00     0.031 C 
ATOM     57  C   UNL     1       9.279  12.544   4.578  1.00  0.00     0.034 A 
BRANCH  44  58
ATOM     58  C   UNL     1      12.690   7.603   2.987  1.00  0.00     0.023 A 
ATOM     59  C   UNL     1      13.409   7.297   1.817  1.00  0.00     0.031 A 
ATOM     60  C   UNL     1      13.226   7.179   4.215  1.00  0.00     0.131 A 
ATOM     61  C   UNL     1      14.572   6.515   1.892  1.00  0.00     0.055 A 
ATOM     62  C   UNL     1      14.431   6.477   4.291  1.00  0.00     0.041 A 
ATOM     63  F   UNL     1      12.578   7.424   5.365  1.00  0.00    -0.206 F 
ATOM     64  C   UNL     1      15.102   6.124   3.123  1.00  0.00     0.022 A 
BRANCH  61  65
ATOM     65  S   UNL     1      15.291   5.879   0.353  1.00  0.00     0.124 S 
ATOM     66  O   UNL     1      14.179   5.101  -0.191  1.00  0.00    -0.237 OA
ATOM     67  O   UNL     1      15.624   7.105  -0.368  1.00  0.00    -0.237 OA
ATOM     68  O   UNL     1      16.432   5.091   0.805  1.00  0.00    -0.744 OA
ENDBRANCH  61  65
ENDBRANCH  44  58
BRANCH  45  69
ATOM     69  C   UNL     1       3.563  11.735   2.719  1.00  0.00     0.023 A 
ATOM     70  C   UNL     1       3.308  12.950   2.063  1.00  0.00     0.031 A 
ATOM     71  C   UNL     1       2.504  11.125   3.414  1.00  0.00     0.131 A 
ATOM     72  C   UNL     1       2.039  13.543   2.157  1.00  0.00     0.055 A 
ATOM     73  C   UNL     1       1.230  11.694   3.463  1.00  0.00     0.041 A 
ATOM     74  F   UNL     1       2.692   9.958   4.050  1.00  0.00    -0.206 F 
ATOM     75  C   UNL     1       0.996  12.918   2.843  1.00  0.00     0.022 A 
BRANCH  72  76
ATOM     76  S   UNL     1       1.794  15.188   1.432  1.00  0.00     0.124 S 
ATOM     77  O   UNL     1       2.802  15.975   2.131  1.00  0.00    -0.237 OA
ATOM     78  O   UNL     1       2.044  14.935   0.017  1.00  0.00    -0.237 OA
ATOM     79  O   UNL     1       0.408  15.505   1.771  1.00  0.00    -0.744 OA
ENDBRANCH  72  76
ENDBRANCH  45  69
BRANCH  57  80
ATOM     80  C   UNL     1       9.714  13.830   5.237  1.00  0.00     0.023 A 
ATOM     81  C   UNL     1       9.224  14.223   6.494  1.00  0.00     0.031 A 
ATOM     82  C   UNL     1      10.611  14.691   4.578  1.00  0.00     0.131 A 
ATOM     83  C   UNL     1       9.578  15.473   7.023  1.00  0.00     0.055 A 
ATOM     84  C   UNL     1      11.008  15.906   5.137  1.00  0.00     0.041 A 
ATOM     85  F   UNL     1      11.111  14.366   3.375  1.00  0.00    -0.206 F 
ATOM     86  C   UNL     1      10.478  16.311   6.359  1.00  0.00     0.022 A 
BRANCH  83  87
ATOM     87  S   UNL     1       8.758  16.042   8.538  1.00  0.00     0.124 S 
ATOM     88  O   UNL     1       7.348  15.941   8.178  1.00  0.00    -0.237 OA
ATOM     89  O   UNL     1       9.233  15.080   9.527  1.00  0.00    -0.237 OA
ATOM     90  O   UNL     1       9.259  17.404   8.709  1.00  0.00    -0.744 OA
ENDBRANCH  83  87
ENDBRANCH  57  80
ENDBRANCH  31  32
ENDBRANCH  23  26
ENDBRANCH  21  22
ENDBRANCH   1  21
TORSDOF 16
