REMARK SMILES COc1c[nH]c(C[N@H+]2CCC[C@@H](c3ccc(C(=O)NCCCNC(=O)c4ccc(-c5c6nc(c(-c7cc(S(=O)(=O)[O-])ccc7F)c7ccc([nH]7)c(-c7cc(S(=O)(=O)[O-])ccc7F)c7nc(c(-c8cc(S(=O)(=O)[O-])ccc8F)c8ccc5[nH]8)C=C7)C=C6)cc4)cc3)C2)cc1=O
REMARK SMILES IDX 20 1 19 2 17 3 18 4 16 6 13 7 14 8 90 9 15 10 89 11 12 12
REMARK SMILES IDX 8 13 9 14 91 15 10 17 11 18 7 19 6 20 3 21 4 22 93 23 5 24
REMARK SMILES IDX 92 25 94 26 2 28 1 29 21 30 22 31 23 32 24 33 25 35 26 36
REMARK SMILES IDX 27 37 88 38 28 39 87 40 29 41 30 42 31 43 81 44 32 45 86 46
REMARK SMILES IDX 80 47 82 48 33 49 85 50 79 51 78 52 34 54 66 55 46 56 65 57
REMARK SMILES IDX 47 58 50 59 64 60 83 61 48 62 49 63 63 65 84 66 51 67 35 68
REMARK SMILES IDX 36 69 44 70 37 71 43 72 45 73 42 74 38 75 39 76 40 77 41 78
REMARK SMILES IDX 67 79 68 80 76 81 69 82 75 83 77 84 74 85 70 86 71 87 72 88
REMARK SMILES IDX 73 89 52 90 53 91 61 92 54 93 60 94 62 95 59 96 55 97 56 98
REMARK SMILES IDX 57 99 58 100
REMARK H PARENT 19 5 8 16 5 27 23 34 82 53 50 64
REMARK Flexibility Score: inf
ROOT
ATOM      1  C   UNL     1      -6.894  -5.404   7.889  1.00  0.00     0.118 C 
ENDROOT
BRANCH   1   2
ATOM      2  N   UNL     1      -6.853  -3.965   7.712  1.00  0.00    -0.352 N 
ATOM      3  C   UNL     1      -5.811  -3.095   7.529  1.00  0.00     0.251 C 
ATOM      4  O   UNL     1      -6.083  -1.909   7.336  1.00  0.00    -0.269 OA
ATOM      5  H   UNL     1      -7.738  -3.534   7.726  1.00  0.00     0.163 HD
BRANCH   3   6
ATOM      6  C   UNL     1      -4.388  -3.527   7.483  1.00  0.00     0.039 A 
ATOM      7  C   UNL     1      -1.672  -4.255   7.188  1.00  0.00    -0.039 A 
ATOM      8  C   UNL     1      -2.186  -3.118   6.547  1.00  0.00     0.005 A 
ATOM      9  C   UNL     1      -2.515  -4.974   8.040  1.00  0.00     0.005 A 
ATOM     10  C   UNL     1      -3.530  -2.768   6.681  1.00  0.00     0.014 A 
ATOM     11  C   UNL     1      -3.853  -4.598   8.203  1.00  0.00     0.014 A 
BRANCH   7  12
ATOM     12  C   UNL     1      -0.238  -4.718   6.970  1.00  0.00     0.074 C 
ATOM     13  N   UNL     1       1.468  -5.180   5.160  1.00  0.00    -0.329 N 
ATOM     14  C   UNL     1       2.400  -4.240   5.798  1.00  0.00     0.262 C 
ATOM     15  C   UNL     1       0.073  -4.833   5.462  1.00  0.00     0.270 C 
ATOM     16  H   UNL     1       1.640  -6.101   5.562  1.00  0.00     0.348 HD
ATOM     17  C   UNL     1       2.190  -4.182   7.313  1.00  0.00     0.062 C 
ATOM     18  C   UNL     1       0.759  -3.781   7.661  1.00  0.00     0.020 C 
BRANCH  13  19
ATOM     19  C   UNL     1       1.718  -5.318   3.708  1.00  0.00     0.317 C 
BRANCH  19  20
ATOM     20  C   UNL     1       1.531  -4.061   2.861  1.00  0.00     0.074 A 
ATOM     21  C   UNL     1       0.937  -1.567   1.595  1.00  0.00     0.182 A 
ATOM     22  C   UNL     1      -0.011  -2.395   2.055  1.00  0.00     0.133 A 
ATOM     23  C   UNL     1       2.354  -2.077   1.676  1.00  0.00     0.223 A 
ATOM     24  N   UNL     1       0.245  -3.625   2.593  1.00  0.00    -0.357 N 
ATOM     25  C   UNL     1       2.585  -3.364   2.396  1.00  0.00     0.083 A 
ATOM     26  O   UNL     1       3.314  -1.473   1.205  1.00  0.00    -0.286 OA
ATOM     27  H   UNL     1      -0.511  -4.222   2.797  1.00  0.00     0.166 HD
BRANCH  21  28
ATOM     28  O   UNL     1       0.603  -0.299   1.162  1.00  0.00    -0.491 OA
ATOM     29  C   UNL     1       1.174   0.049  -0.092  1.00  0.00     0.278 C 
ENDBRANCH  21  28
ENDBRANCH  19  20
ENDBRANCH  13  19
ENDBRANCH   7  12
ENDBRANCH   3   6
ENDBRANCH   1   2
BRANCH   1  30
ATOM     30  C   UNL     1      -7.054  -5.773   9.362  1.00  0.00     0.042 C 
BRANCH  30  31
ATOM     31  C   UNL     1      -8.449  -5.485   9.907  1.00  0.00     0.118 C 
BRANCH  31  32
ATOM     32  N   UNL     1      -9.444  -6.382   9.342  1.00  0.00    -0.352 N 
ATOM     33  C   UNL     1     -10.282  -7.269   9.971  1.00  0.00     0.251 C 
ATOM     34  H   UNL     1      -9.531  -6.347   8.362  1.00  0.00     0.163 HD
ATOM     35  O   UNL     1     -10.864  -8.117   9.300  1.00  0.00    -0.269 OA
BRANCH  33  36
ATOM     36  C   UNL     1     -10.473  -7.215  11.438  1.00  0.00     0.039 A 
ATOM     37  C   UNL     1     -10.581  -8.415  12.148  1.00  0.00     0.014 A 
ATOM     38  C   UNL     1     -10.592  -5.995  12.109  1.00  0.00     0.014 A 
ATOM     39  C   UNL     1     -10.759  -8.389  13.533  1.00  0.00     0.010 A 
ATOM     40  C   UNL     1     -10.696  -5.970  13.497  1.00  0.00     0.010 A 
ATOM     41  C   UNL     1     -10.792  -7.167  14.223  1.00  0.00    -0.014 A 
BRANCH  41  42
ATOM     42  C   UNL     1     -10.947  -7.119  15.700  1.00  0.00     0.031 A 
ATOM     43  C   UNL     1     -12.174  -6.496  16.309  1.00  0.00     0.074 A 
ATOM     44  C   UNL     1      -9.958  -7.582  16.489  1.00  0.00     0.049 A 
ATOM     45  N   UNL     1     -12.463  -6.292  17.569  1.00  0.00    -0.248 NA
ATOM     46  C   UNL     1     -13.196  -6.010  15.372  1.00  0.00     0.031 C 
ATOM     47  C   UNL     1      -8.708  -8.179  16.012  1.00  0.00     0.029 A 
ATOM     48  N   UNL     1      -9.843  -7.619  17.855  1.00  0.00    -0.354 N 
ATOM     49  C   UNL     1     -13.692  -5.641  17.576  1.00  0.00     0.074 A 
ATOM     50  C   UNL     1     -14.058  -5.428  16.191  1.00  0.00     0.031 C 
ATOM     51  C   UNL     1      -7.967  -8.549  17.069  1.00  0.00     0.029 A 
ATOM     52  C   UNL     1      -8.663  -8.174  18.296  1.00  0.00     0.049 A 
ATOM     53  H   UNL     1     -10.539  -7.281  18.464  1.00  0.00     0.167 HD
ATOM     54  C   UNL     1     -14.454  -5.275  18.638  1.00  0.00     0.034 A 
ATOM     55  C   UNL     1      -8.193  -8.350  19.546  1.00  0.00     0.034 A 
ATOM     56  C   UNL     1     -14.074  -5.505  20.011  1.00  0.00     0.049 A 
ATOM     57  C   UNL     1      -9.040  -7.903  20.710  1.00  0.00     0.074 A 
ATOM     58  C   UNL     1     -14.789  -5.229  21.164  1.00  0.00     0.029 A 
ATOM     59  N   UNL     1     -12.865  -6.057  20.420  1.00  0.00    -0.354 N 
ATOM     60  N   UNL     1     -10.223  -7.334  20.702  1.00  0.00    -0.248 NA
ATOM     61  C   UNL     1      -8.489  -8.130  22.052  1.00  0.00     0.031 C 
ATOM     62  C   UNL     1     -13.988  -5.548  22.266  1.00  0.00     0.029 A 
ATOM     63  C   UNL     1     -12.802  -6.097  21.805  1.00  0.00     0.049 A 
ATOM     64  H   UNL     1     -12.157  -6.373  19.814  1.00  0.00     0.167 HD
ATOM     65  C   UNL     1     -10.573  -7.168  22.040  1.00  0.00     0.074 A 
ATOM     66  C   UNL     1      -9.479  -7.707  22.823  1.00  0.00     0.031 C 
ATOM     67  C   UNL     1     -11.698  -6.626  22.573  1.00  0.00     0.034 A 
BRANCH  54  68
ATOM     68  C   UNL     1     -15.755  -4.563  18.344  1.00  0.00     0.023 A 
ATOM     69  C   UNL     1     -16.780  -5.173  17.598  1.00  0.00     0.031 A 
ATOM     70  C   UNL     1     -15.958  -3.239  18.772  1.00  0.00     0.131 A 
ATOM     71  C   UNL     1     -17.913  -4.433  17.224  1.00  0.00     0.055 A 
ATOM     72  C   UNL     1     -17.129  -2.538  18.474  1.00  0.00     0.041 A 
ATOM     73  F   UNL     1     -15.011  -2.593  19.471  1.00  0.00    -0.206 F 
ATOM     74  C   UNL     1     -18.106  -3.128  17.678  1.00  0.00     0.022 A 
BRANCH  71  75
ATOM     75  S   UNL     1     -19.042  -5.146  15.996  1.00  0.00     0.124 S 
ATOM     76  O   UNL     1     -18.141  -5.388  14.872  1.00  0.00    -0.237 OA
ATOM     77  O   UNL     1     -19.545  -6.331  16.679  1.00  0.00    -0.237 OA
ATOM     78  O   UNL     1     -20.025  -4.086  15.778  1.00  0.00    -0.744 OA
ENDBRANCH  71  75
ENDBRANCH  54  68
BRANCH  55  79
ATOM     79  C   UNL     1      -6.860  -8.979  19.770  1.00  0.00     0.023 A 
ATOM     80  C   UNL     1      -6.751 -10.217  20.421  1.00  0.00     0.031 A 
ATOM     81  C   UNL     1      -5.675  -8.336  19.371  1.00  0.00     0.131 A 
ATOM     82  C   UNL     1      -5.484 -10.756  20.693  1.00  0.00     0.055 A 
ATOM     83  C   UNL     1      -4.418  -8.900  19.598  1.00  0.00     0.041 A 
ATOM     84  F   UNL     1      -5.724  -7.153  18.739  1.00  0.00    -0.206 F 
ATOM     85  C   UNL     1      -4.318 -10.112  20.275  1.00  0.00     0.022 A 
BRANCH  82  86
ATOM     86  S   UNL     1      -5.381 -12.278  21.674  1.00  0.00     0.124 S 
ATOM     87  O   UNL     1      -6.056 -11.884  22.905  1.00  0.00    -0.237 OA
ATOM     88  O   UNL     1      -6.093 -13.231  20.828  1.00  0.00    -0.237 OA
ATOM     89  O   UNL     1      -3.943 -12.508  21.794  1.00  0.00    -0.744 OA
ENDBRANCH  82  86
ENDBRANCH  55  79
BRANCH  67  90
ATOM     90  C   UNL     1     -11.814  -6.637  24.078  1.00  0.00     0.023 A 
ATOM     91  C   UNL     1     -10.963  -5.870  24.893  1.00  0.00     0.031 A 
ATOM     92  C   UNL     1     -12.779  -7.445  24.704  1.00  0.00     0.131 A 
ATOM     93  C   UNL     1     -11.056  -5.970  26.289  1.00  0.00     0.055 A 
ATOM     94  C   UNL     1     -12.908  -7.494  26.093  1.00  0.00     0.041 A 
ATOM     95  F   UNL     1     -13.615  -8.201  23.975  1.00  0.00    -0.206 F 
ATOM     96  C   UNL     1     -12.035  -6.764  26.894  1.00  0.00     0.022 A 
BRANCH  93  97
ATOM     97  S   UNL     1      -9.819  -5.122  27.308  1.00  0.00     0.124 S 
ATOM     98  O   UNL     1      -8.574  -5.715  26.830  1.00  0.00    -0.237 OA
ATOM     99  O   UNL     1     -10.033  -3.721  26.958  1.00  0.00    -0.237 OA
ATOM    100  O   UNL     1     -10.193  -5.483  28.674  1.00  0.00    -0.744 OA
ENDBRANCH  93  97
ENDBRANCH  67  90
ENDBRANCH  41  42
ENDBRANCH  33  36
ENDBRANCH  31  32
ENDBRANCH  30  31
ENDBRANCH   1  30
TORSDOF 17
