REMARK SMILES O=C(NCCCNC(=O)[C@H]1CCCN1C(=O)CN1C(=O)[C@@H]2[C@H](C1=O)[C@@H]1C=C[C@H]2C1)c1ccc(-c2c3nc(c(-c4cc(S(=O)(=O)[O-])ccc4F)c4ccc([nH]4)c(-c4cc(S(=O)(=O)[O-])ccc4F)c4nc(c(-c5cc(S(=O)(=O)[O-])ccc5F)c5ccc2[nH]5)C=C4)C=C3)cc1
REMARK SMILES IDX 5 1 4 2 3 3 1 4 2 5 30 7 31 8 92 9 32 10 91 11 33 12 34 13
REMARK SMILES IDX 35 14 85 15 36 16 90 17 84 18 86 19 37 20 89 21 83 22 82 23
REMARK SMILES IDX 38 25 70 26 50 27 69 28 51 29 54 30 68 31 87 32 52 33 53 34
REMARK SMILES IDX 67 36 88 37 55 38 39 39 40 40 48 41 41 42 47 43 49 44 46 45
REMARK SMILES IDX 42 46 43 47 44 48 45 49 71 50 72 51 80 52 73 53 79 54 81 55
REMARK SMILES IDX 78 56 74 57 75 58 76 59 77 60 56 61 57 62 65 63 58 64 64 65
REMARK SMILES IDX 66 66 63 67 59 68 60 69 61 70 62 71 6 72 7 73 8 74 9 76
REMARK SMILES IDX 10 77 11 78 14 79 12 80 13 81 15 82 16 83 17 84 18 85 19 86
REMARK SMILES IDX 23 87 21 88 20 89 22 90 24 91 28 92 25 93 27 94 29 95 26 96
REMARK H PARENT 3 6 86 24 54 35 7 75
REMARK Flexibility Score: inf
ROOT
ATOM      1  C   UNL     1       7.443   2.074  -1.548  1.00  0.00     0.042 C 
ENDROOT
BRANCH   1   2
ATOM      2  C   UNL     1       6.875   1.020  -2.488  1.00  0.00     0.118 C 
BRANCH   2   3
ATOM      3  N   UNL     1       7.526   0.880  -3.781  1.00  0.00    -0.352 N 
ATOM      4  O   UNL     1       8.447  -0.213  -5.532  1.00  0.00    -0.269 OA
ATOM      5  C   UNL     1       7.913  -0.274  -4.429  1.00  0.00     0.251 C 
ATOM      6  H   UNL     1       7.715   1.721  -4.257  1.00  0.00     0.163 HD
BRANCH   5   7
ATOM      7  C   UNL     1       7.721  -1.579  -3.760  1.00  0.00     0.039 A 
ATOM      8  C   UNL     1       6.488  -1.914  -3.199  1.00  0.00     0.014 A 
ATOM      9  C   UNL     1       8.810  -2.446  -3.637  1.00  0.00     0.014 A 
ATOM     10  C   UNL     1       6.393  -3.022  -2.365  1.00  0.00     0.010 A 
ATOM     11  C   UNL     1       8.681  -3.616  -2.881  1.00  0.00     0.010 A 
ATOM     12  C   UNL     1       7.482  -3.896  -2.207  1.00  0.00    -0.014 A 
BRANCH  12  13
ATOM     13  C   UNL     1       7.319  -5.125  -1.384  1.00  0.00     0.031 A 
ATOM     14  C   UNL     1       8.141  -5.355  -0.143  1.00  0.00     0.074 A 
ATOM     15  C   UNL     1       6.397  -6.034  -1.762  1.00  0.00     0.049 A 
ATOM     16  N   UNL     1       8.136  -6.382   0.669  1.00  0.00    -0.248 NA
ATOM     17  C   UNL     1       9.095  -4.302   0.232  1.00  0.00     0.031 C 
ATOM     18  C   UNL     1       5.539  -5.915  -2.946  1.00  0.00     0.029 A 
ATOM     19  N   UNL     1       6.014  -7.222  -1.196  1.00  0.00    -0.354 N 
ATOM     20  C   UNL     1       9.093  -6.111   1.641  1.00  0.00     0.074 A 
ATOM     21  C   UNL     1       9.682  -4.833   1.297  1.00  0.00     0.031 C 
ATOM     22  C   UNL     1       4.705  -6.962  -2.991  1.00  0.00     0.029 A 
ATOM     23  C   UNL     1       5.024  -7.870  -1.898  1.00  0.00     0.049 A 
ATOM     24  H   UNL     1       6.410  -7.578  -0.368  1.00  0.00     0.167 HD
ATOM     25  C   UNL     1       9.441  -6.859   2.720  1.00  0.00     0.034 A 
ATOM     26  C   UNL     1       4.458  -9.078  -1.710  1.00  0.00     0.034 A 
ATOM     27  C   UNL     1       8.841  -8.133   3.043  1.00  0.00     0.049 A 
ATOM     28  C   UNL     1       4.911  -9.913  -0.543  1.00  0.00     0.074 A 
ATOM     29  C   UNL     1       9.099  -8.955   4.128  1.00  0.00     0.029 A 
ATOM     30  N   UNL     1       7.875  -8.780   2.283  1.00  0.00    -0.354 N 
ATOM     31  N   UNL     1       5.806  -9.631   0.376  1.00  0.00    -0.248 NA
ATOM     32  C   UNL     1       4.277 -11.227  -0.385  1.00  0.00     0.031 C 
ATOM     33  C   UNL     1       8.356 -10.130   3.979  1.00  0.00     0.029 A 
ATOM     34  C   UNL     1       7.558 -10.005   2.853  1.00  0.00     0.049 A 
ATOM     35  H   UNL     1       7.474  -8.422   1.458  1.00  0.00     0.167 HD
ATOM     36  C   UNL     1       5.816 -10.723   1.239  1.00  0.00     0.074 A 
ATOM     37  C   UNL     1       4.826 -11.655   0.742  1.00  0.00     0.031 C 
ATOM     38  C   UNL     1       6.575 -10.933   2.345  1.00  0.00     0.034 A 
BRANCH  25  39
ATOM     39  C   UNL     1      10.553  -6.345   3.607  1.00  0.00     0.023 A 
ATOM     40  C   UNL     1      10.429  -5.154   4.343  1.00  0.00     0.031 A 
ATOM     41  C   UNL     1      11.754  -7.069   3.728  1.00  0.00     0.131 A 
ATOM     42  C   UNL     1      11.505  -4.695   5.121  1.00  0.00     0.055 A 
ATOM     43  C   UNL     1      12.790  -6.648   4.565  1.00  0.00     0.041 A 
ATOM     44  F   UNL     1      11.941  -8.203   3.034  1.00  0.00    -0.206 F 
ATOM     45  C   UNL     1      12.674  -5.448   5.259  1.00  0.00     0.022 A 
BRANCH  42  46
ATOM     46  S   UNL     1      11.405  -3.036   5.848  1.00  0.00     0.124 S 
ATOM     47  O   UNL     1      11.201  -2.205   4.663  1.00  0.00    -0.237 OA
ATOM     48  O   UNL     1      10.264  -3.154   6.748  1.00  0.00    -0.237 OA
ATOM     49  O   UNL     1      12.701  -2.868   6.501  1.00  0.00    -0.744 OA
ENDBRANCH  42  46
ENDBRANCH  25  39
BRANCH  26  50
ATOM     50  C   UNL     1       3.439  -9.590  -2.671  1.00  0.00     0.023 A 
ATOM     51  C   UNL     1       2.136  -9.893  -2.251  1.00  0.00     0.031 A 
ATOM     52  C   UNL     1       3.771  -9.829  -4.018  1.00  0.00     0.131 A 
ATOM     53  C   UNL     1       1.230 -10.472  -3.152  1.00  0.00     0.055 A 
ATOM     54  C   UNL     1       2.844 -10.337  -4.928  1.00  0.00     0.041 A 
ATOM     55  F   UNL     1       5.003  -9.556  -4.474  1.00  0.00    -0.206 F 
ATOM     56  C   UNL     1       1.568 -10.679  -4.492  1.00  0.00     0.022 A 
BRANCH  53  57
ATOM     57  S   UNL     1      -0.364 -11.056  -2.517  1.00  0.00     0.124 S 
ATOM     58  O   UNL     1       0.056 -11.975  -1.465  1.00  0.00    -0.237 OA
ATOM     59  O   UNL     1      -0.987  -9.814  -2.074  1.00  0.00    -0.237 OA
ATOM     60  O   UNL     1      -0.985 -11.682  -3.683  1.00  0.00    -0.744 OA
ENDBRANCH  53  57
ENDBRANCH  26  50
BRANCH  38  61
ATOM     61  C   UNL     1       6.317 -12.204   3.120  1.00  0.00     0.023 A 
ATOM     62  C   UNL     1       6.574 -13.474   2.573  1.00  0.00     0.031 A 
ATOM     63  C   UNL     1       5.784 -12.140   4.420  1.00  0.00     0.131 A 
ATOM     64  C   UNL     1       6.238 -14.627   3.298  1.00  0.00     0.055 A 
ATOM     65  C   UNL     1       5.518 -13.290   5.163  1.00  0.00     0.041 A 
ATOM     66  F   UNL     1       5.512 -10.955   4.990  1.00  0.00    -0.206 F 
ATOM     67  C   UNL     1       5.731 -14.543   4.597  1.00  0.00     0.022 A 
BRANCH  64  68
ATOM     68  S   UNL     1       6.371 -16.240   2.479  1.00  0.00     0.124 S 
ATOM     69  O   UNL     1       5.493 -16.068   1.327  1.00  0.00    -0.237 OA
ATOM     70  O   UNL     1       7.798 -16.324   2.186  1.00  0.00    -0.237 OA
ATOM     71  O   UNL     1       5.890 -17.179   3.491  1.00  0.00    -0.744 OA
ENDBRANCH  64  68
ENDBRANCH  38  61
ENDBRANCH  12  13
ENDBRANCH   5   7
ENDBRANCH   2   3
ENDBRANCH   1   2
BRANCH   1  72
ATOM     72  C   UNL     1       7.922   3.390  -2.132  1.00  0.00     0.117 C 
BRANCH  72  73
ATOM     73  N   UNL     1       6.901   4.196  -2.766  1.00  0.00    -0.354 N 
ATOM     74  C   UNL     1       6.477   5.460  -2.466  1.00  0.00     0.242 C 
ATOM     75  H   UNL     1       6.443   3.771  -3.527  1.00  0.00     0.163 HD
ATOM     76  O   UNL     1       5.754   6.028  -3.288  1.00  0.00    -0.273 OA
BRANCH  74  77
ATOM     77  C   UNL     1       6.955   6.171  -1.181  1.00  0.00     0.174 C 
ATOM     78  C   UNL     1       8.412   6.614  -1.341  1.00  0.00     0.037 C 
ATOM     79  N   UNL     1       6.285   7.473  -1.028  1.00  0.00    -0.329 N 
ATOM     80  C   UNL     1       8.288   7.846  -2.234  1.00  0.00     0.024 C 
ATOM     81  C   UNL     1       7.009   8.509  -1.747  1.00  0.00     0.120 C 
BRANCH  79  82
ATOM     82  C   UNL     1       5.170   7.813  -0.304  1.00  0.00     0.243 C 
ATOM     83  O   UNL     1       4.837   8.998  -0.179  1.00  0.00    -0.273 OA
BRANCH  82  84
ATOM     84  C   UNL     1       4.392   6.734   0.439  1.00  0.00     0.228 C 
BRANCH  84  85
ATOM     85  N   UNL     1       3.622   5.842  -0.406  1.00  0.00    -0.273 N 
ATOM     86  C   UNL     1       2.578   6.277  -1.173  1.00  0.00     0.234 C 
ATOM     87  C   UNL     1       3.679   4.476  -0.299  1.00  0.00     0.234 C 
ATOM     88  C   UNL     1       1.807   5.095  -1.669  1.00  0.00     0.099 C 
ATOM     89  O   UNL     1       2.238   7.438  -1.367  1.00  0.00    -0.274 OA
ATOM     90  C   UNL     1       2.442   3.888  -0.943  1.00  0.00     0.099 C 
ATOM     91  O   UNL     1       4.539   3.835   0.280  1.00  0.00    -0.274 OA
ATOM     92  C   UNL     1       1.878   4.691  -3.151  1.00  0.00     0.025 C 
ATOM     93  C   UNL     1       2.623   2.861  -2.076  1.00  0.00     0.025 C 
ATOM     94  C   UNL     1       3.283   4.419  -3.623  1.00  0.00    -0.027 C 
ATOM     95  C   UNL     1       1.445   3.220  -3.001  1.00  0.00     0.017 C 
ATOM     96  C   UNL     1       3.712   3.312  -3.003  1.00  0.00    -0.027 C 
ENDBRANCH  84  85
ENDBRANCH  82  84
ENDBRANCH  79  82
ENDBRANCH  74  77
ENDBRANCH  72  73
ENDBRANCH   1  72
TORSDOF 16
