REMARK SMILES C[C@@H](C(=O)NCCCNC(=O)c1ccc(-c2c3nc(c(-c4cc(S(=O)(=O)[O-])ccc4F)c4ccc([nH]4)c(-c4cc(S(=O)(=O)[O-])ccc4F)c4nc(c(-c5cc(S(=O)(=O)[O-])ccc5F)c5ccc2[nH]5)C=C4)C=C3)cc1)[N@@H+]1CCc2n[nH]c(C(c3ccccc3)c3ccccc3)c2C1
REMARK SMILES IDX 7 1 6 2 5 3 3 4 4 5 2 7 1 8 75 9 76 10 96 11 77 13 95 14
REMARK SMILES IDX 78 15 81 16 79 17 80 18 82 20 83 21 84 22 88 23 85 24 87 25
REMARK SMILES IDX 86 26 89 27 90 28 94 29 91 30 93 31 92 32 8 33 9 34 10 35
REMARK SMILES IDX 11 37 12 38 13 39 74 40 14 41 73 42 15 43 16 44 17 45 67 46
REMARK SMILES IDX 18 47 72 48 66 49 68 50 19 51 71 52 65 53 64 54 20 56 52 57
REMARK SMILES IDX 32 58 51 59 33 60 36 61 50 62 69 63 34 64 35 65 49 67 70 68
REMARK SMILES IDX 37 69 21 70 22 71 30 72 23 73 29 74 31 75 28 76 24 77 25 78
REMARK SMILES IDX 26 79 27 80 53 81 54 82 62 83 55 84 61 85 63 86 60 87 56 88
REMARK SMILES IDX 57 89 58 90 59 91 38 92 39 93 47 94 40 95 46 96 48 97 45 98
REMARK SMILES IDX 41 99 42 100 43 101 44 102
REMARK H PARENT 5 6 75 12 80 19 9 36 68 55 36 66
REMARK Flexibility Score: inf
ROOT
ATOM      1  C   UNL     1       3.845   1.712  -0.015  1.00  0.00     0.042 C 
ENDROOT
BRANCH   1   2
ATOM      2  C   UNL     1       2.396   1.059  -0.128  1.00  0.00     0.118 C 
BRANCH   2   3
ATOM      3  N   UNL     1       2.148  -0.375   0.009  1.00  0.00    -0.351 N 
ATOM      4  C   UNL     1       1.047  -1.155   0.223  1.00  0.00     0.278 C 
ATOM      5  O   UNL     1       1.217  -2.374   0.372  1.00  0.00    -0.268 OA
ATOM      6  H   UNL     1       2.973  -0.907  -0.071  1.00  0.00     0.163 HD
BRANCH   4   7
ATOM      7  C   UNL     1      -0.393  -0.641   0.230  1.00  0.00     0.271 C 
ATOM      8  C   UNL     1      -0.684   0.014  -1.115  1.00  0.00     0.086 C 
BRANCH   7   9
ATOM      9  N   UNL     1      -0.831  -0.029   1.495  1.00  0.00    -0.321 N 
ATOM     10  C   UNL     1      -1.233   1.384   1.502  1.00  0.00     0.269 C 
ATOM     11  C   UNL     1      -0.135  -0.526   2.694  1.00  0.00     0.303 C 
ATOM     12  H   UNL     1      -1.769  -0.423   1.570  1.00  0.00     0.349 HD
ATOM     13  C   UNL     1      -0.455   2.358   2.424  1.00  0.00     0.120 C 
ATOM     14  C   UNL     1       1.040   0.344   2.940  1.00  0.00     0.052 A 
ATOM     15  C   UNL     1       0.822   1.748   2.885  1.00  0.00     0.077 A 
ATOM     16  C   UNL     1       2.410   0.184   3.141  1.00  0.00     0.056 A 
ATOM     17  N   UNL     1       1.904   2.437   3.220  1.00  0.00    -0.180 NA
ATOM     18  N   UNL     1       2.785   1.468   3.525  1.00  0.00    -0.281 N 
ATOM     19  H   UNL     1       3.634   1.654   3.986  1.00  0.00     0.190 HD
BRANCH  16  20
ATOM     20  C   UNL     1       3.486  -0.923   3.212  1.00  0.00     0.098 C 
BRANCH  20  21
ATOM     21  C   UNL     1       3.534  -1.603   4.571  1.00  0.00    -0.035 A 
ATOM     22  C   UNL     1       4.679  -1.444   5.377  1.00  0.00     0.005 A 
ATOM     23  C   UNL     1       2.530  -2.490   4.963  1.00  0.00     0.005 A 
ATOM     24  C   UNL     1       4.857  -2.237   6.501  1.00  0.00     0.000 A 
ATOM     25  C   UNL     1       2.733  -3.312   6.065  1.00  0.00     0.000 A 
ATOM     26  C   UNL     1       3.900  -3.195   6.823  1.00  0.00     0.000 A 
ENDBRANCH  20  21
BRANCH  20  27
ATOM     27  C   UNL     1       3.900  -1.869   2.014  1.00  0.00    -0.035 A 
ATOM     28  C   UNL     1       3.640  -3.246   2.031  1.00  0.00     0.005 A 
ATOM     29  C   UNL     1       4.644  -1.471   0.874  1.00  0.00     0.005 A 
ATOM     30  C   UNL     1       3.991  -4.104   0.966  1.00  0.00     0.000 A 
ATOM     31  C   UNL     1       4.996  -2.305  -0.202  1.00  0.00     0.000 A 
ATOM     32  C   UNL     1       4.641  -3.631  -0.166  1.00  0.00     0.000 A 
ENDBRANCH  20  27
ENDBRANCH  16  20
ENDBRANCH   7   9
ENDBRANCH   4   7
ENDBRANCH   2   3
ENDBRANCH   1   2
BRANCH   1  33
ATOM     33  C   UNL     1       4.808   2.115   1.181  1.00  0.00     0.118 C 
BRANCH  33  34
ATOM     34  N   UNL     1       5.728   1.167   1.849  1.00  0.00    -0.352 N 
ATOM     35  C   UNL     1       7.033   1.177   2.292  1.00  0.00     0.251 C 
ATOM     36  H   UNL     1       5.293   0.301   2.023  1.00  0.00     0.163 HD
ATOM     37  O   UNL     1       7.485   0.214   2.877  1.00  0.00    -0.269 OA
BRANCH  35  38
ATOM     38  C   UNL     1       7.880   2.326   1.998  1.00  0.00     0.039 A 
ATOM     39  C   UNL     1       9.115   2.107   1.378  1.00  0.00     0.014 A 
ATOM     40  C   UNL     1       7.376   3.598   2.223  1.00  0.00     0.014 A 
ATOM     41  C   UNL     1       9.781   3.189   0.823  1.00  0.00     0.010 A 
ATOM     42  C   UNL     1       7.992   4.656   1.596  1.00  0.00     0.010 A 
ATOM     43  C   UNL     1       9.174   4.449   0.863  1.00  0.00    -0.014 A 
BRANCH  43  44
ATOM     44  C   UNL     1       9.713   5.602   0.121  1.00  0.00     0.031 A 
ATOM     45  C   UNL     1      10.126   6.807   0.899  1.00  0.00     0.074 A 
ATOM     46  C   UNL     1       9.636   5.604  -1.222  1.00  0.00     0.049 A 
ATOM     47  N   UNL     1      10.349   8.022   0.485  1.00  0.00    -0.248 NA
ATOM     48  C   UNL     1      10.231   6.625   2.356  1.00  0.00     0.031 C 
ATOM     49  C   UNL     1       9.193   4.478  -2.050  1.00  0.00     0.029 A 
ATOM     50  N   UNL     1       9.889   6.601  -2.125  1.00  0.00    -0.354 N 
ATOM     51  C   UNL     1      10.585   8.763   1.635  1.00  0.00     0.074 A 
ATOM     52  C   UNL     1      10.402   7.872   2.761  1.00  0.00     0.031 C 
ATOM     53  C   UNL     1       9.209   4.849  -3.340  1.00  0.00     0.029 A 
ATOM     54  C   UNL     1       9.603   6.250  -3.423  1.00  0.00     0.049 A 
ATOM     55  H   UNL     1      10.242   7.484  -1.870  1.00  0.00     0.167 HD
ATOM     56  C   UNL     1      10.941  10.067   1.729  1.00  0.00     0.034 A 
ATOM     57  C   UNL     1       9.626   6.993  -4.545  1.00  0.00     0.034 A 
ATOM     58  C   UNL     1      11.111  10.910   0.572  1.00  0.00     0.049 A 
ATOM     59  C   UNL     1      10.028   8.439  -4.426  1.00  0.00     0.074 A 
ATOM     60  C   UNL     1      11.510  12.231   0.514  1.00  0.00     0.029 A 
ATOM     61  N   UNL     1      10.882  10.504  -0.740  1.00  0.00    -0.354 N 
ATOM     62  N   UNL     1      10.290   9.133  -3.341  1.00  0.00    -0.248 NA
ATOM     63  C   UNL     1      10.150   9.200  -5.674  1.00  0.00     0.031 C 
ATOM     64  C   UNL     1      11.464  12.641  -0.823  1.00  0.00     0.029 A 
ATOM     65  C   UNL     1      11.115  11.554  -1.612  1.00  0.00     0.049 A 
ATOM     66  H   UNL     1      10.597   9.601  -1.009  1.00  0.00     0.167 HD
ATOM     67  C   UNL     1      10.646  10.404  -3.778  1.00  0.00     0.074 A 
ATOM     68  C   UNL     1      10.560  10.379  -5.226  1.00  0.00     0.031 C 
ATOM     69  C   UNL     1      11.021  11.490  -3.054  1.00  0.00     0.034 A 
BRANCH  56  70
ATOM     70  C   UNL     1      11.117  10.630   3.119  1.00  0.00     0.023 A 
ATOM     71  C   UNL     1      12.038  10.072   4.027  1.00  0.00     0.031 A 
ATOM     72  C   UNL     1      10.291  11.667   3.583  1.00  0.00     0.131 A 
ATOM     73  C   UNL     1      12.021  10.462   5.373  1.00  0.00     0.055 A 
ATOM     74  C   UNL     1      10.357  12.128   4.900  1.00  0.00     0.041 A 
ATOM     75  F   UNL     1       9.376  12.227   2.776  1.00  0.00    -0.206 F 
ATOM     76  C   UNL     1      11.207  11.507   5.811  1.00  0.00     0.022 A 
BRANCH  73  77
ATOM     77  S   UNL     1      12.922   9.443   6.574  1.00  0.00     0.124 S 
ATOM     78  O   UNL     1      12.304   8.134   6.370  1.00  0.00    -0.237 OA
ATOM     79  O   UNL     1      14.303   9.573   6.127  1.00  0.00    -0.237 OA
ATOM     80  O   UNL     1      12.617  10.074   7.856  1.00  0.00    -0.744 OA
ENDBRANCH  73  77
ENDBRANCH  56  70
BRANCH  57  81
ATOM     81  C   UNL     1       9.260   6.383  -5.854  1.00  0.00     0.023 A 
ATOM     82  C   UNL     1      10.225   6.187  -6.853  1.00  0.00     0.031 A 
ATOM     83  C   UNL     1       7.943   5.964  -6.117  1.00  0.00     0.131 A 
ATOM     84  C   UNL     1       9.855   5.615  -8.081  1.00  0.00     0.055 A 
ATOM     85  C   UNL     1       7.589   5.357  -7.323  1.00  0.00     0.041 A 
ATOM     86  F   UNL     1       6.985   6.112  -5.188  1.00  0.00    -0.206 F 
ATOM     87  C   UNL     1       8.547   5.187  -8.318  1.00  0.00     0.022 A 
BRANCH  84  88
ATOM     88  S   UNL     1      11.105   5.480  -9.388  1.00  0.00     0.124 S 
ATOM     89  O   UNL     1      11.482   6.875  -9.584  1.00  0.00    -0.237 OA
ATOM     90  O   UNL     1      12.108   4.626  -8.760  1.00  0.00    -0.237 OA
ATOM     91  O   UNL     1      10.374   4.868 -10.495  1.00  0.00    -0.744 OA
ENDBRANCH  84  88
ENDBRANCH  57  81
BRANCH  69  92
ATOM     92  C   UNL     1      11.435  12.716  -3.825  1.00  0.00     0.023 A 
ATOM     93  C   UNL     1      10.510  13.496  -4.537  1.00  0.00     0.031 A 
ATOM     94  C   UNL     1      12.781  13.124  -3.808  1.00  0.00     0.131 A 
ATOM     95  C   UNL     1      10.951  14.630  -5.235  1.00  0.00     0.055 A 
ATOM     96  C   UNL     1      13.203  14.283  -4.458  1.00  0.00     0.041 A 
ATOM     97  F   UNL     1      13.703  12.411  -3.142  1.00  0.00    -0.206 F 
ATOM     98  C   UNL     1      12.287  15.039  -5.183  1.00  0.00     0.022 A 
BRANCH  95  99
ATOM     99  S   UNL     1       9.765  15.536  -6.264  1.00  0.00     0.124 S 
ATOM    100  O   UNL     1       9.357  14.516  -7.225  1.00  0.00    -0.237 OA
ATOM    101  O   UNL     1       8.752  15.939  -5.294  1.00  0.00    -0.237 OA
ATOM    102  O   UNL     1      10.559  16.630  -6.820  1.00  0.00    -0.744 OA
ENDBRANCH  95  99
ENDBRANCH  69  92
ENDBRANCH  43  44
ENDBRANCH  35  38
ENDBRANCH  33  34
ENDBRANCH   1  33
TORSDOF 17
