REMARK SMILES CSCC[C@@H](NS(=O)(=O)c1ccc(F)c(C)c1)C(=O)NCCCNC(=O)c1ccc(-c2c3nc(c(-c4cc(S(=O)(=O)[O-])ccc4F)c4ccc([nH]4)c(-c4cc(S(=O)(=O)[O-])ccc4F)c4nc(c(-c5cc(S(=O)(=O)[O-])ccc5F)c5ccc2[nH]5)C=C4)C=C3)cc1
REMARK SMILES IDX 22 1 21 2 20 3 18 4 19 5 5 7 4 8 3 9 2 10 1 11 6 12 7 14
REMARK SMILES IDX 8 15 9 16 10 17 11 18 17 19 12 20 15 21 13 22 16 23 14 24
REMARK SMILES IDX 23 25 24 26 25 27 26 29 27 30 28 31 89 32 29 33 88 34 30 35
REMARK SMILES IDX 31 36 32 37 82 38 33 39 87 40 81 41 83 42 34 43 86 44 80 45
REMARK SMILES IDX 79 46 35 48 67 49 47 50 66 51 48 52 51 53 65 54 84 55 49 56
REMARK SMILES IDX 50 57 64 59 85 60 52 61 36 62 37 63 45 64 38 65 44 66 46 67
REMARK SMILES IDX 43 68 39 69 40 70 41 71 42 72 68 73 69 74 77 75 70 76 76 77
REMARK SMILES IDX 78 78 75 79 71 80 72 81 73 82 74 83 53 84 54 85 62 86 55 87
REMARK SMILES IDX 61 88 63 89 60 90 56 91 57 92 58 93 59 94
REMARK H PARENT 20 6 6 13 24 28 83 47 51 58
REMARK Flexibility Score: inf
ROOT
ATOM      1  C   UNL     1       1.242   4.044   4.330  1.00  0.00     0.042 C 
ENDROOT
BRANCH   1   2
ATOM      2  C   UNL     1       1.873   2.668   4.308  1.00  0.00     0.117 C 
BRANCH   2   3
ATOM      3  N   UNL     1       0.885   1.622   4.556  1.00  0.00    -0.355 N 
ATOM      4  C   UNL     1       0.417   0.661   3.704  1.00  0.00     0.238 C 
ATOM      5  O   UNL     1      -0.420  -0.148   4.099  1.00  0.00    -0.273 OA
ATOM      6  H   UNL     1       0.503   1.606   5.464  1.00  0.00     0.163 HD
BRANCH   4   7
ATOM      7  C   UNL     1       0.981   0.615   2.288  1.00  0.00     0.159 C 
BRANCH   7   8
ATOM      8  C   UNL     1       0.493   1.887   1.554  1.00  0.00     0.041 C 
BRANCH   8   9
ATOM      9  C   UNL     1       1.079   2.249   0.200  1.00  0.00     0.071 C 
BRANCH   9  10
ATOM     10  S   UNL     1       0.389   1.321  -1.194  1.00  0.00    -0.165 SA
ATOM     11  C   UNL     1       1.139  -0.290  -0.888  1.00  0.00     0.085 C 
ENDBRANCH   9  10
ENDBRANCH   8   9
ENDBRANCH   7   8
BRANCH   7  12
ATOM     12  N   UNL     1       2.451   0.475   2.395  1.00  0.00    -0.199 NA
ATOM     13  H   UNL     1       2.751   1.184   3.064  1.00  0.00     0.142 HD
BRANCH  12  14
ATOM     14  S   UNL     1       3.206  -0.949   2.860  1.00  0.00     0.241 S 
ATOM     15  O   UNL     1       2.634  -1.992   2.039  1.00  0.00    -0.207 OA
ATOM     16  O   UNL     1       4.622  -0.648   2.805  1.00  0.00    -0.207 OA
BRANCH  14  17
ATOM     17  C   UNL     1       2.840  -1.313   4.568  1.00  0.00     0.082 A 
ATOM     18  C   UNL     1       2.925  -0.337   5.561  1.00  0.00     0.025 A 
ATOM     19  C   UNL     1       2.517  -2.629   4.928  1.00  0.00     0.028 A 
ATOM     20  C   UNL     1       2.489  -0.614   6.862  1.00  0.00     0.041 A 
ATOM     21  C   UNL     1       2.207  -2.943   6.262  1.00  0.00    -0.014 A 
ATOM     22  C   UNL     1       2.119  -1.910   7.196  1.00  0.00     0.126 A 
ATOM     23  C   UNL     1       1.990  -4.358   6.705  1.00  0.00     0.047 C 
ATOM     24  F   UNL     1       1.721  -2.173   8.449  1.00  0.00    -0.207 F 
ENDBRANCH  14  17
ENDBRANCH  12  14
ENDBRANCH   7  12
ENDBRANCH   4   7
ENDBRANCH   2   3
ENDBRANCH   1   2
BRANCH   1  25
ATOM     25  C   UNL     1       0.967   4.380   5.756  1.00  0.00     0.118 C 
BRANCH  25  26
ATOM     26  N   UNL     1       2.232   4.610   6.454  1.00  0.00    -0.352 N 
ATOM     27  C   UNL     1       2.411   5.511   7.469  1.00  0.00     0.251 C 
ATOM     28  H   UNL     1       3.011   4.079   6.173  1.00  0.00     0.163 HD
ATOM     29  O   UNL     1       3.529   5.979   7.673  1.00  0.00    -0.269 OA
BRANCH  27  30
ATOM     30  C   UNL     1       1.221   5.772   8.276  1.00  0.00     0.039 A 
ATOM     31  C   UNL     1       0.909   6.998   8.846  1.00  0.00     0.014 A 
ATOM     32  C   UNL     1       0.369   4.675   8.409  1.00  0.00     0.014 A 
ATOM     33  C   UNL     1      -0.215   7.052   9.656  1.00  0.00     0.010 A 
ATOM     34  C   UNL     1      -0.894   4.865   8.824  1.00  0.00     0.010 A 
ATOM     35  C   UNL     1      -1.062   5.941   9.671  1.00  0.00    -0.014 A 
BRANCH  35  36
ATOM     36  C   UNL     1      -2.132   5.689  10.604  1.00  0.00     0.031 A 
ATOM     37  C   UNL     1      -3.240   6.630  10.600  1.00  0.00     0.074 A 
ATOM     38  C   UNL     1      -2.089   4.482  11.226  1.00  0.00     0.049 A 
ATOM     39  N   UNL     1      -3.945   6.916  11.631  1.00  0.00    -0.248 NA
ATOM     40  C   UNL     1      -3.592   7.407   9.409  1.00  0.00     0.031 C 
ATOM     41  C   UNL     1      -3.140   3.723  11.871  1.00  0.00     0.029 A 
ATOM     42  N   UNL     1      -0.985   3.622  11.363  1.00  0.00    -0.354 N 
ATOM     43  C   UNL     1      -5.075   7.514  11.124  1.00  0.00     0.074 A 
ATOM     44  C   UNL     1      -4.680   8.048   9.843  1.00  0.00     0.031 C 
ATOM     45  C   UNL     1      -2.576   2.721  12.580  1.00  0.00     0.029 A 
ATOM     46  C   UNL     1      -1.134   2.916  12.552  1.00  0.00     0.049 A 
ATOM     47  H   UNL     1      -0.237   3.536  10.729  1.00  0.00     0.167 HD
ATOM     48  C   UNL     1      -6.278   7.190  11.682  1.00  0.00     0.034 A 
ATOM     49  C   UNL     1      -0.320   3.175  13.625  1.00  0.00     0.034 A 
ATOM     50  C   UNL     1      -6.075   6.245  12.807  1.00  0.00     0.049 A 
ATOM     51  C   UNL     1      -1.084   3.915  14.721  1.00  0.00     0.074 A 
ATOM     52  C   UNL     1      -6.283   4.883  12.962  1.00  0.00     0.029 A 
ATOM     53  N   UNL     1      -5.210   6.595  13.840  1.00  0.00    -0.354 N 
ATOM     54  N   UNL     1      -2.359   4.195  14.679  1.00  0.00    -0.248 NA
ATOM     55  C   UNL     1      -0.427   4.512  15.880  1.00  0.00     0.031 C 
ATOM     56  C   UNL     1      -5.507   4.426  14.078  1.00  0.00     0.029 A 
ATOM     57  C   UNL     1      -4.840   5.507  14.626  1.00  0.00     0.049 A 
ATOM     58  H   UNL     1      -4.894   7.514  13.998  1.00  0.00     0.167 HD
ATOM     59  C   UNL     1      -2.668   5.112  15.646  1.00  0.00     0.074 A 
ATOM     60  C   UNL     1      -1.419   5.266  16.381  1.00  0.00     0.031 C 
ATOM     61  C   UNL     1      -3.894   5.724  15.733  1.00  0.00     0.034 A 
BRANCH  48  62
ATOM     62  C   UNL     1      -7.615   7.470  11.008  1.00  0.00     0.023 A 
ATOM     63  C   UNL     1      -7.798   8.326   9.893  1.00  0.00     0.031 A 
ATOM     64  C   UNL     1      -8.791   6.848  11.467  1.00  0.00     0.131 A 
ATOM     65  C   UNL     1      -9.044   8.483   9.254  1.00  0.00     0.055 A 
ATOM     66  C   UNL     1     -10.041   7.028  10.855  1.00  0.00     0.041 A 
ATOM     67  F   UNL     1      -8.782   6.022  12.523  1.00  0.00    -0.206 F 
ATOM     68  C   UNL     1     -10.173   7.836   9.735  1.00  0.00     0.022 A 
BRANCH  65  69
ATOM     69  S   UNL     1      -9.215   9.495   7.749  1.00  0.00     0.124 S 
ATOM     70  O   UNL     1      -9.823   8.555   6.808  1.00  0.00    -0.237 OA
ATOM     71  O   UNL     1     -10.087  10.577   8.196  1.00  0.00    -0.237 OA
ATOM     72  O   UNL     1      -7.845   9.884   7.426  1.00  0.00    -0.744 OA
ENDBRANCH  65  69
ENDBRANCH  48  62
BRANCH  49  73
ATOM     73  C   UNL     1       1.084   3.524  13.207  1.00  0.00     0.023 A 
ATOM     74  C   UNL     1       1.487   4.866  13.139  1.00  0.00     0.031 A 
ATOM     75  C   UNL     1       1.798   2.582  12.432  1.00  0.00     0.131 A 
ATOM     76  C   UNL     1       2.428   5.261  12.174  1.00  0.00     0.055 A 
ATOM     77  C   UNL     1       2.692   2.987  11.437  1.00  0.00     0.041 A 
ATOM     78  F   UNL     1       1.506   1.274  12.517  1.00  0.00    -0.206 F 
ATOM     79  C   UNL     1       2.969   4.341  11.270  1.00  0.00     0.022 A 
BRANCH  76  80
ATOM     80  S   UNL     1       2.833   7.025  12.031  1.00  0.00     0.124 S 
ATOM     81  O   UNL     1       3.853   7.168  13.064  1.00  0.00    -0.237 OA
ATOM     82  O   UNL     1       3.317   7.153  10.662  1.00  0.00    -0.237 OA
ATOM     83  O   UNL     1       1.556   7.673  12.300  1.00  0.00    -0.744 OA
ENDBRANCH  76  80
ENDBRANCH  49  73
BRANCH  61  84
ATOM     84  C   UNL     1      -4.294   6.666  16.854  1.00  0.00     0.023 A 
ATOM     85  C   UNL     1      -5.393   7.538  16.679  1.00  0.00     0.031 A 
ATOM     86  C   UNL     1      -3.730   6.675  18.139  1.00  0.00     0.131 A 
ATOM     87  C   UNL     1      -5.801   8.434  17.670  1.00  0.00     0.055 A 
ATOM     88  C   UNL     1      -4.090   7.615  19.114  1.00  0.00     0.041 A 
ATOM     89  F   UNL     1      -2.878   5.721  18.541  1.00  0.00    -0.206 F 
ATOM     90  C   UNL     1      -5.118   8.515  18.875  1.00  0.00     0.022 A 
BRANCH  87  91
ATOM     91  S   UNL     1      -7.286   9.447  17.441  1.00  0.00     0.124 S 
ATOM     92  O   UNL     1      -8.158   8.929  18.493  1.00  0.00    -0.237 OA
ATOM     93  O   UNL     1      -6.771  10.796  17.662  1.00  0.00    -0.237 OA
ATOM     94  O   UNL     1      -7.709   9.154  16.077  1.00  0.00    -0.744 OA
ENDBRANCH  87  91
ENDBRANCH  61  84
ENDBRANCH  35  36
ENDBRANCH  27  30
ENDBRANCH  25  26
ENDBRANCH   1  25
TORSDOF 19
