REMARK SMILES Cc1oc2c(C)c3oc(=O)c(CCC(=O)N[C@H](Cc4ccc(Cl)cc4)C(=O)NCCCNC(=O)c4ccc(-c5c6nc(c(-c7cc(S(=O)(=O)[O-])ccc7F)c7ccc([nH]7)c(-c7cc(S(=O)(=O)[O-])ccc7F)c7nc(c(-c8cc(S(=O)(=O)[O-])ccc8F)c8ccc5[nH]8)C=C7)C=C6)cc4)c(C)c3cc2c1C
REMARK SMILES IDX 29 1 28 2 26 3 27 4 17 6 16 7 14 8 15 9 13 11 12 12 11 13
REMARK SMILES IDX 1 14 2 15 3 16 103 17 4 18 102 19 104 20 5 21 101 22 6 23
REMARK SMILES IDX 7 24 100 25 8 26 98 27 9 28 99 29 10 30 18 31 19 32 20 33
REMARK SMILES IDX 25 34 21 35 24 36 22 37 23 38 30 39 31 40 32 41 33 42 34 44
REMARK SMILES IDX 35 45 36 46 97 47 37 48 96 49 38 50 39 51 40 52 90 53 41 54
REMARK SMILES IDX 95 55 89 56 91 57 42 58 94 59 88 60 87 61 43 63 75 64 55 65
REMARK SMILES IDX 74 66 56 67 59 68 73 69 92 70 57 71 58 72 72 74 93 75 60 76
REMARK SMILES IDX 44 77 45 78 53 79 46 80 52 81 54 82 51 83 47 84 48 85 49 86
REMARK SMILES IDX 50 87 76 88 77 89 85 90 78 91 84 92 86 93 83 94 79 95 80 96
REMARK SMILES IDX 81 97 82 98 61 99 62 100 70 101 63 102 69 103 71 104 68 105
REMARK SMILES IDX 64 106 65 107 66 108 67 109
REMARK H PARENT 28 5 16 10 32 43 91 62 59 73
REMARK Flexibility Score: inf
ROOT
ATOM      1  C   UNL     1      -2.404   0.197  -4.043  1.00  0.00     0.117 C 
ENDROOT
BRANCH   1   2
ATOM      2  N   UNL     1      -2.896  -1.084  -4.515  1.00  0.00    -0.354 N 
ATOM      3  C   UNL     1      -2.970  -1.463  -5.824  1.00  0.00     0.242 C 
ATOM      4  O   UNL     1      -4.078  -1.790  -6.255  1.00  0.00    -0.273 OA
ATOM      5  H   UNL     1      -3.200  -1.730  -3.837  1.00  0.00     0.163 HD
BRANCH   3   6
ATOM      6  C   UNL     1      -1.766  -1.339  -6.780  1.00  0.00     0.175 C 
BRANCH   6   7
ATOM      7  N   UNL     1      -0.464  -1.575  -6.133  1.00  0.00    -0.344 N 
ATOM      8  C   UNL     1       0.636  -2.252  -6.581  1.00  0.00     0.220 C 
ATOM      9  O   UNL     1       1.579  -2.403  -5.800  1.00  0.00    -0.275 OA
ATOM     10  H   UNL     1      -0.372  -1.182  -5.235  1.00  0.00     0.164 HD
BRANCH   8  11
ATOM     11  C   UNL     1       0.709  -2.817  -7.994  1.00  0.00     0.105 C 
BRANCH  11  12
ATOM     12  C   UNL     1       0.401  -4.309  -8.171  1.00  0.00     0.053 C 
BRANCH  12  13
ATOM     13  C   UNL     1      -0.952  -4.681  -7.613  1.00  0.00     0.042 A 
ATOM     14  C   UNL     1      -7.131  -5.060  -1.891  1.00  0.00     0.088 C 
ATOM     15  C   UNL     1      -5.995  -4.893  -2.820  1.00  0.00     0.105 A 
ATOM     16  O   UNL     1      -6.297  -4.862  -4.152  1.00  0.00    -0.461 OA
ATOM     17  C   UNL     1      -4.631  -4.788  -2.630  1.00  0.00    -0.002 A 
ATOM     18  C   UNL     1      -5.116  -4.832  -4.838  1.00  0.00     0.141 A 
ATOM     19  C   UNL     1      -4.068  -4.866  -3.932  1.00  0.00     0.025 A 
ATOM     20  C   UNL     1      -3.870  -4.653  -1.365  1.00  0.00     0.049 C 
ATOM     21  C   UNL     1      -4.957  -4.766  -6.229  1.00  0.00     0.036 A 
ATOM     22  C   UNL     1      -2.757  -4.930  -4.413  1.00  0.00     0.024 A 
ATOM     23  C   UNL     1      -6.112  -4.529  -7.150  1.00  0.00     0.052 C 
ATOM     24  C   UNL     1      -3.611  -4.853  -6.661  1.00  0.00     0.145 A 
ATOM     25  C   UNL     1      -2.520  -4.959  -5.791  1.00  0.00     0.022 A 
ATOM     26  O   UNL     1      -3.368  -4.763  -8.052  1.00  0.00    -0.422 OA
ATOM     27  C   UNL     1      -1.144  -4.958  -6.309  1.00  0.00    -0.030 A 
ATOM     28  C   UNL     1      -2.091  -4.635  -8.576  1.00  0.00     0.339 A 
ATOM     29  C   UNL     1      -0.027  -5.135  -5.307  1.00  0.00     0.046 C 
ATOM     30  O   UNL     1      -1.911  -4.486  -9.780  1.00  0.00    -0.246 OA
ENDBRANCH  12  13
ENDBRANCH  11  12
ENDBRANCH   8  11
ENDBRANCH   6   7
BRANCH   6  31
ATOM     31  C   UNL     1      -1.853  -0.018  -7.570  1.00  0.00     0.070 C 
BRANCH  31  32
ATOM     32  C   UNL     1      -1.524  -0.245  -9.032  1.00  0.00    -0.045 A 
ATOM     33  C   UNL     1      -2.439  -0.929  -9.851  1.00  0.00     0.005 A 
ATOM     34  C   UNL     1      -0.255   0.071  -9.537  1.00  0.00     0.005 A 
ATOM     35  C   UNL     1      -2.065  -1.353 -11.128  1.00  0.00     0.021 A 
ATOM     36  C   UNL     1       0.119  -0.365 -10.812  1.00  0.00     0.021 A 
ATOM     37  C   UNL     1      -0.781  -1.088 -11.594  1.00  0.00     0.041 A 
ATOM     38  Cl  UNL     1      -0.285  -1.688 -13.129  1.00  0.00    -0.084 Cl
ENDBRANCH  31  32
ENDBRANCH   6  31
ENDBRANCH   3   6
ENDBRANCH   1   2
BRANCH   1  39
ATOM     39  C   UNL     1      -3.467   1.302  -4.186  1.00  0.00     0.042 C 
BRANCH  39  40
ATOM     40  C   UNL     1      -4.673   1.188  -3.232  1.00  0.00     0.118 C 
BRANCH  40  41
ATOM     41  N   UNL     1      -4.246   1.299  -1.849  1.00  0.00    -0.352 N 
ATOM     42  C   UNL     1      -4.418   2.317  -0.948  1.00  0.00     0.251 C 
ATOM     43  H   UNL     1      -3.754   0.519  -1.503  1.00  0.00     0.163 HD
ATOM     44  O   UNL     1      -3.520   2.496  -0.125  1.00  0.00    -0.269 OA
BRANCH  42  45
ATOM     45  C   UNL     1      -5.651   3.144  -0.876  1.00  0.00     0.039 A 
ATOM     46  C   UNL     1      -5.542   4.416  -0.294  1.00  0.00     0.014 A 
ATOM     47  C   UNL     1      -6.920   2.637  -1.170  1.00  0.00     0.014 A 
ATOM     48  C   UNL     1      -6.681   5.176  -0.015  1.00  0.00     0.010 A 
ATOM     49  C   UNL     1      -8.063   3.402  -0.889  1.00  0.00     0.010 A 
ATOM     50  C   UNL     1      -7.955   4.678  -0.313  1.00  0.00    -0.014 A 
BRANCH  50  51
ATOM     51  C   UNL     1      -9.116   5.583  -0.126  1.00  0.00     0.031 A 
ATOM     52  C   UNL     1     -10.046   5.660  -1.293  1.00  0.00     0.074 A 
ATOM     53  C   UNL     1      -9.584   5.944   1.092  1.00  0.00     0.049 A 
ATOM     54  N   UNL     1     -10.934   4.741  -1.532  1.00  0.00    -0.248 NA
ATOM     55  C   UNL     1      -9.869   6.605  -2.395  1.00  0.00     0.031 C 
ATOM     56  C   UNL     1      -9.502   5.080   2.277  1.00  0.00     0.029 A 
ATOM     57  N   UNL     1     -10.408   6.977   1.489  1.00  0.00    -0.354 N 
ATOM     58  C   UNL     1     -11.430   4.958  -2.804  1.00  0.00     0.074 A 
ATOM     59  C   UNL     1     -10.739   6.128  -3.302  1.00  0.00     0.031 C 
ATOM     60  C   UNL     1     -10.383   5.523   3.198  1.00  0.00     0.029 A 
ATOM     61  C   UNL     1     -10.983   6.780   2.748  1.00  0.00     0.049 A 
ATOM     62  H   UNL     1     -10.575   7.776   0.938  1.00  0.00     0.167 HD
ATOM     63  C   UNL     1     -12.374   4.157  -3.366  1.00  0.00     0.034 A 
ATOM     64  C   UNL     1     -12.240   7.177   3.099  1.00  0.00     0.034 A 
ATOM     65  C   UNL     1     -12.827   3.074  -2.544  1.00  0.00     0.049 A 
ATOM     66  C   UNL     1     -13.089   6.294   2.220  1.00  0.00     0.074 A 
ATOM     67  C   UNL     1     -12.504   1.747  -2.354  1.00  0.00     0.029 A 
ATOM     68  N   UNL     1     -13.780   3.337  -1.587  1.00  0.00    -0.354 N 
ATOM     69  N   UNL     1     -13.341   5.027   2.413  1.00  0.00    -0.248 NA
ATOM     70  C   UNL     1     -13.376   6.775   0.867  1.00  0.00     0.031 C 
ATOM     71  C   UNL     1     -12.905   1.449  -1.014  1.00  0.00     0.029 A 
ATOM     72  C   UNL     1     -13.414   2.627  -0.470  1.00  0.00     0.049 A 
ATOM     73  H   UNL     1     -14.569   3.918  -1.684  1.00  0.00     0.167 HD
ATOM     74  C   UNL     1     -13.566   4.493   1.145  1.00  0.00     0.074 A 
ATOM     75  C   UNL     1     -13.589   5.626   0.240  1.00  0.00     0.031 C 
ATOM     76  C   UNL     1     -13.543   3.157   0.869  1.00  0.00     0.034 A 
BRANCH  63  77
ATOM     77  C   UNL     1     -13.040   4.403  -4.660  1.00  0.00     0.023 A 
ATOM     78  C   UNL     1     -14.332   4.947  -4.633  1.00  0.00     0.031 A 
ATOM     79  C   UNL     1     -12.547   3.908  -5.873  1.00  0.00     0.131 A 
ATOM     80  C   UNL     1     -15.121   4.939  -5.787  1.00  0.00     0.055 A 
ATOM     81  C   UNL     1     -13.332   3.919  -7.031  1.00  0.00     0.041 A 
ATOM     82  F   UNL     1     -11.324   3.358  -5.940  1.00  0.00    -0.206 F 
ATOM     83  C   UNL     1     -14.634   4.423  -6.987  1.00  0.00     0.022 A 
BRANCH  80  84
ATOM     84  S   UNL     1     -16.824   5.539  -5.648  1.00  0.00     0.124 S 
ATOM     85  O   UNL     1     -17.365   4.676  -4.606  1.00  0.00    -0.237 OA
ATOM     86  O   UNL     1     -16.616   6.935  -5.282  1.00  0.00    -0.237 OA
ATOM     87  O   UNL     1     -17.369   5.319  -6.989  1.00  0.00    -0.744 OA
ENDBRANCH  80  84
ENDBRANCH  63  77
BRANCH  64  88
ATOM     88  C   UNL     1     -12.496   8.650   3.246  1.00  0.00     0.023 A 
ATOM     89  C   UNL     1     -11.547   9.437   3.933  1.00  0.00     0.031 A 
ATOM     90  C   UNL     1     -13.646   9.320   2.790  1.00  0.00     0.131 A 
ATOM     91  C   UNL     1     -11.704  10.829   4.045  1.00  0.00     0.055 A 
ATOM     92  C   UNL     1     -13.785  10.712   2.868  1.00  0.00     0.041 A 
ATOM     93  F   UNL     1     -14.671   8.651   2.244  1.00  0.00    -0.206 F 
ATOM     94  C   UNL     1     -12.801  11.478   3.482  1.00  0.00     0.022 A 
BRANCH  91  95
ATOM     95  S   UNL     1     -10.424  11.792   4.897  1.00  0.00     0.124 S 
ATOM     96  O   UNL     1     -10.688  11.478   6.298  1.00  0.00    -0.237 OA
ATOM     97  O   UNL     1      -9.192  11.241   4.341  1.00  0.00    -0.237 OA
ATOM     98  O   UNL     1     -10.713  13.169   4.501  1.00  0.00    -0.744 OA
ENDBRANCH  91  95
ENDBRANCH  64  88
BRANCH  76  99
ATOM     99  C   UNL     1     -13.408   2.239   2.041  1.00  0.00     0.023 A 
ATOM    100  C   UNL     1     -14.492   2.048   2.909  1.00  0.00     0.031 A 
ATOM    101  C   UNL     1     -12.234   1.499   2.263  1.00  0.00     0.131 A 
ATOM    102  C   UNL     1     -14.399   1.109   3.945  1.00  0.00     0.055 A 
ATOM    103  C   UNL     1     -12.152   0.549   3.282  1.00  0.00     0.041 A 
ATOM    104  F   UNL     1     -11.155   1.656   1.477  1.00  0.00    -0.206 F 
ATOM    105  C   UNL     1     -13.242   0.344   4.124  1.00  0.00     0.022 A 
BRANCH 102 106
ATOM    106  S   UNL     1     -15.834   0.841   5.019  1.00  0.00     0.124 S 
ATOM    107  O   UNL     1     -15.845   2.050   5.837  1.00  0.00    -0.237 OA
ATOM    108  O   UNL     1     -16.929   0.703   4.064  1.00  0.00    -0.237 OA
ATOM    109  O   UNL     1     -15.494  -0.387   5.737  1.00  0.00    -0.744 OA
ENDBRANCH 102 106
ENDBRANCH  76  99
ENDBRANCH  50  51
ENDBRANCH  42  45
ENDBRANCH  40  41
ENDBRANCH  39  40
ENDBRANCH   1  39
TORSDOF 19
