REMARK SMILES Cc1cccc([C@@H](CCC[C@@H]2CCCO2)C(=O)NCCCNC(=O)c2ccc(-c3c4nc(c(-c5cc(S(=O)(=O)[O-])ccc5F)c5ccc([nH]5)c(-c5cc(S(=O)(=O)[O-])ccc5F)c5nc(c(-c6cc(S(=O)(=O)[O-])ccc6F)c6ccc3[nH]6)C=C5)C=C4)cc2)c1
REMARK SMILES IDX 19 1 18 2 16 3 17 4 7 6 6 7 1 8 2 9 3 10 88 11 4 12 5 13
REMARK SMILES IDX 8 14 9 15 10 16 11 17 12 18 15 19 13 20 14 21 20 22 21 23
REMARK SMILES IDX 22 24 23 25 24 27 25 28 26 29 87 30 27 31 86 32 28 33 29 34
REMARK SMILES IDX 30 35 80 36 31 37 85 38 79 39 81 40 32 41 84 42 78 43 77 44
REMARK SMILES IDX 33 46 65 47 45 48 64 49 46 50 49 51 63 52 82 53 47 54 48 55
REMARK SMILES IDX 62 57 83 58 50 59 34 60 35 61 43 62 36 63 42 64 44 65 41 66
REMARK SMILES IDX 37 67 38 68 39 69 40 70 66 71 67 72 75 73 68 74 74 75 76 76
REMARK SMILES IDX 73 77 69 78 70 79 71 80 72 81 51 82 52 83 60 84 53 85 59 86
REMARK SMILES IDX 61 87 58 88 54 89 55 90 56 91 57 92
REMARK H PARENT 18 5 22 26 81 45 49 56
REMARK Flexibility Score: inf
ROOT
ATOM      1  C   UNL     1      -3.795   0.194   1.012  1.00  0.00     0.117 C 
ENDROOT
BRANCH   1   2
ATOM      2  N   UNL     1      -3.032   1.228   1.687  1.00  0.00    -0.356 N 
ATOM      3  C   UNL     1      -2.207   2.193   1.191  1.00  0.00     0.227 C 
ATOM      4  O   UNL     1      -1.824   3.064   1.983  1.00  0.00    -0.274 OA
ATOM      5  H   UNL     1      -3.127   1.234   2.667  1.00  0.00     0.163 HD
BRANCH   3   6
ATOM      6  C   UNL     1      -1.673   2.188  -0.252  1.00  0.00     0.108 C 
BRANCH   6   7
ATOM      7  C   UNL     1      -0.751   0.991  -0.511  1.00  0.00    -0.035 A 
ATOM      8  C   UNL     1       2.885   0.088   0.309  1.00  0.00     0.044 C 
ATOM      9  C   UNL     1       1.459  -0.028  -0.142  1.00  0.00    -0.051 A 
ATOM     10  C   UNL     1       0.964  -1.248  -0.601  1.00  0.00     0.003 A 
ATOM     11  C   UNL     1       0.590   1.070  -0.072  1.00  0.00     0.008 A 
ATOM     12  C   UNL     1      -0.347  -1.338  -1.065  1.00  0.00     0.001 A 
ATOM     13  C   UNL     1      -1.184  -0.216  -1.059  1.00  0.00     0.004 A 
ENDBRANCH   6   7
BRANCH   6  14
ATOM     14  C   UNL     1      -2.553   2.767  -1.392  1.00  0.00     0.018 C 
BRANCH  14  15
ATOM     15  C   UNL     1      -3.903   2.176  -1.818  1.00  0.00     0.004 C 
BRANCH  15  16
ATOM     16  C   UNL     1      -5.095   2.375  -0.869  1.00  0.00     0.032 C 
BRANCH  16  17
ATOM     17  C   UNL     1      -5.804   3.715  -0.823  1.00  0.00     0.118 C 
ATOM     18  C   UNL     1      -6.535   4.143  -2.075  1.00  0.00     0.034 C 
ATOM     19  O   UNL     1      -4.892   4.788  -0.555  1.00  0.00    -0.378 OA
ATOM     20  C   UNL     1      -6.791   5.596  -1.745  1.00  0.00     0.031 C 
ATOM     21  C   UNL     1      -5.558   5.995  -0.950  1.00  0.00     0.160 C 
ENDBRANCH  16  17
ENDBRANCH  15  16
ENDBRANCH  14  15
ENDBRANCH   6  14
ENDBRANCH   3   6
ENDBRANCH   1   2
BRANCH   1  22
ATOM     22  C   UNL     1      -3.317  -1.216   1.287  1.00  0.00     0.042 C 
BRANCH  22  23
ATOM     23  C   UNL     1      -4.380  -2.029   1.997  1.00  0.00     0.118 C 
BRANCH  23  24
ATOM     24  N   UNL     1      -5.430  -2.591   1.145  1.00  0.00    -0.352 N 
ATOM     25  C   UNL     1      -6.559  -3.314   1.524  1.00  0.00     0.251 C 
ATOM     26  H   UNL     1      -5.324  -2.437   0.178  1.00  0.00     0.163 HD
ATOM     27  O   UNL     1      -7.297  -3.813   0.692  1.00  0.00    -0.269 OA
BRANCH  25  28
ATOM     28  C   UNL     1      -6.911  -3.367   2.966  1.00  0.00     0.039 A 
ATOM     29  C   UNL     1      -8.184  -2.927   3.348  1.00  0.00     0.014 A 
ATOM     30  C   UNL     1      -5.900  -3.497   3.906  1.00  0.00     0.014 A 
ATOM     31  C   UNL     1      -8.343  -2.336   4.598  1.00  0.00     0.010 A 
ATOM     32  C   UNL     1      -6.003  -2.745   5.053  1.00  0.00     0.010 A 
ATOM     33  C   UNL     1      -7.211  -2.117   5.378  1.00  0.00    -0.014 A 
BRANCH  33  34
ATOM     34  C   UNL     1      -7.142  -1.167   6.483  1.00  0.00     0.031 A 
ATOM     35  C   UNL     1      -6.786  -1.654   7.835  1.00  0.00     0.074 A 
ATOM     36  C   UNL     1      -7.257   0.160   6.241  1.00  0.00     0.049 A 
ATOM     37  N   UNL     1      -6.892  -0.947   8.905  1.00  0.00    -0.248 NA
ATOM     38  C   UNL     1      -6.340  -3.021   8.110  1.00  0.00     0.031 C 
ATOM     39  C   UNL     1      -6.876   1.263   7.124  1.00  0.00     0.029 A 
ATOM     40  N   UNL     1      -7.974   0.779   5.211  1.00  0.00    -0.354 N 
ATOM     41  C   UNL     1      -6.266  -1.623   9.923  1.00  0.00     0.074 A 
ATOM     42  C   UNL     1      -6.045  -2.947   9.410  1.00  0.00     0.031 C 
ATOM     43  C   UNL     1      -7.568   2.359   6.777  1.00  0.00     0.029 A 
ATOM     44  C   UNL     1      -8.520   1.961   5.758  1.00  0.00     0.049 A 
ATOM     45  H   UNL     1      -8.078   0.454   4.288  1.00  0.00     0.167 HD
ATOM     46  C   UNL     1      -5.904  -0.926  11.032  1.00  0.00     0.034 A 
ATOM     47  C   UNL     1      -9.870   2.130   5.851  1.00  0.00     0.034 A 
ATOM     48  C   UNL     1      -6.611   0.357  11.083  1.00  0.00     0.049 A 
ATOM     49  C   UNL     1     -10.371   2.248   7.277  1.00  0.00     0.074 A 
ATOM     50  C   UNL     1      -6.231   1.675  10.910  1.00  0.00     0.029 A 
ATOM     51  N   UNL     1      -8.005   0.347  11.080  1.00  0.00    -0.354 N 
ATOM     52  N   UNL     1      -9.667   1.950   8.336  1.00  0.00    -0.248 NA
ATOM     53  C   UNL     1     -11.712   2.712   7.617  1.00  0.00     0.031 C 
ATOM     54  C   UNL     1      -7.415   2.441  10.697  1.00  0.00     0.029 A 
ATOM     55  C   UNL     1      -8.511   1.599  10.796  1.00  0.00     0.049 A 
ATOM     56  H   UNL     1      -8.556  -0.449  11.257  1.00  0.00     0.167 HD
ATOM     57  C   UNL     1     -10.427   2.125   9.467  1.00  0.00     0.074 A 
ATOM     58  C   UNL     1     -11.688   2.639   8.960  1.00  0.00     0.031 C 
ATOM     59  C   UNL     1      -9.955   1.811  10.715  1.00  0.00     0.034 A 
BRANCH  46  60
ATOM     60  C   UNL     1      -4.784  -1.306  11.983  1.00  0.00     0.023 A 
ATOM     61  C   UNL     1      -4.469  -0.423  13.039  1.00  0.00     0.031 A 
ATOM     62  C   UNL     1      -3.905  -2.405  11.845  1.00  0.00     0.131 A 
ATOM     63  C   UNL     1      -3.347  -0.633  13.867  1.00  0.00     0.055 A 
ATOM     64  C   UNL     1      -2.824  -2.643  12.704  1.00  0.00     0.041 A 
ATOM     65  F   UNL     1      -3.990  -3.282  10.839  1.00  0.00    -0.206 F 
ATOM     66  C   UNL     1      -2.532  -1.751  13.717  1.00  0.00     0.022 A 
BRANCH  63  67
ATOM     67  S   UNL     1      -2.908   0.619  15.103  1.00  0.00     0.124 S 
ATOM     68  O   UNL     1      -2.637   1.788  14.272  1.00  0.00    -0.237 OA
ATOM     69  O   UNL     1      -4.108   0.673  15.930  1.00  0.00    -0.237 OA
ATOM     70  O   UNL     1      -1.733   0.049  15.761  1.00  0.00    -0.744 OA
ENDBRANCH  63  67
ENDBRANCH  46  60
BRANCH  47  71
ATOM     71  C   UNL     1     -10.604   1.539   4.697  1.00  0.00     0.023 A 
ATOM     72  C   UNL     1     -10.342   2.089   3.422  1.00  0.00     0.031 A 
ATOM     73  C   UNL     1     -11.161   0.255   4.756  1.00  0.00     0.131 A 
ATOM     74  C   UNL     1     -10.483   1.304   2.269  1.00  0.00     0.055 A 
ATOM     75  C   UNL     1     -11.346  -0.510   3.596  1.00  0.00     0.041 A 
ATOM     76  F   UNL     1     -11.394  -0.335   5.938  1.00  0.00    -0.206 F 
ATOM     77  C   UNL     1     -10.961  -0.006   2.353  1.00  0.00     0.022 A 
BRANCH  74  78
ATOM     78  S   UNL     1      -9.812   1.899   0.685  1.00  0.00     0.124 S 
ATOM     79  O   UNL     1     -11.018   2.327  -0.016  1.00  0.00    -0.237 OA
ATOM     80  O   UNL     1      -8.900   2.969   1.079  1.00  0.00    -0.237 OA
ATOM     81  O   UNL     1      -9.150   0.716   0.141  1.00  0.00    -0.744 OA
ENDBRANCH  74  78
ENDBRANCH  47  71
BRANCH  59  82
ATOM     82  C   UNL     1     -10.784   1.727  11.991  1.00  0.00     0.023 A 
ATOM     83  C   UNL     1     -12.187   1.758  12.016  1.00  0.00     0.031 A 
ATOM     84  C   UNL     1     -10.168   1.537  13.255  1.00  0.00     0.131 A 
ATOM     85  C   UNL     1     -12.905   1.700  13.226  1.00  0.00     0.055 A 
ATOM     86  C   UNL     1     -10.886   1.393  14.449  1.00  0.00     0.041 A 
ATOM     87  F   UNL     1      -8.836   1.470  13.393  1.00  0.00    -0.206 F 
ATOM     88  C   UNL     1     -12.266   1.494  14.444  1.00  0.00     0.022 A 
BRANCH  85  89
ATOM     89  S   UNL     1     -14.696   1.976  13.173  1.00  0.00     0.124 S 
ATOM     90  O   UNL     1     -14.775   3.328  12.625  1.00  0.00    -0.237 OA
ATOM     91  O   UNL     1     -15.152   0.908  12.290  1.00  0.00    -0.237 OA
ATOM     92  O   UNL     1     -15.108   1.849  14.569  1.00  0.00    -0.744 OA
ENDBRANCH  85  89
ENDBRANCH  59  82
ENDBRANCH  33  34
ENDBRANCH  25  28
ENDBRANCH  23  24
ENDBRANCH  22  23
ENDBRANCH   1  22
TORSDOF 18
