REMARK SMILES CCCN(CC(=O)OC)C(=O)N1CC[C@H](C(=O)NCCCNC(=O)c2ccc(-c3c4nc(c(-c5cc(S(=O)(=O)[O-])ccc5F)c5ccc([nH]5)c(-c5cc(S(=O)(=O)[O-])ccc5F)c5nc(c(-c6cc(S(=O)(=O)[O-])ccc6F)c6ccc3[nH]6)C=C5)C=C4)cc2)[C@H]1C
REMARK SMILES IDX 19 1 18 2 16 3 17 4 15 6 12 7 13 8 88 9 14 10 89 11 10 12
REMARK SMILES IDX 11 13 4 14 3 15 2 16 1 17 5 18 6 19 7 20 8 21 9 22 20 23
REMARK SMILES IDX 21 24 22 25 23 26 24 28 25 29 26 30 87 31 27 32 86 33 28 34
REMARK SMILES IDX 29 35 30 36 80 37 31 38 85 39 79 40 81 41 32 42 84 43 78 44
REMARK SMILES IDX 77 45 33 47 65 48 45 49 64 50 46 51 49 52 63 53 82 54 47 55
REMARK SMILES IDX 48 56 62 58 83 59 50 60 34 61 35 62 43 63 36 64 42 65 44 66
REMARK SMILES IDX 41 67 37 68 38 69 39 70 40 71 66 72 67 73 75 74 68 75 74 76
REMARK SMILES IDX 76 77 73 78 69 79 70 80 71 81 72 82 51 83 52 84 60 85 53 86
REMARK SMILES IDX 59 87 61 88 58 89 54 90 55 91 56 92 57 93
REMARK H PARENT 18 5 22 27 81 46 49 57
REMARK Flexibility Score: inf
ROOT
ATOM      1  C   UNL     1       2.895  -4.162   5.044  1.00  0.00     0.117 C 
ENDROOT
BRANCH   1   2
ATOM      2  N   UNL     1       2.538  -3.061   5.911  1.00  0.00    -0.356 N 
ATOM      3  C   UNL     1       1.412  -2.327   6.060  1.00  0.00     0.225 C 
ATOM      4  O   UNL     1       1.524  -1.366   6.833  1.00  0.00    -0.275 OA
ATOM      5  H   UNL     1       3.264  -2.789   6.517  1.00  0.00     0.163 HD
BRANCH   3   6
ATOM      6  C   UNL     1       0.031  -2.712   5.515  1.00  0.00     0.102 C 
ATOM      7  N   UNL     1      -0.204  -2.106   3.221  1.00  0.00    -0.321 N 
ATOM      8  C   UNL     1      -0.497  -0.923   4.032  1.00  0.00     0.122 C 
ATOM      9  C   UNL     1      -0.158  -3.285   4.094  1.00  0.00     0.096 C 
ATOM     10  C   UNL     1      -0.839  -1.441   5.420  1.00  0.00     0.037 C 
ATOM     11  C   UNL     1      -1.481  -4.080   4.082  1.00  0.00     0.032 C 
BRANCH   7  12
ATOM     12  C   UNL     1       0.666  -1.913   2.157  1.00  0.00     0.320 C 
ATOM     13  O   UNL     1       1.460  -0.970   2.178  1.00  0.00    -0.248 OA
BRANCH  12  14
ATOM     14  N   UNL     1       0.575  -2.736   1.051  1.00  0.00    -0.314 N 
BRANCH  14  15
ATOM     15  C   UNL     1       1.349  -2.356  -0.139  1.00  0.00     0.122 C 
BRANCH  15  16
ATOM     16  C   UNL     1       0.613  -1.325  -1.014  1.00  0.00     0.018 C 
ATOM     17  C   UNL     1       0.752   0.112  -0.525  1.00  0.00     0.006 C 
ENDBRANCH  15  16
ENDBRANCH  14  15
BRANCH  14  18
ATOM     18  C   UNL     1      -0.342  -3.863   0.876  1.00  0.00     0.243 C 
BRANCH  18  19
ATOM     19  C   UNL     1       0.174  -5.233   1.333  1.00  0.00     0.325 C 
ATOM     20  O   UNL     1      -0.553  -6.220   1.435  1.00  0.00    -0.250 OA
BRANCH  19  21
ATOM     21  O   UNL     1       1.512  -5.245   1.571  1.00  0.00    -0.468 OA
ATOM     22  C   UNL     1       2.072  -6.501   1.976  1.00  0.00     0.282 C 
ENDBRANCH  19  21
ENDBRANCH  18  19
ENDBRANCH  14  18
ENDBRANCH  12  14
ENDBRANCH   7  12
ENDBRANCH   3   6
ENDBRANCH   1   2
BRANCH   1  23
ATOM     23  C   UNL     1       3.532  -3.653   3.752  1.00  0.00     0.042 C 
BRANCH  23  24
ATOM     24  C   UNL     1       4.982  -3.202   3.908  1.00  0.00     0.118 C 
BRANCH  24  25
ATOM     25  N   UNL     1       5.866  -4.328   4.183  1.00  0.00    -0.352 N 
ATOM     26  C   UNL     1       6.904  -4.848   3.451  1.00  0.00     0.251 C 
ATOM     27  H   UNL     1       5.690  -4.792   5.034  1.00  0.00     0.163 HD
ATOM     28  O   UNL     1       7.326  -5.968   3.746  1.00  0.00    -0.269 OA
BRANCH  26  29
ATOM     29  C   UNL     1       7.507  -4.102   2.323  1.00  0.00     0.039 A 
ATOM     30  C   UNL     1       7.969  -4.818   1.212  1.00  0.00     0.014 A 
ATOM     31  C   UNL     1       7.680  -2.717   2.371  1.00  0.00     0.014 A 
ATOM     32  C   UNL     1       8.543  -4.142   0.132  1.00  0.00     0.010 A 
ATOM     33  C   UNL     1       8.183  -2.036   1.263  1.00  0.00     0.010 A 
ATOM     34  C   UNL     1       8.624  -2.741   0.133  1.00  0.00    -0.014 A 
BRANCH  34  35
ATOM     35  C   UNL     1       9.159  -1.995  -1.036  1.00  0.00     0.031 A 
ATOM     36  C   UNL     1      10.403  -1.161  -0.899  1.00  0.00     0.074 A 
ATOM     37  C   UNL     1       8.474  -2.000  -2.195  1.00  0.00     0.049 A 
ATOM     38  N   UNL     1      10.966  -0.360  -1.768  1.00  0.00    -0.248 NA
ATOM     39  C   UNL     1      11.084  -1.213   0.401  1.00  0.00     0.031 C 
ATOM     40  C   UNL     1       7.226  -2.729  -2.432  1.00  0.00     0.029 A 
ATOM     41  N   UNL     1       8.712  -1.354  -3.382  1.00  0.00    -0.354 N 
ATOM     42  C   UNL     1      12.056   0.204  -1.114  1.00  0.00     0.074 A 
ATOM     43  C   UNL     1      12.033  -0.303   0.243  1.00  0.00     0.031 C 
ATOM     44  C   UNL     1       6.811  -2.492  -3.686  1.00  0.00     0.029 A 
ATOM     45  C   UNL     1       7.733  -1.559  -4.326  1.00  0.00     0.049 A 
ATOM     46  H   UNL     1       9.508  -0.798  -3.543  1.00  0.00     0.167 HD
ATOM     47  C   UNL     1      12.998   1.050  -1.605  1.00  0.00     0.034 A 
ATOM     48  C   UNL     1       7.575  -1.033  -5.556  1.00  0.00     0.034 A 
ATOM     49  C   UNL     1      12.999   1.542  -2.963  1.00  0.00     0.049 A 
ATOM     50  C   UNL     1       8.611  -0.074  -6.077  1.00  0.00     0.074 A 
ATOM     51  C   UNL     1      13.943   2.332  -3.595  1.00  0.00     0.029 A 
ATOM     52  N   UNL     1      11.991   1.312  -3.893  1.00  0.00    -0.354 N 
ATOM     53  N   UNL     1       9.682   0.390  -5.476  1.00  0.00    -0.248 NA
ATOM     54  C   UNL     1       8.421   0.427  -7.444  1.00  0.00     0.031 C 
ATOM     55  C   UNL     1      13.471   2.643  -4.876  1.00  0.00     0.029 A 
ATOM     56  C   UNL     1      12.268   1.984  -5.076  1.00  0.00     0.049 A 
ATOM     57  H   UNL     1      11.196   0.753  -3.736  1.00  0.00     0.167 HD
ATOM     58  C   UNL     1      10.300   1.232  -6.395  1.00  0.00     0.074 A 
ATOM     59  C   UNL     1       9.492   1.193  -7.599  1.00  0.00     0.031 C 
ATOM     60  C   UNL     1      11.434   1.968  -6.258  1.00  0.00     0.034 A 
BRANCH  47  61
ATOM     61  C   UNL     1      14.073   1.517  -0.648  1.00  0.00     0.023 A 
ATOM     62  C   UNL     1      14.939   0.611  -0.009  1.00  0.00     0.031 A 
ATOM     63  C   UNL     1      14.196   2.879  -0.320  1.00  0.00     0.131 A 
ATOM     64  C   UNL     1      15.806   1.059   1.000  1.00  0.00     0.055 A 
ATOM     65  C   UNL     1      15.129   3.331   0.617  1.00  0.00     0.041 A 
ATOM     66  F   UNL     1      13.391   3.794  -0.882  1.00  0.00    -0.206 F 
ATOM     67  C   UNL     1      15.925   2.417   1.300  1.00  0.00     0.022 A 
BRANCH  64  68
ATOM     68  S   UNL     1      16.628  -0.179   2.042  1.00  0.00     0.124 S 
ATOM     69  O   UNL     1      15.491  -0.954   2.534  1.00  0.00    -0.237 OA
ATOM     70  O   UNL     1      17.503  -0.858   1.093  1.00  0.00    -0.237 OA
ATOM     71  O   UNL     1      17.308   0.624   3.056  1.00  0.00    -0.744 OA
ENDBRANCH  64  68
ENDBRANCH  47  61
BRANCH  48  72
ATOM     72  C   UNL     1       6.368  -1.379  -6.357  1.00  0.00     0.023 A 
ATOM     73  C   UNL     1       6.462  -2.158  -7.519  1.00  0.00     0.031 A 
ATOM     74  C   UNL     1       5.093  -0.942  -5.953  1.00  0.00     0.131 A 
ATOM     75  C   UNL     1       5.302  -2.462  -8.250  1.00  0.00     0.055 A 
ATOM     76  C   UNL     1       3.938  -1.281  -6.660  1.00  0.00     0.041 A 
ATOM     77  F   UNL     1       4.949  -0.203  -4.840  1.00  0.00    -0.206 F 
ATOM     78  C   UNL     1       4.040  -2.040  -7.820  1.00  0.00     0.022 A 
BRANCH  75  79
ATOM     79  S   UNL     1       5.465  -3.393  -9.798  1.00  0.00     0.124 S 
ATOM     80  O   UNL     1       6.289  -2.496 -10.600  1.00  0.00    -0.237 OA
ATOM     81  O   UNL     1       6.108  -4.623  -9.346  1.00  0.00    -0.237 OA
ATOM     82  O   UNL     1       4.084  -3.547 -10.250  1.00  0.00    -0.744 OA
ENDBRANCH  75  79
ENDBRANCH  48  72
BRANCH  60  83
ATOM     83  C   UNL     1      11.868   2.784  -7.451  1.00  0.00     0.023 A 
ATOM     84  C   UNL     1      11.119   3.886  -7.902  1.00  0.00     0.031 A 
ATOM     85  C   UNL     1      13.042   2.452  -8.150  1.00  0.00     0.131 A 
ATOM     86  C   UNL     1      11.527   4.587  -9.047  1.00  0.00     0.055 A 
ATOM     87  C   UNL     1      13.475   3.190  -9.253  1.00  0.00     0.041 A 
ATOM     88  F   UNL     1      13.792   1.406  -7.768  1.00  0.00    -0.206 F 
ATOM     89  C   UNL     1      12.710   4.258  -9.714  1.00  0.00     0.022 A 
BRANCH  86  90
ATOM     90  S   UNL     1      10.447   5.886  -9.706  1.00  0.00     0.124 S 
ATOM     91  O   UNL     1       9.224   5.144  -9.998  1.00  0.00    -0.237 OA
ATOM     92  O   UNL     1      10.372   6.827  -8.594  1.00  0.00    -0.237 OA
ATOM     93  O   UNL     1      11.171   6.372 -10.880  1.00  0.00    -0.744 OA
ENDBRANCH  86  90
ENDBRANCH  60  83
ENDBRANCH  34  35
ENDBRANCH  26  29
ENDBRANCH  24  25
ENDBRANCH  23  24
ENDBRANCH   1  23
TORSDOF 20
