REMARK SMILES Cc1ccc2c(c1)C=C(C(=O)NCCCNC(=O)c1ccc(-c3c4nc(c(-c5cc(S(=O)(=O)[O-])ccc5F)c5ccc([nH]5)c(-c5cc(S(=O)(=O)[O-])ccc5F)c5nc(c(-c6cc(S(=O)(=O)[O-])ccc6F)c6ccc3[nH]6)C=C5)C=C4)cc1)[C@@H](C(F)(F)F)O2
REMARK SMILES IDX 15 1 14 2 13 3 12 4 10 5 11 6 9 8 1 9 2 10 3 11 7 12 4 13
REMARK SMILES IDX 6 14 5 15 8 16 87 17 82 18 83 19 84 20 85 21 86 22 16 23
REMARK SMILES IDX 17 24 18 26 19 27 20 28 81 29 21 30 80 31 22 32 23 33 24 34
REMARK SMILES IDX 74 35 25 36 79 37 73 38 75 39 26 40 78 41 72 42 71 43 27 45
REMARK SMILES IDX 59 46 39 47 58 48 40 49 43 50 57 51 76 52 41 53 42 54 56 56
REMARK SMILES IDX 77 57 44 58 28 59 29 60 37 61 30 62 36 63 38 64 35 65 31 66
REMARK SMILES IDX 32 67 33 68 34 69 60 70 61 71 69 72 62 73 68 74 70 75 67 76
REMARK SMILES IDX 63 77 64 78 65 79 66 80 45 81 46 82 54 83 47 84 53 85 55 86
REMARK SMILES IDX 52 87 48 88 49 89 50 90 51 91
REMARK H PARENT 12 7 16 25 75 44 43 55
REMARK Flexibility Score: inf
ROOT
ATOM      1  C   UNL     1       1.008   8.988   6.662  1.00  0.00     0.118 C 
ENDROOT
BRANCH   1   2
ATOM      2  C   UNL     1       0.524   7.552   6.502  1.00  0.00     0.042 C 
BRANCH   2   3
ATOM      3  C   UNL     1      -0.444   7.390   5.341  1.00  0.00     0.118 C 
BRANCH   3   4
ATOM      4  N   UNL     1       0.241   7.384   4.056  1.00  0.00    -0.352 N 
ATOM      5  C   UNL     1       0.575   6.476   3.111  1.00  0.00     0.251 C 
ATOM      6  O   UNL     1       1.176   6.936   2.134  1.00  0.00    -0.270 OA
ATOM      7  H   UNL     1       0.545   8.287   3.808  1.00  0.00     0.163 HD
BRANCH   5   8
ATOM      8  C   UNL     1       0.267   5.017   3.166  1.00  0.00     0.067 C 
ATOM      9  C   UNL     1       0.956  -0.137  -0.182  1.00  0.00     0.044 C 
ATOM     10  C   UNL     1       0.578   0.691   1.011  1.00  0.00    -0.050 A 
ATOM     11  C   UNL     1       0.018   0.094   2.147  1.00  0.00     0.007 A 
ATOM     12  C   UNL     1       0.827   2.071   1.013  1.00  0.00     0.015 A 
ATOM     13  C   UNL     1      -0.304   0.868   3.262  1.00  0.00     0.047 A 
ATOM     14  C   UNL     1       0.499   2.850   2.128  1.00  0.00     0.017 A 
ATOM     15  C   UNL     1      -0.073   2.240   3.244  1.00  0.00     0.128 A 
ATOM     16  C   UNL     1       0.779   4.279   2.163  1.00  0.00     0.025 C 
ATOM     17  O   UNL     1      -0.389   2.932   4.378  1.00  0.00    -0.475 OA
ATOM     18  C   UNL     1      -0.585   4.366   4.220  1.00  0.00     0.314 C 
BRANCH  18  19
ATOM     19  C   UNL     1      -2.087   4.648   4.022  1.00  0.00     0.429 C 
ATOM     20  F   UNL     1      -2.775   4.380   5.160  1.00  0.00    -0.167 F 
ATOM     21  F   UNL     1      -2.341   5.943   3.719  1.00  0.00    -0.167 F 
ATOM     22  F   UNL     1      -2.635   3.904   3.035  1.00  0.00    -0.167 F 
ENDBRANCH  18  19
ENDBRANCH   5   8
ENDBRANCH   3   4
ENDBRANCH   2   3
ENDBRANCH   1   2
BRANCH   1  23
ATOM     23  N   UNL     1      -0.065   9.889   7.078  1.00  0.00    -0.352 N 
ATOM     24  C   UNL     1      -0.287  10.516   8.283  1.00  0.00     0.251 C 
ATOM     25  H   UNL     1      -0.738  10.079   6.385  1.00  0.00     0.163 HD
ATOM     26  O   UNL     1      -1.376  11.043   8.497  1.00  0.00    -0.269 OA
BRANCH  24  27
ATOM     27  C   UNL     1       0.767  10.530   9.318  1.00  0.00     0.039 A 
ATOM     28  C   UNL     1       2.099  10.727   8.958  1.00  0.00     0.014 A 
ATOM     29  C   UNL     1       0.427  10.339  10.660  1.00  0.00     0.014 A 
ATOM     30  C   UNL     1       3.101  10.518   9.894  1.00  0.00     0.010 A 
ATOM     31  C   UNL     1       1.436  10.249  11.625  1.00  0.00     0.010 A 
ATOM     32  C   UNL     1       2.785  10.280  11.242  1.00  0.00    -0.014 A 
BRANCH  32  33
ATOM     33  C   UNL     1       3.892  10.086  12.216  1.00  0.00     0.031 A 
ATOM     34  C   UNL     1       4.051   8.789  12.962  1.00  0.00     0.074 A 
ATOM     35  C   UNL     1       4.801  11.070  12.368  1.00  0.00     0.049 A 
ATOM     36  N   UNL     1       4.993   8.436  13.798  1.00  0.00    -0.248 NA
ATOM     37  C   UNL     1       3.023   7.757  12.752  1.00  0.00     0.031 C 
ATOM     38  C   UNL     1       4.739  12.369  11.696  1.00  0.00     0.029 A 
ATOM     39  N   UNL     1       5.962  11.128  13.096  1.00  0.00    -0.354 N 
ATOM     40  C   UNL     1       4.659   7.159  14.236  1.00  0.00     0.074 A 
ATOM     41  C   UNL     1       3.412   6.808  13.594  1.00  0.00     0.031 C 
ATOM     42  C   UNL     1       5.848  13.063  11.979  1.00  0.00     0.029 A 
ATOM     43  C   UNL     1       6.661  12.301  12.923  1.00  0.00     0.049 A 
ATOM     44  H   UNL     1       6.267  10.400  13.685  1.00  0.00     0.167 HD
ATOM     45  C   UNL     1       5.339   6.353  15.085  1.00  0.00     0.034 A 
ATOM     46  C   UNL     1       7.818  12.729  13.467  1.00  0.00     0.034 A 
ATOM     47  C   UNL     1       6.599   6.708  15.689  1.00  0.00     0.049 A 
ATOM     48  C   UNL     1       8.554  11.815  14.408  1.00  0.00     0.074 A 
ATOM     49  C   UNL     1       7.388   5.940  16.528  1.00  0.00     0.029 A 
ATOM     50  N   UNL     1       7.257   7.918  15.519  1.00  0.00    -0.354 N 
ATOM     51  N   UNL     1       8.245  10.593  14.775  1.00  0.00    -0.248 NA
ATOM     52  C   UNL     1       9.790  12.328  15.013  1.00  0.00     0.031 C 
ATOM     53  C   UNL     1       8.487   6.707  16.915  1.00  0.00     0.029 A 
ATOM     54  C   UNL     1       8.427   7.928  16.262  1.00  0.00     0.049 A 
ATOM     55  H   UNL     1       6.940   8.659  14.955  1.00  0.00     0.167 HD
ATOM     56  C   UNL     1       9.248  10.189  15.649  1.00  0.00     0.074 A 
ATOM     57  C   UNL     1      10.193  11.284  15.728  1.00  0.00     0.031 C 
ATOM     58  C   UNL     1       9.367   9.023  16.332  1.00  0.00     0.034 A 
BRANCH  45  59
ATOM     59  C   UNL     1       4.760   5.002  15.425  1.00  0.00     0.023 A 
ATOM     60  C   UNL     1       4.395   4.711  16.754  1.00  0.00     0.031 A 
ATOM     61  C   UNL     1       4.692   3.967  14.476  1.00  0.00     0.131 A 
ATOM     62  C   UNL     1       4.010   3.410  17.102  1.00  0.00     0.055 A 
ATOM     63  C   UNL     1       4.271   2.682  14.821  1.00  0.00     0.041 A 
ATOM     64  F   UNL     1       5.030   4.193  13.196  1.00  0.00    -0.206 F 
ATOM     65  C   UNL     1       3.940   2.396  16.142  1.00  0.00     0.022 A 
BRANCH  62  66
ATOM     66  S   UNL     1       3.648   2.967  18.824  1.00  0.00     0.124 S 
ATOM     67  O   UNL     1       2.266   2.501  18.728  1.00  0.00    -0.237 OA
ATOM     68  O   UNL     1       4.640   1.928  19.086  1.00  0.00    -0.237 OA
ATOM     69  O   UNL     1       3.833   4.215  19.555  1.00  0.00    -0.744 OA
ENDBRANCH  62  66
ENDBRANCH  45  59
BRANCH  46  70
ATOM     70  C   UNL     1       8.340  14.073  13.083  1.00  0.00     0.023 A 
ATOM     71  C   UNL     1       7.580  15.234  13.325  1.00  0.00     0.031 A 
ATOM     72  C   UNL     1       9.526  14.204  12.342  1.00  0.00     0.131 A 
ATOM     73  C   UNL     1       7.963  16.451  12.748  1.00  0.00     0.055 A 
ATOM     74  C   UNL     1       9.947  15.436  11.839  1.00  0.00     0.041 A 
ATOM     75  F   UNL     1      10.279  13.125  12.075  1.00  0.00    -0.206 F 
ATOM     76  C   UNL     1       9.151  16.564  12.020  1.00  0.00     0.022 A 
BRANCH  73  77
ATOM     77  S   UNL     1       6.845  17.881  12.778  1.00  0.00     0.124 S 
ATOM     78  O   UNL     1       7.641  18.874  13.492  1.00  0.00    -0.237 OA
ATOM     79  O   UNL     1       6.648  18.135  11.353  1.00  0.00    -0.237 OA
ATOM     80  O   UNL     1       5.670  17.385  13.486  1.00  0.00    -0.744 OA
ENDBRANCH  73  77
ENDBRANCH  46  70
BRANCH  58  81
ATOM     81  C   UNL     1      10.552   8.844  17.248  1.00  0.00     0.023 A 
ATOM     82  C   UNL     1      11.491   7.826  16.995  1.00  0.00     0.031 A 
ATOM     83  C   UNL     1      10.662   9.569  18.447  1.00  0.00     0.131 A 
ATOM     84  C   UNL     1      12.472   7.531  17.949  1.00  0.00     0.055 A 
ATOM     85  C   UNL     1      11.670   9.303  19.373  1.00  0.00     0.041 A 
ATOM     86  F   UNL     1       9.784  10.542  18.737  1.00  0.00    -0.206 F 
ATOM     87  C   UNL     1      12.572   8.269  19.134  1.00  0.00     0.022 A 
BRANCH  84  88
ATOM     88  S   UNL     1      13.594   6.122  17.733  1.00  0.00     0.124 S 
ATOM     89  O   UNL     1      14.899   6.777  17.707  1.00  0.00    -0.237 OA
ATOM     90  O   UNL     1      13.320   5.325  18.926  1.00  0.00    -0.237 OA
ATOM     91  O   UNL     1      13.171   5.525  16.470  1.00  0.00    -0.744 OA
ENDBRANCH  84  88
ENDBRANCH  58  81
ENDBRANCH  32  33
ENDBRANCH  24  27
ENDBRANCH   1  23
TORSDOF 14
