REMARK SMILES COc1ccc(C(=O)NCCCNC(=O)c2ccc(-c3c4nc(c(-c5cc(S(=O)(=O)[O-])ccc5F)c5ccc([nH]5)c(-c5cc(S(=O)(=O)[O-])ccc5F)c5nc(c(-c6cc(S(=O)(=O)[O-])ccc6F)c6ccc3[nH]6)C=C5)C=C4)cc2)cc1NC(=O)c1cc([N+](=O)[O-])ccc1Cl
REMARK SMILES IDX 11 1 10 2 9 3 7 4 8 5 6 7 3 8 4 9 80 10 5 11 79 12 2 13 1 14
REMARK SMILES IDX 81 15 82 16 83 18 84 19 85 20 92 21 86 22 91 23 93 24 90 25
REMARK SMILES IDX 87 26 88 27 89 28 12 29 13 30 14 31 15 33 16 34 17 35 78 36
REMARK SMILES IDX 18 37 77 38 19 39 20 40 21 41 71 42 22 43 76 44 70 45 72 46
REMARK SMILES IDX 23 47 75 48 69 49 68 50 24 52 56 53 36 54 55 55 37 56 40 57
REMARK SMILES IDX 54 58 73 59 38 60 39 61 53 63 74 64 41 65 25 66 26 67 34 68
REMARK SMILES IDX 27 69 33 70 35 71 32 72 28 73 29 74 30 75 31 76 57 77 58 78
REMARK SMILES IDX 66 79 59 80 65 81 67 82 64 83 60 84 61 85 62 86 63 87 42 88
REMARK SMILES IDX 43 89 51 90 44 91 50 92 52 93 49 94 45 95 46 96 47 97 48 98
REMARK H PARENT 9 6 81 17 13 32 72 51 40 62
REMARK Flexibility Score: inf
ROOT
ATOM      1  C   UNL     1       4.729  -3.388  -6.177  1.00  0.00     0.042 C 
ENDROOT
BRANCH   1   2
ATOM      2  C   UNL     1       3.564  -2.438  -6.443  1.00  0.00     0.118 C 
BRANCH   2   3
ATOM      3  N   UNL     1       2.315  -3.163  -6.503  1.00  0.00    -0.352 N 
ATOM      4  C   UNL     1       1.261  -3.288  -5.643  1.00  0.00     0.251 C 
ATOM      5  O   UNL     1       0.300  -3.946  -6.051  1.00  0.00    -0.269 OA
ATOM      6  H   UNL     1       2.200  -3.673  -7.338  1.00  0.00     0.163 HD
BRANCH   4   7
ATOM      7  C   UNL     1       1.175  -2.664  -4.286  1.00  0.00     0.042 A 
ATOM      8  C   UNL     1       0.706  -1.675  -1.712  1.00  0.00     0.142 A 
ATOM      9  C   UNL     1      -0.373  -2.039  -2.504  1.00  0.00     0.049 A 
ATOM     10  C   UNL     1       2.029  -1.789  -2.178  1.00  0.00     0.084 A 
ATOM     11  C   UNL     1      -0.136  -2.509  -3.791  1.00  0.00     0.018 A 
ATOM     12  C   UNL     1       2.260  -2.319  -3.457  1.00  0.00     0.044 A 
BRANCH   8  13
ATOM     13  O   UNL     1       0.445  -1.265  -0.425  1.00  0.00    -0.495 OA
ATOM     14  C   UNL     1       0.374   0.160  -0.344  1.00  0.00     0.278 C 
ENDBRANCH   8  13
BRANCH  10  15
ATOM     15  N   UNL     1       3.020  -1.380  -1.269  1.00  0.00    -0.319 N 
ATOM     16  C   UNL     1       4.322  -0.978  -1.360  1.00  0.00     0.257 C 
ATOM     17  H   UNL     1       2.696  -1.383  -0.339  1.00  0.00     0.170 HD
ATOM     18  O   UNL     1       4.946  -0.721  -0.329  1.00  0.00    -0.269 OA
BRANCH  16  19
ATOM     19  C   UNL     1       5.035  -0.798  -2.628  1.00  0.00     0.065 A 
ATOM     20  C   UNL     1       6.222  -1.530  -2.759  1.00  0.00     0.101 A 
ATOM     21  C   UNL     1       4.681   0.151  -3.598  1.00  0.00     0.054 A 
ATOM     22  C   UNL     1       7.008  -1.339  -3.892  1.00  0.00     0.270 A 
ATOM     23  C   UNL     1       5.483   0.313  -4.740  1.00  0.00     0.028 A 
ATOM     24  Cl  UNL     1       3.304   1.181  -3.439  1.00  0.00    -0.083 Cl
ATOM     25  C   UNL     1       6.651  -0.440  -4.899  1.00  0.00     0.087 A 
BRANCH  22  26
ATOM     26  N   UNL     1       8.196  -2.149  -4.042  1.00  0.00     0.062 N 
ATOM     27  O   UNL     1       9.149  -1.889  -3.301  1.00  0.00    -0.258 OA
ATOM     28  O   UNL     1       8.136  -3.059  -4.876  1.00  0.00    -0.258 OA
ENDBRANCH  22  26
ENDBRANCH  16  19
ENDBRANCH  10  15
ENDBRANCH   4   7
ENDBRANCH   2   3
ENDBRANCH   1   2
BRANCH   1  29
ATOM     29  C   UNL     1       5.566  -3.711  -7.415  1.00  0.00     0.118 C 
BRANCH  29  30
ATOM     30  N   UNL     1       6.234  -2.538  -7.970  1.00  0.00    -0.352 N 
ATOM     31  C   UNL     1       7.565  -2.266  -8.185  1.00  0.00     0.251 C 
ATOM     32  H   UNL     1       5.623  -1.813  -8.238  1.00  0.00     0.163 HD
ATOM     33  O   UNL     1       7.870  -1.107  -8.468  1.00  0.00    -0.269 OA
BRANCH  31  34
ATOM     34  C   UNL     1       8.619  -3.301  -8.044  1.00  0.00     0.039 A 
ATOM     35  C   UNL     1       9.883  -2.913  -7.577  1.00  0.00     0.014 A 
ATOM     36  C   UNL     1       8.397  -4.637  -8.377  1.00  0.00     0.014 A 
ATOM     37  C   UNL     1      10.880  -3.869  -7.354  1.00  0.00     0.010 A 
ATOM     38  C   UNL     1       9.363  -5.599  -8.084  1.00  0.00     0.010 A 
ATOM     39  C   UNL     1      10.614  -5.228  -7.568  1.00  0.00    -0.014 A 
BRANCH  39  40
ATOM     40  C   UNL     1      11.629  -6.285  -7.307  1.00  0.00     0.031 A 
ATOM     41  C   UNL     1      12.116  -7.138  -8.448  1.00  0.00     0.074 A 
ATOM     42  C   UNL     1      12.038  -6.543  -6.049  1.00  0.00     0.049 A 
ATOM     43  N   UNL     1      12.833  -8.232  -8.425  1.00  0.00    -0.248 NA
ATOM     44  C   UNL     1      11.696  -6.722  -9.794  1.00  0.00     0.031 C 
ATOM     45  C   UNL     1      11.624  -5.806  -4.853  1.00  0.00     0.029 A 
ATOM     46  N   UNL     1      12.878  -7.516  -5.563  1.00  0.00    -0.354 N 
ATOM     47  C   UNL     1      12.913  -8.659  -9.747  1.00  0.00     0.074 A 
ATOM     48  C   UNL     1      12.130  -7.729 -10.534  1.00  0.00     0.031 C 
ATOM     49  C   UNL     1      12.219  -6.346  -3.776  1.00  0.00     0.029 A 
ATOM     50  C   UNL     1      13.015  -7.497  -4.194  1.00  0.00     0.049 A 
ATOM     51  H   UNL     1      13.339  -8.166  -6.141  1.00  0.00     0.167 HD
ATOM     52  C   UNL     1      13.588  -9.719 -10.259  1.00  0.00     0.034 A 
ATOM     53  C   UNL     1      13.686  -8.326  -3.370  1.00  0.00     0.034 A 
ATOM     54  C   UNL     1      14.397 -10.612  -9.465  1.00  0.00     0.049 A 
ATOM     55  C   UNL     1      14.438  -9.494  -3.961  1.00  0.00     0.074 A 
ATOM     56  C   UNL     1      15.171 -11.680  -9.884  1.00  0.00     0.029 A 
ATOM     57  N   UNL     1      14.539 -10.537  -8.085  1.00  0.00    -0.354 N 
ATOM     58  N   UNL     1      14.520  -9.875  -5.215  1.00  0.00    -0.248 NA
ATOM     59  C   UNL     1      15.190 -10.339  -3.024  1.00  0.00     0.031 C 
ATOM     60  C   UNL     1      15.741 -12.280  -8.755  1.00  0.00     0.029 A 
ATOM     61  C   UNL     1      15.374 -11.549  -7.636  1.00  0.00     0.049 A 
ATOM     62  H   UNL     1      14.110  -9.863  -7.510  1.00  0.00     0.167 HD
ATOM     63  C   UNL     1      15.360 -10.986  -5.218  1.00  0.00     0.074 A 
ATOM     64  C   UNL     1      15.764 -11.206  -3.845  1.00  0.00     0.031 C 
ATOM     65  C   UNL     1      15.765 -11.753  -6.262  1.00  0.00     0.034 A 
BRANCH  52  66
ATOM     66  C   UNL     1      13.449  -9.977 -11.741  1.00  0.00     0.023 A 
ATOM     67  C   UNL     1      13.885  -9.044 -12.698  1.00  0.00     0.031 A 
ATOM     68  C   UNL     1      12.825 -11.149 -12.203  1.00  0.00     0.131 A 
ATOM     69  C   UNL     1      13.607  -9.253 -14.057  1.00  0.00     0.055 A 
ATOM     70  C   UNL     1      12.632 -11.393 -13.565  1.00  0.00     0.041 A 
ATOM     71  F   UNL     1      12.370 -12.069 -11.338  1.00  0.00    -0.206 F 
ATOM     72  C   UNL     1      13.006 -10.433 -14.500  1.00  0.00     0.022 A 
BRANCH  69  73
ATOM     73  S   UNL     1      13.896  -7.888 -15.217  1.00  0.00     0.124 S 
ATOM     74  O   UNL     1      13.017  -6.853 -14.676  1.00  0.00    -0.237 OA
ATOM     75  O   UNL     1      15.327  -7.649 -15.074  1.00  0.00    -0.237 OA
ATOM     76  O   UNL     1      13.480  -8.438 -16.505  1.00  0.00    -0.744 OA
ENDBRANCH  69  73
ENDBRANCH  52  66
BRANCH  53  77
ATOM     77  C   UNL     1      13.673  -8.106  -1.895  1.00  0.00     0.023 A 
ATOM     78  C   UNL     1      14.849  -7.763  -1.210  1.00  0.00     0.031 A 
ATOM     79  C   UNL     1      12.499  -8.286  -1.144  1.00  0.00     0.131 A 
ATOM     80  C   UNL     1      14.838  -7.656   0.190  1.00  0.00     0.055 A 
ATOM     81  C   UNL     1      12.481  -8.130   0.244  1.00  0.00     0.041 A 
ATOM     82  F   UNL     1      11.347  -8.611  -1.751  1.00  0.00    -0.206 F 
ATOM     83  C   UNL     1      13.659  -7.826   0.920  1.00  0.00     0.022 A 
BRANCH  80  84
ATOM     84  S   UNL     1      16.409  -7.375   1.052  1.00  0.00     0.124 S 
ATOM     85  O   UNL     1      17.197  -8.522   0.616  1.00  0.00    -0.237 OA
ATOM     86  O   UNL     1      16.817  -6.078   0.522  1.00  0.00    -0.237 OA
ATOM     87  O   UNL     1      16.029  -7.378   2.463  1.00  0.00    -0.744 OA
ENDBRANCH  80  84
ENDBRANCH  53  77
BRANCH  65  88
ATOM     88  C   UNL     1      16.738 -12.864  -5.957  1.00  0.00     0.023 A 
ATOM     89  C   UNL     1      16.358 -14.001  -5.222  1.00  0.00     0.031 A 
ATOM     90  C   UNL     1      18.068 -12.775  -6.402  1.00  0.00     0.131 A 
ATOM     91  C   UNL     1      17.313 -14.981  -4.912  1.00  0.00     0.055 A 
ATOM     92  C   UNL     1      19.001 -13.778  -6.136  1.00  0.00     0.041 A 
ATOM     93  F   UNL     1      18.482 -11.710  -7.108  1.00  0.00    -0.206 F 
ATOM     94  C   UNL     1      18.628 -14.883  -5.377  1.00  0.00     0.022 A 
BRANCH  91  95
ATOM     95  S   UNL     1      16.834 -16.354  -3.828  1.00  0.00     0.124 S 
ATOM     96  O   UNL     1      16.423 -15.655  -2.615  1.00  0.00    -0.237 OA
ATOM     97  O   UNL     1      15.766 -16.995  -4.588  1.00  0.00    -0.237 OA
ATOM     98  O   UNL     1      18.062 -17.139  -3.705  1.00  0.00    -0.744 OA
ENDBRANCH  91  95
ENDBRANCH  65  88
ENDBRANCH  39  40
ENDBRANCH  31  34
ENDBRANCH  29  30
ENDBRANCH   1  29
TORSDOF 17
