REMARK SMILES Cc1cc(C(=O)NC2(CC(=O)NCCCNC(=O)c3ccc(-c4c5nc(c(-c6cc(S(=O)(=O)[O-])ccc6F)c6ccc([nH]6)c(-c6cc(S(=O)(=O)[O-])ccc6F)c6nc(c(-c7cc(S(=O)(=O)[O-])ccc7F)c7ccc4[nH]7)C=C6)C=C5)cc3)CCC2)sc1C
REMARK SMILES IDX 14 1 13 2 12 3 10 4 11 5 9 7 8 8 82 9 84 10 83 11 7 12 5 13
REMARK SMILES IDX 6 14 4 16 1 17 2 18 3 19 86 20 85 21 87 22 15 23 16 24 17 25
REMARK SMILES IDX 18 27 19 28 20 29 81 30 21 31 80 32 22 33 23 34 24 35 74 36
REMARK SMILES IDX 25 37 79 38 73 39 75 40 26 41 78 42 72 43 71 44 27 46 59 47
REMARK SMILES IDX 39 48 58 49 40 50 43 51 57 52 76 53 41 54 42 55 56 57 77 58
REMARK SMILES IDX 44 59 28 60 29 61 37 62 30 63 36 64 38 65 35 66 31 67 32 68
REMARK SMILES IDX 33 69 34 70 60 71 61 72 69 73 62 74 68 75 70 76 67 77 63 78
REMARK SMILES IDX 64 79 65 80 66 81 45 82 46 83 54 84 47 85 53 86 55 87 52 88
REMARK SMILES IDX 48 89 49 90 50 91 51 92
REMARK H PARENT 12 6 7 15 16 26 75 45 43 56
REMARK Flexibility Score: inf
ROOT
ATOM      1  C   UNL     1       6.585  -0.673   2.852  1.00  0.00     0.042 C 
ENDROOT
BRANCH   1   2
ATOM      2  C   UNL     1       7.303  -0.823   1.511  1.00  0.00     0.117 C 
BRANCH   2   3
ATOM      3  N   UNL     1       6.906  -2.051   0.847  1.00  0.00    -0.356 N 
ATOM      4  C   UNL     1       5.960  -2.257  -0.104  1.00  0.00     0.222 C 
ATOM      5  O   UNL     1       5.619  -3.417  -0.348  1.00  0.00    -0.275 OA
ATOM      6  H   UNL     1       7.399  -2.856   1.127  1.00  0.00     0.163 HD
BRANCH   4   7
ATOM      7  C   UNL     1       5.326  -1.108  -0.854  1.00  0.00     0.128 C 
BRANCH   7   8
ATOM      8  C   UNL     1       3.932  -0.649  -0.360  1.00  0.00     0.049 C 
ATOM      9  C   UNL     1       3.358   0.406  -1.340  1.00  0.00     0.029 C 
ATOM     10  C   UNL     1       4.012   0.448   0.726  1.00  0.00     0.029 C 
ATOM     11  C   UNL     1       3.774   1.514  -0.356  1.00  0.00     0.005 C 
BRANCH   8  12
ATOM     12  N   UNL     1       3.082  -1.828  -0.059  1.00  0.00    -0.345 N 
ATOM     13  C   UNL     1       1.743  -2.122   0.123  1.00  0.00     0.261 C 
ATOM     14  O   UNL     1       1.513  -3.336   0.205  1.00  0.00    -0.268 OA
ATOM     15  H   UNL     1       3.633  -2.638   0.041  1.00  0.00     0.164 HD
BRANCH  13  16
ATOM     16  C   UNL     1       0.642  -1.171   0.154  1.00  0.00     0.092 A 
ATOM     17  C   UNL     1      -3.033  -0.437  -0.350  1.00  0.00     0.045 C 
ATOM     18  C   UNL     1      -1.570  -0.354  -0.074  1.00  0.00    -0.037 A 
ATOM     19  C   UNL     1      -0.680  -1.479  -0.139  1.00  0.00     0.029 A 
ATOM     20  C   UNL     1      -0.869   0.791   0.259  1.00  0.00     0.005 A 
ATOM     21  S   UNL     1       0.716   0.415   0.752  1.00  0.00    -0.135 S 
ATOM     22  C   UNL     1      -1.328   2.209   0.299  1.00  0.00     0.056 C 
ENDBRANCH  13  16
ENDBRANCH   8  12
ENDBRANCH   7   8
ENDBRANCH   4   7
ENDBRANCH   2   3
ENDBRANCH   1   2
BRANCH   1  23
ATOM     23  C   UNL     1       7.118  -1.599   3.938  1.00  0.00     0.118 C 
BRANCH  23  24
ATOM     24  N   UNL     1       8.452  -1.214   4.370  1.00  0.00    -0.352 N 
ATOM     25  C   UNL     1       8.877  -0.619   5.533  1.00  0.00     0.251 C 
ATOM     26  H   UNL     1       9.167  -1.412   3.723  1.00  0.00     0.163 HD
ATOM     27  O   UNL     1      10.004  -0.131   5.563  1.00  0.00    -0.269 OA
BRANCH  25  28
ATOM     28  C   UNL     1       8.004  -0.550   6.730  1.00  0.00     0.039 A 
ATOM     29  C   UNL     1       8.094   0.569   7.565  1.00  0.00     0.014 A 
ATOM     30  C   UNL     1       7.150  -1.600   7.078  1.00  0.00     0.014 A 
ATOM     31  C   UNL     1       7.301   0.652   8.714  1.00  0.00     0.010 A 
ATOM     32  C   UNL     1       6.293  -1.475   8.170  1.00  0.00     0.010 A 
ATOM     33  C   UNL     1       6.373  -0.357   9.013  1.00  0.00    -0.014 A 
BRANCH  33  34
ATOM     34  C   UNL     1       5.512  -0.287  10.225  1.00  0.00     0.031 A 
ATOM     35  C   UNL     1       5.639  -1.336  11.300  1.00  0.00     0.074 A 
ATOM     36  C   UNL     1       4.584   0.683  10.336  1.00  0.00     0.049 A 
ATOM     37  N   UNL     1       4.929  -1.504  12.386  1.00  0.00    -0.248 NA
ATOM     38  C   UNL     1       6.685  -2.350  11.105  1.00  0.00     0.031 C 
ATOM     39  C   UNL     1       4.343   1.739   9.351  1.00  0.00     0.029 A 
ATOM     40  N   UNL     1       3.668   0.937  11.325  1.00  0.00    -0.354 N 
ATOM     41  C   UNL     1       5.431  -2.651  12.995  1.00  0.00     0.074 A 
ATOM     42  C   UNL     1       6.454  -3.174  12.114  1.00  0.00     0.031 C 
ATOM     43  C   UNL     1       3.369   2.546   9.802  1.00  0.00     0.029 A 
ATOM     44  C   UNL     1       2.882   2.040  11.081  1.00  0.00     0.049 A 
ATOM     45  H   UNL     1       3.580   0.383  12.134  1.00  0.00     0.167 HD
ATOM     46  C   UNL     1       5.093  -3.201  14.189  1.00  0.00     0.034 A 
ATOM     47  C   UNL     1       1.879   2.577  11.802  1.00  0.00     0.034 A 
ATOM     48  C   UNL     1       4.078  -2.659  15.060  1.00  0.00     0.049 A 
ATOM     49  C   UNL     1       1.491   1.929  13.107  1.00  0.00     0.074 A 
ATOM     50  C   UNL     1       3.681  -3.106  16.309  1.00  0.00     0.029 A 
ATOM     51  N   UNL     1       3.294  -1.548  14.771  1.00  0.00    -0.354 N 
ATOM     52  N   UNL     1       1.997   0.864  13.684  1.00  0.00    -0.248 NA
ATOM     53  C   UNL     1       0.400   2.562  13.858  1.00  0.00     0.031 C 
ATOM     54  C   UNL     1       2.618  -2.305  16.745  1.00  0.00     0.029 A 
ATOM     55  C   UNL     1       2.398  -1.313  15.804  1.00  0.00     0.049 A 
ATOM     56  H   UNL     1       3.364  -1.007  13.952  1.00  0.00     0.167 HD
ATOM     57  C   UNL     1       1.306   0.720  14.884  1.00  0.00     0.074 A 
ATOM     58  C   UNL     1       0.357   1.813  14.950  1.00  0.00     0.031 C 
ATOM     59  C   UNL     1       1.448  -0.226  15.849  1.00  0.00     0.034 A 
BRANCH  46  60
ATOM     60  C   UNL     1       5.818  -4.464  14.595  1.00  0.00     0.023 A 
ATOM     61  C   UNL     1       7.213  -4.487  14.773  1.00  0.00     0.031 A 
ATOM     62  C   UNL     1       5.119  -5.674  14.752  1.00  0.00     0.131 A 
ATOM     63  C   UNL     1       7.874  -5.705  14.992  1.00  0.00     0.055 A 
ATOM     64  C   UNL     1       5.774  -6.868  15.064  1.00  0.00     0.041 A 
ATOM     65  F   UNL     1       3.789  -5.724  14.579  1.00  0.00    -0.206 F 
ATOM     66  C   UNL     1       7.162  -6.893  15.165  1.00  0.00     0.022 A 
BRANCH  63  67
ATOM     67  S   UNL     1       9.684  -5.739  14.869  1.00  0.00     0.124 S 
ATOM     68  O   UNL     1       9.896  -5.235  13.514  1.00  0.00    -0.237 OA
ATOM     69  O   UNL     1      10.091  -4.851  15.952  1.00  0.00    -0.237 OA
ATOM     70  O   UNL     1      10.014  -7.150  15.059  1.00  0.00    -0.744 OA
ENDBRANCH  63  67
ENDBRANCH  46  60
BRANCH  47  71
ATOM     71  C   UNL     1       1.171   3.795  11.319  1.00  0.00     0.023 A 
ATOM     72  C   UNL     1       1.265   5.007  12.021  1.00  0.00     0.031 A 
ATOM     73  C   UNL     1       0.365   3.761  10.167  1.00  0.00     0.131 A 
ATOM     74  C   UNL     1       0.534   6.124  11.591  1.00  0.00     0.055 A 
ATOM     75  C   UNL     1      -0.323   4.889   9.715  1.00  0.00     0.041 A 
ATOM     76  F   UNL     1       0.246   2.629   9.455  1.00  0.00    -0.206 F 
ATOM     77  C   UNL     1      -0.250   6.077  10.436  1.00  0.00     0.022 A 
BRANCH  74  78
ATOM     78  S   UNL     1       0.567   7.627  12.607  1.00  0.00     0.124 S 
ATOM     79  O   UNL     1       0.047   7.138  13.878  1.00  0.00    -0.237 OA
ATOM     80  O   UNL     1       1.983   7.977  12.584  1.00  0.00    -0.237 OA
ATOM     81  O   UNL     1      -0.311   8.545  11.884  1.00  0.00    -0.744 OA
ENDBRANCH  74  78
ENDBRANCH  47  71
BRANCH  59  82
ATOM     82  C   UNL     1       0.583  -0.082  17.077  1.00  0.00     0.023 A 
ATOM     83  C   UNL     1      -0.812  -0.247  17.024  1.00  0.00     0.031 A 
ATOM     84  C   UNL     1       1.165   0.245  18.314  1.00  0.00     0.131 A 
ATOM     85  C   UNL     1      -1.585  -0.030  18.175  1.00  0.00     0.055 A 
ATOM     86  C   UNL     1       0.397   0.402  19.469  1.00  0.00     0.041 A 
ATOM     87  F   UNL     1       2.493   0.417  18.421  1.00  0.00    -0.206 F 
ATOM     88  C   UNL     1      -0.987   0.277  19.400  1.00  0.00     0.022 A 
BRANCH  85  89
ATOM     89  S   UNL     1      -3.393  -0.066  18.030  1.00  0.00     0.124 S 
ATOM     90  O   UNL     1      -3.639   0.981  17.044  1.00  0.00    -0.237 OA
ATOM     91  O   UNL     1      -3.644  -1.432  17.586  1.00  0.00    -0.237 OA
ATOM     92  O   UNL     1      -3.851   0.239  19.385  1.00  0.00    -0.744 OA
ENDBRANCH  85  89
ENDBRANCH  59  82
ENDBRANCH  33  34
ENDBRANCH  25  28
ENDBRANCH  23  24
ENDBRANCH   1  23
TORSDOF 16
