REMARK SMILES CCCC[C@@H](C(=O)NCCCNC(=O)c1ccc(-c2c3nc(c(-c4cc(S(=O)(=O)[O-])ccc4F)c4ccc([nH]4)c(-c4cc(S(=O)(=O)[O-])ccc4F)c4nc(c(-c5cc(S(=O)(=O)[O-])ccc5F)c5ccc2[nH]5)C=C4)C=C3)cc1)[C@@H](O)c1cccc(C(F)(F)F)c1
REMARK SMILES IDX 10 1 9 2 8 3 6 4 7 5 5 7 4 8 3 9 2 10 1 11 78 12 79 13 80 15
REMARK SMILES IDX 81 16 89 17 82 18 84 19 83 20 85 21 86 22 87 23 88 24 11 25
REMARK SMILES IDX 12 26 13 27 14 29 15 30 16 31 77 32 17 33 76 34 18 35 19 36
REMARK SMILES IDX 20 37 70 38 21 39 75 40 69 41 71 42 22 43 74 44 68 45 67 46
REMARK SMILES IDX 23 48 55 49 35 50 54 51 36 52 39 53 53 54 72 55 37 56 38 57
REMARK SMILES IDX 52 59 73 60 40 61 24 62 25 63 33 64 26 65 32 66 34 67 31 68
REMARK SMILES IDX 27 69 28 70 29 71 30 72 56 73 57 74 65 75 58 76 64 77 66 78
REMARK SMILES IDX 63 79 59 80 60 81 61 82 62 83 41 84 42 85 50 86 43 87 49 88
REMARK SMILES IDX 51 89 48 90 44 91 45 92 46 93 47 94
REMARK H PARENT 8 6 79 14 12 28 71 47 39 58
REMARK Flexibility Score: inf
ROOT
ATOM      1  C   UNL     1       0.303   4.112  -1.463  1.00  0.00     0.042 C 
ENDROOT
BRANCH   1   2
ATOM      2  C   UNL     1      -1.014   3.362  -1.633  1.00  0.00     0.117 C 
BRANCH   2   3
ATOM      3  N   UNL     1      -1.228   3.048  -3.034  1.00  0.00    -0.356 N 
ATOM      4  C   UNL     1      -1.038   1.890  -3.723  1.00  0.00     0.226 C 
ATOM      5  O   UNL     1      -1.033   1.977  -4.953  1.00  0.00    -0.275 OA
ATOM      6  H   UNL     1      -1.565   3.798  -3.575  1.00  0.00     0.163 HD
BRANCH   4   7
ATOM      7  C   UNL     1      -0.899   0.538  -3.013  1.00  0.00     0.111 C 
BRANCH   7   8
ATOM      8  C   UNL     1       0.602   0.136  -2.900  1.00  0.00     0.016 C 
BRANCH   8   9
ATOM      9  C   UNL     1       1.455   0.805  -1.820  1.00  0.00     0.001 C 
BRANCH   9  10
ATOM     10  C   UNL     1       1.003   0.591  -0.373  1.00  0.00    -0.003 C 
ATOM     11  C   UNL     1       1.409  -0.764   0.182  1.00  0.00     0.004 C 
ENDBRANCH   9  10
ENDBRANCH   8   9
ENDBRANCH   7   8
BRANCH   7  12
ATOM     12  C   UNL     1      -1.688  -0.514  -3.875  1.00  0.00     0.157 C 
BRANCH  12  13
ATOM     13  O   UNL     1      -1.191  -1.834  -3.593  1.00  0.00    -0.388 OA
ATOM     14  H   UNL     1      -1.379  -2.059  -2.668  1.00  0.00     0.211 HD
ENDBRANCH  12  13
BRANCH  12  15
ATOM     15  C   UNL     1      -3.209  -0.553  -3.697  1.00  0.00    -0.018 A 
ATOM     16  C   UNL     1      -3.998   0.607  -3.697  1.00  0.00     0.006 A 
ATOM     17  C   UNL     1      -3.886  -1.790  -3.643  1.00  0.00     0.019 A 
ATOM     18  C   UNL     1      -5.392   0.538  -3.607  1.00  0.00     0.001 A 
ATOM     19  C   UNL     1      -5.286  -1.877  -3.562  1.00  0.00     0.056 A 
ATOM     20  C   UNL     1      -6.034  -0.696  -3.536  1.00  0.00     0.013 A 
BRANCH  19  21
ATOM     21  C   UNL     1      -5.978  -3.216  -3.515  1.00  0.00     0.416 C 
ATOM     22  F   UNL     1      -6.675  -3.403  -2.359  1.00  0.00    -0.166 F 
ATOM     23  F   UNL     1      -6.886  -3.369  -4.521  1.00  0.00    -0.166 F 
ATOM     24  F   UNL     1      -5.135  -4.282  -3.617  1.00  0.00    -0.166 F 
ENDBRANCH  19  21
ENDBRANCH  12  15
ENDBRANCH   7  12
ENDBRANCH   4   7
ENDBRANCH   2   3
ENDBRANCH   1   2
BRANCH   1  25
ATOM     25  C   UNL     1       0.195   5.601  -1.739  1.00  0.00     0.118 C 
BRANCH  25  26
ATOM     26  N   UNL     1      -0.354   6.327  -0.609  1.00  0.00    -0.352 N 
ATOM     27  C   UNL     1       0.225   7.311   0.160  1.00  0.00     0.251 C 
ATOM     28  H   UNL     1      -1.273   6.081  -0.357  1.00  0.00     0.163 HD
ATOM     29  O   UNL     1      -0.317   7.640   1.210  1.00  0.00    -0.269 OA
BRANCH  27  30
ATOM     30  C   UNL     1       1.502   7.943  -0.257  1.00  0.00     0.039 A 
ATOM     31  C   UNL     1       2.446   8.268   0.721  1.00  0.00     0.014 A 
ATOM     32  C   UNL     1       1.769   8.234  -1.598  1.00  0.00     0.014 A 
ATOM     33  C   UNL     1       3.671   8.831   0.348  1.00  0.00     0.010 A 
ATOM     34  C   UNL     1       3.028   8.694  -1.976  1.00  0.00     0.010 A 
ATOM     35  C   UNL     1       3.988   9.018  -1.007  1.00  0.00    -0.014 A 
BRANCH  35  36
ATOM     36  C   UNL     1       5.292   9.598  -1.431  1.00  0.00     0.031 A 
ATOM     37  C   UNL     1       5.317  10.896  -2.199  1.00  0.00     0.074 A 
ATOM     38  C   UNL     1       6.442   8.945  -1.168  1.00  0.00     0.049 A 
ATOM     39  N   UNL     1       6.332  11.522  -2.738  1.00  0.00    -0.248 NA
ATOM     40  C   UNL     1       4.022  11.560  -2.414  1.00  0.00     0.031 C 
ATOM     41  C   UNL     1       6.548   7.672  -0.453  1.00  0.00     0.029 A 
ATOM     42  N   UNL     1       7.744   9.261  -1.472  1.00  0.00    -0.354 N 
ATOM     43  C   UNL     1       5.797  12.647  -3.358  1.00  0.00     0.074 A 
ATOM     44  C   UNL     1       4.362  12.571  -3.199  1.00  0.00     0.031 C 
ATOM     45  C   UNL     1       7.843   7.335  -0.342  1.00  0.00     0.029 A 
ATOM     46  C   UNL     1       8.659   8.334  -1.026  1.00  0.00     0.049 A 
ATOM     47  H   UNL     1       7.999  10.074  -1.964  1.00  0.00     0.167 HD
ATOM     48  C   UNL     1       6.443  13.669  -3.972  1.00  0.00     0.034 A 
ATOM     49  C   UNL     1       9.999   8.289  -1.163  1.00  0.00     0.034 A 
ATOM     50  C   UNL     1       7.876  13.739  -4.114  1.00  0.00     0.049 A 
ATOM     51  C   UNL     1      10.690   9.408  -1.908  1.00  0.00     0.074 A 
ATOM     52  C   UNL     1       8.638  14.734  -4.701  1.00  0.00     0.029 A 
ATOM     53  N   UNL     1       8.767  12.773  -3.663  1.00  0.00    -0.354 N 
ATOM     54  N   UNL     1      10.169  10.477  -2.465  1.00  0.00    -0.248 NA
ATOM     55  C   UNL     1      12.151   9.318  -2.033  1.00  0.00     0.031 C 
ATOM     56  C   UNL     1       9.979  14.340  -4.664  1.00  0.00     0.029 A 
ATOM     57  C   UNL     1      10.066  13.139  -3.980  1.00  0.00     0.049 A 
ATOM     58  H   UNL     1       8.513  11.948  -3.188  1.00  0.00     0.167 HD
ATOM     59  C   UNL     1      11.246  11.207  -2.963  1.00  0.00     0.074 A 
ATOM     60  C   UNL     1      12.442  10.463  -2.630  1.00  0.00     0.031 C 
ATOM     61  C   UNL     1      11.249  12.388  -3.633  1.00  0.00     0.034 A 
BRANCH  48  62
ATOM     62  C   UNL     1       5.598  14.784  -4.542  1.00  0.00     0.023 A 
ATOM     63  C   UNL     1       4.787  15.584  -3.717  1.00  0.00     0.031 A 
ATOM     64  C   UNL     1       5.582  15.040  -5.924  1.00  0.00     0.131 A 
ATOM     65  C   UNL     1       3.939  16.545  -4.286  1.00  0.00     0.055 A 
ATOM     66  C   UNL     1       4.801  16.058  -6.476  1.00  0.00     0.041 A 
ATOM     67  F   UNL     1       6.316  14.296  -6.766  1.00  0.00    -0.206 F 
ATOM     68  C   UNL     1       3.961  16.808  -5.657  1.00  0.00     0.022 A 
BRANCH  65  69
ATOM     69  S   UNL     1       2.702  17.342  -3.226  1.00  0.00     0.124 S 
ATOM     70  O   UNL     1       1.930  16.192  -2.760  1.00  0.00    -0.237 OA
ATOM     71  O   UNL     1       3.525  18.007  -2.223  1.00  0.00    -0.237 OA
ATOM     72  O   UNL     1       1.989  18.232  -4.140  1.00  0.00    -0.744 OA
ENDBRANCH  65  69
ENDBRANCH  48  62
BRANCH  49  73
ATOM     73  C   UNL     1      10.792   7.155  -0.600  1.00  0.00     0.023 A 
ATOM     74  C   UNL     1      11.784   7.383   0.368  1.00  0.00     0.031 A 
ATOM     75  C   UNL     1      10.630   5.842  -1.076  1.00  0.00     0.131 A 
ATOM     76  C   UNL     1      12.620   6.332   0.775  1.00  0.00     0.055 A 
ATOM     77  C   UNL     1      11.419   4.786  -0.616  1.00  0.00     0.041 A 
ATOM     78  F   UNL     1       9.697   5.564  -2.002  1.00  0.00    -0.206 F 
ATOM     79  C   UNL     1      12.435   5.032   0.302  1.00  0.00     0.022 A 
BRANCH  76  80
ATOM     80  S   UNL     1      14.040   6.720   1.836  1.00  0.00     0.124 S 
ATOM     81  O   UNL     1      14.732   7.731   1.045  1.00  0.00    -0.237 OA
ATOM     82  O   UNL     1      13.389   7.190   3.054  1.00  0.00    -0.237 OA
ATOM     83  O   UNL     1      14.733   5.439   1.956  1.00  0.00    -0.744 OA
ENDBRANCH  76  80
ENDBRANCH  49  73
BRANCH  61  84
ATOM     84  C   UNL     1      12.593  12.977  -3.987  1.00  0.00     0.023 A 
ATOM     85  C   UNL     1      13.458  12.360  -4.905  1.00  0.00     0.031 A 
ATOM     86  C   UNL     1      13.013  14.178  -3.386  1.00  0.00     0.131 A 
ATOM     87  C   UNL     1      14.723  12.913  -5.154  1.00  0.00     0.055 A 
ATOM     88  C   UNL     1      14.245  14.760  -3.688  1.00  0.00     0.041 A 
ATOM     89  F   UNL     1      12.228  14.811  -2.500  1.00  0.00    -0.206 F 
ATOM     90  C   UNL     1      15.114  14.119  -4.566  1.00  0.00     0.022 A 
BRANCH  87  91
ATOM     91  S   UNL     1      15.891  11.986  -6.186  1.00  0.00     0.124 S 
ATOM     92  O   UNL     1      16.009  10.729  -5.456  1.00  0.00    -0.237 OA
ATOM     93  O   UNL     1      15.191  11.917  -7.465  1.00  0.00    -0.237 OA
ATOM     94  O   UNL     1      17.091  12.822  -6.182  1.00  0.00    -0.744 OA
ENDBRANCH  87  91
ENDBRANCH  61  84
ENDBRANCH  35  36
ENDBRANCH  27  30
ENDBRANCH  25  26
ENDBRANCH   1  25
TORSDOF 20
