REMARK SMILES COc1ccc(F)c(-n2nnc3cc(C(=O)NCCCNC(=O)c4ccc(-c5c6nc(c(-c7cc(S(=O)(=O)[O-])ccc7F)c7ccc([nH]7)c(-c7cc(S(=O)(=O)[O-])ccc7F)c7nc(c(-c8cc(S(=O)(=O)[O-])ccc8F)c8ccc5[nH]8)C=C7)C=C6)cc4)ccc32)c1
REMARK SMILES IDX 19 1 18 2 17 3 15 4 16 5 14 7 9 8 10 9 89 10 11 11 12 12
REMARK SMILES IDX 88 13 13 14 87 15 8 16 3 17 4 18 90 19 5 20 6 21 7 22 2 23
REMARK SMILES IDX 1 24 20 25 21 26 22 27 23 29 24 30 25 31 86 32 26 33 85 34
REMARK SMILES IDX 27 35 28 36 29 37 79 38 30 39 84 40 78 41 80 42 31 43 83 44
REMARK SMILES IDX 77 45 76 46 32 48 64 49 44 50 63 51 45 52 48 53 62 54 81 55
REMARK SMILES IDX 46 56 47 57 61 59 82 60 49 61 33 62 34 63 42 64 35 65 41 66
REMARK SMILES IDX 43 67 40 68 36 69 37 70 38 71 39 72 65 73 66 74 74 75 67 76
REMARK SMILES IDX 73 77 75 78 72 79 68 80 69 81 70 82 71 83 50 84 51 85 59 86
REMARK SMILES IDX 52 87 58 88 60 89 57 90 53 91 54 92 55 93 56 94
REMARK H PARENT 17 6 21 28 80 47 48 58
REMARK Flexibility Score: inf
ROOT
ATOM      1  C   UNL     1       0.786  -2.858  11.253  1.00  0.00     0.042 C 
ENDROOT
BRANCH   1   2
ATOM      2  C   UNL     1       0.728  -4.290  10.710  1.00  0.00     0.118 C 
BRANCH   2   3
ATOM      3  N   UNL     1      -0.646  -4.753  10.570  1.00  0.00    -0.352 N 
ATOM      4  C   UNL     1      -1.517  -4.871   9.519  1.00  0.00     0.251 C 
ATOM      5  O   UNL     1      -2.623  -5.355   9.773  1.00  0.00    -0.269 OA
ATOM      6  H   UNL     1      -1.037  -5.049  11.424  1.00  0.00     0.163 HD
BRANCH   4   7
ATOM      7  C   UNL     1      -1.209  -4.492   8.108  1.00  0.00     0.042 A 
ATOM      8  N   UNL     1      -0.802  -3.846   4.061  1.00  0.00    -0.210 N 
ATOM      9  N   UNL     1      -1.996  -4.306   3.617  1.00  0.00    -0.061 NA
ATOM     10  C   UNL     1      -0.735  -3.932   5.436  1.00  0.00     0.095 A 
ATOM     11  N   UNL     1      -2.602  -4.902   4.641  1.00  0.00    -0.130 NA
ATOM     12  C   UNL     1      -1.863  -4.661   5.770  1.00  0.00     0.114 A 
ATOM     13  C   UNL     1       0.136  -3.395   6.386  1.00  0.00     0.031 A 
ATOM     14  C   UNL     1      -2.086  -4.990   7.116  1.00  0.00     0.046 A 
ATOM     15  C   UNL     1      -0.159  -3.651   7.728  1.00  0.00     0.016 A 
BRANCH   8  16
ATOM     16  C   UNL     1       0.142  -3.247   3.221  1.00  0.00     0.106 A 
ATOM     17  C   UNL     1       0.755  -1.481   1.702  1.00  0.00     0.121 A 
ATOM     18  C   UNL     1       2.095  -1.877   1.798  1.00  0.00     0.049 A 
ATOM     19  C   UNL     1      -0.232  -2.182   2.400  1.00  0.00     0.078 A 
ATOM     20  C   UNL     1       2.451  -2.975   2.587  1.00  0.00     0.045 A 
ATOM     21  C   UNL     1       1.474  -3.647   3.306  1.00  0.00     0.149 A 
ATOM     22  F   UNL     1       1.827  -4.702   4.053  1.00  0.00    -0.205 F 
BRANCH  17  23
ATOM     23  O   UNL     1       0.306  -0.377   1.033  1.00  0.00    -0.497 OA
ATOM     24  C   UNL     1       1.079   0.029  -0.088  1.00  0.00     0.278 C 
ENDBRANCH  17  23
ENDBRANCH   8  16
ENDBRANCH   4   7
ENDBRANCH   2   3
ENDBRANCH   1   2
BRANCH   1  25
ATOM     25  C   UNL     1       0.350  -2.758  12.717  1.00  0.00     0.118 C 
BRANCH  25  26
ATOM     26  N   UNL     1       1.126  -3.591  13.616  1.00  0.00    -0.352 N 
ATOM     27  C   UNL     1       2.329  -3.483  14.255  1.00  0.00     0.251 C 
ATOM     28  H   UNL     1       0.675  -4.444  13.815  1.00  0.00     0.163 HD
ATOM     29  O   UNL     1       2.631  -4.439  14.977  1.00  0.00    -0.269 OA
BRANCH  27  30
ATOM     30  C   UNL     1       3.294  -2.359  14.110  1.00  0.00     0.039 A 
ATOM     31  C   UNL     1       3.062  -1.160  13.434  1.00  0.00     0.014 A 
ATOM     32  C   UNL     1       4.560  -2.566  14.692  1.00  0.00     0.014 A 
ATOM     33  C   UNL     1       4.096  -0.242  13.255  1.00  0.00     0.010 A 
ATOM     34  C   UNL     1       5.588  -1.644  14.533  1.00  0.00     0.010 A 
ATOM     35  C   UNL     1       5.370  -0.506  13.764  1.00  0.00    -0.014 A 
BRANCH  35  36
ATOM     36  C   UNL     1       6.437   0.462  13.516  1.00  0.00     0.031 A 
ATOM     37  C   UNL     1       6.227   1.822  14.092  1.00  0.00     0.074 A 
ATOM     38  C   UNL     1       7.596   0.139  12.904  1.00  0.00     0.049 A 
ATOM     39  N   UNL     1       6.129   2.950  13.468  1.00  0.00    -0.248 NA
ATOM     40  C   UNL     1       6.011   1.926  15.544  1.00  0.00     0.031 C 
ATOM     41  C   UNL     1       8.076  -1.188  12.507  1.00  0.00     0.029 A 
ATOM     42  N   UNL     1       8.650   0.946  12.594  1.00  0.00    -0.354 N 
ATOM     43  C   UNL     1       6.017   3.934  14.449  1.00  0.00     0.074 A 
ATOM     44  C   UNL     1       5.823   3.238  15.695  1.00  0.00     0.031 C 
ATOM     45  C   UNL     1       9.398  -1.122  12.227  1.00  0.00     0.029 A 
ATOM     46  C   UNL     1       9.824   0.266  12.284  1.00  0.00     0.049 A 
ATOM     47  H   UNL     1       8.586   1.928  12.590  1.00  0.00     0.167 HD
ATOM     48  C   UNL     1       6.260   5.251  14.194  1.00  0.00     0.034 A 
ATOM     49  C   UNL     1      11.065   0.804  12.143  1.00  0.00     0.034 A 
ATOM     50  C   UNL     1       6.230   5.540  12.784  1.00  0.00     0.049 A 
ATOM     51  C   UNL     1      10.867   2.235  11.803  1.00  0.00     0.074 A 
ATOM     52  C   UNL     1       5.263   5.462  11.800  1.00  0.00     0.029 A 
ATOM     53  N   UNL     1       7.426   5.630  12.113  1.00  0.00    -0.354 N 
ATOM     54  N   UNL     1      10.287   2.640  10.706  1.00  0.00    -0.248 NA
ATOM     55  C   UNL     1      10.891   3.202  12.888  1.00  0.00     0.031 C 
ATOM     56  C   UNL     1       5.953   4.983  10.648  1.00  0.00     0.029 A 
ATOM     57  C   UNL     1       7.304   4.859  10.981  1.00  0.00     0.049 A 
ATOM     58  H   UNL     1       8.216   6.147  12.389  1.00  0.00     0.167 HD
ATOM     59  C   UNL     1       9.510   3.721  11.092  1.00  0.00     0.074 A 
ATOM     60  C   UNL     1       9.989   4.073  12.428  1.00  0.00     0.031 C 
ATOM     61  C   UNL     1       8.375   4.064  10.415  1.00  0.00     0.034 A 
BRANCH  48  62
ATOM     62  C   UNL     1       6.794   6.234  15.206  1.00  0.00     0.023 A 
ATOM     63  C   UNL     1       6.789   7.608  14.896  1.00  0.00     0.031 A 
ATOM     64  C   UNL     1       7.548   5.856  16.340  1.00  0.00     0.131 A 
ATOM     65  C   UNL     1       7.532   8.523  15.668  1.00  0.00     0.055 A 
ATOM     66  C   UNL     1       8.236   6.774  17.137  1.00  0.00     0.041 A 
ATOM     67  F   UNL     1       7.734   4.572  16.674  1.00  0.00    -0.206 F 
ATOM     68  C   UNL     1       8.248   8.114  16.791  1.00  0.00     0.022 A 
BRANCH  65  69
ATOM     69  S   UNL     1       7.661  10.243  15.106  1.00  0.00     0.124 S 
ATOM     70  O   UNL     1       8.213  10.082  13.766  1.00  0.00    -0.237 OA
ATOM     71  O   UNL     1       6.274  10.692  15.182  1.00  0.00    -0.237 OA
ATOM     72  O   UNL     1       8.564  10.852  16.081  1.00  0.00    -0.744 OA
ENDBRANCH  65  69
ENDBRANCH  48  62
BRANCH  49  73
ATOM     73  C   UNL     1      12.352   0.259  12.668  1.00  0.00     0.023 A 
ATOM     74  C   UNL     1      13.604   0.798  12.296  1.00  0.00     0.031 A 
ATOM     75  C   UNL     1      12.354  -0.638  13.761  1.00  0.00     0.131 A 
ATOM     76  C   UNL     1      14.776   0.445  13.007  1.00  0.00     0.055 A 
ATOM     77  C   UNL     1      13.515  -0.986  14.456  1.00  0.00     0.041 A 
ATOM     78  F   UNL     1      11.213  -1.141  14.254  1.00  0.00    -0.206 F 
ATOM     79  C   UNL     1      14.732  -0.435  14.090  1.00  0.00     0.022 A 
BRANCH  76  80
ATOM     80  S   UNL     1      16.373   1.232  12.615  1.00  0.00     0.124 S 
ATOM     81  O   UNL     1      16.796   0.486  11.432  1.00  0.00    -0.237 OA
ATOM     82  O   UNL     1      16.002   2.623  12.403  1.00  0.00    -0.237 OA
ATOM     83  O   UNL     1      17.174   0.987  13.815  1.00  0.00    -0.744 OA
ENDBRANCH  76  80
ENDBRANCH  49  73
BRANCH  61  84
ATOM     84  C   UNL     1       8.105   3.415   9.072  1.00  0.00     0.023 A 
ATOM     85  C   UNL     1       7.876   2.033   8.870  1.00  0.00     0.031 A 
ATOM     86  C   UNL     1       7.925   4.275   7.975  1.00  0.00     0.131 A 
ATOM     87  C   UNL     1       7.479   1.564   7.598  1.00  0.00     0.055 A 
ATOM     88  C   UNL     1       7.520   3.809   6.725  1.00  0.00     0.041 A 
ATOM     89  F   UNL     1       8.096   5.600   8.115  1.00  0.00    -0.206 F 
ATOM     90  C   UNL     1       7.298   2.451   6.531  1.00  0.00     0.022 A 
BRANCH  87  91
ATOM     91  S   UNL     1       7.159  -0.210   7.312  1.00  0.00     0.124 S 
ATOM     92  O   UNL     1       8.416  -0.845   7.689  1.00  0.00    -0.237 OA
ATOM     93  O   UNL     1       6.015  -0.478   8.181  1.00  0.00    -0.237 OA
ATOM     94  O   UNL     1       6.850  -0.278   5.881  1.00  0.00    -0.744 OA
ENDBRANCH  87  91
ENDBRANCH  61  84
ENDBRANCH  35  36
ENDBRANCH  27  30
ENDBRANCH  25  26
ENDBRANCH   1  25
TORSDOF 15
