REMARK SMILES C[C@@H]1CC[C@@H](C(=O)NCCCNC(=O)c2ccc(-c3c4nc(c(-c5cc(S(=O)(=O)[O-])ccc5F)c5ccc([nH]5)c(-c5cc(S(=O)(=O)[O-])ccc5F)c5nc(c(-c6cc(S(=O)(=O)[O-])ccc6F)c6ccc3[nH]6)C=C5)C=C4)cc2)[C@H](SCC[NH+](C)C)C1
REMARK SMILES IDX 9 1 8 2 6 3 7 4 5 6 1 7 2 8 3 9 85 10 4 11 78 12 79 13 80 14
REMARK SMILES IDX 81 15 82 16 83 17 84 18 10 20 11 21 12 22 13 23 14 25 15 26
REMARK SMILES IDX 16 27 77 28 17 29 76 30 18 31 19 32 20 33 70 34 21 35 75 36
REMARK SMILES IDX 69 37 71 38 22 39 74 40 68 41 67 42 23 44 55 45 35 46 54 47
REMARK SMILES IDX 36 48 39 49 53 50 72 51 37 52 38 53 52 55 73 56 40 57 24 58
REMARK SMILES IDX 25 59 33 60 26 61 32 62 34 63 31 64 27 65 28 66 29 67 30 68
REMARK SMILES IDX 56 69 57 70 65 71 58 72 64 73 66 74 63 75 59 76 60 77 61 78
REMARK SMILES IDX 62 79 41 80 42 81 50 82 43 83 49 84 51 85 48 86 44 87 45 88
REMARK SMILES IDX 46 89 47 90
REMARK H PARENT 8 5 82 19 12 24 71 43 39 54
REMARK Flexibility Score: inf
ROOT
ATOM      1  C   UNL     1      -4.762   0.074  -1.512  1.00  0.00     0.117 C 
ENDROOT
BRANCH   1   2
ATOM      2  N   UNL     1      -3.653  -0.482  -2.252  1.00  0.00    -0.356 N 
ATOM      3  C   UNL     1      -2.352  -0.665  -1.940  1.00  0.00     0.224 C 
ATOM      4  O   UNL     1      -1.678  -1.238  -2.803  1.00  0.00    -0.275 OA
ATOM      5  H   UNL     1      -3.892  -0.787  -3.157  1.00  0.00     0.163 HD
BRANCH   3   6
ATOM      6  C   UNL     1      -1.710  -0.123  -0.640  1.00  0.00     0.091 C 
ATOM      7  C   UNL     1       2.211  -1.222   0.134  1.00  0.00     0.007 C 
ATOM      8  C   UNL     1       1.102  -1.224  -0.920  1.00  0.00    -0.013 C 
ATOM      9  C   UNL     1       0.766   0.180  -1.458  1.00  0.00     0.004 C 
ATOM     10  C   UNL     1      -0.073  -2.081  -0.452  1.00  0.00     0.018 C 
ATOM     11  C   UNL     1      -0.616   0.798  -1.196  1.00  0.00     0.015 C 
ATOM     12  C   UNL     1      -1.234  -1.325   0.216  1.00  0.00     0.059 C 
BRANCH  12  13
ATOM     13  S   UNL     1      -1.043  -1.541   2.088  1.00  0.00    -0.152 SA
BRANCH  13  14
ATOM     14  C   UNL     1      -0.830   0.021   3.037  1.00  0.00     0.131 C 
BRANCH  14  15
ATOM     15  C   UNL     1       0.629   0.438   3.430  1.00  0.00     0.272 C 
BRANCH  15  16
ATOM     16  N   UNL     1       1.244   1.605   2.759  1.00  0.00    -0.339 N 
ATOM     17  C   UNL     1       2.688   1.453   2.552  1.00  0.00     0.332 C 
ATOM     18  C   UNL     1       0.590   1.907   1.512  1.00  0.00     0.332 C 
ATOM     19  H   UNL     1       1.111   2.390   3.396  1.00  0.00     0.347 HD
ENDBRANCH  15  16
ENDBRANCH  14  15
ENDBRANCH  13  14
ENDBRANCH  12  13
ENDBRANCH   3   6
ENDBRANCH   1   2
BRANCH   1  20
ATOM     20  C   UNL     1      -5.154   1.471  -1.982  1.00  0.00     0.042 C 
BRANCH  20  21
ATOM     21  C   UNL     1      -5.380   1.630  -3.487  1.00  0.00     0.118 C 
BRANCH  21  22
ATOM     22  N   UNL     1      -6.330   0.677  -4.042  1.00  0.00    -0.352 N 
ATOM     23  C   UNL     1      -7.511   0.871  -4.719  1.00  0.00     0.251 C 
ATOM     24  H   UNL     1      -6.085  -0.268  -3.911  1.00  0.00     0.163 HD
ATOM     25  O   UNL     1      -8.218  -0.099  -4.968  1.00  0.00    -0.269 OA
BRANCH  23  26
ATOM     26  C   UNL     1      -7.948   2.229  -5.116  1.00  0.00     0.039 A 
ATOM     27  C   UNL     1      -9.294   2.572  -4.956  1.00  0.00     0.014 A 
ATOM     28  C   UNL     1      -7.057   3.154  -5.665  1.00  0.00     0.014 A 
ATOM     29  C   UNL     1      -9.727   3.862  -5.276  1.00  0.00     0.010 A 
ATOM     30  C   UNL     1      -7.473   4.464  -5.905  1.00  0.00     0.010 A 
ATOM     31  C   UNL     1      -8.813   4.834  -5.713  1.00  0.00    -0.014 A 
BRANCH  31  32
ATOM     32  C   UNL     1      -9.246   6.236  -5.968  1.00  0.00     0.031 A 
ATOM     33  C   UNL     1      -9.133   6.831  -7.346  1.00  0.00     0.074 A 
ATOM     34  C   UNL     1      -9.698   6.989  -4.944  1.00  0.00     0.049 A 
ATOM     35  N   UNL     1      -9.417   8.043  -7.751  1.00  0.00    -0.248 NA
ATOM     36  C   UNL     1      -8.604   5.955  -8.402  1.00  0.00     0.031 C 
ATOM     37  C   UNL     1      -9.814   6.540  -3.554  1.00  0.00     0.029 A 
ATOM     38  N   UNL     1     -10.142   8.287  -4.907  1.00  0.00    -0.354 N 
ATOM     39  C   UNL     1      -9.093   8.079  -9.104  1.00  0.00     0.074 A 
ATOM     40  C   UNL     1      -8.527   6.787  -9.430  1.00  0.00     0.031 C 
ATOM     41  C   UNL     1     -10.329   7.532  -2.811  1.00  0.00     0.029 A 
ATOM     42  C   UNL     1     -10.534   8.705  -3.655  1.00  0.00     0.049 A 
ATOM     43  H   UNL     1     -10.178   8.866  -5.702  1.00  0.00     0.167 HD
ATOM     44  C   UNL     1      -9.275   9.085  -9.995  1.00  0.00     0.034 A 
ATOM     45  C   UNL     1     -10.995   9.899  -3.230  1.00  0.00     0.034 A 
ATOM     46  C   UNL     1      -9.847  10.365  -9.653  1.00  0.00     0.049 A 
ATOM     47  C   UNL     1     -11.162  11.012  -4.234  1.00  0.00     0.074 A 
ATOM     48  C   UNL     1     -10.119  11.438 -10.485  1.00  0.00     0.029 A 
ATOM     49  N   UNL     1     -10.226  10.753  -8.373  1.00  0.00    -0.354 N 
ATOM     50  N   UNL     1     -10.898  11.012  -5.521  1.00  0.00    -0.248 NA
ATOM     51  C   UNL     1     -11.702  12.282  -3.732  1.00  0.00     0.031 C 
ATOM     52  C   UNL     1     -10.588  12.496  -9.700  1.00  0.00     0.029 A 
ATOM     53  C   UNL     1     -10.699  12.057  -8.390  1.00  0.00     0.049 A 
ATOM     54  H   UNL     1     -10.168  10.185  -7.572  1.00  0.00     0.167 HD
ATOM     55  C   UNL     1     -11.280  12.267  -5.987  1.00  0.00     0.074 A 
ATOM     56  C   UNL     1     -11.801  12.991  -4.846  1.00  0.00     0.031 C 
ATOM     57  C   UNL     1     -11.213  12.773  -7.245  1.00  0.00     0.034 A 
BRANCH  44  58
ATOM     58  C   UNL     1      -8.825   8.845 -11.419  1.00  0.00     0.023 A 
ATOM     59  C   UNL     1      -9.385   7.827 -12.210  1.00  0.00     0.031 A 
ATOM     60  C   UNL     1      -7.806   9.631 -11.988  1.00  0.00     0.131 A 
ATOM     61  C   UNL     1      -8.872   7.569 -13.491  1.00  0.00     0.055 A 
ATOM     62  C   UNL     1      -7.362   9.427 -13.296  1.00  0.00     0.041 A 
ATOM     63  F   UNL     1      -7.216  10.604 -11.278  1.00  0.00    -0.206 F 
ATOM     64  C   UNL     1      -7.883   8.380 -14.050  1.00  0.00     0.022 A 
BRANCH  61  65
ATOM     65  S   UNL     1      -9.407   6.064 -14.350  1.00  0.00     0.124 S 
ATOM     66  O   UNL     1      -9.021   5.027 -13.396  1.00  0.00    -0.237 OA
ATOM     67  O   UNL     1     -10.839   6.284 -14.510  1.00  0.00    -0.237 OA
ATOM     68  O   UNL     1      -8.629   6.081 -15.588  1.00  0.00    -0.744 OA
ENDBRANCH  61  65
ENDBRANCH  44  58
BRANCH  45  69
ATOM     69  C   UNL     1     -11.331  10.113  -1.792  1.00  0.00     0.023 A 
ATOM     70  C   UNL     1     -12.643  10.412  -1.389  1.00  0.00     0.031 A 
ATOM     71  C   UNL     1     -10.334  10.068  -0.800  1.00  0.00     0.131 A 
ATOM     72  C   UNL     1     -12.914  10.705  -0.044  1.00  0.00     0.055 A 
ATOM     73  C   UNL     1     -10.620  10.300   0.546  1.00  0.00     0.041 A 
ATOM     74  F   UNL     1      -9.063   9.784  -1.127  1.00  0.00    -0.206 F 
ATOM     75  C   UNL     1     -11.914  10.636   0.929  1.00  0.00     0.022 A 
BRANCH  72  76
ATOM     76  S   UNL     1     -14.576  11.277   0.403  1.00  0.00     0.124 S 
ATOM     77  O   UNL     1     -14.723  12.453  -0.447  1.00  0.00    -0.237 OA
ATOM     78  O   UNL     1     -15.398  10.123   0.052  1.00  0.00    -0.237 OA
ATOM     79  O   UNL     1     -14.468  11.551   1.835  1.00  0.00    -0.744 OA
ENDBRANCH  72  76
ENDBRANCH  45  69
BRANCH  57  80
ATOM     80  C   UNL     1     -11.776  14.158  -7.464  1.00  0.00     0.023 A 
ATOM     81  C   UNL     1     -11.207  15.298  -6.870  1.00  0.00     0.031 A 
ATOM     82  C   UNL     1     -12.913  14.334  -8.274  1.00  0.00     0.131 A 
ATOM     83  C   UNL     1     -11.811  16.552  -7.045  1.00  0.00     0.055 A 
ATOM     84  C   UNL     1     -13.468  15.594  -8.502  1.00  0.00     0.041 A 
ATOM     85  F   UNL     1     -13.502  13.281  -8.863  1.00  0.00    -0.206 F 
ATOM     86  C   UNL     1     -12.926  16.710  -7.873  1.00  0.00     0.022 A 
BRANCH  83  87
ATOM     87  S   UNL     1     -11.185  17.962  -6.091  1.00  0.00     0.124 S 
ATOM     88  O   UNL     1     -11.320  17.483  -4.719  1.00  0.00    -0.237 OA
ATOM     89  O   UNL     1      -9.820  18.095  -6.588  1.00  0.00    -0.237 OA
ATOM     90  O   UNL     1     -12.087  19.053  -6.458  1.00  0.00    -0.744 OA
ENDBRANCH  83  87
ENDBRANCH  57  80
ENDBRANCH  31  32
ENDBRANCH  23  26
ENDBRANCH  21  22
ENDBRANCH  20  21
ENDBRANCH   1  20
TORSDOF 17
