REMARK SMILES Cc1ccccc1N(CCC(=O)NCCCNC(=O)c1ccc(-c2c3nc(c(-c4cc(S(=O)(=O)[O-])ccc4F)c4ccc([nH]4)c(-c4cc(S(=O)(=O)[O-])ccc4F)c4nc(c(-c5cc(S(=O)(=O)[O-])ccc5F)c5ccc2[nH]5)C=C4)C=C3)cc1)C(=O)[C@@H]1C=C[C@H]([NH3+])C1
REMARK SMILES IDX 14 1 13 2 11 3 12 4 10 6 9 7 8 8 7 9 1 10 2 11 3 12 4 13
REMARK SMILES IDX 6 14 5 15 83 16 84 17 85 18 86 19 90 20 87 21 88 22 89 23
REMARK SMILES IDX 15 27 16 28 17 29 18 30 19 32 20 33 21 34 82 35 22 36 81 37
REMARK SMILES IDX 23 38 24 39 25 40 75 41 26 42 80 43 74 44 76 45 27 46 79 47
REMARK SMILES IDX 73 48 72 49 28 51 60 52 40 53 59 54 41 55 44 56 58 57 77 58
REMARK SMILES IDX 42 59 43 60 57 62 78 63 45 64 29 65 30 66 38 67 31 68 37 69
REMARK SMILES IDX 39 70 36 71 32 72 33 73 34 74 35 75 61 76 62 77 70 78 63 79
REMARK SMILES IDX 69 80 71 81 68 82 64 83 65 84 66 85 67 86 46 87 47 88 55 89
REMARK SMILES IDX 48 90 54 91 56 92 53 93 49 94 50 95 51 96 52 97
REMARK H PARENT 13 5 89 24 89 25 89 26 17 31 76 50 44 61
REMARK Flexibility Score: inf
ROOT
ATOM      1  C   UNL     1       2.468   3.915   2.901  1.00  0.00     0.117 C 
ENDROOT
BRANCH   1   2
ATOM      2  N   UNL     1       1.602   3.411   1.839  1.00  0.00    -0.356 N 
ATOM      3  C   UNL     1       1.472   2.162   1.311  1.00  0.00     0.221 C 
ATOM      4  O   UNL     1       0.681   1.949   0.389  1.00  0.00    -0.275 OA
ATOM      5  H   UNL     1       1.012   4.088   1.437  1.00  0.00     0.163 HD
BRANCH   3   6
ATOM      6  C   UNL     1       2.328   1.020   1.817  1.00  0.00     0.122 C 
BRANCH   6   7
ATOM      7  C   UNL     1       3.576   0.780   0.965  1.00  0.00     0.135 C 
BRANCH   7   8
ATOM      8  N   UNL     1       4.670   1.742   1.244  1.00  0.00    -0.311 N 
BRANCH   8   9
ATOM      9  C   UNL     1       5.417   1.527   2.536  1.00  0.00     0.047 A 
ATOM     10  C   UNL     1       6.964   3.687   2.892  1.00  0.00     0.046 C 
ATOM     11  C   UNL     1       6.304   2.382   3.249  1.00  0.00    -0.027 A 
ATOM     12  C   UNL     1       6.745   2.007   4.570  1.00  0.00     0.005 A 
ATOM     13  C   UNL     1       6.397   0.823   5.195  1.00  0.00     0.000 A 
ATOM     14  C   UNL     1       5.149   0.296   3.222  1.00  0.00     0.026 A 
ATOM     15  C   UNL     1       5.612  -0.054   4.499  1.00  0.00     0.002 A 
ENDBRANCH   8   9
BRANCH   8  16
ATOM     16  C   UNL     1       4.871   2.783   0.301  1.00  0.00     0.234 C 
ATOM     17  O   UNL     1       5.838   3.544   0.330  1.00  0.00    -0.274 OA
BRANCH  16  18
ATOM     18  C   UNL     1       3.881   2.918  -0.928  1.00  0.00     0.108 C 
ATOM     19  C   UNL     1       4.602   2.598  -2.217  1.00  0.00    -0.012 C 
ATOM     20  C   UNL     1       3.378   4.337  -1.239  1.00  0.00     0.087 C 
ATOM     21  C   UNL     1       4.849   3.704  -2.935  1.00  0.00     0.033 C 
ATOM     22  C   UNL     1       4.378   4.932  -2.229  1.00  0.00     0.205 C 
BRANCH  22  23
ATOM     23  N   UNL     1       5.513   5.537  -1.545  1.00  0.00    -0.352 N 
ATOM     24  H   UNL     1       5.953   4.845  -0.938  1.00  0.00     0.345 HD
ATOM     25  H   UNL     1       5.190   6.325  -0.984  1.00  0.00     0.345 HD
ATOM     26  H   UNL     1       6.190   5.865  -2.234  1.00  0.00     0.345 HD
ENDBRANCH  22  23
ENDBRANCH  16  18
ENDBRANCH   8  16
ENDBRANCH   7   8
ENDBRANCH   6   7
ENDBRANCH   3   6
ENDBRANCH   1   2
BRANCH   1  27
ATOM     27  C   UNL     1       3.141   5.246   2.521  1.00  0.00     0.042 C 
BRANCH  27  28
ATOM     28  C   UNL     1       4.220   5.656   3.516  1.00  0.00     0.118 C 
BRANCH  28  29
ATOM     29  N   UNL     1       4.071   6.946   4.171  1.00  0.00    -0.352 N 
ATOM     30  C   UNL     1       4.486   8.223   3.895  1.00  0.00     0.251 C 
ATOM     31  H   UNL     1       3.550   6.888   5.005  1.00  0.00     0.163 HD
ATOM     32  O   UNL     1       4.507   9.037   4.808  1.00  0.00    -0.269 OA
BRANCH  30  33
ATOM     33  C   UNL     1       4.777   8.707   2.512  1.00  0.00     0.039 A 
ATOM     34  C   UNL     1       4.415  10.042   2.228  1.00  0.00     0.014 A 
ATOM     35  C   UNL     1       5.268   7.919   1.481  1.00  0.00     0.014 A 
ATOM     36  C   UNL     1       4.284  10.486   0.908  1.00  0.00     0.010 A 
ATOM     37  C   UNL     1       5.209   8.394   0.179  1.00  0.00     0.010 A 
ATOM     38  C   UNL     1       4.590   9.605  -0.120  1.00  0.00    -0.014 A 
BRANCH  38  39
ATOM     39  C   UNL     1       4.034   9.679  -1.470  1.00  0.00     0.031 A 
ATOM     40  C   UNL     1       4.712  10.303  -2.613  1.00  0.00     0.074 A 
ATOM     41  C   UNL     1       2.882   9.010  -1.704  1.00  0.00     0.049 A 
ATOM     42  N   UNL     1       4.096  10.941  -3.552  1.00  0.00    -0.248 NA
ATOM     43  C   UNL     1       6.147  10.198  -2.813  1.00  0.00     0.031 C 
ATOM     44  C   UNL     1       2.245   8.726  -2.986  1.00  0.00     0.029 A 
ATOM     45  N   UNL     1       1.962   8.561  -0.768  1.00  0.00    -0.354 N 
ATOM     46  C   UNL     1       4.978  11.068  -4.604  1.00  0.00     0.074 A 
ATOM     47  C   UNL     1       6.262  10.669  -4.061  1.00  0.00     0.031 C 
ATOM     48  C   UNL     1       0.966   8.377  -2.766  1.00  0.00     0.029 A 
ATOM     49  C   UNL     1       0.693   8.556  -1.349  1.00  0.00     0.049 A 
ATOM     50  H   UNL     1       2.170   8.291   0.155  1.00  0.00     0.167 HD
ATOM     51  C   UNL     1       4.520  11.331  -5.864  1.00  0.00     0.034 A 
ATOM     52  C   UNL     1      -0.283   9.360  -0.834  1.00  0.00     0.034 A 
ATOM     53  C   UNL     1       3.055  11.289  -5.927  1.00  0.00     0.049 A 
ATOM     54  C   UNL     1      -0.681  10.498  -1.753  1.00  0.00     0.074 A 
ATOM     55  C   UNL     1       2.174  10.337  -6.415  1.00  0.00     0.029 A 
ATOM     56  N   UNL     1       2.288  12.194  -5.204  1.00  0.00    -0.354 N 
ATOM     57  N   UNL     1      -0.083  10.796  -2.874  1.00  0.00    -0.248 NA
ATOM     58  C   UNL     1      -1.778  11.413  -1.453  1.00  0.00     0.031 C 
ATOM     59  C   UNL     1       0.876  10.647  -5.933  1.00  0.00     0.029 A 
ATOM     60  C   UNL     1       0.960  11.804  -5.177  1.00  0.00     0.049 A 
ATOM     61  H   UNL     1       2.641  13.004  -4.769  1.00  0.00     0.167 HD
ATOM     62  C   UNL     1      -0.602  11.962  -3.382  1.00  0.00     0.074 A 
ATOM     63  C   UNL     1      -1.711  12.262  -2.492  1.00  0.00     0.031 C 
ATOM     64  C   UNL     1      -0.037  12.595  -4.459  1.00  0.00     0.034 A 
BRANCH  51  65
ATOM     65  C   UNL     1       5.383  11.330  -7.114  1.00  0.00     0.023 A 
ATOM     66  C   UNL     1       4.803  11.070  -8.376  1.00  0.00     0.031 A 
ATOM     67  C   UNL     1       6.766  11.600  -7.138  1.00  0.00     0.131 A 
ATOM     68  C   UNL     1       5.583  10.976  -9.545  1.00  0.00     0.055 A 
ATOM     69  C   UNL     1       7.554  11.446  -8.288  1.00  0.00     0.041 A 
ATOM     70  F   UNL     1       7.405  12.084  -6.063  1.00  0.00    -0.206 F 
ATOM     71  C   UNL     1       6.966  11.118  -9.499  1.00  0.00     0.022 A 
BRANCH  68  72
ATOM     72  S   UNL     1       4.764  10.695 -11.142  1.00  0.00     0.124 S 
ATOM     73  O   UNL     1       4.090   9.419 -10.926  1.00  0.00    -0.237 OA
ATOM     74  O   UNL     1       3.905  11.869 -11.259  1.00  0.00    -0.237 OA
ATOM     75  O   UNL     1       5.875  10.651 -12.091  1.00  0.00    -0.744 OA
ENDBRANCH  68  72
ENDBRANCH  51  65
BRANCH  52  76
ATOM     76  C   UNL     1      -0.238   9.441   0.656  1.00  0.00     0.023 A 
ATOM     77  C   UNL     1      -0.584   8.286   1.388  1.00  0.00     0.031 A 
ATOM     78  C   UNL     1       0.497  10.440   1.314  1.00  0.00     0.131 A 
ATOM     79  C   UNL     1      -0.103   8.101   2.695  1.00  0.00     0.055 A 
ATOM     80  C   UNL     1       0.957  10.259   2.623  1.00  0.00     0.041 A 
ATOM     81  F   UNL     1       0.889  11.543   0.659  1.00  0.00    -0.206 F 
ATOM     82  C   UNL     1       0.694   9.071   3.305  1.00  0.00     0.022 A 
BRANCH  79  83
ATOM     83  S   UNL     1      -0.347   6.492   3.502  1.00  0.00     0.124 S 
ATOM     84  O   UNL     1      -1.669   6.640   4.096  1.00  0.00    -0.237 OA
ATOM     85  O   UNL     1      -0.248   5.552   2.385  1.00  0.00    -0.237 OA
ATOM     86  O   UNL     1       0.763   6.407   4.452  1.00  0.00    -0.744 OA
ENDBRANCH  79  83
ENDBRANCH  52  76
BRANCH  64  87
ATOM     87  C   UNL     1      -0.398  13.979  -4.978  1.00  0.00     0.023 A 
ATOM     88  C   UNL     1      -1.215  14.883  -4.284  1.00  0.00     0.031 A 
ATOM     89  C   UNL     1       0.125  14.466  -6.203  1.00  0.00     0.131 A 
ATOM     90  C   UNL     1      -1.562  16.134  -4.827  1.00  0.00     0.055 A 
ATOM     91  C   UNL     1      -0.146  15.746  -6.701  1.00  0.00     0.041 A 
ATOM     92  F   UNL     1       0.931  13.723  -6.976  1.00  0.00    -0.206 F 
ATOM     93  C   UNL     1      -1.013  16.585  -6.022  1.00  0.00     0.022 A 
BRANCH  90  94
ATOM     94  S   UNL     1      -2.815  17.120  -3.966  1.00  0.00     0.124 S 
ATOM     95  O   UNL     1      -3.976  16.235  -4.011  1.00  0.00    -0.237 OA
ATOM     96  O   UNL     1      -2.216  17.309  -2.649  1.00  0.00    -0.237 OA
ATOM     97  O   UNL     1      -2.925  18.329  -4.779  1.00  0.00    -0.744 OA
ENDBRANCH  90  94
ENDBRANCH  64  87
ENDBRANCH  38  39
ENDBRANCH  30  33
ENDBRANCH  28  29
ENDBRANCH  27  28
ENDBRANCH   1  27
TORSDOF 19
