REMARK SMILES C[C@H]1CCC[C@@](NC(=O)N2CCO[C@H](C#N)C2)(C(=O)NCCCNC(=O)c2ccc(-c3c4nc(c(-c5cc(S(=O)(=O)[O-])ccc5F)c5ccc([nH]5)c(-c5cc(S(=O)(=O)[O-])ccc5F)c5nc(c(-c6cc(S(=O)(=O)[O-])ccc6F)c6ccc3[nH]6)C=C5)C=C4)cc2)C1
REMARK SMILES IDX 22 1 21 2 20 3 18 4 19 5 6 7 1 8 2 9 3 10 90 11 4 12 5 13
REMARK SMILES IDX 7 14 8 15 9 17 10 18 11 19 17 20 12 21 14 22 13 23 15 24
REMARK SMILES IDX 16 25 23 26 24 27 25 28 26 30 27 31 28 32 89 33 29 34 88 35
REMARK SMILES IDX 30 36 31 37 32 38 82 39 33 40 87 41 81 42 83 43 34 44 86 45
REMARK SMILES IDX 80 46 79 47 35 49 67 50 47 51 66 52 48 53 51 54 65 55 84 56
REMARK SMILES IDX 49 57 50 58 64 60 85 61 52 62 36 63 37 64 45 65 38 66 44 67
REMARK SMILES IDX 46 68 43 69 39 70 40 71 41 72 42 73 68 74 69 75 77 76 70 77
REMARK SMILES IDX 76 78 78 79 75 80 71 81 72 82 73 83 74 84 53 85 54 86 62 87
REMARK SMILES IDX 55 88 61 89 63 90 60 91 56 92 57 93 58 94 59 95
REMARK H PARENT 20 6 7 16 24 29 83 48 51 59
REMARK Flexibility Score: inf
ROOT
ATOM      1  C   UNL     1      -5.562  -0.727  -0.059  1.00  0.00     0.042 C 
ENDROOT
BRANCH   1   2
ATOM      2  C   UNL     1      -4.256  -1.314   0.426  1.00  0.00     0.117 C 
BRANCH   2   3
ATOM      3  N   UNL     1      -3.446  -1.785  -0.693  1.00  0.00    -0.354 N 
ATOM      4  C   UNL     1      -2.089  -1.775  -0.864  1.00  0.00     0.245 C 
ATOM      5  O   UNL     1      -1.643  -2.333  -1.870  1.00  0.00    -0.272 OA
ATOM      6  H   UNL     1      -3.956  -2.170  -1.442  1.00  0.00     0.163 HD
BRANCH   4   7
ATOM      7  C   UNL     1      -1.181  -1.006   0.123  1.00  0.00     0.121 C 
ATOM      8  C   UNL     1       2.663  -0.131  -0.073  1.00  0.00     0.008 C 
ATOM      9  C   UNL     1       1.214  -0.010   0.395  1.00  0.00    -0.011 C 
ATOM     10  C   UNL     1       0.691   1.377   0.012  1.00  0.00     0.003 C 
ATOM     11  C   UNL     1       0.335  -1.147  -0.188  1.00  0.00     0.042 C 
ATOM     12  C   UNL     1      -0.738   1.545   0.475  1.00  0.00     0.003 C 
ATOM     13  C   UNL     1      -1.605   0.477  -0.154  1.00  0.00     0.039 C 
BRANCH   7  14
ATOM     14  N   UNL     1      -1.444  -1.431   1.522  1.00  0.00    -0.323 N 
ATOM     15  C   UNL     1      -1.805  -2.582   2.147  1.00  0.00     0.318 C 
ATOM     16  H   UNL     1      -1.326  -0.689   2.159  1.00  0.00     0.166 HD
ATOM     17  O   UNL     1      -1.914  -2.519   3.375  1.00  0.00    -0.249 OA
BRANCH  15  18
ATOM     18  N   UNL     1      -2.254  -3.675   1.454  1.00  0.00    -0.319 N 
ATOM     19  C   UNL     1      -3.335  -4.474   2.060  1.00  0.00     0.150 C 
ATOM     20  C   UNL     1      -1.496  -4.441   0.447  1.00  0.00     0.169 C 
ATOM     21  C   UNL     1      -4.214  -5.109   0.973  1.00  0.00     0.183 C 
ATOM     22  C   UNL     1      -2.437  -5.097  -0.593  1.00  0.00     0.240 C 
ATOM     23  O   UNL     1      -3.425  -5.915   0.085  1.00  0.00    -0.360 OA
BRANCH  22  24
ATOM     24  C   UNL     1      -1.671  -5.911  -1.556  1.00  0.00     0.096 C 
ATOM     25  N   UNL     1      -1.068  -6.540  -2.320  1.00  0.00    -0.195 NA
ENDBRANCH  22  24
ENDBRANCH  15  18
ENDBRANCH   7  14
ENDBRANCH   4   7
ENDBRANCH   2   3
ENDBRANCH   1   2
BRANCH   1  26
ATOM     26  C   UNL     1      -6.510  -1.809  -0.545  1.00  0.00     0.118 C 
BRANCH  26  27
ATOM     27  N   UNL     1      -7.009  -2.650   0.537  1.00  0.00    -0.352 N 
ATOM     28  C   UNL     1      -8.289  -3.108   0.734  1.00  0.00     0.251 C 
ATOM     29  H   UNL     1      -6.346  -2.924   1.210  1.00  0.00     0.163 HD
ATOM     30  O   UNL     1      -8.564  -3.771   1.726  1.00  0.00    -0.269 OA
BRANCH  28  31
ATOM     31  C   UNL     1      -9.324  -2.699  -0.232  1.00  0.00     0.039 A 
ATOM     32  C   UNL     1     -10.406  -1.962   0.247  1.00  0.00     0.014 A 
ATOM     33  C   UNL     1      -9.125  -2.885  -1.603  1.00  0.00     0.014 A 
ATOM     34  C   UNL     1     -11.248  -1.328  -0.662  1.00  0.00     0.010 A 
ATOM     35  C   UNL     1      -9.913  -2.176  -2.502  1.00  0.00     0.010 A 
ATOM     36  C   UNL     1     -10.971  -1.378  -2.038  1.00  0.00    -0.014 A 
BRANCH  36  37
ATOM     37  C   UNL     1     -11.764  -0.568  -2.996  1.00  0.00     0.031 A 
ATOM     38  C   UNL     1     -12.579  -1.251  -4.056  1.00  0.00     0.074 A 
ATOM     39  C   UNL     1     -11.707   0.779  -2.932  1.00  0.00     0.049 A 
ATOM     40  N   UNL     1     -13.300  -0.720  -5.008  1.00  0.00    -0.248 NA
ATOM     41  C   UNL     1     -12.567  -2.723  -4.061  1.00  0.00     0.031 C 
ATOM     42  C   UNL     1     -10.921   1.546  -1.961  1.00  0.00     0.029 A 
ATOM     43  N   UNL     1     -12.315   1.746  -3.695  1.00  0.00    -0.354 N 
ATOM     44  C   UNL     1     -13.815  -1.788  -5.732  1.00  0.00     0.074 A 
ATOM     45  C   UNL     1     -13.288  -2.997  -5.138  1.00  0.00     0.031 C 
ATOM     46  C   UNL     1     -11.116   2.858  -2.170  1.00  0.00     0.029 A 
ATOM     47  C   UNL     1     -11.986   3.033  -3.328  1.00  0.00     0.049 A 
ATOM     48  H   UNL     1     -12.928   1.539  -4.436  1.00  0.00     0.167 HD
ATOM     49  C   UNL     1     -14.659  -1.757  -6.790  1.00  0.00     0.034 A 
ATOM     50  C   UNL     1     -12.322   4.217  -3.880  1.00  0.00     0.034 A 
ATOM     51  C   UNL     1     -15.180  -0.539  -7.358  1.00  0.00     0.049 A 
ATOM     52  C   UNL     1     -13.227   4.215  -5.089  1.00  0.00     0.074 A 
ATOM     53  C   UNL     1     -16.104  -0.399  -8.379  1.00  0.00     0.029 A 
ATOM     54  N   UNL     1     -14.809   0.743  -6.978  1.00  0.00    -0.354 N 
ATOM     55  N   UNL     1     -13.774   3.193  -5.707  1.00  0.00    -0.248 NA
ATOM     56  C   UNL     1     -13.563   5.520  -5.675  1.00  0.00     0.031 C 
ATOM     57  C   UNL     1     -16.210   0.959  -8.686  1.00  0.00     0.029 A 
ATOM     58  C   UNL     1     -15.436   1.676  -7.787  1.00  0.00     0.049 A 
ATOM     59  H   UNL     1     -14.191   0.957  -6.241  1.00  0.00     0.167 HD
ATOM     60  C   UNL     1     -14.538   3.737  -6.737  1.00  0.00     0.074 A 
ATOM     61  C   UNL     1     -14.403   5.175  -6.639  1.00  0.00     0.031 C 
ATOM     62  C   UNL     1     -15.281   3.107  -7.681  1.00  0.00     0.034 A 
BRANCH  49  63
ATOM     63  C   UNL     1     -15.038  -3.066  -7.436  1.00  0.00     0.023 A 
ATOM     64  C   UNL     1     -15.781  -4.047  -6.759  1.00  0.00     0.031 A 
ATOM     65  C   UNL     1     -14.667  -3.320  -8.769  1.00  0.00     0.131 A 
ATOM     66  C   UNL     1     -16.093  -5.254  -7.403  1.00  0.00     0.055 A 
ATOM     67  C   UNL     1     -15.048  -4.489  -9.429  1.00  0.00     0.041 A 
ATOM     68  F   UNL     1     -13.930  -2.432  -9.454  1.00  0.00    -0.206 F 
ATOM     69  C   UNL     1     -15.758  -5.468  -8.743  1.00  0.00     0.022 A 
BRANCH  66  70
ATOM     70  S   UNL     1     -16.840  -6.590  -6.431  1.00  0.00     0.124 S 
ATOM     71  O   UNL     1     -15.836  -6.792  -5.388  1.00  0.00    -0.237 OA
ATOM     72  O   UNL     1     -18.100  -5.999  -5.998  1.00  0.00    -0.237 OA
ATOM     73  O   UNL     1     -16.961  -7.686  -7.390  1.00  0.00    -0.744 OA
ENDBRANCH  66  70
ENDBRANCH  49  63
BRANCH  50  74
ATOM     74  C   UNL     1     -11.769   5.500  -3.347  1.00  0.00     0.023 A 
ATOM     75  C   UNL     1     -12.613   6.527  -2.898  1.00  0.00     0.031 A 
ATOM     76  C   UNL     1     -10.384   5.753  -3.365  1.00  0.00     0.131 A 
ATOM     77  C   UNL     1     -12.075   7.779  -2.559  1.00  0.00     0.055 A 
ATOM     78  C   UNL     1      -9.848   6.974  -2.951  1.00  0.00     0.041 A 
ATOM     79  F   UNL     1      -9.525   4.812  -3.790  1.00  0.00    -0.206 F 
ATOM     80  C   UNL     1     -10.697   8.004  -2.565  1.00  0.00     0.022 A 
BRANCH  77  81
ATOM     81  S   UNL     1     -13.215   9.159  -2.257  1.00  0.00     0.124 S 
ATOM     82  O   UNL     1     -13.999   9.167  -3.487  1.00  0.00    -0.237 OA
ATOM     83  O   UNL     1     -13.911   8.717  -1.054  1.00  0.00    -0.237 OA
ATOM     84  O   UNL     1     -12.323  10.302  -2.076  1.00  0.00    -0.744 OA
ENDBRANCH  77  81
ENDBRANCH  50  74
BRANCH  62  85
ATOM     85  C   UNL     1     -16.032   3.973  -8.663  1.00  0.00     0.023 A 
ATOM     86  C   UNL     1     -15.362   4.780  -9.598  1.00  0.00     0.031 A 
ATOM     87  C   UNL     1     -17.439   3.977  -8.673  1.00  0.00     0.131 A 
ATOM     88  C   UNL     1     -16.098   5.594 -10.471  1.00  0.00     0.055 A 
ATOM     89  C   UNL     1     -18.165   4.733  -9.592  1.00  0.00     0.041 A 
ATOM     90  F   UNL     1     -18.131   3.230  -7.797  1.00  0.00    -0.206 F 
ATOM     91  C   UNL     1     -17.495   5.557 -10.491  1.00  0.00     0.022 A 
BRANCH  88  92
ATOM     92  S   UNL     1     -15.206   6.774 -11.519  1.00  0.00     0.124 S 
ATOM     93  O   UNL     1     -14.514   7.594 -10.530  1.00  0.00    -0.237 OA
ATOM     94  O   UNL     1     -14.360   5.900 -12.326  1.00  0.00    -0.237 OA
ATOM     95  O   UNL     1     -16.271   7.454 -12.253  1.00  0.00    -0.744 OA
ENDBRANCH  88  92
ENDBRANCH  62  85
ENDBRANCH  36  37
ENDBRANCH  28  31
ENDBRANCH  26  27
ENDBRANCH   1  26
TORSDOF 16
