REMARK SMILES COc1ccc([C@H](NC(=O)[C@H]2CC(C)=C(C)C[C@@H]2C(=O)NCCCNC(=O)c2ccc(-c3c4nc(c(-c5cc(S(=O)(=O)[O-])ccc5F)c5ccc([nH]5)c(-c5cc(S(=O)(=O)[O-])ccc5F)c5nc(c(-c6cc(S(=O)(=O)[O-])ccc6F)c6ccc3[nH]6)C=C5)C=C4)cc2)c2ccccc2)cc1
REMARK SMILES IDX 22 1 21 2 19 3 20 4 18 6 11 7 12 8 13 9 17 10 14 11 15 12
REMARK SMILES IDX 16 13 9 14 8 15 10 17 7 18 6 19 3 20 4 21 98 22 5 23 97 24
REMARK SMILES IDX 2 25 1 26 91 27 92 28 96 29 93 30 95 31 94 32 23 33 24 34
REMARK SMILES IDX 25 35 26 36 27 38 28 39 29 40 90 41 30 42 89 43 31 44 32 45
REMARK SMILES IDX 33 46 83 47 34 48 88 49 82 50 84 51 35 52 87 53 81 54 80 55
REMARK SMILES IDX 36 57 68 58 48 59 67 60 49 61 52 62 66 63 85 64 50 65 51 66
REMARK SMILES IDX 65 68 86 69 53 70 37 71 38 72 46 73 39 74 45 75 47 76 44 77
REMARK SMILES IDX 40 78 41 79 42 80 43 81 69 82 70 83 78 84 71 85 77 86 79 87
REMARK SMILES IDX 76 88 72 89 73 90 74 91 75 92 54 93 55 94 63 95 56 96 62 97
REMARK SMILES IDX 64 98 61 99 57 100 58 101 59 102 60 103
REMARK H PARENT 21 5 8 16 25 37 84 56 52 67
REMARK Flexibility Score: inf
ROOT
ATOM      1  C   UNL     1       5.035   0.258   0.675  1.00  0.00     0.117 C 
ENDROOT
BRANCH   1   2
ATOM      2  N   UNL     1       3.853   0.261   1.507  1.00  0.00    -0.356 N 
ATOM      3  C   UNL     1       2.704  -0.445   1.487  1.00  0.00     0.224 C 
ATOM      4  O   UNL     1       1.912  -0.185   2.404  1.00  0.00    -0.275 OA
ATOM      5  H   UNL     1       3.895   0.915   2.241  1.00  0.00     0.163 HD
BRANCH   3   6
ATOM      6  C   UNL     1       2.345  -1.554   0.502  1.00  0.00     0.095 C 
ATOM      7  C   UNL     1       2.465  -2.942   1.191  1.00  0.00     0.095 C 
ATOM      8  C   UNL     1       3.868  -3.521   0.995  1.00  0.00     0.045 C 
ATOM      9  C   UNL     1       4.526  -3.313  -0.351  1.00  0.00    -0.074 C 
ATOM     10  C   UNL     1       2.858  -1.546  -0.939  1.00  0.00     0.045 C 
ATOM     11  C   UNL     1       5.777  -4.132  -0.560  1.00  0.00     0.039 C 
ATOM     12  C   UNL     1       4.065  -2.406  -1.237  1.00  0.00    -0.074 C 
ATOM     13  C   UNL     1       4.756  -2.096  -2.543  1.00  0.00     0.039 C 
BRANCH   7  14
ATOM     14  C   UNL     1       1.198  -3.758   0.881  1.00  0.00     0.224 C 
ATOM     15  N   UNL     1       0.998  -5.062   1.131  1.00  0.00    -0.345 N 
ATOM     16  H   UNL     1       0.052  -5.248   1.329  1.00  0.00     0.164 HD
ATOM     17  O   UNL     1       0.154  -3.183   0.538  1.00  0.00    -0.275 OA
BRANCH  15  18
ATOM     18  C   UNL     1       1.801  -6.277   1.188  1.00  0.00     0.143 C 
BRANCH  18  19
ATOM     19  C   UNL     1       1.824  -6.885   2.593  1.00  0.00    -0.021 A 
ATOM     20  C   UNL     1       1.683  -8.118   5.137  1.00  0.00     0.118 A 
ATOM     21  C   UNL     1       2.268  -8.784   4.062  1.00  0.00     0.047 A 
ATOM     22  C   UNL     1       1.250  -6.806   4.969  1.00  0.00     0.047 A 
ATOM     23  C   UNL     1       2.350  -8.172   2.806  1.00  0.00     0.010 A 
ATOM     24  C   UNL     1       1.321  -6.196   3.711  1.00  0.00     0.010 A 
BRANCH  20  25
ATOM     25  O   UNL     1       1.602  -8.825   6.306  1.00  0.00    -0.497 OA
ATOM     26  C   UNL     1       0.507  -8.471   7.147  1.00  0.00     0.278 C 
ENDBRANCH  20  25
ENDBRANCH  18  19
BRANCH  18  27
ATOM     27  C   UNL     1       1.201  -7.177   0.093  1.00  0.00    -0.021 A 
ATOM     28  C   UNL     1       0.213  -8.143   0.357  1.00  0.00     0.006 A 
ATOM     29  C   UNL     1       1.519  -6.902  -1.250  1.00  0.00     0.006 A 
ATOM     30  C   UNL     1      -0.408  -8.834  -0.685  1.00  0.00     0.000 A 
ATOM     31  C   UNL     1       0.880  -7.579  -2.291  1.00  0.00     0.000 A 
ATOM     32  C   UNL     1      -0.080  -8.548  -2.007  1.00  0.00     0.000 A 
ENDBRANCH  18  27
ENDBRANCH  15  18
ENDBRANCH   7  14
ENDBRANCH   3   6
ENDBRANCH   1   2
BRANCH   1  33
ATOM     33  C   UNL     1       5.022   1.375  -0.363  1.00  0.00     0.042 C 
BRANCH  33  34
ATOM     34  C   UNL     1       5.143   2.773   0.237  1.00  0.00     0.118 C 
BRANCH  34  35
ATOM     35  N   UNL     1       6.418   2.971   0.907  1.00  0.00    -0.352 N 
ATOM     36  C   UNL     1       7.418   3.879   0.664  1.00  0.00     0.251 C 
ATOM     37  H   UNL     1       6.593   2.356   1.656  1.00  0.00     0.163 HD
ATOM     38  O   UNL     1       8.515   3.703   1.186  1.00  0.00    -0.269 OA
BRANCH  36  39
ATOM     39  C   UNL     1       7.189   5.048  -0.215  1.00  0.00     0.039 A 
ATOM     40  C   UNL     1       8.238   5.490  -1.029  1.00  0.00     0.014 A 
ATOM     41  C   UNL     1       5.984   5.755  -0.192  1.00  0.00     0.014 A 
ATOM     42  C   UNL     1       8.067   6.616  -1.839  1.00  0.00     0.010 A 
ATOM     43  C   UNL     1       5.788   6.832  -1.054  1.00  0.00     0.010 A 
ATOM     44  C   UNL     1       6.835   7.287  -1.870  1.00  0.00    -0.014 A 
BRANCH  44  45
ATOM     45  C   UNL     1       6.641   8.499  -2.707  1.00  0.00     0.031 A 
ATOM     46  C   UNL     1       6.384   9.830  -2.052  1.00  0.00     0.074 A 
ATOM     47  C   UNL     1       6.645   8.394  -4.049  1.00  0.00     0.049 A 
ATOM     48  N   UNL     1       6.124  10.990  -2.599  1.00  0.00    -0.248 NA
ATOM     49  C   UNL     1       6.388   9.846  -0.583  1.00  0.00     0.031 C 
ATOM     50  C   UNL     1       6.848   7.153  -4.799  1.00  0.00     0.029 A 
ATOM     51  N   UNL     1       6.469   9.345  -5.021  1.00  0.00    -0.354 N 
ATOM     52  C   UNL     1       5.915  11.869  -1.542  1.00  0.00     0.074 A 
ATOM     53  C   UNL     1       6.009  11.088  -0.327  1.00  0.00     0.031 C 
ATOM     54  C   UNL     1       6.812   7.424  -6.113  1.00  0.00     0.029 A 
ATOM     55  C   UNL     1       6.545   8.847  -6.300  1.00  0.00     0.049 A 
ATOM     56  H   UNL     1       6.304  10.295  -4.822  1.00  0.00     0.167 HD
ATOM     57  C   UNL     1       5.690  13.208  -1.578  1.00  0.00     0.034 A 
ATOM     58  C   UNL     1       6.412   9.467  -7.489  1.00  0.00     0.034 A 
ATOM     59  C   UNL     1       5.609  13.971  -2.801  1.00  0.00     0.049 A 
ATOM     60  C   UNL     1       6.151  10.950  -7.511  1.00  0.00     0.074 A 
ATOM     61  C   UNL     1       5.428  15.334  -2.961  1.00  0.00     0.029 A 
ATOM     62  N   UNL     1       5.698  13.432  -4.080  1.00  0.00    -0.354 N 
ATOM     63  N   UNL     1       5.993  11.778  -6.504  1.00  0.00    -0.248 NA
ATOM     64  C   UNL     1       6.066  11.584  -8.833  1.00  0.00     0.031 C 
ATOM     65  C   UNL     1       5.348  15.609  -4.332  1.00  0.00     0.029 A 
ATOM     66  C   UNL     1       5.552  14.431  -5.032  1.00  0.00     0.049 A 
ATOM     67  H   UNL     1       5.843  12.479  -4.281  1.00  0.00     0.167 HD
ATOM     68  C   UNL     1       5.822  13.037  -7.072  1.00  0.00     0.074 A 
ATOM     69  C   UNL     1       5.906  12.858  -8.508  1.00  0.00     0.031 C 
ATOM     70  C   UNL     1       5.624  14.234  -6.462  1.00  0.00     0.034 A 
BRANCH  57  71
ATOM     71  C   UNL     1       5.488  13.907  -0.252  1.00  0.00     0.023 A 
ATOM     72  C   UNL     1       6.485  13.908   0.741  1.00  0.00     0.031 A 
ATOM     73  C   UNL     1       4.260  14.519   0.056  1.00  0.00     0.131 A 
ATOM     74  C   UNL     1       6.202  14.408   2.021  1.00  0.00     0.055 A 
ATOM     75  C   UNL     1       4.018  15.102   1.302  1.00  0.00     0.041 A 
ATOM     76  F   UNL     1       3.260  14.537  -0.840  1.00  0.00    -0.206 F 
ATOM     77  C   UNL     1       4.984  15.028   2.302  1.00  0.00     0.022 A 
BRANCH  74  78
ATOM     78  S   UNL     1       7.377  14.062   3.360  1.00  0.00     0.124 S 
ATOM     79  O   UNL     1       7.443  12.603   3.325  1.00  0.00    -0.237 OA
ATOM     80  O   UNL     1       8.575  14.767   2.919  1.00  0.00    -0.237 OA
ATOM     81  O   UNL     1       6.723  14.619   4.543  1.00  0.00    -0.744 OA
ENDBRANCH  74  78
ENDBRANCH  57  71
BRANCH  58  82
ATOM     82  C   UNL     1       6.536   8.693  -8.754  1.00  0.00     0.023 A 
ATOM     83  C   UNL     1       7.624   8.896  -9.617  1.00  0.00     0.031 A 
ATOM     84  C   UNL     1       5.565   7.746  -9.123  1.00  0.00     0.131 A 
ATOM     85  C   UNL     1       7.698   8.187 -10.826  1.00  0.00     0.055 A 
ATOM     86  C   UNL     1       5.665   7.013 -10.307  1.00  0.00     0.041 A 
ATOM     87  F   UNL     1       4.512   7.507  -8.325  1.00  0.00    -0.206 F 
ATOM     88  C   UNL     1       6.732   7.239 -11.171  1.00  0.00     0.022 A 
BRANCH  85  89
ATOM     89  S   UNL     1       9.056   8.559 -11.969  1.00  0.00     0.124 S 
ATOM     90  O   UNL     1       8.823   9.969 -12.259  1.00  0.00    -0.237 OA
ATOM     91  O   UNL     1      10.229   8.256 -11.155  1.00  0.00    -0.237 OA
ATOM     92  O   UNL     1       8.822   7.644 -13.084  1.00  0.00    -0.744 OA
ENDBRANCH  85  89
ENDBRANCH  58  82
BRANCH  70  93
ATOM     93  C   UNL     1       5.535  15.448  -7.355  1.00  0.00     0.023 A 
ATOM     94  C   UNL     1       4.461  15.640  -8.241  1.00  0.00     0.031 A 
ATOM     95  C   UNL     1       6.556  16.414  -7.332  1.00  0.00     0.131 A 
ATOM     96  C   UNL     1       4.461  16.741  -9.111  1.00  0.00     0.055 A 
ATOM     97  C   UNL     1       6.522  17.539  -8.158  1.00  0.00     0.041 A 
ATOM     98  F   UNL     1       7.606  16.279  -6.507  1.00  0.00    -0.206 F 
ATOM     99  C   UNL     1       5.478  17.700  -9.064  1.00  0.00     0.022 A 
BRANCH  96 100
ATOM    100  S   UNL     1       3.166  16.854 -10.376  1.00  0.00     0.124 S 
ATOM    101  O   UNL     1       3.334  15.597 -11.097  1.00  0.00    -0.237 OA
ATOM    102  O   UNL     1       1.954  16.970  -9.571  1.00  0.00    -0.237 OA
ATOM    103  O   UNL     1       3.526  18.054 -11.129  1.00  0.00    -0.744 OA
ENDBRANCH  96 100
ENDBRANCH  70  93
ENDBRANCH  44  45
ENDBRANCH  36  39
ENDBRANCH  34  35
ENDBRANCH  33  34
ENDBRANCH   1  33
TORSDOF 18
