REMARK SMILES CC(C)(C)OC(=O)N1CCC(c2c(C(=O)NCCCNC(=O)c3ccc(-c4c5nc(c(-c6cc(S(=O)(=O)[O-])ccc6F)c6ccc([nH]6)c(-c6cc(S(=O)(=O)[O-])ccc6F)c6nc(c(-c7cc(S(=O)(=O)[O-])ccc7F)c7ccc4[nH]7)C=C6)C=C5)cc3)cnn2-c2ccccc2)CC1
REMARK SMILES IDX 18 1 17 2 16 3 14 4 15 5 13 7 12 8 88 9 86 10 87 11 11 12
REMARK SMILES IDX 6 13 7 14 8 15 9 16 96 17 10 18 95 19 5 20 2 21 1 22 3 23
REMARK SMILES IDX 4 24 89 25 90 26 94 27 91 28 93 29 92 30 19 31 20 32 21 33
REMARK SMILES IDX 22 35 23 36 24 37 85 38 25 39 84 40 26 41 27 42 28 43 78 44
REMARK SMILES IDX 29 45 83 46 77 47 79 48 30 49 82 50 76 51 75 52 31 54 63 55
REMARK SMILES IDX 43 56 62 57 44 58 47 59 61 60 80 61 45 62 46 63 60 65 81 66
REMARK SMILES IDX 48 67 32 68 33 69 41 70 34 71 40 72 42 73 39 74 35 75 36 76
REMARK SMILES IDX 37 77 38 78 64 79 65 80 73 81 66 82 72 83 74 84 71 85 67 86
REMARK SMILES IDX 68 87 69 88 70 89 49 90 50 91 58 92 51 93 57 94 59 95 56 96
REMARK SMILES IDX 52 97 53 98 54 99 55 100
REMARK H PARENT 16 6 20 34 79 53 47 64
REMARK Flexibility Score: inf
ROOT
ATOM      1  C   UNL     1       0.537  -9.561   9.641  1.00  0.00     0.042 C 
ENDROOT
BRANCH   1   2
ATOM      2  C   UNL     1       1.147  -9.966   8.294  1.00  0.00     0.118 C 
BRANCH   2   3
ATOM      3  N   UNL     1       0.546  -9.279   7.163  1.00  0.00    -0.352 N 
ATOM      4  C   UNL     1       0.941  -8.202   6.411  1.00  0.00     0.254 C 
ATOM      5  O   UNL     1       0.327  -8.030   5.358  1.00  0.00    -0.269 OA
ATOM      6  H   UNL     1      -0.316  -9.663   6.881  1.00  0.00     0.163 HD
BRANCH   4   7
ATOM      7  C   UNL     1       2.041  -7.323   6.816  1.00  0.00     0.081 A 
ATOM      8  C   UNL     1       2.532  -6.209   6.098  1.00  0.00     0.060 A 
ATOM      9  N   UNL     1       3.622  -5.754   6.834  1.00  0.00    -0.237 N 
ATOM     10  C   UNL     1       2.824  -7.333   7.985  1.00  0.00     0.149 A 
ATOM     11  N   UNL     1       3.835  -6.478   7.951  1.00  0.00    -0.175 NA
BRANCH   8  12
ATOM     12  C   UNL     1       1.998  -5.647   4.771  1.00  0.00     0.043 C 
ATOM     13  C   UNL     1       0.519  -2.306   2.959  1.00  0.00     0.410 C 
ATOM     14  O   UNL     1      -0.293  -1.817   3.719  1.00  0.00    -0.224 OA
ATOM     15  N   UNL     1       0.890  -3.639   3.008  1.00  0.00    -0.308 N 
ATOM     16  C   UNL     1       0.007  -4.577   3.673  1.00  0.00     0.124 C 
ATOM     17  C   UNL     1       2.215  -4.145   2.682  1.00  0.00     0.124 C 
ATOM     18  C   UNL     1       0.613  -5.003   5.000  1.00  0.00     0.032 C 
ATOM     19  C   UNL     1       2.887  -4.668   3.967  1.00  0.00     0.032 C 
BRANCH  13  20
ATOM     20  O   UNL     1       1.101  -1.644   1.919  1.00  0.00    -0.444 OA
BRANCH  20  21
ATOM     21  C   UNL     1       0.589  -0.334   1.546  1.00  0.00     0.106 C 
ATOM     22  C   UNL     1       1.194  -0.044   0.163  1.00  0.00     0.056 C 
ATOM     23  C   UNL     1       1.077   0.730   2.534  1.00  0.00     0.056 C 
ATOM     24  C   UNL     1      -0.942  -0.303   1.391  1.00  0.00     0.056 C 
ENDBRANCH  20  21
ENDBRANCH  13  20
ENDBRANCH   8  12
BRANCH   9  25
ATOM     25  C   UNL     1       4.520  -4.704   6.587  1.00  0.00     0.065 A 
ATOM     26  C   UNL     1       5.856  -5.016   6.312  1.00  0.00     0.028 A 
ATOM     27  C   UNL     1       4.089  -3.380   6.677  1.00  0.00     0.028 A 
ATOM     28  C   UNL     1       6.747  -3.987   6.019  1.00  0.00     0.002 A 
ATOM     29  C   UNL     1       4.989  -2.357   6.384  1.00  0.00     0.002 A 
ATOM     30  C   UNL     1       6.309  -2.661   6.040  1.00  0.00     0.000 A 
ENDBRANCH   9  25
ENDBRANCH   4   7
ENDBRANCH   2   3
ENDBRANCH   1   2
BRANCH   1  31
ATOM     31  C   UNL     1      -0.731 -10.351   9.927  1.00  0.00     0.118 C 
BRANCH  31  32
ATOM     32  N   UNL     1      -0.471 -11.791  10.134  1.00  0.00    -0.352 N 
ATOM     33  C   UNL     1      -1.353 -12.821  10.444  1.00  0.00     0.251 C 
ATOM     34  H   UNL     1       0.470 -12.063  10.037  1.00  0.00     0.163 HD
ATOM     35  O   UNL     1      -0.933 -13.887  10.879  1.00  0.00    -0.269 OA
BRANCH  33  36
ATOM     36  C   UNL     1      -2.793 -12.601  10.231  1.00  0.00     0.039 A 
ATOM     37  C   UNL     1      -3.813 -13.116  11.040  1.00  0.00     0.014 A 
ATOM     38  C   UNL     1      -3.102 -11.755   9.188  1.00  0.00     0.014 A 
ATOM     39  C   UNL     1      -5.128 -12.740  10.755  1.00  0.00     0.010 A 
ATOM     40  C   UNL     1      -4.258 -11.059   9.258  1.00  0.00     0.010 A 
ATOM     41  C   UNL     1      -5.328 -11.715   9.826  1.00  0.00    -0.014 A 
BRANCH  41  42
ATOM     42  C   UNL     1      -6.608 -11.204   9.373  1.00  0.00     0.031 A 
ATOM     43  C   UNL     1      -7.320 -10.403  10.392  1.00  0.00     0.074 A 
ATOM     44  C   UNL     1      -6.889 -11.155   8.046  1.00  0.00     0.049 A 
ATOM     45  N   UNL     1      -8.399 -10.725  11.018  1.00  0.00    -0.248 NA
ATOM     46  C   UNL     1      -6.657  -9.206  10.940  1.00  0.00     0.031 C 
ATOM     47  C   UNL     1      -6.078 -11.611   6.904  1.00  0.00     0.029 A 
ATOM     48  N   UNL     1      -7.926 -10.544   7.422  1.00  0.00    -0.354 N 
ATOM     49  C   UNL     1      -8.686  -9.655  11.857  1.00  0.00     0.074 A 
ATOM     50  C   UNL     1      -7.466  -8.904  11.958  1.00  0.00     0.031 C 
ATOM     51  C   UNL     1      -6.540 -11.053   5.760  1.00  0.00     0.029 A 
ATOM     52  C   UNL     1      -7.757 -10.319   6.055  1.00  0.00     0.049 A 
ATOM     53  H   UNL     1      -8.744 -10.277   7.900  1.00  0.00     0.167 HD
ATOM     54  C   UNL     1      -9.970  -9.343  12.188  1.00  0.00     0.034 A 
ATOM     55  C   UNL     1      -8.541  -9.535   5.259  1.00  0.00     0.034 A 
ATOM     56  C   UNL     1     -10.870 -10.387  11.741  1.00  0.00     0.049 A 
ATOM     57  C   UNL     1      -9.845  -9.413   5.979  1.00  0.00     0.074 A 
ATOM     58  C   UNL     1     -10.989 -11.733  12.025  1.00  0.00     0.029 A 
ATOM     59  N   UNL     1     -11.511 -10.200  10.532  1.00  0.00    -0.354 N 
ATOM     60  N   UNL     1     -10.616 -10.444   6.220  1.00  0.00    -0.248 NA
ATOM     61  C   UNL     1     -10.006  -8.302   6.911  1.00  0.00     0.031 C 
ATOM     62  C   UNL     1     -11.208 -12.349  10.757  1.00  0.00     0.029 A 
ATOM     63  C   UNL     1     -11.340 -11.347   9.790  1.00  0.00     0.049 A 
ATOM     64  H   UNL     1     -12.001  -9.394  10.252  1.00  0.00     0.167 HD
ATOM     65  C   UNL     1     -11.023 -10.301   7.541  1.00  0.00     0.074 A 
ATOM     66  C   UNL     1     -10.680  -8.919   7.891  1.00  0.00     0.031 C 
ATOM     67  C   UNL     1     -11.287 -11.386   8.335  1.00  0.00     0.034 A 
BRANCH  54  68
ATOM     68  C   UNL     1     -10.485  -7.984  12.600  1.00  0.00     0.023 A 
ATOM     69  C   UNL     1     -11.847  -7.899  12.951  1.00  0.00     0.031 A 
ATOM     70  C   UNL     1      -9.818  -6.751  12.435  1.00  0.00     0.131 A 
ATOM     71  C   UNL     1     -12.501  -6.659  13.025  1.00  0.00     0.055 A 
ATOM     72  C   UNL     1     -10.457  -5.516  12.577  1.00  0.00     0.041 A 
ATOM     73  F   UNL     1      -8.544  -6.660  12.040  1.00  0.00    -0.206 F 
ATOM     74  C   UNL     1     -11.814  -5.463  12.841  1.00  0.00     0.022 A 
BRANCH  71  75
ATOM     75  S   UNL     1     -14.304  -6.648  13.193  1.00  0.00     0.124 S 
ATOM     76  O   UNL     1     -14.711  -7.523  12.099  1.00  0.00    -0.237 OA
ATOM     77  O   UNL     1     -14.482  -7.176  14.542  1.00  0.00    -0.237 OA
ATOM     78  O   UNL     1     -14.650  -5.239  13.024  1.00  0.00    -0.744 OA
ENDBRANCH  71  75
ENDBRANCH  54  68
BRANCH  55  79
ATOM     79  C   UNL     1      -8.067  -8.611   4.174  1.00  0.00     0.023 A 
ATOM     80  C   UNL     1      -8.895  -8.074   3.159  1.00  0.00     0.031 A 
ATOM     81  C   UNL     1      -6.763  -8.063   4.260  1.00  0.00     0.131 A 
ATOM     82  C   UNL     1      -8.405  -7.059   2.289  1.00  0.00     0.055 A 
ATOM     83  C   UNL     1      -6.287  -7.067   3.402  1.00  0.00     0.041 A 
ATOM     84  F   UNL     1      -5.921  -8.422   5.242  1.00  0.00    -0.206 F 
ATOM     85  C   UNL     1      -7.109  -6.555   2.415  1.00  0.00     0.022 A 
BRANCH  82  86
ATOM     86  S   UNL     1      -9.474  -6.310   1.007  1.00  0.00     0.124 S 
ATOM     87  O   UNL     1      -9.655  -7.412   0.069  1.00  0.00    -0.237 OA
ATOM     88  O   UNL     1     -10.649  -5.909   1.772  1.00  0.00    -0.237 OA
ATOM     89  O   UNL     1      -8.671  -5.197   0.496  1.00  0.00    -0.744 OA
ENDBRANCH  82  86
ENDBRANCH  55  79
BRANCH  67  90
ATOM     90  C   UNL     1     -11.324 -12.773   7.703  1.00  0.00     0.023 A 
ATOM     91  C   UNL     1     -10.249 -13.390   7.016  1.00  0.00     0.031 A 
ATOM     92  C   UNL     1     -12.452 -13.566   7.977  1.00  0.00     0.131 A 
ATOM     93  C   UNL     1     -10.335 -14.748   6.637  1.00  0.00     0.055 A 
ATOM     94  C   UNL     1     -12.521 -14.914   7.627  1.00  0.00     0.041 A 
ATOM     95  F   UNL     1     -13.496 -13.052   8.648  1.00  0.00    -0.206 F 
ATOM     96  C   UNL     1     -11.463 -15.510   6.952  1.00  0.00     0.022 A 
BRANCH  93  97
ATOM     97  S   UNL     1      -8.982 -15.553   5.712  1.00  0.00     0.124 S 
ATOM     98  O   UNL     1      -8.705 -14.614   4.632  1.00  0.00    -0.237 OA
ATOM     99  O   UNL     1      -7.940 -15.691   6.724  1.00  0.00    -0.237 OA
ATOM    100  O   UNL     1      -9.575 -16.820   5.277  1.00  0.00    -0.744 OA
ENDBRANCH  93  97
ENDBRANCH  67  90
ENDBRANCH  41  42
ENDBRANCH  33  36
ENDBRANCH  31  32
ENDBRANCH   1  31
TORSDOF 17
