REMARK SMILES Cc1cc(Cl)cc2c1O[C@H](C(F)(F)F)C(C(=O)NCCCNC(=O)c1ccc(-c3c4nc(c(-c5cc(S(=O)(=O)[O-])ccc5F)c5ccc([nH]5)c(-c5cc(S(=O)(=O)[O-])ccc5F)c5nc(c(-c6cc(S(=O)(=O)[O-])ccc6F)c6ccc3[nH]6)C=C5)C=C4)cc1)=C2
REMARK SMILES IDX 21 1 20 2 19 3 18 4 16 5 17 6 15 8 1 9 2 10 3 11 8 12 4 13
REMARK SMILES IDX 7 14 9 15 5 16 6 17 88 18 10 19 11 20 12 21 13 22 14 23
REMARK SMILES IDX 22 24 23 25 24 27 25 28 26 29 87 30 27 31 86 32 28 33 29 34
REMARK SMILES IDX 30 35 80 36 31 37 85 38 79 39 81 40 32 41 84 42 78 43 77 44
REMARK SMILES IDX 33 46 65 47 45 48 64 49 46 50 49 51 63 52 82 53 47 54 48 55
REMARK SMILES IDX 62 57 83 58 50 59 34 60 35 61 43 62 36 63 42 64 44 65 41 66
REMARK SMILES IDX 37 67 38 68 39 69 40 70 66 71 67 72 75 73 68 74 74 75 76 76
REMARK SMILES IDX 73 77 69 78 70 79 71 80 72 81 51 82 52 83 60 84 53 85 59 86
REMARK SMILES IDX 61 87 58 88 54 89 55 90 56 91 57 92
REMARK H PARENT 18 7 22 26 81 45 49 56
REMARK Flexibility Score: inf
ROOT
ATOM      1  C   UNL     1       4.345  -6.324   5.312  1.00  0.00     0.118 C 
ENDROOT
BRANCH   1   2
ATOM      2  C   UNL     1       3.834  -5.136   4.506  1.00  0.00     0.042 C 
BRANCH   2   3
ATOM      3  C   UNL     1       4.343  -5.157   3.073  1.00  0.00     0.118 C 
BRANCH   3   4
ATOM      4  N   UNL     1       3.595  -6.089   2.241  1.00  0.00    -0.352 N 
ATOM      5  C   UNL     1       2.689  -6.016   1.239  1.00  0.00     0.251 C 
ATOM      6  O   UNL     1       2.312  -7.101   0.786  1.00  0.00    -0.270 OA
ATOM      7  H   UNL     1       3.805  -7.023   2.468  1.00  0.00     0.163 HD
BRANCH   5   8
ATOM      8  C   UNL     1       2.146  -4.750   0.667  1.00  0.00     0.067 C 
ATOM      9  C   UNL     1       0.773   0.082  -0.300  1.00  0.00     0.048 C 
ATOM     10  C   UNL     1       0.420  -1.253  -0.892  1.00  0.00    -0.007 A 
ATOM     11  C   UNL     1      -0.427  -1.346  -2.002  1.00  0.00     0.027 A 
ATOM     12  C   UNL     1       0.938  -2.432  -0.341  1.00  0.00     0.131 A 
ATOM     13  C   UNL     1      -0.743  -2.595  -2.538  1.00  0.00     0.042 A 
ATOM     14  C   UNL     1       0.627  -3.686  -0.878  1.00  0.00     0.019 A 
ATOM     15  O   UNL     1       1.719  -2.300   0.772  1.00  0.00    -0.475 OA
ATOM     16  Cl  UNL     1      -1.790  -2.693  -3.901  1.00  0.00    -0.084 Cl
ATOM     17  C   UNL     1      -0.222  -3.765  -1.984  1.00  0.00     0.032 A 
ATOM     18  C   UNL     1       1.175  -4.886  -0.256  1.00  0.00     0.025 C 
ATOM     19  C   UNL     1       2.644  -3.384   1.040  1.00  0.00     0.314 C 
BRANCH  19  20
ATOM     20  C   UNL     1       4.008  -3.054   0.404  1.00  0.00     0.429 C 
ATOM     21  F   UNL     1       4.590  -2.010   1.045  1.00  0.00    -0.167 F 
ATOM     22  F   UNL     1       4.883  -4.085   0.474  1.00  0.00    -0.167 F 
ATOM     23  F   UNL     1       3.906  -2.720  -0.903  1.00  0.00    -0.167 F 
ENDBRANCH  19  20
ENDBRANCH   5   8
ENDBRANCH   3   4
ENDBRANCH   2   3
ENDBRANCH   1   2
BRANCH   1  24
ATOM     24  N   UNL     1       5.800  -6.300   5.441  1.00  0.00    -0.352 N 
ATOM     25  C   UNL     1       6.586  -5.978   6.518  1.00  0.00     0.251 C 
ATOM     26  H   UNL     1       6.293  -6.556   4.628  1.00  0.00     0.163 HD
ATOM     27  O   UNL     1       7.776  -5.720   6.341  1.00  0.00    -0.269 OA
BRANCH  25  28
ATOM     28  C   UNL     1       6.004  -5.941   7.873  1.00  0.00     0.039 A 
ATOM     29  C   UNL     1       6.407  -4.949   8.769  1.00  0.00     0.014 A 
ATOM     30  C   UNL     1       5.075  -6.908   8.265  1.00  0.00     0.014 A 
ATOM     31  C   UNL     1       5.827  -4.892  10.037  1.00  0.00     0.010 A 
ATOM     32  C   UNL     1       4.427  -6.790   9.486  1.00  0.00     0.010 A 
ATOM     33  C   UNL     1       4.808  -5.791  10.391  1.00  0.00    -0.014 A 
BRANCH  33  34
ATOM     34  C   UNL     1       4.150  -5.734  11.718  1.00  0.00     0.031 A 
ATOM     35  C   UNL     1       4.274  -6.902  12.659  1.00  0.00     0.074 A 
ATOM     36  C   UNL     1       3.405  -4.661  12.048  1.00  0.00     0.049 A 
ATOM     37  N   UNL     1       3.707  -7.087  13.822  1.00  0.00    -0.248 NA
ATOM     38  C   UNL     1       5.123  -8.024  12.222  1.00  0.00     0.031 C 
ATOM     39  C   UNL     1       3.190  -3.487  11.197  1.00  0.00     0.029 A 
ATOM     40  N   UNL     1       2.690  -4.380  13.184  1.00  0.00    -0.354 N 
ATOM     41  C   UNL     1       4.120  -8.344  14.248  1.00  0.00     0.074 A 
ATOM     42  C   UNL     1       4.933  -8.905  13.192  1.00  0.00     0.031 C 
ATOM     43  C   UNL     1       2.432  -2.598  11.858  1.00  0.00     0.029 A 
ATOM     44  C   UNL     1       2.065  -3.155  13.156  1.00  0.00     0.049 A 
ATOM     45  H   UNL     1       2.630  -4.998  13.948  1.00  0.00     0.167 HD
ATOM     46  C   UNL     1       3.869  -8.960  15.426  1.00  0.00     0.034 A 
ATOM     47  C   UNL     1       1.279  -2.554  14.071  1.00  0.00     0.034 A 
ATOM     48  C   UNL     1       3.086  -8.373  16.481  1.00  0.00     0.049 A 
ATOM     49  C   UNL     1       0.995  -3.271  15.364  1.00  0.00     0.074 A 
ATOM     50  C   UNL     1       2.814  -8.887  17.736  1.00  0.00     0.029 A 
ATOM     51  N   UNL     1       2.454  -7.139  16.408  1.00  0.00    -0.354 N 
ATOM     52  N   UNL     1       1.411  -4.452  15.758  1.00  0.00    -0.248 NA
ATOM     53  C   UNL     1       0.137  -2.578  16.334  1.00  0.00     0.031 C 
ATOM     54  C   UNL     1       1.968  -7.994  18.398  1.00  0.00     0.029 A 
ATOM     55  C   UNL     1       1.768  -6.889  17.584  1.00  0.00     0.049 A 
ATOM     56  H   UNL     1       2.489  -6.532  15.634  1.00  0.00     0.167 HD
ATOM     57  C   UNL     1       0.880  -4.636  17.030  1.00  0.00     0.074 A 
ATOM     58  C   UNL     1       0.123  -3.440  17.342  1.00  0.00     0.031 C 
ATOM     59  C   UNL     1       1.009  -5.696  17.867  1.00  0.00     0.034 A 
BRANCH  46  60
ATOM     60  C   UNL     1       4.443 -10.336  15.636  1.00  0.00     0.023 A 
ATOM     61  C   UNL     1       5.827 -10.544  15.752  1.00  0.00     0.031 A 
ATOM     62  C   UNL     1       3.593 -11.450  15.750  1.00  0.00     0.131 A 
ATOM     63  C   UNL     1       6.326 -11.841  15.935  1.00  0.00     0.055 A 
ATOM     64  C   UNL     1       4.092 -12.731  15.996  1.00  0.00     0.041 A 
ATOM     65  F   UNL     1       2.264 -11.311  15.626  1.00  0.00    -0.206 F 
ATOM     66  C   UNL     1       5.466 -12.933  16.084  1.00  0.00     0.022 A 
BRANCH  63  67
ATOM     67  S   UNL     1       8.120 -12.096  15.903  1.00  0.00     0.124 S 
ATOM     68  O   UNL     1       8.443 -11.736  14.524  1.00  0.00    -0.237 OA
ATOM     69  O   UNL     1       8.591 -11.173  16.930  1.00  0.00    -0.237 OA
ATOM     70  O   UNL     1       8.271 -13.514  16.223  1.00  0.00    -0.744 OA
ENDBRANCH  63  67
ENDBRANCH  46  60
BRANCH  47  71
ATOM     71  C   UNL     1       0.708  -1.206  13.795  1.00  0.00     0.023 A 
ATOM     72  C   UNL     1       1.126  -0.082  14.524  1.00  0.00     0.031 A 
ATOM     73  C   UNL     1      -0.262  -1.022  12.793  1.00  0.00     0.131 A 
ATOM     74  C   UNL     1       0.558   1.174  14.257  1.00  0.00     0.055 A 
ATOM     75  C   UNL     1      -0.795   0.235  12.505  1.00  0.00     0.041 A 
ATOM     76  F   UNL     1      -0.688  -2.064  12.061  1.00  0.00    -0.206 F 
ATOM     77  C   UNL     1      -0.389   1.342  13.244  1.00  0.00     0.022 A 
BRANCH  74  78
ATOM     78  S   UNL     1       1.052   2.587  15.280  1.00  0.00     0.124 S 
ATOM     79  O   UNL     1       0.586   2.176  16.599  1.00  0.00    -0.237 OA
ATOM     80  O   UNL     1       2.499   2.612  15.088  1.00  0.00    -0.237 OA
ATOM     81  O   UNL     1       0.330   3.708  14.682  1.00  0.00    -0.744 OA
ENDBRANCH  74  78
ENDBRANCH  47  71
BRANCH  59  82
ATOM     82  C   UNL     1       0.334  -5.607  19.209  1.00  0.00     0.023 A 
ATOM     83  C   UNL     1      -1.063  -5.682  19.329  1.00  0.00     0.031 A 
ATOM     84  C   UNL     1       1.101  -5.506  20.382  1.00  0.00     0.131 A 
ATOM     85  C   UNL     1      -1.655  -5.628  20.598  1.00  0.00     0.055 A 
ATOM     86  C   UNL     1       0.510  -5.503  21.645  1.00  0.00     0.041 A 
ATOM     87  F   UNL     1       2.441  -5.436  20.318  1.00  0.00    -0.206 F 
ATOM     88  C   UNL     1      -0.877  -5.559  21.758  1.00  0.00     0.022 A 
BRANCH  85  89
ATOM     89  S   UNL     1      -3.464  -5.616  20.715  1.00  0.00     0.124 S 
ATOM     90  O   UNL     1      -3.800  -4.361  20.049  1.00  0.00    -0.237 OA
ATOM     91  O   UNL     1      -3.835  -6.834  20.003  1.00  0.00    -0.237 OA
ATOM     92  O   UNL     1      -3.715  -5.640  22.154  1.00  0.00    -0.744 OA
ENDBRANCH  85  89
ENDBRANCH  59  82
ENDBRANCH  33  34
ENDBRANCH  25  28
ENDBRANCH   1  24
TORSDOF 14
