REMARK SMILES O=C(NCCCNC(=O)c1ccc(N2C(=O)/C(=C/C3=c4ccccc4=NC3)SC2=S)cc1O)c1ccc(-c2c3nc(c(-c4cc(S(=O)(=O)[O-])ccc4F)c4ccc([nH]4)c(-c4cc(S(=O)(=O)[O-])ccc4F)c4nc(c(-c5cc(S(=O)(=O)[O-])ccc5F)c5ccc2[nH]5)C=C4)C=C3)cc1
REMARK SMILES IDX 4 1 3 2 1 3 2 4 34 6 35 7 96 8 36 9 95 10 37 11 38 12 39 13
REMARK SMILES IDX 89 14 40 15 94 16 88 17 90 18 41 19 93 20 87 21 86 22 42 24
REMARK SMILES IDX 74 25 54 26 73 27 55 28 58 29 72 30 91 31 56 32 57 33 71 35
REMARK SMILES IDX 92 36 59 37 43 38 44 39 52 40 45 41 51 42 53 43 50 44 46 45
REMARK SMILES IDX 47 46 48 47 49 48 75 49 76 50 84 51 77 52 83 53 85 54 82 55
REMARK SMILES IDX 78 56 79 57 80 58 81 59 60 60 61 61 69 62 62 63 68 64 70 65
REMARK SMILES IDX 67 66 63 67 64 68 65 69 66 70 5 71 6 72 7 73 8 74 9 76 10 77
REMARK SMILES IDX 11 78 32 79 12 80 31 81 13 82 33 83 14 85 15 86 29 87 16 88
REMARK SMILES IDX 17 89 28 90 30 91 18 92 19 93 20 94 27 95 21 96 25 97 26 98
REMARK SMILES IDX 22 99 24 100 23 101
REMARK H PARENT 3 5 90 23 58 34 7 75 33 84
REMARK Flexibility Score: inf
ROOT
ATOM      1  C   UNL     1       4.689  -0.716   1.028  1.00  0.00     0.118 C 
ENDROOT
BRANCH   1   2
ATOM      2  N   UNL     1       3.239  -0.707   0.906  1.00  0.00    -0.352 N 
ATOM      3  O   UNL     1       1.218   0.034   0.273  1.00  0.00    -0.269 OA
ATOM      4  C   UNL     1       2.427  -0.003   0.053  1.00  0.00     0.251 C 
ATOM      5  H   UNL     1       2.766  -1.299   1.534  1.00  0.00     0.163 HD
BRANCH   4   6
ATOM      6  C   UNL     1       2.985   0.702  -1.123  1.00  0.00     0.039 A 
ATOM      7  C   UNL     1       2.408   1.912  -1.522  1.00  0.00     0.014 A 
ATOM      8  C   UNL     1       4.012   0.140  -1.886  1.00  0.00     0.014 A 
ATOM      9  C   UNL     1       2.865   2.558  -2.674  1.00  0.00     0.010 A 
ATOM     10  C   UNL     1       4.530   0.829  -2.978  1.00  0.00     0.010 A 
ATOM     11  C   UNL     1       3.931   2.021  -3.411  1.00  0.00    -0.014 A 
BRANCH  11  12
ATOM     12  C   UNL     1       4.371   2.615  -4.699  1.00  0.00     0.031 A 
ATOM     13  C   UNL     1       4.224   1.809  -5.963  1.00  0.00     0.074 A 
ATOM     14  C   UNL     1       4.945   3.833  -4.734  1.00  0.00     0.049 A 
ATOM     15  N   UNL     1       4.665   2.071  -7.163  1.00  0.00    -0.248 NA
ATOM     16  C   UNL     1       3.507   0.525  -5.857  1.00  0.00     0.031 C 
ATOM     17  C   UNL     1       5.151   4.697  -3.573  1.00  0.00     0.029 A 
ATOM     18  N   UNL     1       5.480   4.545  -5.780  1.00  0.00    -0.354 N 
ATOM     19  C   UNL     1       4.307   0.979  -7.945  1.00  0.00     0.074 A 
ATOM     20  C   UNL     1       3.655   0.028  -7.077  1.00  0.00     0.031 C 
ATOM     21  C   UNL     1       5.766   5.821  -3.969  1.00  0.00     0.029 A 
ATOM     22  C   UNL     1       6.053   5.737  -5.401  1.00  0.00     0.049 A 
ATOM     23  H   UNL     1       5.455   4.232  -6.713  1.00  0.00     0.167 HD
ATOM     24  C   UNL     1       4.485   0.801  -9.273  1.00  0.00     0.034 A 
ATOM     25  C   UNL     1       6.755   6.644  -6.114  1.00  0.00     0.034 A 
ATOM     26  C   UNL     1       5.085   1.784 -10.134  1.00  0.00     0.049 A 
ATOM     27  C   UNL     1       6.943   6.423  -7.596  1.00  0.00     0.074 A 
ATOM     28  C   UNL     1       5.242   1.724 -11.507  1.00  0.00     0.029 A 
ATOM     29  N   UNL     1       5.615   2.996  -9.720  1.00  0.00    -0.354 N 
ATOM     30  N   UNL     1       6.530   5.419  -8.335  1.00  0.00    -0.248 NA
ATOM     31  C   UNL     1       7.677   7.450  -8.349  1.00  0.00     0.031 C 
ATOM     32  C   UNL     1       5.936   2.860 -11.912  1.00  0.00     0.029 A 
ATOM     33  C   UNL     1       6.129   3.677 -10.809  1.00  0.00     0.049 A 
ATOM     34  H   UNL     1       5.624   3.323  -8.791  1.00  0.00     0.167 HD
ATOM     35  C   UNL     1       6.927   5.710  -9.638  1.00  0.00     0.074 A 
ATOM     36  C   UNL     1       7.595   6.992  -9.593  1.00  0.00     0.031 C 
ATOM     37  C   UNL     1       6.758   4.975 -10.765  1.00  0.00     0.034 A 
BRANCH  24  38
ATOM     38  C   UNL     1       4.007  -0.475  -9.918  1.00  0.00     0.023 A 
ATOM     39  C   UNL     1       4.933  -1.308 -10.574  1.00  0.00     0.031 A 
ATOM     40  C   UNL     1       2.638  -0.762 -10.053  1.00  0.00     0.131 A 
ATOM     41  C   UNL     1       4.475  -2.346 -11.393  1.00  0.00     0.055 A 
ATOM     42  C   UNL     1       2.189  -1.832 -10.827  1.00  0.00     0.041 A 
ATOM     43  F   UNL     1       1.716   0.004  -9.447  1.00  0.00    -0.206 F 
ATOM     44  C   UNL     1       3.109  -2.617 -11.518  1.00  0.00     0.022 A 
BRANCH  41  45
ATOM     45  S   UNL     1       5.628  -3.317 -12.400  1.00  0.00     0.124 S 
ATOM     46  O   UNL     1       5.323  -4.682 -11.976  1.00  0.00    -0.237 OA
ATOM     47  O   UNL     1       5.208  -2.976 -13.756  1.00  0.00    -0.237 OA
ATOM     48  O   UNL     1       6.943  -2.825 -12.001  1.00  0.00    -0.744 OA
ENDBRANCH  41  45
ENDBRANCH  24  38
BRANCH  25  49
ATOM     49  C   UNL     1       7.303   7.848  -5.419  1.00  0.00     0.023 A 
ATOM     50  C   UNL     1       8.218   7.709  -4.358  1.00  0.00     0.031 A 
ATOM     51  C   UNL     1       6.848   9.140  -5.729  1.00  0.00     0.131 A 
ATOM     52  C   UNL     1       8.586   8.828  -3.599  1.00  0.00     0.055 A 
ATOM     53  C   UNL     1       7.282  10.264  -5.022  1.00  0.00     0.041 A 
ATOM     54  F   UNL     1       5.965   9.327  -6.722  1.00  0.00    -0.206 F 
ATOM     55  C   UNL     1       8.140  10.109  -3.938  1.00  0.00     0.022 A 
BRANCH  52  56
ATOM     56  S   UNL     1       9.530   8.636  -2.062  1.00  0.00     0.124 S 
ATOM     57  O   UNL     1      10.735   9.409  -2.345  1.00  0.00    -0.237 OA
ATOM     58  O   UNL     1       8.621   9.222  -1.078  1.00  0.00    -0.237 OA
ATOM     59  O   UNL     1       9.715   7.194  -1.947  1.00  0.00    -0.744 OA
ENDBRANCH  52  56
ENDBRANCH  25  49
BRANCH  37  60
ATOM     60  C   UNL     1       7.265   5.509 -12.084  1.00  0.00     0.023 A 
ATOM     61  C   UNL     1       6.357   5.727 -13.140  1.00  0.00     0.031 A 
ATOM     62  C   UNL     1       8.640   5.579 -12.364  1.00  0.00     0.131 A 
ATOM     63  C   UNL     1       6.835   5.929 -14.440  1.00  0.00     0.055 A 
ATOM     64  C   UNL     1       9.111   5.840 -13.651  1.00  0.00     0.041 A 
ATOM     65  F   UNL     1       9.544   5.365 -11.395  1.00  0.00    -0.206 F 
ATOM     66  C   UNL     1       8.207   5.994 -14.700  1.00  0.00     0.022 A 
BRANCH  63  67
ATOM     67  S   UNL     1       5.699   5.989 -15.854  1.00  0.00     0.124 S 
ATOM     68  O   UNL     1       6.000   7.299 -16.428  1.00  0.00    -0.237 OA
ATOM     69  O   UNL     1       6.136   4.845 -16.648  1.00  0.00    -0.237 OA
ATOM     70  O   UNL     1       4.376   5.867 -15.250  1.00  0.00    -0.744 OA
ENDBRANCH  63  67
ENDBRANCH  37  60
ENDBRANCH  11  12
ENDBRANCH   4   6
ENDBRANCH   1   2
BRANCH   1  71
ATOM     71  C   UNL     1       5.162  -0.121   2.345  1.00  0.00     0.042 C 
BRANCH  71  72
ATOM     72  C   UNL     1       4.687  -0.878   3.574  1.00  0.00     0.118 C 
BRANCH  72  73
ATOM     73  N   UNL     1       5.187  -2.242   3.622  1.00  0.00    -0.352 N 
ATOM     74  C   UNL     1       5.838  -2.878   4.647  1.00  0.00     0.255 C 
ATOM     75  H   UNL     1       5.038  -2.780   2.811  1.00  0.00     0.163 HD
ATOM     76  O   UNL     1       6.269  -4.019   4.500  1.00  0.00    -0.269 OA
BRANCH  74  77
ATOM     77  C   UNL     1       6.082  -2.173   5.920  1.00  0.00     0.081 A 
ATOM     78  C   UNL     1       7.406  -2.075   6.362  1.00  0.00     0.020 A 
ATOM     79  C   UNL     1       5.051  -1.622   6.685  1.00  0.00     0.130 A 
ATOM     80  C   UNL     1       7.700  -1.403   7.553  1.00  0.00     0.028 A 
ATOM     81  C   UNL     1       5.345  -0.957   7.873  1.00  0.00     0.073 A 
ATOM     82  C   UNL     1       6.669  -0.861   8.331  1.00  0.00     0.054 A 
BRANCH  79  83
ATOM     83  O   UNL     1       3.749  -1.720   6.279  1.00  0.00    -0.507 OA
ATOM     84  H   UNL     1       3.539  -2.165   5.481  1.00  0.00     0.293 HD
ENDBRANCH  79  83
BRANCH  82  85
ATOM     85  N   UNL     1       6.947  -0.206   9.566  1.00  0.00    -0.261 N 
ATOM     86  C   UNL     1       7.949   0.762   9.632  1.00  0.00     0.270 C 
ATOM     87  C   UNL     1       6.254  -0.459  10.744  1.00  0.00     0.152 C 
ATOM     88  O   UNL     1       8.711   1.113   8.746  1.00  0.00    -0.268 OA
ATOM     89  C   UNL     1       7.948   1.398  10.982  1.00  0.00     0.081 C 
ATOM     90  S   UNL     1       6.767   0.668  11.989  1.00  0.00    -0.054 SA
ATOM     91  S   UNL     1       5.155  -1.669  11.109  1.00  0.00    -0.051 S 
ATOM     92  C   UNL     1       8.730   2.442  11.285  1.00  0.00     0.027 C 
BRANCH  92  93
ATOM     93  C   UNL     1       8.758   3.136  12.551  1.00  0.00    -0.016 C 
ATOM     94  C   UNL     1       8.434   4.409  12.764  1.00  0.00     0.005 A 
ATOM     95  C   UNL     1       9.170   2.476  13.837  1.00  0.00     0.179 C 
ATOM     96  C   UNL     1       7.986   5.497  11.954  1.00  0.00     0.011 A 
ATOM     97  C   UNL     1       8.612   4.550  14.219  1.00  0.00     0.065 A 
ATOM     98  N   UNL     1       9.031   3.518  14.886  1.00  0.00    -0.280 NA
ATOM     99  C   UNL     1       7.715   6.673  12.546  1.00  0.00     0.001 A 
ATOM    100  C   UNL     1       8.286   5.871  14.797  1.00  0.00     0.028 A 
ATOM    101  C   UNL     1       7.863   6.851  13.981  1.00  0.00     0.002 A 
ENDBRANCH  92  93
ENDBRANCH  82  85
ENDBRANCH  74  77
ENDBRANCH  72  73
ENDBRANCH  71  72
ENDBRANCH   1  71
TORSDOF 16
