REMARK SMILES COC(=O)c1cc(F)cc(-c2ccccc2C(=O)NCCCNC(=O)c2ccc(-c3c4nc(c(-c5cc(S(=O)(=O)[O-])ccc5F)c5ccc([nH]5)c(-c5cc(S(=O)(=O)[O-])ccc5F)c5nc(c(-c6cc(S(=O)(=O)[O-])ccc6F)c6ccc3[nH]6)C=C5)C=C4)cc2)c1
REMARK SMILES IDX 21 1 20 2 19 3 17 4 18 5 16 7 11 8 12 9 13 10 15 11 14 12
REMARK SMILES IDX 10 13 5 14 6 15 89 16 7 17 8 18 9 19 3 20 4 21 2 22 1 23
REMARK SMILES IDX 22 24 23 25 24 26 25 28 26 29 27 30 88 31 28 32 87 33 29 34
REMARK SMILES IDX 30 35 31 36 81 37 32 38 86 39 80 40 82 41 33 42 85 43 79 44
REMARK SMILES IDX 78 45 34 47 66 48 46 49 65 50 47 51 50 52 64 53 83 54 48 55
REMARK SMILES IDX 49 56 63 58 84 59 51 60 35 61 36 62 44 63 37 64 43 65 45 66
REMARK SMILES IDX 42 67 38 68 39 69 40 70 41 71 67 72 68 73 76 74 69 75 75 76
REMARK SMILES IDX 77 77 74 78 70 79 71 80 72 81 73 82 52 83 53 84 61 85 54 86
REMARK SMILES IDX 60 87 62 88 59 89 55 90 56 91 57 92 58 93
REMARK H PARENT 19 6 23 27 82 46 50 57
REMARK Flexibility Score: inf
ROOT
ATOM      1  C   UNL     1       0.237  -4.583   2.829  1.00  0.00     0.042 C 
ENDROOT
BRANCH   1   2
ATOM      2  C   UNL     1       0.904  -5.205   1.616  1.00  0.00     0.118 C 
BRANCH   2   3
ATOM      3  N   UNL     1       2.333  -5.396   1.676  1.00  0.00    -0.352 N 
ATOM      4  C   UNL     1       3.130  -6.246   0.943  1.00  0.00     0.251 C 
ATOM      5  O   UNL     1       4.351  -6.141   1.084  1.00  0.00    -0.269 OA
ATOM      6  H   UNL     1       2.806  -4.838   2.335  1.00  0.00     0.163 HD
BRANCH   4   7
ATOM      7  C   UNL     1       2.620  -7.351   0.066  1.00  0.00     0.047 A 
ATOM      8  C   UNL     1       1.638  -7.279  -0.952  1.00  0.00    -0.005 A 
ATOM      9  C   UNL     1       1.364  -8.455  -1.695  1.00  0.00     0.009 A 
ATOM     10  C   UNL     1       2.030  -9.657  -1.458  1.00  0.00     0.001 A 
ATOM     11  C   UNL     1       3.294  -8.578   0.277  1.00  0.00     0.014 A 
ATOM     12  C   UNL     1       3.000  -9.719  -0.471  1.00  0.00     0.001 A 
BRANCH   8  13
ATOM     13  C   UNL     1       0.847  -6.088  -1.297  1.00  0.00    -0.014 A 
ATOM     14  C   UNL     1       0.645  -3.739  -1.861  1.00  0.00     0.063 A 
ATOM     15  C   UNL     1      -0.736  -3.768  -1.649  1.00  0.00     0.055 A 
ATOM     16  C   UNL     1       1.439  -4.886  -1.711  1.00  0.00     0.024 A 
ATOM     17  C   UNL     1      -1.325  -4.971  -1.302  1.00  0.00     0.124 A 
ATOM     18  F   UNL     1      -2.639  -5.022  -1.053  1.00  0.00    -0.207 F 
ATOM     19  C   UNL     1      -0.557  -6.121  -1.138  1.00  0.00     0.048 A 
BRANCH  14  20
ATOM     20  C   UNL     1       1.287  -2.451  -2.136  1.00  0.00     0.337 C 
ATOM     21  O   UNL     1       1.522  -2.023  -3.253  1.00  0.00    -0.246 OA
BRANCH  20  22
ATOM     22  O   UNL     1       1.540  -1.872  -0.940  1.00  0.00    -0.465 OA
ATOM     23  C   UNL     1       1.950  -0.506  -1.033  1.00  0.00     0.282 C 
ENDBRANCH  20  22
ENDBRANCH  14  20
ENDBRANCH   8  13
ENDBRANCH   4   7
ENDBRANCH   2   3
ENDBRANCH   1   2
BRANCH   1  24
ATOM     24  C   UNL     1       0.526  -3.099   3.051  1.00  0.00     0.118 C 
BRANCH  24  25
ATOM     25  N   UNL     1       0.219  -2.220   1.923  1.00  0.00    -0.352 N 
ATOM     26  C   UNL     1      -0.789  -1.329   1.632  1.00  0.00     0.251 C 
ATOM     27  H   UNL     1       0.889  -2.280   1.204  1.00  0.00     0.163 HD
ATOM     28  O   UNL     1      -0.759  -0.765   0.537  1.00  0.00    -0.269 OA
BRANCH  26  29
ATOM     29  C   UNL     1      -1.937  -1.055   2.528  1.00  0.00     0.039 A 
ATOM     30  C   UNL     1      -3.149  -0.661   1.938  1.00  0.00     0.014 A 
ATOM     31  C   UNL     1      -1.868  -1.138   3.914  1.00  0.00     0.014 A 
ATOM     32  C   UNL     1      -4.293  -0.472   2.719  1.00  0.00     0.010 A 
ATOM     33  C   UNL     1      -3.029  -1.073   4.679  1.00  0.00     0.010 A 
ATOM     34  C   UNL     1      -4.259  -0.754   4.089  1.00  0.00    -0.014 A 
BRANCH  34  35
ATOM     35  C   UNL     1      -5.481  -0.725   4.935  1.00  0.00     0.031 A 
ATOM     36  C   UNL     1      -5.522   0.160   6.152  1.00  0.00     0.074 A 
ATOM     37  C   UNL     1      -6.505  -1.558   4.658  1.00  0.00     0.049 A 
ATOM     38  N   UNL     1      -6.364   0.154   7.152  1.00  0.00    -0.248 NA
ATOM     39  C   UNL     1      -4.442   1.152   6.284  1.00  0.00     0.031 C 
ATOM     40  C   UNL     1      -6.571  -2.474   3.514  1.00  0.00     0.029 A 
ATOM     41  N   UNL     1      -7.689  -1.776   5.317  1.00  0.00    -0.354 N 
ATOM     42  C   UNL     1      -5.891   1.105   8.050  1.00  0.00     0.074 A 
ATOM     43  C   UNL     1      -4.666   1.639   7.496  1.00  0.00     0.031 C 
ATOM     44  C   UNL     1      -7.753  -3.111   3.523  1.00  0.00     0.029 A 
ATOM     45  C   UNL     1      -8.499  -2.707   4.708  1.00  0.00     0.049 A 
ATOM     46  H   UNL     1      -7.935  -1.310   6.148  1.00  0.00     0.167 HD
ATOM     47  C   UNL     1      -6.442   1.507   9.220  1.00  0.00     0.034 A 
ATOM     48  C   UNL     1      -9.703  -3.191   5.073  1.00  0.00     0.034 A 
ATOM     49  C   UNL     1      -7.696   1.006   9.721  1.00  0.00     0.049 A 
ATOM     50  C   UNL     1     -10.307  -2.704   6.362  1.00  0.00     0.074 A 
ATOM     51  C   UNL     1      -8.357   1.340  10.890  1.00  0.00     0.029 A 
ATOM     52  N   UNL     1      -8.497   0.087   9.057  1.00  0.00    -0.354 N 
ATOM     53  N   UNL     1      -9.810  -1.858   7.235  1.00  0.00    -0.248 NA
ATOM     54  C   UNL     1     -11.626  -3.240   6.723  1.00  0.00     0.031 C 
ATOM     55  C   UNL     1      -9.549   0.610  10.941  1.00  0.00     0.029 A 
ATOM     56  C   UNL     1      -9.651  -0.146   9.784  1.00  0.00     0.049 A 
ATOM     57  H   UNL     1      -8.277  -0.336   8.196  1.00  0.00     0.167 HD
ATOM     58  C   UNL     1     -10.765  -1.745   8.238  1.00  0.00     0.074 A 
ATOM     59  C   UNL     1     -11.870  -2.603   7.860  1.00  0.00     0.031 C 
ATOM     60  C   UNL     1     -10.733  -1.003   9.371  1.00  0.00     0.034 A 
BRANCH  47  61
ATOM     61  C   UNL     1      -5.693   2.532  10.029  1.00  0.00     0.023 A 
ATOM     62  C   UNL     1      -5.545   3.854   9.576  1.00  0.00     0.031 A 
ATOM     63  C   UNL     1      -5.116   2.187  11.264  1.00  0.00     0.131 A 
ATOM     64  C   UNL     1      -4.789   4.768  10.324  1.00  0.00     0.055 A 
ATOM     65  C   UNL     1      -4.423   3.120  12.038  1.00  0.00     0.041 A 
ATOM     66  F   UNL     1      -5.212   0.934  11.736  1.00  0.00    -0.206 F 
ATOM     67  C   UNL     1      -4.249   4.418  11.564  1.00  0.00     0.022 A 
BRANCH  64  68
ATOM     68  S   UNL     1      -4.455   6.405   9.620  1.00  0.00     0.124 S 
ATOM     69  O   UNL     1      -3.512   6.074   8.555  1.00  0.00    -0.237 OA
ATOM     70  O   UNL     1      -5.776   6.845   9.188  1.00  0.00    -0.237 OA
ATOM     71  O   UNL     1      -3.887   7.149  10.742  1.00  0.00    -0.744 OA
ENDBRANCH  64  68
ENDBRANCH  47  61
BRANCH  48  72
ATOM     72  C   UNL     1     -10.414  -4.179   4.215  1.00  0.00     0.023 A 
ATOM     73  C   UNL     1     -11.598  -3.821   3.550  1.00  0.00     0.031 A 
ATOM     74  C   UNL     1      -9.934  -5.489   4.050  1.00  0.00     0.131 A 
ATOM     75  C   UNL     1     -12.279  -4.771   2.773  1.00  0.00     0.055 A 
ATOM     76  C   UNL     1     -10.593  -6.419   3.243  1.00  0.00     0.041 A 
ATOM     77  F   UNL     1      -8.801  -5.878   4.656  1.00  0.00    -0.206 F 
ATOM     78  C   UNL     1     -11.778  -6.064   2.605  1.00  0.00     0.022 A 
BRANCH  75  79
ATOM     79  S   UNL     1     -13.861  -4.304   2.020  1.00  0.00     0.124 S 
ATOM     80  O   UNL     1     -14.663  -3.977   3.193  1.00  0.00    -0.237 OA
ATOM     81  O   UNL     1     -13.474  -3.181   1.172  1.00  0.00    -0.237 OA
ATOM     82  O   UNL     1     -14.267  -5.511   1.303  1.00  0.00    -0.744 OA
ENDBRANCH  75  79
ENDBRANCH  48  72
BRANCH  60  83
ATOM     83  C   UNL     1     -11.947  -1.056  10.253  1.00  0.00     0.023 A 
ATOM     84  C   UNL     1     -12.208  -2.169  11.066  1.00  0.00     0.031 A 
ATOM     85  C   UNL     1     -12.827   0.038  10.305  1.00  0.00     0.131 A 
ATOM     86  C   UNL     1     -13.345  -2.177  11.883  1.00  0.00     0.055 A 
ATOM     87  C   UNL     1     -13.935   0.041  11.149  1.00  0.00     0.041 A 
ATOM     88  F   UNL     1     -12.610   1.125   9.546  1.00  0.00    -0.206 F 
ATOM     89  C   UNL     1     -14.202  -1.073  11.942  1.00  0.00     0.022 A 
BRANCH  86  90
ATOM     90  S   UNL     1     -13.704  -3.660  12.861  1.00  0.00     0.124 S 
ATOM     91  O   UNL     1     -14.016  -4.638  11.822  1.00  0.00    -0.237 OA
ATOM     92  O   UNL     1     -12.453  -3.875  13.582  1.00  0.00    -0.237 OA
ATOM     93  O   UNL     1     -14.835  -3.256  13.694  1.00  0.00    -0.744 OA
ENDBRANCH  86  90
ENDBRANCH  60  83
ENDBRANCH  34  35
ENDBRANCH  26  29
ENDBRANCH  24  25
ENDBRANCH   1  24
TORSDOF 16
