REMARK SMILES O=C(Cn1c(SCCc2ccccc2)nc2ccccc21)NCCCNC(=O)c1ccc(-c2c3nc(c(-c4cc(S(=O)(=O)[O-])ccc4F)c4ccc([nH]4)c(-c4cc(S(=O)(=O)[O-])ccc4F)c4nc(c(-c5cc(S(=O)(=O)[O-])ccc5F)c5ccc2[nH]5)C=C4)C=C3)cc1
REMARK SMILES IDX 23 1 22 2 1 3 2 4 3 6 4 7 5 8 21 9 15 10 16 11 20 12 17 13
REMARK SMILES IDX 19 14 18 15 6 16 7 17 8 18 9 19 10 20 14 21 11 22 13 23
REMARK SMILES IDX 12 24 24 25 25 26 26 27 27 28 28 30 29 31 30 32 91 33 31 34
REMARK SMILES IDX 90 35 32 36 33 37 34 38 84 39 35 40 89 41 83 42 85 43 36 44
REMARK SMILES IDX 88 45 82 46 81 47 37 49 69 50 49 51 68 52 50 53 53 54 67 55
REMARK SMILES IDX 86 56 51 57 52 58 66 60 87 61 54 62 38 63 39 64 47 65 40 66
REMARK SMILES IDX 46 67 48 68 45 69 41 70 42 71 43 72 44 73 70 74 71 75 79 76
REMARK SMILES IDX 72 77 78 78 80 79 77 80 73 81 74 82 75 83 76 84 55 85 56 86
REMARK SMILES IDX 64 87 57 88 63 89 65 90 62 91 58 92 59 93 60 94 61 95
REMARK H PARENT 22 5 26 29 85 48 53 59
REMARK Flexibility Score: inf
ROOT
ATOM      1  C   UNL     1       1.771   2.327  -1.203  1.00  0.00     0.117 C 
ENDROOT
BRANCH   1   2
ATOM      2  N   UNL     1       2.351   1.312  -0.289  1.00  0.00    -0.354 N 
ATOM      3  O   UNL     1       2.427   2.321   1.711  1.00  0.00    -0.273 OA
ATOM      4  C   UNL     1       2.614   1.280   1.068  1.00  0.00     0.240 C 
ATOM      5  H   UNL     1       2.603   0.479  -0.749  1.00  0.00     0.163 HD
BRANCH   4   6
ATOM      6  C   UNL     1       3.016  -0.050   1.900  1.00  0.00     0.224 C 
BRANCH   6   7
ATOM      7  N   UNL     1       3.860  -1.229   1.496  1.00  0.00    -0.309 N 
ATOM      8  C   UNL     1       5.179  -1.245   1.099  1.00  0.00     0.169 A 
ATOM      9  C   UNL     1       3.543  -2.602   1.626  1.00  0.00     0.069 A 
ATOM     10  N   UNL     1       5.643  -2.425   0.789  1.00  0.00    -0.222 NA
ATOM     11  C   UNL     1       4.625  -3.276   1.038  1.00  0.00     0.090 A 
ATOM     12  C   UNL     1       2.439  -3.340   2.083  1.00  0.00     0.028 A 
ATOM     13  C   UNL     1       4.577  -4.650   0.750  1.00  0.00     0.030 A 
ATOM     14  C   UNL     1       2.419  -4.729   1.812  1.00  0.00     0.002 A 
ATOM     15  C   UNL     1       3.449  -5.370   1.123  1.00  0.00     0.002 A 
BRANCH   8  16
ATOM     16  S   UNL     1       6.088   0.127   0.687  1.00  0.00    -0.088 SA
BRANCH  16  17
ATOM     17  C   UNL     1       5.145   0.563  -0.777  1.00  0.00     0.083 C 
BRANCH  17  18
ATOM     18  C   UNL     1       4.389  -0.434  -1.735  1.00  0.00     0.047 C 
BRANCH  18  19
ATOM     19  C   UNL     1       3.360  -1.588  -1.583  1.00  0.00    -0.047 A 
ATOM     20  C   UNL     1       3.631  -2.715  -2.372  1.00  0.00     0.004 A 
ATOM     21  C   UNL     1       2.109  -1.641  -0.912  1.00  0.00     0.004 A 
ATOM     22  C   UNL     1       2.754  -3.806  -2.458  1.00  0.00     0.000 A 
ATOM     23  C   UNL     1       1.223  -2.727  -0.994  1.00  0.00     0.000 A 
ATOM     24  C   UNL     1       1.550  -3.817  -1.768  1.00  0.00     0.000 A 
ENDBRANCH  18  19
ENDBRANCH  17  18
ENDBRANCH  16  17
ENDBRANCH   8  16
ENDBRANCH   6   7
ENDBRANCH   4   6
ENDBRANCH   1   2
BRANCH   1  25
ATOM     25  C   UNL     1       2.535   3.602  -1.619  1.00  0.00     0.042 C 
BRANCH  25  26
ATOM     26  C   UNL     1       3.989   3.551  -2.110  1.00  0.00     0.118 C 
BRANCH  26  27
ATOM     27  N   UNL     1       4.249   2.822  -3.345  1.00  0.00    -0.352 N 
ATOM     28  C   UNL     1       4.921   3.201  -4.487  1.00  0.00     0.251 C 
ATOM     29  H   UNL     1       3.885   1.907  -3.368  1.00  0.00     0.163 HD
ATOM     30  O   UNL     1       5.667   2.357  -4.991  1.00  0.00    -0.269 OA
BRANCH  28  31
ATOM     31  C   UNL     1       4.657   4.471  -5.214  1.00  0.00     0.039 A 
ATOM     32  C   UNL     1       3.807   5.463  -4.737  1.00  0.00     0.014 A 
ATOM     33  C   UNL     1       5.168   4.583  -6.526  1.00  0.00     0.014 A 
ATOM     34  C   UNL     1       3.395   6.484  -5.584  1.00  0.00     0.010 A 
ATOM     35  C   UNL     1       4.753   5.607  -7.378  1.00  0.00     0.010 A 
ATOM     36  C   UNL     1       3.820   6.529  -6.921  1.00  0.00    -0.014 A 
BRANCH  36  37
ATOM     37  C   UNL     1       3.254   7.590  -7.754  1.00  0.00     0.031 A 
ATOM     38  C   UNL     1       3.466   8.970  -7.237  1.00  0.00     0.074 A 
ATOM     39  C   UNL     1       2.547   7.401  -8.886  1.00  0.00     0.049 A 
ATOM     40  N   UNL     1       2.600   9.733  -6.654  1.00  0.00    -0.248 NA
ATOM     41  C   UNL     1       4.833   9.501  -7.235  1.00  0.00     0.031 C 
ATOM     42  C   UNL     1       2.426   6.203  -9.719  1.00  0.00     0.029 A 
ATOM     43  N   UNL     1       1.800   8.320  -9.564  1.00  0.00    -0.354 N 
ATOM     44  C   UNL     1       3.265  10.920  -6.348  1.00  0.00     0.074 A 
ATOM     45  C   UNL     1       4.661  10.670  -6.615  1.00  0.00     0.031 C 
ATOM     46  C   UNL     1       1.833   6.533 -10.893  1.00  0.00     0.029 A 
ATOM     47  C   UNL     1       1.382   7.913 -10.821  1.00  0.00     0.049 A 
ATOM     48  H   UNL     1       1.575   9.202  -9.190  1.00  0.00     0.167 HD
ATOM     49  C   UNL     1       2.591  12.065  -6.037  1.00  0.00     0.034 A 
ATOM     50  C   UNL     1       0.746   8.670 -11.751  1.00  0.00     0.034 A 
ATOM     51  C   UNL     1       1.207  11.796  -5.756  1.00  0.00     0.049 A 
ATOM     52  C   UNL     1       0.108   9.814 -11.057  1.00  0.00     0.074 A 
ATOM     53  C   UNL     1       0.526  11.109  -4.773  1.00  0.00     0.029 A 
ATOM     54  N   UNL     1       0.302  11.999  -6.769  1.00  0.00    -0.354 N 
ATOM     55  N   UNL     1      -0.925   9.706 -10.271  1.00  0.00    -0.248 NA
ATOM     56  C   UNL     1       0.889  11.032 -10.904  1.00  0.00     0.031 C 
ATOM     57  C   UNL     1      -0.586  10.522  -5.439  1.00  0.00     0.029 A 
ATOM     58  C   UNL     1      -0.550  10.927  -6.775  1.00  0.00     0.049 A 
ATOM     59  H   UNL     1       0.271  12.773  -7.377  1.00  0.00     0.167 HD
ATOM     60  C   UNL     1      -0.659  10.584  -9.233  1.00  0.00     0.074 A 
ATOM     61  C   UNL     1       0.414  11.445  -9.727  1.00  0.00     0.031 C 
ATOM     62  C   UNL     1      -1.135  10.361  -7.973  1.00  0.00     0.034 A 
BRANCH  49  63
ATOM     63  C   UNL     1       3.101  13.466  -6.275  1.00  0.00     0.023 A 
ATOM     64  C   UNL     1       4.242  13.742  -7.048  1.00  0.00     0.031 A 
ATOM     65  C   UNL     1       2.310  14.583  -5.925  1.00  0.00     0.131 A 
ATOM     66  C   UNL     1       4.559  15.049  -7.446  1.00  0.00     0.055 A 
ATOM     67  C   UNL     1       2.591  15.878  -6.376  1.00  0.00     0.041 A 
ATOM     68  F   UNL     1       1.201  14.443  -5.182  1.00  0.00    -0.206 F 
ATOM     69  C   UNL     1       3.720  16.116  -7.147  1.00  0.00     0.022 A 
BRANCH  66  70
ATOM     70  S   UNL     1       6.074  15.368  -8.391  1.00  0.00     0.124 S 
ATOM     71  O   UNL     1       5.537  15.943  -9.628  1.00  0.00    -0.237 OA
ATOM     72  O   UNL     1       6.771  16.314  -7.515  1.00  0.00    -0.237 OA
ATOM     73  O   UNL     1       6.690  14.063  -8.509  1.00  0.00    -0.744 OA
ENDBRANCH  66  70
ENDBRANCH  49  63
BRANCH  50  74
ATOM     74  C   UNL     1       1.106   8.764 -13.187  1.00  0.00     0.023 A 
ATOM     75  C   UNL     1       2.435   8.526 -13.580  1.00  0.00     0.031 A 
ATOM     76  C   UNL     1       0.264   9.418 -14.104  1.00  0.00     0.131 A 
ATOM     77  C   UNL     1       2.904   8.995 -14.814  1.00  0.00     0.055 A 
ATOM     78  C   UNL     1       0.729   9.864 -15.348  1.00  0.00     0.041 A 
ATOM     79  F   UNL     1      -1.004   9.709 -13.777  1.00  0.00    -0.206 F 
ATOM     80  C   UNL     1       2.062   9.669 -15.700  1.00  0.00     0.022 A 
BRANCH  77  81
ATOM     81  S   UNL     1       4.657   8.828 -15.245  1.00  0.00     0.124 S 
ATOM     82  O   UNL     1       4.592   8.316 -16.612  1.00  0.00    -0.237 OA
ATOM     83  O   UNL     1       5.127  10.202 -15.109  1.00  0.00    -0.237 OA
ATOM     84  O   UNL     1       5.164   7.881 -14.256  1.00  0.00    -0.744 OA
ENDBRANCH  77  81
ENDBRANCH  50  74
BRANCH  62  85
ATOM     85  C   UNL     1      -2.162   9.271  -7.757  1.00  0.00     0.023 A 
ATOM     86  C   UNL     1      -3.284   9.600  -6.977  1.00  0.00     0.031 A 
ATOM     87  C   UNL     1      -1.964   7.913  -8.072  1.00  0.00     0.131 A 
ATOM     88  C   UNL     1      -4.130   8.597  -6.493  1.00  0.00     0.055 A 
ATOM     89  C   UNL     1      -2.858   6.921  -7.652  1.00  0.00     0.041 A 
ATOM     90  F   UNL     1      -0.865   7.492  -8.712  1.00  0.00    -0.206 F 
ATOM     91  C   UNL     1      -3.936   7.258  -6.841  1.00  0.00     0.022 A 
BRANCH  88  92
ATOM     92  S   UNL     1      -5.395   8.991  -5.258  1.00  0.00     0.124 S 
ATOM     93  O   UNL     1      -6.631   8.681  -5.972  1.00  0.00    -0.237 OA
ATOM     94  O   UNL     1      -5.056   8.078  -4.167  1.00  0.00    -0.237 OA
ATOM     95  O   UNL     1      -5.179  10.405  -4.967  1.00  0.00    -0.744 OA
ENDBRANCH  88  92
ENDBRANCH  62  85
ENDBRANCH  36  37
ENDBRANCH  28  31
ENDBRANCH  26  27
ENDBRANCH  25  26
ENDBRANCH   1  25
TORSDOF 18
