REMARK SMILES Cc1ccc(-c2nc(NC(=O)[C@H]3[C@@H](C(=O)NCCCNC(=O)c4ccc(-c5c6nc(c(-c7cc(S(=O)(=O)[O-])ccc7F)c7ccc([nH]7)c(-c7cc(S(=O)(=O)[O-])ccc7F)c7nc(c(-c8cc(S(=O)(=O)[O-])ccc8F)c8ccc5[nH]8)C=C7)C=C6)cc4)[C@@H]4CC[C@H]3O4)sc2C)cc1
REMARK SMILES IDX 18 1 17 2 16 3 14 4 15 5 13 7 12 8 89 9 86 10 88 11 90 12
REMARK SMILES IDX 87 13 10 14 9 15 11 17 8 18 6 19 7 20 92 21 91 22 93 23 5 24
REMARK SMILES IDX 1 25 2 26 3 27 95 28 4 29 94 30 19 31 20 32 21 33 22 35
REMARK SMILES IDX 23 36 24 37 85 38 25 39 84 40 26 41 27 42 28 43 78 44 29 45
REMARK SMILES IDX 83 46 77 47 79 48 30 49 82 50 76 51 75 52 31 54 63 55 43 56
REMARK SMILES IDX 62 57 44 58 47 59 61 60 80 61 45 62 46 63 60 65 81 66 48 67
REMARK SMILES IDX 32 68 33 69 41 70 34 71 40 72 42 73 39 74 35 75 36 76 37 77
REMARK SMILES IDX 38 78 64 79 65 80 73 81 66 82 72 83 74 84 71 85 67 86 68 87
REMARK SMILES IDX 69 88 70 89 49 90 50 91 58 92 51 93 57 94 59 95 56 96 52 97
REMARK SMILES IDX 53 98 54 99 55 100
REMARK H PARENT 16 6 9 16 20 34 79 53 47 64
REMARK Flexibility Score: inf
ROOT
ATOM      1  C   UNL     1      -5.811  -0.869   1.335  1.00  0.00     0.042 C 
ENDROOT
BRANCH   1   2
ATOM      2  C   UNL     1      -6.714  -0.440   2.470  1.00  0.00     0.117 C 
BRANCH   2   3
ATOM      3  N   UNL     1      -7.551   0.717   2.186  1.00  0.00    -0.356 N 
ATOM      4  C   UNL     1      -8.836   0.683   1.734  1.00  0.00     0.226 C 
ATOM      5  O   UNL     1      -9.700   1.234   2.419  1.00  0.00    -0.275 OA
ATOM      6  H   UNL     1      -7.152   1.605   2.334  1.00  0.00     0.163 HD
BRANCH   4   7
ATOM      7  C   UNL     1      -9.188  -0.158   0.524  1.00  0.00     0.122 C 
ATOM      8  C   UNL     1      -8.540  -0.033  -0.864  1.00  0.00     0.123 C 
ATOM      9  C   UNL     1      -9.736  -0.357  -1.773  1.00  0.00     0.132 C 
ATOM     10  C   UNL     1     -10.700  -0.095   0.153  1.00  0.00     0.132 C 
ATOM     11  C   UNL     1     -10.321  -1.757  -1.468  1.00  0.00     0.035 C 
ATOM     12  O   UNL     1     -10.726   0.496  -1.176  1.00  0.00    -0.373 OA
ATOM     13  C   UNL     1     -11.185  -1.488  -0.229  1.00  0.00     0.035 C 
BRANCH   8  14
ATOM     14  C   UNL     1      -7.682   1.050  -1.543  1.00  0.00     0.232 C 
ATOM     15  N   UNL     1      -7.654   2.394  -1.500  1.00  0.00    -0.302 N 
ATOM     16  H   UNL     1      -6.995   2.751  -2.138  1.00  0.00     0.172 HD
ATOM     17  O   UNL     1      -6.869   0.588  -2.379  1.00  0.00    -0.274 OA
BRANCH  15  18
ATOM     18  C   UNL     1      -8.274   3.403  -0.826  1.00  0.00     0.190 A 
ATOM     19  C   UNL     1      -8.492   5.404   0.105  1.00  0.00     0.086 A 
ATOM     20  N   UNL     1      -7.848   4.649  -0.878  1.00  0.00    -0.220 NA
ATOM     21  C   UNL     1      -9.478   4.708   0.790  1.00  0.00     0.031 A 
ATOM     22  S   UNL     1      -9.673   3.175   0.066  1.00  0.00    -0.101 S 
ATOM     23  C   UNL     1     -10.331   5.066   1.954  1.00  0.00     0.059 C 
BRANCH  19  24
ATOM     24  C   UNL     1      -8.179   6.810   0.370  1.00  0.00     0.001 A 
ATOM     25  C   UNL     1      -7.897  11.045   1.244  1.00  0.00     0.044 C 
ATOM     26  C   UNL     1      -7.962   9.577   0.938  1.00  0.00    -0.051 A 
ATOM     27  C   UNL     1      -8.020   9.120  -0.386  1.00  0.00     0.004 A 
ATOM     28  C   UNL     1      -7.934   8.636   1.970  1.00  0.00     0.004 A 
ATOM     29  C   UNL     1      -8.129   7.747  -0.668  1.00  0.00     0.010 A 
ATOM     30  C   UNL     1      -8.022   7.270   1.686  1.00  0.00     0.010 A 
ENDBRANCH  19  24
ENDBRANCH  15  18
ENDBRANCH   8  14
ENDBRANCH   4   7
ENDBRANCH   2   3
ENDBRANCH   1   2
BRANCH   1  31
ATOM     31  C   UNL     1      -4.873   0.236   0.867  1.00  0.00     0.118 C 
BRANCH  31  32
ATOM     32  N   UNL     1      -3.577   0.120   1.506  1.00  0.00    -0.352 N 
ATOM     33  C   UNL     1      -2.346  -0.093   0.913  1.00  0.00     0.251 C 
ATOM     34  H   UNL     1      -3.572   0.203   2.486  1.00  0.00     0.163 HD
ATOM     35  O   UNL     1      -1.499  -0.810   1.411  1.00  0.00    -0.269 OA
BRANCH  33  36
ATOM     36  C   UNL     1      -1.974   0.823  -0.197  1.00  0.00     0.039 A 
ATOM     37  C   UNL     1      -0.865   1.651   0.023  1.00  0.00     0.014 A 
ATOM     38  C   UNL     1      -2.771   1.003  -1.323  1.00  0.00     0.014 A 
ATOM     39  C   UNL     1      -0.673   2.776  -0.776  1.00  0.00     0.010 A 
ATOM     40  C   UNL     1      -2.626   2.154  -2.074  1.00  0.00     0.010 A 
ATOM     41  C   UNL     1      -1.614   3.066  -1.764  1.00  0.00    -0.014 A 
BRANCH  41  42
ATOM     42  C   UNL     1      -1.687   4.354  -2.438  1.00  0.00     0.031 A 
ATOM     43  C   UNL     1      -1.100   4.551  -3.773  1.00  0.00     0.074 A 
ATOM     44  C   UNL     1      -2.354   5.364  -1.842  1.00  0.00     0.049 A 
ATOM     45  N   UNL     1      -0.706   5.690  -4.234  1.00  0.00    -0.248 NA
ATOM     46  C   UNL     1      -0.872   3.445  -4.691  1.00  0.00     0.031 C 
ATOM     47  C   UNL     1      -2.745   6.644  -2.420  1.00  0.00     0.029 A 
ATOM     48  N   UNL     1      -2.580   5.511  -0.475  1.00  0.00    -0.354 N 
ATOM     49  C   UNL     1      -0.470   5.534  -5.581  1.00  0.00     0.074 A 
ATOM     50  C   UNL     1      -0.500   4.104  -5.793  1.00  0.00     0.031 C 
ATOM     51  C   UNL     1      -2.896   7.534  -1.426  1.00  0.00     0.029 A 
ATOM     52  C   UNL     1      -2.467   6.885  -0.199  1.00  0.00     0.049 A 
ATOM     53  H   UNL     1      -2.780   4.795   0.170  1.00  0.00     0.167 HD
ATOM     54  C   UNL     1      -0.430   6.638  -6.384  1.00  0.00     0.034 A 
ATOM     55  C   UNL     1      -1.500   7.347   0.645  1.00  0.00     0.034 A 
ATOM     56  C   UNL     1      -0.560   7.875  -5.606  1.00  0.00     0.049 A 
ATOM     57  C   UNL     1      -0.561   8.342  -0.009  1.00  0.00     0.074 A 
ATOM     58  C   UNL     1      -1.616   8.748  -5.394  1.00  0.00     0.029 A 
ATOM     59  N   UNL     1       0.422   8.221  -4.683  1.00  0.00    -0.354 N 
ATOM     60  N   UNL     1      -0.410   8.481  -1.299  1.00  0.00    -0.248 NA
ATOM     61  C   UNL     1       0.285   9.257   0.748  1.00  0.00     0.031 C 
ATOM     62  C   UNL     1      -1.277   9.595  -4.306  1.00  0.00     0.029 A 
ATOM     63  C   UNL     1      -0.007   9.255  -3.872  1.00  0.00     0.049 A 
ATOM     64  H   UNL     1       1.304   7.787  -4.617  1.00  0.00     0.167 HD
ATOM     65  C   UNL     1       0.513   9.467  -1.559  1.00  0.00     0.074 A 
ATOM     66  C   UNL     1       0.905   9.930  -0.238  1.00  0.00     0.031 C 
ATOM     67  C   UNL     1       0.865   9.807  -2.840  1.00  0.00     0.034 A 
BRANCH  54  68
ATOM     68  C   UNL     1      -0.594   6.596  -7.893  1.00  0.00     0.023 A 
ATOM     69  C   UNL     1      -1.168   7.701  -8.561  1.00  0.00     0.031 A 
ATOM     70  C   UNL     1      -0.267   5.506  -8.723  1.00  0.00     0.131 A 
ATOM     71  C   UNL     1      -1.499   7.650  -9.929  1.00  0.00     0.055 A 
ATOM     72  C   UNL     1      -0.651   5.428 -10.069  1.00  0.00     0.041 A 
ATOM     73  F   UNL     1       0.496   4.495  -8.290  1.00  0.00    -0.206 F 
ATOM     74  C   UNL     1      -1.287   6.497 -10.677  1.00  0.00     0.022 A 
BRANCH  71  75
ATOM     75  S   UNL     1      -2.207   9.119 -10.726  1.00  0.00     0.124 S 
ATOM     76  O   UNL     1      -3.416   9.348  -9.942  1.00  0.00    -0.237 OA
ATOM     77  O   UNL     1      -1.139  10.100 -10.572  1.00  0.00    -0.237 OA
ATOM     78  O   UNL     1      -2.441   8.678 -12.102  1.00  0.00    -0.744 OA
ENDBRANCH  71  75
ENDBRANCH  54  68
BRANCH  55  79
ATOM     79  C   UNL     1      -1.138   6.364   1.714  1.00  0.00     0.023 A 
ATOM     80  C   UNL     1      -2.187   5.853   2.518  1.00  0.00     0.031 A 
ATOM     81  C   UNL     1       0.070   5.655   1.692  1.00  0.00     0.131 A 
ATOM     82  C   UNL     1      -2.074   4.590   3.121  1.00  0.00     0.055 A 
ATOM     83  C   UNL     1       0.206   4.431   2.363  1.00  0.00     0.041 A 
ATOM     84  F   UNL     1       1.095   6.067   0.932  1.00  0.00    -0.206 F 
ATOM     85  C   UNL     1      -0.880   3.873   3.042  1.00  0.00     0.022 A 
BRANCH  82  86
ATOM     86  S   UNL     1      -3.562   3.768   3.780  1.00  0.00     0.124 S 
ATOM     87  O   UNL     1      -3.456   4.042   5.209  1.00  0.00    -0.237 OA
ATOM     88  O   UNL     1      -4.660   4.440   3.090  1.00  0.00    -0.237 OA
ATOM     89  O   UNL     1      -3.387   2.365   3.396  1.00  0.00    -0.744 OA
ENDBRANCH  82  86
ENDBRANCH  55  79
BRANCH  67  90
ATOM     90  C   UNL     1       1.984  10.750  -3.268  1.00  0.00     0.023 A 
ATOM     91  C   UNL     1       2.945  11.284  -2.397  1.00  0.00     0.031 A 
ATOM     92  C   UNL     1       2.154  11.107  -4.633  1.00  0.00     0.131 A 
ATOM     93  C   UNL     1       3.949  12.163  -2.852  1.00  0.00     0.055 A 
ATOM     94  C   UNL     1       3.190  11.928  -5.095  1.00  0.00     0.041 A 
ATOM     95  F   UNL     1       1.328  10.666  -5.593  1.00  0.00    -0.206 F 
ATOM     96  C   UNL     1       4.091  12.475  -4.200  1.00  0.00     0.022 A 
BRANCH  93  97
ATOM     97  S   UNL     1       5.046  12.927  -1.626  1.00  0.00     0.124 S 
ATOM     98  O   UNL     1       4.109  13.726  -0.841  1.00  0.00    -0.237 OA
ATOM     99  O   UNL     1       5.612  11.767  -0.946  1.00  0.00    -0.237 OA
ATOM    100  O   UNL     1       5.990  13.695  -2.435  1.00  0.00    -0.744 OA
ENDBRANCH  93  97
ENDBRANCH  67  90
ENDBRANCH  41  42
ENDBRANCH  33  36
ENDBRANCH  31  32
ENDBRANCH   1  31
TORSDOF 16
