REMARK SMILES C[C@H](C(=O)NCCCNC(=O)c1ccc(-c2c3nc(c(-c4cc(S(=O)(=O)[O-])ccc4F)c4ccc([nH]4)c(-c4cc(S(=O)(=O)[O-])ccc4F)c4nc(c(-c5cc(S(=O)(=O)[O-])ccc5F)c5ccc2[nH]5)C=C4)C=C3)cc1)[C@H](C)[N@@H+]1CC[C@H]([NH+]2CCCCC2)C1
REMARK SMILES IDX 7 1 6 2 5 3 3 4 4 5 2 7 1 8 75 9 76 10 77 11 78 12 87 13
REMARK SMILES IDX 79 15 80 16 81 17 82 18 86 19 83 21 85 22 84 23 8 24 9 25
REMARK SMILES IDX 10 26 11 28 12 29 13 30 74 31 14 32 73 33 15 34 16 35 17 36
REMARK SMILES IDX 67 37 18 38 72 39 66 40 68 41 19 42 71 43 65 44 64 45 20 47
REMARK SMILES IDX 52 48 32 49 51 50 33 51 36 52 50 53 69 54 34 55 35 56 49 58
REMARK SMILES IDX 70 59 37 60 21 61 22 62 30 63 23 64 29 65 31 66 28 67 24 68
REMARK SMILES IDX 25 69 26 70 27 71 53 72 54 73 62 74 55 75 61 76 63 77 60 78
REMARK SMILES IDX 56 79 57 80 58 81 59 82 38 83 39 84 47 85 40 86 46 87 48 88
REMARK SMILES IDX 45 89 41 90 42 91 43 92 44 93
REMARK H PARENT 5 6 77 14 81 20 9 27 68 46 36 57
REMARK Flexibility Score: inf
ROOT
ATOM      1  C   UNL     1       1.409  -2.401  -3.010  1.00  0.00     0.042 C 
ENDROOT
BRANCH   1   2
ATOM      2  C   UNL     1       0.404  -1.298  -3.316  1.00  0.00     0.117 C 
BRANCH   2   3
ATOM      3  N   UNL     1      -0.963  -1.762  -3.206  1.00  0.00    -0.356 N 
ATOM      4  C   UNL     1      -1.933  -1.479  -2.296  1.00  0.00     0.228 C 
ATOM      5  O   UNL     1      -3.058  -1.929  -2.530  1.00  0.00    -0.275 OA
ATOM      6  H   UNL     1      -1.238  -2.390  -3.913  1.00  0.00     0.163 HD
BRANCH   4   7
ATOM      7  C   UNL     1      -1.637  -0.607  -1.079  1.00  0.00     0.133 C 
ATOM      8  C   UNL     1      -2.903   0.221  -0.785  1.00  0.00     0.024 C 
BRANCH   7   9
ATOM      9  C   UNL     1      -1.188  -1.366   0.209  1.00  0.00     0.193 C 
ATOM     10  C   UNL     1       0.340  -1.492   0.365  1.00  0.00     0.076 C 
BRANCH   9  11
ATOM     11  N   UNL     1      -1.959  -2.583   0.520  1.00  0.00    -0.327 N 
ATOM     12  C   UNL     1      -2.055  -2.878   1.952  1.00  0.00     0.269 C 
ATOM     13  C   UNL     1      -1.574  -3.828  -0.185  1.00  0.00     0.328 C 
ATOM     14  H   UNL     1      -2.870  -2.307   0.153  1.00  0.00     0.348 HD
ATOM     15  C   UNL     1      -1.397  -4.225   2.169  1.00  0.00     0.132 C 
ATOM     16  C   UNL     1      -1.671  -4.964   0.862  1.00  0.00     0.245 C 
BRANCH  16  17
ATOM     17  N   UNL     1      -0.898  -6.209   0.640  1.00  0.00    -0.328 N 
ATOM     18  C   UNL     1       0.548  -6.010   0.462  1.00  0.00     0.262 C 
ATOM     19  C   UNL     1      -1.174  -7.187   1.711  1.00  0.00     0.262 C 
ATOM     20  H   UNL     1      -1.224  -6.580  -0.253  1.00  0.00     0.348 HD
ATOM     21  C   UNL     1       1.294  -7.327   0.215  1.00  0.00     0.062 C 
ATOM     22  C   UNL     1      -0.472  -8.527   1.490  1.00  0.00     0.062 C 
ATOM     23  C   UNL     1       1.028  -8.333   1.326  1.00  0.00     0.012 C 
ENDBRANCH  16  17
ENDBRANCH   9  11
ENDBRANCH   7   9
ENDBRANCH   4   7
ENDBRANCH   2   3
ENDBRANCH   1   2
BRANCH   1  24
ATOM     24  C   UNL     1       1.348  -3.581  -3.972  1.00  0.00     0.118 C 
BRANCH  24  25
ATOM     25  N   UNL     1       1.692  -3.202  -5.333  1.00  0.00    -0.352 N 
ATOM     26  C   UNL     1       2.721  -3.621  -6.134  1.00  0.00     0.251 C 
ATOM     27  H   UNL     1       1.090  -2.540  -5.744  1.00  0.00     0.163 HD
ATOM     28  O   UNL     1       2.962  -2.990  -7.167  1.00  0.00    -0.269 OA
BRANCH  26  29
ATOM     29  C   UNL     1       3.545  -4.797  -5.775  1.00  0.00     0.039 A 
ATOM     30  C   UNL     1       4.905  -4.790  -6.096  1.00  0.00     0.014 A 
ATOM     31  C   UNL     1       2.980  -5.931  -5.183  1.00  0.00     0.014 A 
ATOM     32  C   UNL     1       5.698  -5.902  -5.802  1.00  0.00     0.010 A 
ATOM     33  C   UNL     1       3.788  -7.000  -4.806  1.00  0.00     0.010 A 
ATOM     34  C   UNL     1       5.150  -7.012  -5.141  1.00  0.00    -0.014 A 
BRANCH  34  35
ATOM     35  C   UNL     1       5.967  -8.223  -4.864  1.00  0.00     0.031 A 
ATOM     36  C   UNL     1       5.608  -9.531  -5.521  1.00  0.00     0.074 A 
ATOM     37  C   UNL     1       6.999  -8.157  -4.002  1.00  0.00     0.049 A 
ATOM     38  N   UNL     1       6.150 -10.713  -5.371  1.00  0.00    -0.248 NA
ATOM     39  C   UNL     1       4.462  -9.511  -6.441  1.00  0.00     0.031 C 
ATOM     40  C   UNL     1       7.415  -6.958  -3.271  1.00  0.00     0.029 A 
ATOM     41  N   UNL     1       7.885  -9.120  -3.590  1.00  0.00    -0.354 N 
ATOM     42  C   UNL     1       5.402 -11.576  -6.165  1.00  0.00     0.074 A 
ATOM     43  C   UNL     1       4.322 -10.795  -6.728  1.00  0.00     0.031 C 
ATOM     44  C   UNL     1       8.488  -7.253  -2.518  1.00  0.00     0.029 A 
ATOM     45  C   UNL     1       8.815  -8.666  -2.684  1.00  0.00     0.049 A 
ATOM     46  H   UNL     1       7.857 -10.050  -3.913  1.00  0.00     0.167 HD
ATOM     47  C   UNL     1       5.613 -12.891  -6.428  1.00  0.00     0.034 A 
ATOM     48  C   UNL     1       9.815  -9.316  -2.057  1.00  0.00     0.034 A 
ATOM     49  C   UNL     1       6.704 -13.651  -5.867  1.00  0.00     0.049 A 
ATOM     50  C   UNL     1      10.042 -10.773  -2.370  1.00  0.00     0.074 A 
ATOM     51  C   UNL     1       7.033 -14.979  -6.077  1.00  0.00     0.029 A 
ATOM     52  N   UNL     1       7.649 -13.145  -4.982  1.00  0.00    -0.354 N 
ATOM     53  N   UNL     1       9.347 -11.569  -3.152  1.00  0.00    -0.248 NA
ATOM     54  C   UNL     1      11.202 -11.411  -1.738  1.00  0.00     0.031 C 
ATOM     55  C   UNL     1       8.140 -15.289  -5.279  1.00  0.00     0.029 A 
ATOM     56  C   UNL     1       8.552 -14.137  -4.629  1.00  0.00     0.049 A 
ATOM     57  H   UNL     1       7.674 -12.218  -4.653  1.00  0.00     0.167 HD
ATOM     58  C   UNL     1      10.010 -12.793  -3.131  1.00  0.00     0.074 A 
ATOM     59  C   UNL     1      11.165 -12.623  -2.273  1.00  0.00     0.031 C 
ATOM     60  C   UNL     1       9.697 -13.952  -3.768  1.00  0.00     0.034 A 
BRANCH  47  61
ATOM     61  C   UNL     1       4.626 -13.578  -7.346  1.00  0.00     0.023 A 
ATOM     62  C   UNL     1       4.438 -13.153  -8.675  1.00  0.00     0.031 A 
ATOM     63  C   UNL     1       3.821 -14.631  -6.877  1.00  0.00     0.131 A 
ATOM     64  C   UNL     1       3.410 -13.707  -9.451  1.00  0.00     0.055 A 
ATOM     65  C   UNL     1       2.862 -15.243  -7.687  1.00  0.00     0.041 A 
ATOM     66  F   UNL     1       3.937 -15.070  -5.614  1.00  0.00    -0.206 F 
ATOM     67  C   UNL     1       2.637 -14.768  -8.976  1.00  0.00     0.022 A 
BRANCH  64  68
ATOM     68  S   UNL     1       2.986 -12.905 -11.023  1.00  0.00     0.124 S 
ATOM     69  O   UNL     1       2.644 -11.556 -10.581  1.00  0.00    -0.237 OA
ATOM     70  O   UNL     1       4.222 -13.033 -11.786  1.00  0.00    -0.237 OA
ATOM     71  O   UNL     1       1.861 -13.695 -11.518  1.00  0.00    -0.744 OA
ENDBRANCH  64  68
ENDBRANCH  47  61
BRANCH  48  72
ATOM     72  C   UNL     1      10.681  -8.598  -1.080  1.00  0.00     0.023 A 
ATOM     73  C   UNL     1      12.044  -8.383  -1.337  1.00  0.00     0.031 A 
ATOM     74  C   UNL     1      10.160  -8.137   0.142  1.00  0.00     0.131 A 
ATOM     75  C   UNL     1      12.851  -7.767  -0.366  1.00  0.00     0.055 A 
ATOM     76  C   UNL     1      10.955  -7.481   1.083  1.00  0.00     0.041 A 
ATOM     77  F   UNL     1       8.860  -8.306   0.433  1.00  0.00    -0.206 F 
ATOM     78  C   UNL     1      12.313  -7.304   0.836  1.00  0.00     0.022 A 
BRANCH  75  79
ATOM     79  S   UNL     1      14.635  -7.646  -0.668  1.00  0.00     0.124 S 
ATOM     80  O   UNL     1      15.004  -9.046  -0.841  1.00  0.00    -0.237 OA
ATOM     81  O   UNL     1      14.683  -6.816  -1.868  1.00  0.00    -0.237 OA
ATOM     82  O   UNL     1      15.143  -7.011   0.546  1.00  0.00    -0.744 OA
ENDBRANCH  75  79
ENDBRANCH  48  72
BRANCH  60  83
ATOM     83  C   UNL     1      10.658 -15.105  -3.602  1.00  0.00     0.023 A 
ATOM     84  C   UNL     1      10.861 -15.732  -2.360  1.00  0.00     0.031 A 
ATOM     85  C   UNL     1      11.400 -15.566  -4.705  1.00  0.00     0.131 A 
ATOM     86  C   UNL     1      11.832 -16.738  -2.236  1.00  0.00     0.055 A 
ATOM     87  C   UNL     1      12.317 -16.611  -4.589  1.00  0.00     0.041 A 
ATOM     88  F   UNL     1      11.247 -15.003  -5.915  1.00  0.00    -0.206 F 
ATOM     89  C   UNL     1      12.549 -17.192  -3.346  1.00  0.00     0.022 A 
BRANCH  86  90
ATOM     90  S   UNL     1      12.226 -17.367  -0.581  1.00  0.00     0.124 S 
ATOM     91  O   UNL     1      12.575 -16.144   0.134  1.00  0.00    -0.237 OA
ATOM     92  O   UNL     1      10.974 -18.002  -0.184  1.00  0.00    -0.237 OA
ATOM     93  O   UNL     1      13.338 -18.285  -0.820  1.00  0.00    -0.744 OA
ENDBRANCH  86  90
ENDBRANCH  60  83
ENDBRANCH  34  35
ENDBRANCH  26  29
ENDBRANCH  24  25
ENDBRANCH   1  24
TORSDOF 16
