REMARK SMILES C/C=C/C=C/C(=O)N[C@@H](C)CC(=O)NCCCNC(=O)c1ccc(-c2c3nc(c(-c4cc(S(=O)(=O)[O-])ccc4F)c4ccc([nH]4)c(-c4cc(S(=O)(=O)[O-])ccc4F)c4nc(c(-c5cc(S(=O)(=O)[O-])ccc5F)c5ccc2[nH]5)C=C4)C=C3)cc1
REMARK SMILES IDX 15 1 14 2 12 3 13 4 11 6 9 7 10 8 8 9 6 10 7 11 5 13 4 14
REMARK SMILES IDX 3 15 1 16 2 17 16 18 17 19 18 20 19 21 20 23 21 24 22 25
REMARK SMILES IDX 83 26 23 27 82 28 24 29 25 30 26 31 76 32 27 33 81 34 75 35
REMARK SMILES IDX 77 36 28 37 80 38 74 39 73 40 29 42 61 43 41 44 60 45 42 46
REMARK SMILES IDX 45 47 59 48 78 49 43 50 44 51 58 53 79 54 46 55 30 56 31 57
REMARK SMILES IDX 39 58 32 59 38 60 40 61 37 62 33 63 34 64 35 65 36 66 62 67
REMARK SMILES IDX 63 68 71 69 64 70 70 71 72 72 69 73 65 74 66 75 67 76 68 77
REMARK SMILES IDX 47 78 48 79 56 80 49 81 55 82 57 83 54 84 50 85 51 86 52 87
REMARK SMILES IDX 53 88
REMARK H PARENT 14 5 8 12 18 22 77 41 45 52
REMARK Flexibility Score: inf
ROOT
ATOM      1  C   UNL     1      -4.263   1.351   6.282  1.00  0.00     0.117 C 
ENDROOT
BRANCH   1   2
ATOM      2  N   UNL     1      -3.945   0.213   5.436  1.00  0.00    -0.356 N 
ATOM      3  C   UNL     1      -2.771  -0.466   5.313  1.00  0.00     0.222 C 
ATOM      4  O   UNL     1      -2.667  -1.317   4.428  1.00  0.00    -0.275 OA
ATOM      5  H   UNL     1      -4.683  -0.114   4.871  1.00  0.00     0.163 HD
BRANCH   3   6
ATOM      6  C   UNL     1      -1.634  -0.203   6.276  1.00  0.00     0.124 C 
BRANCH   6   7
ATOM      7  C   UNL     1      -0.543   0.679   5.664  1.00  0.00     0.088 C 
ATOM      8  C   UNL     1       0.744   0.541   6.481  1.00  0.00     0.031 C 
BRANCH   7   9
ATOM      9  N   UNL     1      -0.886   2.103   5.652  1.00  0.00    -0.350 N 
ATOM     10  C   UNL     1      -0.933   3.030   4.654  1.00  0.00     0.244 C 
ATOM     11  O   UNL     1      -1.209   4.191   4.948  1.00  0.00    -0.270 OA
ATOM     12  H   UNL     1      -1.131   2.460   6.536  1.00  0.00     0.164 HD
BRANCH  10  13
ATOM     13  C   UNL     1      -0.828   2.650   3.229  1.00  0.00     0.071 C 
ATOM     14  C   UNL     1       0.106   1.836   2.724  1.00  0.00     0.005 C 
BRANCH  14  15
ATOM     15  C   UNL     1       0.170   1.457   1.332  1.00  0.00    -0.004 C 
ATOM     16  C   UNL     1       1.010  -0.055  -0.485  1.00  0.00     0.035 C 
ATOM     17  C   UNL     1       0.874   0.388   0.934  1.00  0.00    -0.030 C 
ENDBRANCH  14  15
ENDBRANCH  10  13
ENDBRANCH   7   9
ENDBRANCH   6   7
ENDBRANCH   3   6
ENDBRANCH   1   2
BRANCH   1  18
ATOM     18  C   UNL     1      -4.236   2.647   5.487  1.00  0.00     0.042 C 
BRANCH  18  19
ATOM     19  C   UNL     1      -5.473   2.876   4.637  1.00  0.00     0.118 C 
BRANCH  19  20
ATOM     20  N   UNL     1      -6.622   3.269   5.436  1.00  0.00    -0.352 N 
ATOM     21  C   UNL     1      -7.261   4.484   5.521  1.00  0.00     0.251 C 
ATOM     22  H   UNL     1      -6.999   2.557   6.002  1.00  0.00     0.163 HD
ATOM     23  O   UNL     1      -8.063   4.671   6.431  1.00  0.00    -0.269 OA
BRANCH  21  24
ATOM     24  C   UNL     1      -6.974   5.562   4.544  1.00  0.00     0.039 A 
ATOM     25  C   UNL     1      -6.910   6.886   4.992  1.00  0.00     0.014 A 
ATOM     26  C   UNL     1      -6.799   5.284   3.187  1.00  0.00     0.014 A 
ATOM     27  C   UNL     1      -6.608   7.915   4.092  1.00  0.00     0.010 A 
ATOM     28  C   UNL     1      -6.406   6.293   2.313  1.00  0.00     0.010 A 
ATOM     29  C   UNL     1      -6.318   7.623   2.751  1.00  0.00    -0.014 A 
BRANCH  29  30
ATOM     30  C   UNL     1      -5.966   8.682   1.765  1.00  0.00     0.031 A 
ATOM     31  C   UNL     1      -6.846   8.888   0.559  1.00  0.00     0.074 A 
ATOM     32  C   UNL     1      -4.828   9.391   1.899  1.00  0.00     0.049 A 
ATOM     33  N   UNL     1      -6.635   9.612  -0.510  1.00  0.00    -0.248 NA
ATOM     34  C   UNL     1      -8.118   8.150   0.542  1.00  0.00     0.031 C 
ATOM     35  C   UNL     1      -3.888   9.279   3.016  1.00  0.00     0.029 A 
ATOM     36  N   UNL     1      -4.254  10.331   1.078  1.00  0.00    -0.354 N 
ATOM     37  C   UNL     1      -7.731   9.394  -1.337  1.00  0.00     0.074 A 
ATOM     38  C   UNL     1      -8.577   8.429  -0.668  1.00  0.00     0.031 C 
ATOM     39  C   UNL     1      -2.864  10.124   2.815  1.00  0.00     0.029 A 
ATOM     40  C   UNL     1      -3.036  10.790   1.527  1.00  0.00     0.049 A 
ATOM     41  H   UNL     1      -4.674  10.647   0.246  1.00  0.00     0.167 HD
ATOM     42  C   UNL     1      -8.014   9.959  -2.537  1.00  0.00     0.034 A 
ATOM     43  C   UNL     1      -2.143  11.623   0.952  1.00  0.00     0.034 A 
ATOM     44  C   UNL     1      -7.169  10.935  -3.179  1.00  0.00     0.049 A 
ATOM     45  C   UNL     1      -2.454  12.203  -0.407  1.00  0.00     0.074 A 
ATOM     46  C   UNL     1      -7.382  11.607  -4.370  1.00  0.00     0.029 A 
ATOM     47  N   UNL     1      -5.946  11.375  -2.688  1.00  0.00    -0.354 N 
ATOM     48  N   UNL     1      -3.504  12.001  -1.170  1.00  0.00    -0.248 NA
ATOM     49  C   UNL     1      -1.464  13.123  -0.984  1.00  0.00     0.031 C 
ATOM     50  C   UNL     1      -6.257  12.392  -4.638  1.00  0.00     0.029 A 
ATOM     51  C   UNL     1      -5.382  12.284  -3.569  1.00  0.00     0.049 A 
ATOM     52  H   UNL     1      -5.540  11.084  -1.840  1.00  0.00     0.167 HD
ATOM     53  C   UNL     1      -3.319  12.805  -2.292  1.00  0.00     0.074 A 
ATOM     54  C   UNL     1      -2.058  13.491  -2.111  1.00  0.00     0.031 C 
ATOM     55  C   UNL     1      -4.128  12.972  -3.369  1.00  0.00     0.034 A 
BRANCH  42  56
ATOM     56  C   UNL     1      -9.271   9.510  -3.244  1.00  0.00     0.023 A 
ATOM     57  C   UNL     1     -10.547   9.709  -2.689  1.00  0.00     0.031 A 
ATOM     58  C   UNL     1      -9.191   8.857  -4.487  1.00  0.00     0.131 A 
ATOM     59  C   UNL     1     -11.681   9.194  -3.334  1.00  0.00     0.055 A 
ATOM     60  C   UNL     1     -10.331   8.425  -5.168  1.00  0.00     0.041 A 
ATOM     61  F   UNL     1      -8.000   8.617  -5.059  1.00  0.00    -0.206 F 
ATOM     62  C   UNL     1     -11.585   8.579  -4.584  1.00  0.00     0.022 A 
BRANCH  59  63
ATOM     63  S   UNL     1     -13.262   9.208  -2.447  1.00  0.00     0.124 S 
ATOM     64  O   UNL     1     -12.935   8.436  -1.250  1.00  0.00    -0.237 OA
ATOM     65  O   UNL     1     -13.498  10.633  -2.244  1.00  0.00    -0.237 OA
ATOM     66  O   UNL     1     -14.180   8.548  -3.373  1.00  0.00    -0.744 OA
ENDBRANCH  59  63
ENDBRANCH  42  56
BRANCH  43  67
ATOM     67  C   UNL     1      -0.855  11.941   1.636  1.00  0.00     0.023 A 
ATOM     68  C   UNL     1      -0.548  13.254   2.027  1.00  0.00     0.031 A 
ATOM     69  C   UNL     1       0.113  10.945   1.863  1.00  0.00     0.131 A 
ATOM     70  C   UNL     1       0.711  13.546   2.577  1.00  0.00     0.055 A 
ATOM     71  C   UNL     1       1.338  11.229   2.469  1.00  0.00     0.041 A 
ATOM     72  F   UNL     1      -0.125   9.673   1.505  1.00  0.00    -0.206 F 
ATOM     73  C   UNL     1       1.649  12.540   2.816  1.00  0.00     0.022 A 
BRANCH  70  74
ATOM     74  S   UNL     1       1.145  15.281   2.877  1.00  0.00     0.124 S 
ATOM     75  O   UNL     1       0.984  15.861   1.548  1.00  0.00    -0.237 OA
ATOM     76  O   UNL     1       0.154  15.674   3.874  1.00  0.00    -0.237 OA
ATOM     77  O   UNL     1       2.521  15.208   3.364  1.00  0.00    -0.744 OA
ENDBRANCH  70  74
ENDBRANCH  43  67
BRANCH  55  78
ATOM     78  C   UNL     1      -3.723  13.996  -4.400  1.00  0.00     0.023 A 
ATOM     79  C   UNL     1      -2.621  13.810  -5.251  1.00  0.00     0.031 A 
ATOM     80  C   UNL     1      -4.495  15.162  -4.559  1.00  0.00     0.131 A 
ATOM     81  C   UNL     1      -2.307  14.789  -6.207  1.00  0.00     0.055 A 
ATOM     82  C   UNL     1      -4.211  16.104  -5.546  1.00  0.00     0.041 A 
ATOM     83  F   UNL     1      -5.558  15.389  -3.770  1.00  0.00    -0.206 F 
ATOM     84  C   UNL     1      -3.107  15.923  -6.374  1.00  0.00     0.022 A 
BRANCH  81  85
ATOM     85  S   UNL     1      -0.806  14.589  -7.207  1.00  0.00     0.124 S 
ATOM     86  O   UNL     1       0.239  14.586  -6.189  1.00  0.00    -0.237 OA
ATOM     87  O   UNL     1      -1.044  13.316  -7.880  1.00  0.00    -0.237 OA
ATOM     88  O   UNL     1      -0.817  15.761  -8.082  1.00  0.00    -0.744 OA
ENDBRANCH  81  85
ENDBRANCH  55  78
ENDBRANCH  29  30
ENDBRANCH  21  24
ENDBRANCH  19  20
ENDBRANCH  18  19
ENDBRANCH   1  18
TORSDOF 17
