REMARK SMILES Cc1ccccc1NC(=O)CSc1nc(C(=O)NCCCNC(=O)c2ccc(-c3c4nc(c(-c5cc(S(=O)(=O)[O-])ccc5F)c5ccc([nH]5)c(-c5cc(S(=O)(=O)[O-])ccc5F)c5nc(c(-c6cc(S(=O)(=O)[O-])ccc6F)c6ccc3[nH]6)C=C5)C=C4)cc2)c2ccccc2n1
REMARK SMILES IDX 19 1 18 2 16 3 17 4 15 6 13 7 14 8 94 9 93 10 88 11 92 12
REMARK SMILES IDX 89 13 91 14 90 15 12 16 11 17 9 18 8 19 10 21 7 22 1 23 2 24
REMARK SMILES IDX 3 25 4 26 6 27 5 28 20 29 21 30 22 31 23 32 24 34 25 35
REMARK SMILES IDX 26 36 87 37 27 38 86 39 28 40 29 41 30 42 80 43 31 44 85 45
REMARK SMILES IDX 79 46 81 47 32 48 84 49 78 50 77 51 33 53 65 54 45 55 64 56
REMARK SMILES IDX 46 57 49 58 63 59 82 60 47 61 48 62 62 64 83 65 50 66 34 67
REMARK SMILES IDX 35 68 43 69 36 70 42 71 44 72 41 73 37 74 38 75 39 76 40 77
REMARK SMILES IDX 66 78 67 79 75 80 68 81 74 82 76 83 73 84 69 85 70 86 71 87
REMARK SMILES IDX 72 88 51 89 52 90 60 91 53 92 59 93 61 94 58 95 54 96 55 97
REMARK SMILES IDX 56 98 57 99
REMARK H PARENT 18 5 8 20 22 33 81 52 49 63
REMARK Flexibility Score: inf
ROOT
ATOM      1  C   UNL     1      -0.968   6.873  -6.723  1.00  0.00     0.118 C 
ENDROOT
BRANCH   1   2
ATOM      2  N   UNL     1      -0.887   7.569  -5.446  1.00  0.00    -0.351 N 
ATOM      3  C   UNL     1      -0.677   7.057  -4.176  1.00  0.00     0.270 C 
ATOM      4  O   UNL     1      -0.696   7.801  -3.196  1.00  0.00    -0.267 OA
ATOM      5  H   UNL     1      -0.997   8.547  -5.492  1.00  0.00     0.163 HD
BRANCH   3   6
ATOM      6  C   UNL     1      -0.514   5.581  -3.959  1.00  0.00     0.140 A 
ATOM      7  C   UNL     1      -1.391   3.776  -2.901  1.00  0.00     0.189 A 
ATOM      8  N   UNL     1      -1.315   5.097  -2.981  1.00  0.00    -0.217 NA
ATOM      9  N   UNL     1      -0.858   2.916  -3.779  1.00  0.00    -0.222 NA
ATOM     10  C   UNL     1      -0.059   3.422  -4.724  1.00  0.00     0.076 A 
ATOM     11  C   UNL     1       0.269   4.774  -4.793  1.00  0.00     0.032 A 
ATOM     12  C   UNL     1       0.434   2.575  -5.710  1.00  0.00     0.029 A 
ATOM     13  C   UNL     1       1.262   5.205  -5.712  1.00  0.00     0.013 A 
ATOM     14  C   UNL     1       1.289   3.031  -6.718  1.00  0.00     0.002 A 
ATOM     15  C   UNL     1       1.737   4.344  -6.696  1.00  0.00     0.001 A 
BRANCH   7  16
ATOM     16  S   UNL     1      -2.329   3.086  -1.574  1.00  0.00    -0.076 SA
BRANCH  16  17
ATOM     17  C   UNL     1      -1.455   3.850  -0.173  1.00  0.00     0.178 C 
BRANCH  17  18
ATOM     18  C   UNL     1       0.025   3.534  -0.118  1.00  0.00     0.234 C 
ATOM     19  N   UNL     1       0.565   2.295   0.047  1.00  0.00    -0.325 N 
ATOM     20  H   UNL     1       1.549   2.319   0.055  1.00  0.00     0.169 HD
ATOM     21  O   UNL     1       0.851   4.455  -0.189  1.00  0.00    -0.274 OA
BRANCH  19  22
ATOM     22  C   UNL     1       0.070   0.987   0.210  1.00  0.00     0.044 A 
ATOM     23  C   UNL     1       2.439   0.004  -0.188  1.00  0.00     0.046 C 
ATOM     24  C   UNL     1       0.953  -0.107   0.046  1.00  0.00    -0.027 A 
ATOM     25  C   UNL     1       0.439  -1.421   0.072  1.00  0.00     0.005 A 
ATOM     26  C   UNL     1      -0.911  -1.662   0.299  1.00  0.00     0.000 A 
ATOM     27  C   UNL     1      -1.264   0.713   0.524  1.00  0.00     0.026 A 
ATOM     28  C   UNL     1      -1.758  -0.595   0.549  1.00  0.00     0.002 A 
ENDBRANCH  19  22
ENDBRANCH  17  18
ENDBRANCH  16  17
ENDBRANCH   7  16
ENDBRANCH   3   6
ENDBRANCH   1   2
BRANCH   1  29
ATOM     29  C   UNL     1      -1.989   7.417  -7.697  1.00  0.00     0.042 C 
BRANCH  29  30
ATOM     30  C   UNL     1      -1.501   8.662  -8.422  1.00  0.00     0.118 C 
BRANCH  30  31
ATOM     31  N   UNL     1      -0.584   8.366  -9.534  1.00  0.00    -0.352 N 
ATOM     32  C   UNL     1      -0.502   8.964 -10.785  1.00  0.00     0.251 C 
ATOM     33  H   UNL     1       0.063   7.643  -9.367  1.00  0.00     0.163 HD
ATOM     34  O   UNL     1       0.322   8.664 -11.623  1.00  0.00    -0.269 OA
BRANCH  32  35
ATOM     35  C   UNL     1      -1.427  10.090 -11.028  1.00  0.00     0.039 A 
ATOM     36  C   UNL     1      -0.910  11.361 -10.759  1.00  0.00     0.014 A 
ATOM     37  C   UNL     1      -2.795   9.827 -11.006  1.00  0.00     0.014 A 
ATOM     38  C   UNL     1      -1.742  12.305 -10.176  1.00  0.00     0.010 A 
ATOM     39  C   UNL     1      -3.606  10.749 -10.365  1.00  0.00     0.010 A 
ATOM     40  C   UNL     1      -3.047  11.933  -9.852  1.00  0.00    -0.014 A 
BRANCH  40  41
ATOM     41  C   UNL     1      -3.795  12.618  -8.797  1.00  0.00     0.031 A 
ATOM     42  C   UNL     1      -5.008  13.387  -9.128  1.00  0.00     0.074 A 
ATOM     43  C   UNL     1      -3.379  12.568  -7.508  1.00  0.00     0.049 A 
ATOM     44  N   UNL     1      -5.480  14.338  -8.394  1.00  0.00    -0.248 NA
ATOM     45  C   UNL     1      -5.734  13.221 -10.384  1.00  0.00     0.031 C 
ATOM     46  C   UNL     1      -4.111  13.006  -6.320  1.00  0.00     0.029 A 
ATOM     47  N   UNL     1      -2.074  12.361  -7.049  1.00  0.00    -0.354 N 
ATOM     48  C   UNL     1      -6.712  14.673  -8.896  1.00  0.00     0.074 A 
ATOM     49  C   UNL     1      -6.742  14.080 -10.206  1.00  0.00     0.031 C 
ATOM     50  C   UNL     1      -3.232  13.314  -5.356  1.00  0.00     0.029 A 
ATOM     51  C   UNL     1      -1.903  13.191  -5.922  1.00  0.00     0.049 A 
ATOM     52  H   UNL     1      -1.405  11.753  -7.438  1.00  0.00     0.167 HD
ATOM     53  C   UNL     1      -7.612  15.276  -8.071  1.00  0.00     0.034 A 
ATOM     54  C   UNL     1      -0.925  14.139  -5.871  1.00  0.00     0.034 A 
ATOM     55  C   UNL     1      -6.949  15.837  -6.884  1.00  0.00     0.049 A 
ATOM     56  C   UNL     1      -1.457  15.543  -5.689  1.00  0.00     0.074 A 
ATOM     57  C   UNL     1      -6.967  15.535  -5.533  1.00  0.00     0.029 A 
ATOM     58  N   UNL     1      -5.906  16.751  -7.059  1.00  0.00    -0.354 N 
ATOM     59  N   UNL     1      -2.715  15.876  -5.809  1.00  0.00    -0.248 NA
ATOM     60  C   UNL     1      -0.609  16.690  -5.385  1.00  0.00     0.031 C 
ATOM     61  C   UNL     1      -5.874  16.210  -4.916  1.00  0.00     0.029 A 
ATOM     62  C   UNL     1      -5.216  16.958  -5.880  1.00  0.00     0.049 A 
ATOM     63  H   UNL     1      -5.691  17.191  -7.913  1.00  0.00     0.167 HD
ATOM     64  C   UNL     1      -2.854  17.235  -5.663  1.00  0.00     0.074 A 
ATOM     65  C   UNL     1      -1.507  17.690  -5.358  1.00  0.00     0.031 C 
ATOM     66  C   UNL     1      -4.062  17.859  -5.835  1.00  0.00     0.034 A 
BRANCH  53  67
ATOM     67  C   UNL     1      -9.127  15.165  -8.221  1.00  0.00     0.023 A 
ATOM     68  C   UNL     1      -9.957  15.690  -7.204  1.00  0.00     0.031 A 
ATOM     69  C   UNL     1      -9.818  14.452  -9.231  1.00  0.00     0.131 A 
ATOM     70  C   UNL     1     -11.355  15.479  -7.207  1.00  0.00     0.055 A 
ATOM     71  C   UNL     1     -11.209  14.289  -9.259  1.00  0.00     0.041 A 
ATOM     72  F   UNL     1      -9.203  13.812 -10.228  1.00  0.00    -0.206 F 
ATOM     73  C   UNL     1     -11.987  14.793  -8.239  1.00  0.00     0.022 A 
BRANCH  70  74
ATOM     74  S   UNL     1     -12.352  16.045  -5.800  1.00  0.00     0.124 S 
ATOM     75  O   UNL     1     -11.791  15.273  -4.697  1.00  0.00    -0.237 OA
ATOM     76  O   UNL     1     -12.090  17.480  -5.790  1.00  0.00    -0.237 OA
ATOM     77  O   UNL     1     -13.716  15.672  -6.178  1.00  0.00    -0.744 OA
ENDBRANCH  70  74
ENDBRANCH  53  67
BRANCH  54  78
ATOM     78  C   UNL     1       0.311  13.744  -6.606  1.00  0.00     0.023 A 
ATOM     79  C   UNL     1       0.933  12.538  -6.207  1.00  0.00     0.031 A 
ATOM     80  C   UNL     1       0.632  14.259  -7.866  1.00  0.00     0.131 A 
ATOM     81  C   UNL     1       1.690  11.793  -7.122  1.00  0.00     0.055 A 
ATOM     82  C   UNL     1       1.459  13.551  -8.749  1.00  0.00     0.041 A 
ATOM     83  F   UNL     1       0.050  15.380  -8.316  1.00  0.00    -0.206 F 
ATOM     84  C   UNL     1       1.952  12.292  -8.398  1.00  0.00     0.022 A 
BRANCH  81  85
ATOM     85  S   UNL     1       2.071  10.055  -6.744  1.00  0.00     0.124 S 
ATOM     86  O   UNL     1       3.452  10.130  -6.285  1.00  0.00    -0.237 OA
ATOM     87  O   UNL     1       1.070   9.708  -5.738  1.00  0.00    -0.237 OA
ATOM     88  O   UNL     1       1.866   9.368  -8.018  1.00  0.00    -0.744 OA
ENDBRANCH  81  85
ENDBRANCH  54  78
BRANCH  66  89
ATOM     89  C   UNL     1      -4.290  19.365  -5.909  1.00  0.00     0.023 A 
ATOM     90  C   UNL     1      -3.261  20.314  -6.025  1.00  0.00     0.031 A 
ATOM     91  C   UNL     1      -5.602  19.904  -5.923  1.00  0.00     0.131 A 
ATOM     92  C   UNL     1      -3.529  21.698  -6.054  1.00  0.00     0.055 A 
ATOM     93  C   UNL     1      -5.871  21.274  -6.027  1.00  0.00     0.041 A 
ATOM     94  F   UNL     1      -6.689  19.122  -5.850  1.00  0.00    -0.206 F 
ATOM     95  C   UNL     1      -4.830  22.186  -6.074  1.00  0.00     0.022 A 
BRANCH  92  96
ATOM     96  S   UNL     1      -2.127  22.849  -6.003  1.00  0.00     0.124 S 
ATOM     97  O   UNL     1      -1.523  22.532  -4.712  1.00  0.00    -0.237 OA
ATOM     98  O   UNL     1      -1.355  22.456  -7.177  1.00  0.00    -0.237 OA
ATOM     99  O   UNL     1      -2.757  24.166  -6.086  1.00  0.00    -0.744 OA
ENDBRANCH  92  96
ENDBRANCH  66  89
ENDBRANCH  40  41
ENDBRANCH  32  35
ENDBRANCH  30  31
ENDBRANCH  29  30
ENDBRANCH   1  29
TORSDOF 17
