REMARK SMILES O=C(NCCCNC(=O)[C@H](CO)NC(=O)[C@H](CS)NC(=O)c1ccc(F)cc1)c1ccc(-c2c3nc(c(-c4cc(S(=O)(=O)[O-])ccc4F)c4ccc([nH]4)c(-c4cc(S(=O)(=O)[O-])ccc4F)c4nc(c(-c5cc(S(=O)(=O)[O-])ccc5F)c5ccc2[nH]5)C=C4)C=C3)cc1
REMARK SMILES IDX 5 1 4 2 3 3 1 4 2 5 29 7 30 8 91 9 31 10 90 11 32 12 33 13
REMARK SMILES IDX 34 14 84 15 35 16 89 17 83 18 85 19 36 20 88 21 82 22 81 23
REMARK SMILES IDX 37 25 69 26 49 27 68 28 50 29 53 30 67 31 86 32 51 33 52 34
REMARK SMILES IDX 66 36 87 37 54 38 38 39 39 40 47 41 40 42 46 43 48 44 45 45
REMARK SMILES IDX 41 46 42 47 43 48 44 49 70 50 71 51 79 52 72 53 78 54 80 55
REMARK SMILES IDX 77 56 73 57 74 58 75 59 76 60 55 61 56 62 64 63 57 64 63 65
REMARK SMILES IDX 65 66 62 67 58 68 59 69 60 70 61 71 6 72 7 73 8 74 9 76
REMARK SMILES IDX 10 77 13 78 14 79 15 81 16 82 19 83 20 84 21 86 22 87 23 88
REMARK SMILES IDX 28 89 24 90 27 91 25 92 26 93 17 94 18 95 11 97 12 98
REMARK H PARENT 3 6 85 24 53 35 7 75 13 80 19 85 18 96 12 99
REMARK Flexibility Score: inf
ROOT
ATOM      1  C   UNL     1       7.931 -10.768  -0.989  1.00  0.00     0.042 C 
ENDROOT
BRANCH   1   2
ATOM      2  C   UNL     1       9.081 -11.770  -1.062  1.00  0.00     0.118 C 
BRANCH   2   3
ATOM      3  N   UNL     1       9.175 -12.407  -2.373  1.00  0.00    -0.352 N 
ATOM      4  O   UNL     1       9.870 -12.672  -4.494  1.00  0.00    -0.269 OA
ATOM      5  C   UNL     1      10.111 -12.254  -3.365  1.00  0.00     0.251 C 
ATOM      6  H   UNL     1       8.454 -13.046  -2.576  1.00  0.00     0.163 HD
BRANCH   5   7
ATOM      7  C   UNL     1      11.401 -11.598  -3.070  1.00  0.00     0.039 A 
ATOM      8  C   UNL     1      12.071 -11.878  -1.878  1.00  0.00     0.014 A 
ATOM      9  C   UNL     1      11.970 -10.733  -4.010  1.00  0.00     0.014 A 
ATOM     10  C   UNL     1      13.231 -11.187  -1.560  1.00  0.00     0.010 A 
ATOM     11  C   UNL     1      13.193 -10.115  -3.730  1.00  0.00     0.010 A 
ATOM     12  C   UNL     1      13.823 -10.323  -2.494  1.00  0.00    -0.014 A 
BRANCH  12  13
ATOM     13  C   UNL     1      15.143  -9.725  -2.178  1.00  0.00     0.031 A 
ATOM     14  C   UNL     1      15.307  -8.240  -2.024  1.00  0.00     0.074 A 
ATOM     15  C   UNL     1      16.189 -10.554  -1.980  1.00  0.00     0.049 A 
ATOM     16  N   UNL     1      16.390  -7.560  -1.748  1.00  0.00    -0.248 NA
ATOM     17  C   UNL     1      14.108  -7.408  -2.208  1.00  0.00     0.031 C 
ATOM     18  C   UNL     1      16.133 -12.016  -2.090  1.00  0.00     0.029 A 
ATOM     19  N   UNL     1      17.486 -10.302  -1.617  1.00  0.00    -0.354 N 
ATOM     20  C   UNL     1      16.010  -6.224  -1.733  1.00  0.00     0.074 A 
ATOM     21  C   UNL     1      14.600  -6.185  -2.057  1.00  0.00     0.031 C 
ATOM     22  C   UNL     1      17.318 -12.530  -1.737  1.00  0.00     0.029 A 
ATOM     23  C   UNL     1      18.244 -11.439  -1.462  1.00  0.00     0.049 A 
ATOM     24  H   UNL     1      17.841  -9.394  -1.481  1.00  0.00     0.167 HD
ATOM     25  C   UNL     1      16.772  -5.136  -1.465  1.00  0.00     0.034 A 
ATOM     26  C   UNL     1      19.546 -11.593  -1.157  1.00  0.00     0.034 A 
ATOM     27  C   UNL     1      18.175  -5.200  -1.133  1.00  0.00     0.049 A 
ATOM     28  C   UNL     1      20.381 -10.366  -0.929  1.00  0.00     0.074 A 
ATOM     29  C   UNL     1      19.033  -4.157  -0.829  1.00  0.00     0.029 A 
ATOM     30  N   UNL     1      18.927  -6.365  -1.064  1.00  0.00    -0.354 N 
ATOM     31  N   UNL     1      20.010  -9.107  -0.950  1.00  0.00    -0.248 NA
ATOM     32  C   UNL     1      21.806 -10.575  -0.650  1.00  0.00     0.031 C 
ATOM     33  C   UNL     1      20.314  -4.684  -0.644  1.00  0.00     0.029 A 
ATOM     34  C   UNL     1      20.244  -6.063  -0.756  1.00  0.00     0.049 A 
ATOM     35  H   UNL     1      18.576  -7.273  -1.213  1.00  0.00     0.167 HD
ATOM     36  C   UNL     1      21.156  -8.372  -0.674  1.00  0.00     0.074 A 
ATOM     37  C   UNL     1      22.228  -9.329  -0.480  1.00  0.00     0.031 C 
ATOM     38  C   UNL     1      21.305  -7.027  -0.585  1.00  0.00     0.034 A 
BRANCH  25  39
ATOM     39  C   UNL     1      16.124  -3.777  -1.553  1.00  0.00     0.023 A 
ATOM     40  C   UNL     1      15.162  -3.353  -0.621  1.00  0.00     0.031 A 
ATOM     41  C   UNL     1      16.515  -2.875  -2.559  1.00  0.00     0.131 A 
ATOM     42  C   UNL     1      14.601  -2.071  -0.733  1.00  0.00     0.055 A 
ATOM     43  C   UNL     1      15.997  -1.581  -2.629  1.00  0.00     0.041 A 
ATOM     44  F   UNL     1      17.417  -3.236  -3.485  1.00  0.00    -0.206 F 
ATOM     45  C   UNL     1      15.031  -1.174  -1.715  1.00  0.00     0.022 A 
BRANCH  42  46
ATOM     46  S   UNL     1      13.251  -1.607   0.386  1.00  0.00     0.124 S 
ATOM     47  O   UNL     1      12.209  -2.554  -0.003  1.00  0.00    -0.237 OA
ATOM     48  O   UNL     1      13.844  -1.813   1.702  1.00  0.00    -0.237 OA
ATOM     49  O   UNL     1      12.980  -0.214   0.037  1.00  0.00    -0.744 OA
ENDBRANCH  42  46
ENDBRANCH  25  39
BRANCH  26  50
ATOM     50  C   UNL     1      20.134 -12.959  -1.094  1.00  0.00     0.023 A 
ATOM     51  C   UNL     1      20.579 -13.502   0.119  1.00  0.00     0.031 A 
ATOM     52  C   UNL     1      20.230 -13.754  -2.252  1.00  0.00     0.131 A 
ATOM     53  C   UNL     1      21.114 -14.799   0.146  1.00  0.00     0.055 A 
ATOM     54  C   UNL     1      20.721 -15.059  -2.212  1.00  0.00     0.041 A 
ATOM     55  F   UNL     1      19.806 -13.282  -3.436  1.00  0.00    -0.206 F 
ATOM     56  C   UNL     1      21.172 -15.586  -1.007  1.00  0.00     0.022 A 
BRANCH  53  57
ATOM     57  S   UNL     1      21.762 -15.442   1.714  1.00  0.00     0.124 S 
ATOM     58  O   UNL     1      22.864 -14.524   1.978  1.00  0.00    -0.237 OA
ATOM     59  O   UNL     1      20.603 -15.327   2.593  1.00  0.00    -0.237 OA
ATOM     60  O   UNL     1      22.155 -16.811   1.383  1.00  0.00    -0.744 OA
ENDBRANCH  53  57
ENDBRANCH  26  50
BRANCH  38  61
ATOM     61  C   UNL     1      22.673  -6.507  -0.238  1.00  0.00     0.023 A 
ATOM     62  C   UNL     1      23.734  -6.562  -1.156  1.00  0.00     0.031 A 
ATOM     63  C   UNL     1      22.903  -5.908   1.014  1.00  0.00     0.131 A 
ATOM     64  C   UNL     1      24.990  -6.049  -0.799  1.00  0.00     0.055 A 
ATOM     65  C   UNL     1      24.140  -5.356   1.345  1.00  0.00     0.041 A 
ATOM     66  F   UNL     1      21.920  -5.832   1.925  1.00  0.00    -0.206 F 
ATOM     67  C   UNL     1      25.194  -5.430   0.438  1.00  0.00     0.022 A 
BRANCH  64  68
ATOM     68  S   UNL     1      26.370  -6.233  -1.960  1.00  0.00     0.124 S 
ATOM     69  O   UNL     1      26.531  -7.683  -2.010  1.00  0.00    -0.237 OA
ATOM     70  O   UNL     1      25.849  -5.608  -3.172  1.00  0.00    -0.237 OA
ATOM     71  O   UNL     1      27.462  -5.509  -1.312  1.00  0.00    -0.744 OA
ENDBRANCH  64  68
ENDBRANCH  38  61
ENDBRANCH  12  13
ENDBRANCH   5   7
ENDBRANCH   2   3
ENDBRANCH   1   2
BRANCH   1  72
ATOM     72  C   UNL     1       6.570 -11.413  -1.219  1.00  0.00     0.117 C 
BRANCH  72  73
ATOM     73  N   UNL     1       6.189 -12.276  -0.117  1.00  0.00    -0.354 N 
ATOM     74  C   UNL     1       5.326 -12.113   0.916  1.00  0.00     0.244 C 
ATOM     75  H   UNL     1       6.645 -13.149  -0.120  1.00  0.00     0.163 HD
ATOM     76  O   UNL     1       5.128 -13.111   1.622  1.00  0.00    -0.273 OA
BRANCH  74  77
ATOM     77  C   UNL     1       4.486 -10.840   1.163  1.00  0.00     0.197 C 
BRANCH  77  78
ATOM     78  N   UNL     1       5.046  -9.559   0.720  1.00  0.00    -0.340 N 
ATOM     79  C   UNL     1       5.750  -8.609   1.396  1.00  0.00     0.244 C 
ATOM     80  H   UNL     1       4.886  -9.351  -0.229  1.00  0.00     0.164 HD
ATOM     81  O   UNL     1       6.336  -7.758   0.727  1.00  0.00    -0.273 OA
BRANCH  79  82
ATOM     82  C   UNL     1       5.693  -8.538   2.925  1.00  0.00     0.181 C 
BRANCH  82  83
ATOM     83  N   UNL     1       7.030  -8.266   3.454  1.00  0.00    -0.339 N 
ATOM     84  C   UNL     1       7.719  -8.928   4.440  1.00  0.00     0.251 C 
ATOM     85  H   UNL     1       7.500  -7.503   3.047  1.00  0.00     0.164 HD
ATOM     86  O   UNL     1       8.748  -8.474   4.915  1.00  0.00    -0.269 OA
BRANCH  84  87
ATOM     87  C   UNL     1       7.191 -10.209   4.952  1.00  0.00     0.040 A 
ATOM     88  C   UNL     1       6.975 -11.286   4.084  1.00  0.00     0.017 A 
ATOM     89  C   UNL     1       6.925 -10.334   6.319  1.00  0.00     0.017 A 
ATOM     90  C   UNL     1       6.407 -12.461   4.574  1.00  0.00     0.040 A 
ATOM     91  C   UNL     1       6.370 -11.518   6.806  1.00  0.00     0.040 A 
ATOM     92  C   UNL     1       6.099 -12.562   5.927  1.00  0.00     0.123 A 
ATOM     93  F   UNL     1       5.532 -13.684   6.390  1.00  0.00    -0.207 F 
ENDBRANCH  84  87
ENDBRANCH  82  83
BRANCH  82  94
ATOM     94  C   UNL     1       4.688  -7.428   3.274  1.00  0.00     0.101 C 
BRANCH  94  95
ATOM     95  S   UNL     1       4.098  -7.543   4.998  1.00  0.00    -0.177 SA
ATOM     96  H   UNL     1       3.456  -8.729   5.179  1.00  0.00     0.102 HD
ENDBRANCH  94  95
ENDBRANCH  82  94
ENDBRANCH  79  82
ENDBRANCH  77  78
BRANCH  77  97
ATOM     97  C   UNL     1       3.080 -11.065   0.589  1.00  0.00     0.191 C 
BRANCH  97  98
ATOM     98  O   UNL     1       3.044 -10.832  -0.818  1.00  0.00    -0.394 OA
ATOM     99  H   UNL     1       3.291  -9.912  -1.000  1.00  0.00     0.210 HD
ENDBRANCH  97  98
ENDBRANCH  77  97
ENDBRANCH  74  77
ENDBRANCH  72  73
ENDBRANCH   1  72
TORSDOF 21
