REMARK SMILES CC(C)n1ccc(C#CC(=O)NCCCNC(=O)c2ccc(-c3c4nc(c(-c5cc(S(=O)(=O)[O-])ccc5F)c5ccc([nH]5)c(-c5cc(S(=O)(=O)[O-])ccc5F)c5nc(c(-c6cc(S(=O)(=O)[O-])ccc6F)c6ccc3[nH]6)C=C5)C=C4)cc2)n1
REMARK SMILES IDX 14 1 13 2 12 3 10 4 11 5 9 7 8 8 7 9 4 10 5 11 82 12 6 13
REMARK SMILES IDX 2 14 1 15 3 16 15 17 16 18 17 19 18 21 19 22 20 23 81 24
REMARK SMILES IDX 21 25 80 26 22 27 23 28 24 29 74 30 25 31 79 32 73 33 75 34
REMARK SMILES IDX 26 35 78 36 72 37 71 38 27 40 59 41 39 42 58 43 40 44 43 45
REMARK SMILES IDX 57 46 76 47 41 48 42 49 56 51 77 52 44 53 28 54 29 55 37 56
REMARK SMILES IDX 30 57 36 58 38 59 35 60 31 61 32 62 33 63 34 64 60 65 61 66
REMARK SMILES IDX 69 67 62 68 68 69 70 70 67 71 63 72 64 73 65 74 66 75 45 76
REMARK SMILES IDX 46 77 54 78 47 79 53 80 55 81 52 82 48 83 49 84 50 85 51 86
REMARK H PARENT 12 6 16 20 75 39 43 50
REMARK Flexibility Score: inf
ROOT
ATOM      1  C   UNL     1      -5.174   6.222   2.734  1.00  0.00     0.042 C 
ENDROOT
BRANCH   1   2
ATOM      2  C   UNL     1      -5.918   4.969   2.266  1.00  0.00     0.118 C 
BRANCH   2   3
ATOM      3  N   UNL     1      -6.596   5.153   0.991  1.00  0.00    -0.345 N 
ATOM      4  C   UNL     1      -6.232   4.644  -0.226  1.00  0.00     0.296 C 
ATOM      5  O   UNL     1      -6.904   4.840  -1.231  1.00  0.00    -0.260 OA
ATOM      6  H   UNL     1      -7.410   5.707   1.006  1.00  0.00     0.164 HD
BRANCH   4   7
ATOM      7  C   UNL     1      -5.064   3.821  -0.310  1.00  0.00     0.002 C 
ATOM      8  C   UNL     1      -4.122   3.063  -0.327  1.00  0.00    -0.034 C 
BRANCH   8   9
ATOM      9  C   UNL     1      -3.090   2.098  -0.298  1.00  0.00     0.135 A 
ATOM     10  N   UNL     1      -1.125   1.332  -0.252  1.00  0.00    -0.269 N 
ATOM     11  C   UNL     1      -1.936   0.230  -0.273  1.00  0.00     0.110 A 
ATOM     12  N   UNL     1      -1.818   2.492  -0.238  1.00  0.00    -0.164 NA
ATOM     13  C   UNL     1      -3.227   0.701  -0.299  1.00  0.00     0.059 A 
BRANCH  10  14
ATOM     14  C   UNL     1       0.335   1.386  -0.257  1.00  0.00     0.101 C 
ATOM     15  C   UNL     1       1.001   0.062   0.128  1.00  0.00     0.033 C 
ATOM     16  C   UNL     1       0.854   1.864  -1.614  1.00  0.00     0.033 C 
ENDBRANCH  10  14
ENDBRANCH   8   9
ENDBRANCH   4   7
ENDBRANCH   2   3
ENDBRANCH   1   2
BRANCH   1  17
ATOM     17  C   UNL     1      -6.119   7.351   3.109  1.00  0.00     0.118 C 
BRANCH  17  18
ATOM     18  N   UNL     1      -6.869   7.120   4.353  1.00  0.00    -0.352 N 
ATOM     19  C   UNL     1      -7.611   8.037   5.094  1.00  0.00     0.251 C 
ATOM     20  H   UNL     1      -6.844   6.201   4.707  1.00  0.00     0.163 HD
ATOM     21  O   UNL     1      -7.881   7.812   6.268  1.00  0.00    -0.269 OA
BRANCH  19  22
ATOM     22  C   UNL     1      -8.091   9.266   4.424  1.00  0.00     0.039 A 
ATOM     23  C   UNL     1      -8.217  10.512   5.045  1.00  0.00     0.014 A 
ATOM     24  C   UNL     1      -8.370   9.144   3.074  1.00  0.00     0.014 A 
ATOM     25  C   UNL     1      -8.636  11.602   4.269  1.00  0.00     0.010 A 
ATOM     26  C   UNL     1      -8.352  10.259   2.300  1.00  0.00     0.010 A 
ATOM     27  C   UNL     1      -8.728  11.450   2.876  1.00  0.00    -0.014 A 
BRANCH  27  28
ATOM     28  C   UNL     1      -8.959  12.531   1.922  1.00  0.00     0.031 A 
ATOM     29  C   UNL     1      -7.915  13.573   2.056  1.00  0.00     0.074 A 
ATOM     30  C   UNL     1      -9.840  12.454   0.887  1.00  0.00     0.049 A 
ATOM     31  N   UNL     1      -8.048  14.710   2.650  1.00  0.00    -0.248 NA
ATOM     32  C   UNL     1      -6.509  13.224   1.770  1.00  0.00     0.031 C 
ATOM     33  C   UNL     1     -10.756  11.364   0.519  1.00  0.00     0.029 A 
ATOM     34  N   UNL     1     -10.066  13.350  -0.123  1.00  0.00    -0.354 N 
ATOM     35  C   UNL     1      -6.826  15.347   2.494  1.00  0.00     0.074 A 
ATOM     36  C   UNL     1      -5.874  14.304   2.235  1.00  0.00     0.031 C 
ATOM     37  C   UNL     1     -11.268  11.575  -0.722  1.00  0.00     0.029 A 
ATOM     38  C   UNL     1     -10.837  12.876  -1.204  1.00  0.00     0.049 A 
ATOM     39  H   UNL     1      -9.712  14.268  -0.096  1.00  0.00     0.167 HD
ATOM     40  C   UNL     1      -6.782  16.686   2.253  1.00  0.00     0.034 A 
ATOM     41  C   UNL     1     -11.104  13.530  -2.384  1.00  0.00     0.034 A 
ATOM     42  C   UNL     1      -8.057  17.298   2.570  1.00  0.00     0.049 A 
ATOM     43  C   UNL     1     -10.917  14.977  -2.087  1.00  0.00     0.074 A 
ATOM     44  C   UNL     1      -8.845  17.331   3.707  1.00  0.00     0.029 A 
ATOM     45  N   UNL     1      -8.912  17.567   1.521  1.00  0.00    -0.354 N 
ATOM     46  N   UNL     1     -11.690  15.623  -1.254  1.00  0.00    -0.248 NA
ATOM     47  C   UNL     1      -9.569  15.512  -2.231  1.00  0.00     0.031 C 
ATOM     48  C   UNL     1     -10.170  17.078   3.237  1.00  0.00     0.029 A 
ATOM     49  C   UNL     1     -10.152  17.061   1.841  1.00  0.00     0.049 A 
ATOM     50  H   UNL     1      -8.676  18.039   0.689  1.00  0.00     0.167 HD
ATOM     51  C   UNL     1     -10.821  16.337  -0.444  1.00  0.00     0.074 A 
ATOM     52  C   UNL     1      -9.522  16.261  -1.123  1.00  0.00     0.031 C 
ATOM     53  C   UNL     1     -11.131  16.634   0.855  1.00  0.00     0.034 A 
BRANCH  40  54
ATOM     54  C   UNL     1      -5.760  17.358   1.365  1.00  0.00     0.023 A 
ATOM     55  C   UNL     1      -5.810  18.760   1.269  1.00  0.00     0.031 A 
ATOM     56  C   UNL     1      -4.936  16.706   0.416  1.00  0.00     0.131 A 
ATOM     57  C   UNL     1      -5.136  19.437   0.237  1.00  0.00     0.055 A 
ATOM     58  C   UNL     1      -4.216  17.389  -0.566  1.00  0.00     0.041 A 
ATOM     59  F   UNL     1      -4.852  15.376   0.314  1.00  0.00    -0.206 F 
ATOM     60  C   UNL     1      -4.333  18.761  -0.677  1.00  0.00     0.022 A 
BRANCH  57  61
ATOM     61  S   UNL     1      -5.456  21.204   0.011  1.00  0.00     0.124 S 
ATOM     62  O   UNL     1      -6.905  21.223  -0.150  1.00  0.00    -0.237 OA
ATOM     63  O   UNL     1      -4.938  21.765   1.254  1.00  0.00    -0.237 OA
ATOM     64  O   UNL     1      -4.689  21.536  -1.188  1.00  0.00    -0.744 OA
ENDBRANCH  57  61
ENDBRANCH  40  54
BRANCH  41  65
ATOM     65  C   UNL     1     -11.101  12.992  -3.798  1.00  0.00     0.023 A 
ATOM     66  C   UNL     1     -11.585  13.695  -4.942  1.00  0.00     0.031 A 
ATOM     67  C   UNL     1     -10.339  11.835  -4.072  1.00  0.00     0.131 A 
ATOM     68  C   UNL     1     -11.293  13.234  -6.262  1.00  0.00     0.055 A 
ATOM     69  C   UNL     1     -10.039  11.402  -5.369  1.00  0.00     0.041 A 
ATOM     70  F   UNL     1      -9.780  11.126  -3.081  1.00  0.00    -0.206 F 
ATOM     71  C   UNL     1     -10.503  12.103  -6.468  1.00  0.00     0.022 A 
BRANCH  68  72
ATOM     72  S   UNL     1     -11.873  14.118  -7.765  1.00  0.00     0.124 S 
ATOM     73  O   UNL     1     -13.313  13.895  -7.724  1.00  0.00    -0.237 OA
ATOM     74  O   UNL     1     -11.421  15.485  -7.530  1.00  0.00    -0.237 OA
ATOM     75  O   UNL     1     -11.182  13.431  -8.859  1.00  0.00    -0.744 OA
ENDBRANCH  68  72
ENDBRANCH  41  65
BRANCH  53  76
ATOM     76  C   UNL     1     -12.548  16.373   1.351  1.00  0.00     0.023 A 
ATOM     77  C   UNL     1     -13.224  15.126   1.349  1.00  0.00     0.031 A 
ATOM     78  C   UNL     1     -13.197  17.455   1.972  1.00  0.00     0.131 A 
ATOM     79  C   UNL     1     -14.502  15.012   1.945  1.00  0.00     0.055 A 
ATOM     80  C   UNL     1     -14.441  17.330   2.586  1.00  0.00     0.041 A 
ATOM     81  F   UNL     1     -12.607  18.660   2.024  1.00  0.00    -0.206 F 
ATOM     82  C   UNL     1     -15.102  16.110   2.569  1.00  0.00     0.022 A 
BRANCH  79  83
ATOM     83  S   UNL     1     -15.441  13.445   1.891  1.00  0.00     0.124 S 
ATOM     84  O   UNL     1     -15.352  13.045   0.492  1.00  0.00    -0.237 OA
ATOM     85  O   UNL     1     -14.718  12.606   2.843  1.00  0.00    -0.237 OA
ATOM     86  O   UNL     1     -16.784  13.837   2.327  1.00  0.00    -0.744 OA
ENDBRANCH  79  83
ENDBRANCH  53  76
ENDBRANCH  27  28
ENDBRANCH  19  22
ENDBRANCH  17  18
ENDBRANCH   1  17
TORSDOF 15
