REMARK SMILES Cc1cc(NC(=O)Nc2sc(C)c(C)c2C(=O)NCCCNC(=O)c2ccc(-c3c4nc(c(-c5cc(S(=O)(=O)[O-])ccc5F)c5ccc([nH]5)c(-c5cc(S(=O)(=O)[O-])ccc5F)c5nc(c(-c6cc(S(=O)(=O)[O-])ccc6F)c6ccc3[nH]6)C=C5)C=C4)cc2)ccn1
REMARK SMILES IDX 20 1 19 2 18 3 16 4 17 5 15 7 9 8 10 9 11 10 13 11 12 12
REMARK SMILES IDX 14 13 8 14 5 15 6 16 7 18 4 20 1 21 2 22 3 23 90 24 89 25
REMARK SMILES IDX 88 26 21 27 22 28 23 29 24 31 25 32 26 33 87 34 27 35 86 36
REMARK SMILES IDX 28 37 29 38 30 39 80 40 31 41 85 42 79 43 81 44 32 45 84 46
REMARK SMILES IDX 78 47 77 48 33 50 65 51 45 52 64 53 46 54 49 55 63 56 82 57
REMARK SMILES IDX 47 58 48 59 62 61 83 62 50 63 34 64 35 65 43 66 36 67 42 68
REMARK SMILES IDX 44 69 41 70 37 71 38 72 39 73 40 74 66 75 67 76 75 77 68 78
REMARK SMILES IDX 74 79 76 80 73 81 69 82 70 83 71 84 72 85 51 86 52 87 60 88
REMARK SMILES IDX 53 89 59 90 61 91 58 92 54 93 55 94 56 95 57 96
REMARK H PARENT 18 6 5 17 8 19 22 30 81 49 49 60
REMARK Flexibility Score: inf
ROOT
ATOM      1  C   UNL     1      -5.271  -2.094   2.562  1.00  0.00     0.042 C 
ENDROOT
BRANCH   1   2
ATOM      2  C   UNL     1      -5.194  -1.096   1.427  1.00  0.00     0.118 C 
BRANCH   2   3
ATOM      3  N   UNL     1      -5.416   0.293   1.739  1.00  0.00    -0.352 N 
ATOM      4  C   UNL     1      -4.925   1.451   1.176  1.00  0.00     0.254 C 
ATOM      5  O   UNL     1      -5.393   2.487   1.660  1.00  0.00    -0.269 OA
ATOM      6  H   UNL     1      -6.031   0.443   2.494  1.00  0.00     0.163 HD
BRANCH   4   7
ATOM      7  C   UNL     1      -3.875   1.525   0.127  1.00  0.00     0.077 A 
ATOM      8  C   UNL     1      -3.454   0.581  -0.800  1.00  0.00     0.110 A 
ATOM      9  S   UNL     1      -2.328   1.171  -1.930  1.00  0.00    -0.122 S 
ATOM     10  C   UNL     1      -2.047   2.565  -1.006  1.00  0.00     0.007 A 
ATOM     11  C   UNL     1      -2.965   2.691   0.029  1.00  0.00    -0.022 A 
ATOM     12  C   UNL     1      -0.902   3.449  -1.371  1.00  0.00     0.057 C 
ATOM     13  C   UNL     1      -2.967   3.839   0.997  1.00  0.00     0.046 C 
BRANCH   8  14
ATOM     14  N   UNL     1      -3.863  -0.698  -1.060  1.00  0.00    -0.298 N 
ATOM     15  N   UNL     1      -1.842  -1.940  -0.612  1.00  0.00    -0.308 N 
ATOM     16  C   UNL     1      -3.127  -1.839  -1.028  1.00  0.00     0.324 C 
ATOM     17  H   UNL     1      -1.440  -2.800  -0.874  1.00  0.00     0.171 HD
ATOM     18  O   UNL     1      -3.683  -2.879  -1.401  1.00  0.00    -0.248 OA
ATOM     19  H   UNL     1      -4.812  -0.805  -1.301  1.00  0.00     0.172 HD
BRANCH  15  20
ATOM     20  C   UNL     1      -0.931  -1.133   0.099  1.00  0.00     0.046 A 
ATOM     21  C   UNL     1       2.783  -0.461  -0.100  1.00  0.00     0.067 C 
ATOM     22  C   UNL     1       1.349  -0.403   0.332  1.00  0.00     0.039 A 
ATOM     23  C   UNL     1       0.416  -1.271  -0.231  1.00  0.00     0.049 A 
ATOM     24  N   UNL     1       1.010   0.561   1.216  1.00  0.00    -0.261 NA
ATOM     25  C   UNL     1      -0.282   0.609   1.596  1.00  0.00     0.113 A 
ATOM     26  C   UNL     1      -1.266  -0.232   1.099  1.00  0.00     0.046 A 
ENDBRANCH  15  20
ENDBRANCH   8  14
ENDBRANCH   4   7
ENDBRANCH   2   3
ENDBRANCH   1   2
BRANCH   1  27
ATOM     27  C   UNL     1      -6.587  -2.170   3.303  1.00  0.00     0.118 C 
BRANCH  27  28
ATOM     28  N   UNL     1      -7.709  -2.586   2.477  1.00  0.00    -0.352 N 
ATOM     29  C   UNL     1      -8.450  -3.746   2.454  1.00  0.00     0.251 C 
ATOM     30  H   UNL     1      -7.991  -1.916   1.814  1.00  0.00     0.163 HD
ATOM     31  O   UNL     1      -9.285  -3.885   1.560  1.00  0.00    -0.269 OA
BRANCH  29  32
ATOM     32  C   UNL     1      -8.242  -4.834   3.443  1.00  0.00     0.039 A 
ATOM     33  C   UNL     1      -8.434  -6.159   3.038  1.00  0.00     0.014 A 
ATOM     34  C   UNL     1      -7.888  -4.578   4.767  1.00  0.00     0.014 A 
ATOM     35  C   UNL     1      -8.204  -7.207   3.937  1.00  0.00     0.010 A 
ATOM     36  C   UNL     1      -7.514  -5.619   5.612  1.00  0.00     0.010 A 
ATOM     37  C   UNL     1      -7.697  -6.950   5.221  1.00  0.00    -0.014 A 
BRANCH  37  38
ATOM     38  C   UNL     1      -7.399  -8.056   6.173  1.00  0.00     0.031 A 
ATOM     39  C   UNL     1      -8.093  -8.119   7.511  1.00  0.00     0.074 A 
ATOM     40  C   UNL     1      -6.481  -8.989   5.846  1.00  0.00     0.049 A 
ATOM     41  N   UNL     1      -7.971  -9.005   8.468  1.00  0.00    -0.248 NA
ATOM     42  C   UNL     1      -9.017  -7.021   7.834  1.00  0.00     0.031 C 
ATOM     43  C   UNL     1      -5.696  -9.003   4.610  1.00  0.00     0.029 A 
ATOM     44  N   UNL     1      -6.062 -10.111   6.515  1.00  0.00    -0.354 N 
ATOM     45  C   UNL     1      -8.794  -8.565   9.501  1.00  0.00     0.074 A 
ATOM     46  C   UNL     1      -9.329  -7.286   9.091  1.00  0.00     0.031 C 
ATOM     47  C   UNL     1      -4.941 -10.112   4.580  1.00  0.00     0.029 A 
ATOM     48  C   UNL     1      -5.147 -10.863   5.814  1.00  0.00     0.049 A 
ATOM     49  H   UNL     1      -6.385 -10.355   7.412  1.00  0.00     0.167 HD
ATOM     50  C   UNL     1      -9.108  -9.185  10.667  1.00  0.00     0.034 A 
ATOM     51  C   UNL     1      -4.548 -12.030   6.125  1.00  0.00     0.034 A 
ATOM     52  C   UNL     1      -8.569 -10.465  11.056  1.00  0.00     0.049 A 
ATOM     53  C   UNL     1      -4.896 -12.696   7.432  1.00  0.00     0.074 A 
ATOM     54  C   UNL     1      -8.843 -11.209  12.190  1.00  0.00     0.029 A 
ATOM     55  N   UNL     1      -7.636 -11.191  10.324  1.00  0.00    -0.354 N 
ATOM     56  N   UNL     1      -5.719 -12.294   8.373  1.00  0.00    -0.248 NA
ATOM     57  C   UNL     1      -4.245 -13.982   7.708  1.00  0.00     0.031 C 
ATOM     58  C   UNL     1      -8.022 -12.342  12.181  1.00  0.00     0.029 A 
ATOM     59  C   UNL     1      -7.303 -12.357  10.997  1.00  0.00     0.049 A 
ATOM     60  H   UNL     1      -7.265 -10.916   9.454  1.00  0.00     0.167 HD
ATOM     61  C   UNL     1      -5.715 -13.301   9.335  1.00  0.00     0.074 A 
ATOM     62  C   UNL     1      -4.817 -14.330   8.851  1.00  0.00     0.031 C 
ATOM     63  C   UNL     1      -6.397 -13.372  10.508  1.00  0.00     0.034 A 
BRANCH  50  64
ATOM     64  C   UNL     1     -10.060  -8.467  11.600  1.00  0.00     0.023 A 
ATOM     65  C   UNL     1     -11.364  -8.119  11.200  1.00  0.00     0.031 A 
ATOM     66  C   UNL     1      -9.648  -8.078  12.886  1.00  0.00     0.131 A 
ATOM     67  C   UNL     1     -12.167  -7.322  12.031  1.00  0.00     0.055 A 
ATOM     68  C   UNL     1     -10.489  -7.370  13.748  1.00  0.00     0.041 A 
ATOM     69  F   UNL     1      -8.409  -8.357  13.322  1.00  0.00    -0.206 F 
ATOM     70  C   UNL     1     -11.749  -6.970  13.315  1.00  0.00     0.022 A 
BRANCH  67  71
ATOM     71  S   UNL     1     -13.680  -6.601  11.336  1.00  0.00     0.124 S 
ATOM     72  O   UNL     1     -13.155  -5.860  10.191  1.00  0.00    -0.237 OA
ATOM     73  O   UNL     1     -14.478  -7.780  11.024  1.00  0.00    -0.237 OA
ATOM     74  O   UNL     1     -14.193  -5.769  12.423  1.00  0.00    -0.744 OA
ENDBRANCH  67  71
ENDBRANCH  50  64
BRANCH  51  75
ATOM     75  C   UNL     1      -3.582 -12.657   5.177  1.00  0.00     0.023 A 
ATOM     76  C   UNL     1      -3.858 -13.897   4.577  1.00  0.00     0.031 A 
ATOM     77  C   UNL     1      -2.356 -12.039   4.875  1.00  0.00     0.131 A 
ATOM     78  C   UNL     1      -2.904 -14.499   3.741  1.00  0.00     0.055 A 
ATOM     79  C   UNL     1      -1.434 -12.615   3.999  1.00  0.00     0.041 A 
ATOM     80  F   UNL     1      -2.042 -10.851   5.418  1.00  0.00    -0.206 F 
ATOM     81  C   UNL     1      -1.701 -13.859   3.436  1.00  0.00     0.022 A 
BRANCH  78  82
ATOM     82  S   UNL     1      -3.223 -16.174   3.122  1.00  0.00     0.124 S 
ATOM     83  O   UNL     1      -3.376 -16.925   4.362  1.00  0.00    -0.237 OA
ATOM     84  O   UNL     1      -4.437 -15.980   2.335  1.00  0.00    -0.237 OA
ATOM     85  O   UNL     1      -2.024 -16.483   2.347  1.00  0.00    -0.744 OA
ENDBRANCH  78  82
ENDBRANCH  51  75
BRANCH  63  86
ATOM     86  C   UNL     1      -6.236 -14.637  11.319  1.00  0.00     0.023 A 
ATOM     87  C   UNL     1      -5.002 -15.015  11.875  1.00  0.00     0.031 A 
ATOM     88  C   UNL     1      -7.337 -15.491  11.516  1.00  0.00     0.131 A 
ATOM     89  C   UNL     1      -4.880 -16.248  12.533  1.00  0.00     0.055 A 
ATOM     90  C   UNL     1      -7.226 -16.680  12.237  1.00  0.00     0.041 A 
ATOM     91  F   UNL     1      -8.541 -15.184  11.006  1.00  0.00    -0.206 F 
ATOM     92  C   UNL     1      -5.988 -17.073  12.735  1.00  0.00     0.022 A 
BRANCH  89  93
ATOM     93  S   UNL     1      -3.225 -16.817  13.012  1.00  0.00     0.124 S 
ATOM     94  O   UNL     1      -2.513 -16.782  11.739  1.00  0.00    -0.237 OA
ATOM     95  O   UNL     1      -2.824 -15.817  13.995  1.00  0.00    -0.237 OA
ATOM     96  O   UNL     1      -3.466 -18.155  13.551  1.00  0.00    -0.744 OA
ENDBRANCH  89  93
ENDBRANCH  63  86
ENDBRANCH  37  38
ENDBRANCH  29  32
ENDBRANCH  27  28
ENDBRANCH   1  27
TORSDOF 15
