REMARK SMILES C[C@H](O)Cn1c(C2CCCCC2)nc2cc(C(=O)NCCCNC(=O)c3ccc(-c4c5nc(c(-c6cc(S(=O)(=O)[O-])ccc6F)c6ccc([nH]6)c(-c6cc(S(=O)(=O)[O-])ccc6F)c6nc(c(-c7cc(S(=O)(=O)[O-])ccc7F)c7ccc4[nH]7)C=C6)C=C5)cc3)ccc21
REMARK SMILES IDX 21 1 20 2 19 3 17 4 18 5 16 7 5 8 6 9 91 10 13 11 14 12
REMARK SMILES IDX 90 13 15 14 89 15 4 16 2 17 1 18 3 19 7 21 8 22 12 23 9 24
REMARK SMILES IDX 11 25 10 26 22 27 23 28 24 29 25 31 26 32 27 33 88 34 28 35
REMARK SMILES IDX 87 36 29 37 30 38 31 39 81 40 32 41 86 42 80 43 82 44 33 45
REMARK SMILES IDX 85 46 79 47 78 48 34 50 66 51 46 52 65 53 47 54 50 55 64 56
REMARK SMILES IDX 83 57 48 58 49 59 63 61 84 62 51 63 35 64 36 65 44 66 37 67
REMARK SMILES IDX 43 68 45 69 42 70 38 71 39 72 40 73 41 74 67 75 68 76 76 77
REMARK SMILES IDX 69 78 75 79 77 80 74 81 70 82 71 83 72 84 73 85 52 86 53 87
REMARK SMILES IDX 61 88 54 89 60 90 62 91 59 92 55 93 56 94 57 95 58 96
REMARK H PARENT 19 6 3 20 23 30 82 49 50 60
REMARK Flexibility Score: inf
ROOT
ATOM      1  C   UNL     1      -3.935   1.758  -5.621  1.00  0.00     0.042 C 
ENDROOT
BRANCH   1   2
ATOM      2  C   UNL     1      -4.833   0.749  -4.892  1.00  0.00     0.118 C 
BRANCH   2   3
ATOM      3  N   UNL     1      -4.450  -0.630  -5.168  1.00  0.00    -0.352 N 
ATOM      4  C   UNL     1      -3.763  -1.592  -4.464  1.00  0.00     0.251 C 
ATOM      5  O   UNL     1      -3.716  -2.716  -4.968  1.00  0.00    -0.269 OA
ATOM      6  H   UNL     1      -4.749  -0.943  -6.052  1.00  0.00     0.163 HD
BRANCH   4   7
ATOM      7  C   UNL     1      -3.095  -1.369  -3.146  1.00  0.00     0.042 A 
ATOM      8  N   UNL     1      -1.173  -1.260   0.512  1.00  0.00    -0.325 N 
ATOM      9  C   UNL     1      -1.082  -2.621   0.757  1.00  0.00     0.113 A 
ATOM     10  C   UNL     1      -1.815  -1.079  -0.694  1.00  0.00     0.068 A 
ATOM     11  N   UNL     1      -1.636  -3.292  -0.243  1.00  0.00    -0.233 NA
ATOM     12  C   UNL     1      -2.093  -2.358  -1.147  1.00  0.00     0.090 A 
ATOM     13  C   UNL     1      -2.142   0.069  -1.419  1.00  0.00     0.029 A 
ATOM     14  C   UNL     1      -2.752  -2.511  -2.382  1.00  0.00     0.044 A 
ATOM     15  C   UNL     1      -2.743  -0.106  -2.667  1.00  0.00     0.016 A 
BRANCH   8  16
ATOM     16  C   UNL     1      -0.707  -0.150   1.327  1.00  0.00     0.155 C 
BRANCH  16  17
ATOM     17  C   UNL     1       0.686   0.351   0.914  1.00  0.00     0.131 C 
ATOM     18  C   UNL     1       1.256   1.242   2.010  1.00  0.00     0.040 C 
BRANCH  17  19
ATOM     19  O   UNL     1       0.628   1.117  -0.286  1.00  0.00    -0.392 OA
ATOM     20  H   UNL     1       0.068   1.896  -0.145  1.00  0.00     0.211 HD
ENDBRANCH  17  19
ENDBRANCH  16  17
ENDBRANCH   8  16
BRANCH   9  21
ATOM     21  C   UNL     1      -0.463  -3.281   1.981  1.00  0.00     0.056 C 
ATOM     22  C   UNL     1       0.996  -2.854   2.216  1.00  0.00     0.011 C 
ATOM     23  C   UNL     1      -1.360  -3.120   3.223  1.00  0.00     0.011 C 
ATOM     24  C   UNL     1       1.589  -3.355   3.525  1.00  0.00     0.001 C 
ATOM     25  C   UNL     1      -0.690  -3.557   4.526  1.00  0.00     0.001 C 
ATOM     26  C   UNL     1       0.698  -2.951   4.691  1.00  0.00     0.000 C 
ENDBRANCH   9  21
ENDBRANCH   4   7
ENDBRANCH   2   3
ENDBRANCH   1   2
BRANCH   1  27
ATOM     27  C   UNL     1      -4.237   1.870  -7.117  1.00  0.00     0.118 C 
BRANCH  27  28
ATOM     28  N   UNL     1      -5.594   2.294  -7.406  1.00  0.00    -0.352 N 
ATOM     29  C   UNL     1      -6.251   3.487  -7.516  1.00  0.00     0.251 C 
ATOM     30  H   UNL     1      -6.193   1.528  -7.562  1.00  0.00     0.163 HD
ATOM     31  O   UNL     1      -7.441   3.400  -7.833  1.00  0.00    -0.269 OA
BRANCH  29  32
ATOM     32  C   UNL     1      -5.682   4.834  -7.231  1.00  0.00     0.039 A 
ATOM     33  C   UNL     1      -4.353   5.114  -6.918  1.00  0.00     0.014 A 
ATOM     34  C   UNL     1      -6.605   5.901  -7.244  1.00  0.00     0.014 A 
ATOM     35  C   UNL     1      -3.983   6.401  -6.523  1.00  0.00     0.010 A 
ATOM     36  C   UNL     1      -6.237   7.189  -6.867  1.00  0.00     0.010 A 
ATOM     37  C   UNL     1      -4.934   7.428  -6.451  1.00  0.00    -0.014 A 
BRANCH  37  38
ATOM     38  C   UNL     1      -4.487   8.763  -6.047  1.00  0.00     0.031 A 
ATOM     39  C   UNL     1      -3.438   9.346  -6.931  1.00  0.00     0.074 A 
ATOM     40  C   UNL     1      -5.020   9.475  -5.030  1.00  0.00     0.049 A 
ATOM     41  N   UNL     1      -2.201   9.592  -6.643  1.00  0.00    -0.248 NA
ATOM     42  C   UNL     1      -3.768   9.532  -8.352  1.00  0.00     0.031 C 
ATOM     43  C   UNL     1      -6.234   9.190  -4.261  1.00  0.00     0.029 A 
ATOM     44  N   UNL     1      -4.619  10.676  -4.518  1.00  0.00    -0.354 N 
ATOM     45  C   UNL     1      -1.641  10.149  -7.792  1.00  0.00     0.074 A 
ATOM     46  C   UNL     1      -2.598   9.936  -8.848  1.00  0.00     0.031 C 
ATOM     47  C   UNL     1      -6.593  10.291  -3.558  1.00  0.00     0.029 A 
ATOM     48  C   UNL     1      -5.555  11.298  -3.698  1.00  0.00     0.049 A 
ATOM     49  H   UNL     1      -3.738  11.069  -4.713  1.00  0.00     0.167 HD
ATOM     50  C   UNL     1      -0.514  10.917  -7.746  1.00  0.00     0.034 A 
ATOM     51  C   UNL     1      -5.506  12.565  -3.209  1.00  0.00     0.034 A 
ATOM     52  C   UNL     1       0.170  10.764  -6.490  1.00  0.00     0.049 A 
ATOM     53  C   UNL     1      -4.108  13.042  -3.299  1.00  0.00     0.074 A 
ATOM     54  C   UNL     1       0.818   9.727  -5.852  1.00  0.00     0.029 A 
ATOM     55  N   UNL     1      -0.063  11.714  -5.528  1.00  0.00    -0.354 N 
ATOM     56  N   UNL     1      -3.134  12.591  -2.564  1.00  0.00    -0.248 NA
ATOM     57  C   UNL     1      -3.713  13.722  -4.521  1.00  0.00     0.031 C 
ATOM     58  C   UNL     1       0.524   9.903  -4.469  1.00  0.00     0.029 A 
ATOM     59  C   UNL     1      -0.230  11.071  -4.330  1.00  0.00     0.049 A 
ATOM     60  H   UNL     1      -0.103  12.687  -5.673  1.00  0.00     0.167 HD
ATOM     61  C   UNL     1      -2.066  12.493  -3.441  1.00  0.00     0.074 A 
ATOM     62  C   UNL     1      -2.450  13.301  -4.598  1.00  0.00     0.031 C 
ATOM     63  C   UNL     1      -1.101  11.542  -3.272  1.00  0.00     0.034 A 
BRANCH  50  64
ATOM     64  C   UNL     1      -0.222  12.056  -8.696  1.00  0.00     0.023 A 
ATOM     65  C   UNL     1      -1.186  12.585  -9.574  1.00  0.00     0.031 A 
ATOM     66  C   UNL     1       0.972  12.800  -8.579  1.00  0.00     0.131 A 
ATOM     67  C   UNL     1      -0.961  13.768 -10.291  1.00  0.00     0.055 A 
ATOM     68  C   UNL     1       1.170  14.018  -9.242  1.00  0.00     0.041 A 
ATOM     69  F   UNL     1       1.962  12.395  -7.767  1.00  0.00    -0.206 F 
ATOM     70  C   UNL     1       0.199  14.510 -10.104  1.00  0.00     0.022 A 
BRANCH  67  71
ATOM     71  S   UNL     1      -2.199  14.367 -11.475  1.00  0.00     0.124 S 
ATOM     72  O   UNL     1      -2.503  15.696 -10.944  1.00  0.00    -0.237 OA
ATOM     73  O   UNL     1      -1.442  14.348 -12.725  1.00  0.00    -0.237 OA
ATOM     74  O   UNL     1      -3.267  13.384 -11.382  1.00  0.00    -0.744 OA
ENDBRANCH  67  71
ENDBRANCH  50  64
BRANCH  51  75
ATOM     75  C   UNL     1      -6.621  13.543  -3.136  1.00  0.00     0.023 A 
ATOM     76  C   UNL     1      -7.659  13.471  -4.082  1.00  0.00     0.031 A 
ATOM     77  C   UNL     1      -6.490  14.741  -2.408  1.00  0.00     0.131 A 
ATOM     78  C   UNL     1      -8.471  14.587  -4.330  1.00  0.00     0.055 A 
ATOM     79  C   UNL     1      -7.319  15.846  -2.641  1.00  0.00     0.041 A 
ATOM     80  F   UNL     1      -5.497  14.892  -1.518  1.00  0.00    -0.206 F 
ATOM     81  C   UNL     1      -8.304  15.778  -3.621  1.00  0.00     0.022 A 
BRANCH  78  82
ATOM     82  S   UNL     1      -9.691  14.546  -5.670  1.00  0.00     0.124 S 
ATOM     83  O   UNL     1     -10.879  15.098  -5.023  1.00  0.00    -0.237 OA
ATOM     84  O   UNL     1      -9.062  15.404  -6.668  1.00  0.00    -0.237 OA
ATOM     85  O   UNL     1      -9.776  13.129  -6.010  1.00  0.00    -0.744 OA
ENDBRANCH  78  82
ENDBRANCH  51  75
BRANCH  63  86
ATOM     86  C   UNL     1      -1.072  10.763  -1.972  1.00  0.00     0.023 A 
ATOM     87  C   UNL     1       0.171  10.642  -1.327  1.00  0.00     0.031 A 
ATOM     88  C   UNL     1      -2.141  10.002  -1.459  1.00  0.00     0.131 A 
ATOM     89  C   UNL     1       0.330   9.771  -0.244  1.00  0.00     0.055 A 
ATOM     90  C   UNL     1      -1.998   9.189  -0.329  1.00  0.00     0.041 A 
ATOM     91  F   UNL     1      -3.331   9.957  -2.072  1.00  0.00    -0.206 F 
ATOM     92  C   UNL     1      -0.752   9.058   0.275  1.00  0.00     0.022 A 
BRANCH  89  93
ATOM     93  S   UNL     1       1.982   9.430   0.414  1.00  0.00     0.124 S 
ATOM     94  O   UNL     1       1.905  10.005   1.754  1.00  0.00    -0.237 OA
ATOM     95  O   UNL     1       2.042   7.970   0.362  1.00  0.00    -0.237 OA
ATOM     96  O   UNL     1       2.879  10.115  -0.511  1.00  0.00    -0.744 OA
ENDBRANCH  89  93
ENDBRANCH  63  86
ENDBRANCH  37  38
ENDBRANCH  29  32
ENDBRANCH  27  28
ENDBRANCH   1  27
TORSDOF 17
