REMARK SMILES O=C(NCCCNC(=O)[C@H]1CC2(CCN(C(=O)c3cc4ccccc4[nH]3)CC2)CN1C(=O)C1CC1)c1ccc(-c2c3nc(c(-c4cc(S(=O)(=O)[O-])ccc4F)c4ccc([nH]4)c(-c4cc(S(=O)(=O)[O-])ccc4F)c4nc(c(-c5cc(S(=O)(=O)[O-])ccc5F)c5ccc2[nH]5)C=C4)C=C3)cc1
REMARK SMILES IDX 4 1 3 2 1 3 2 4 36 6 37 7 98 8 38 9 97 10 39 11 40 12 41 13
REMARK SMILES IDX 91 14 42 15 96 16 90 17 92 18 43 19 95 20 89 21 88 22 44 24
REMARK SMILES IDX 76 25 56 26 75 27 57 28 60 29 74 30 93 31 58 32 59 33 73 35
REMARK SMILES IDX 94 36 61 37 45 38 46 39 54 40 47 41 53 42 55 43 52 44 48 45
REMARK SMILES IDX 49 46 50 47 51 48 77 49 78 50 86 51 79 52 85 53 87 54 84 55
REMARK SMILES IDX 80 56 81 57 82 58 83 59 62 60 63 61 71 62 64 63 70 64 72 65
REMARK SMILES IDX 69 66 65 67 66 68 67 69 68 70 5 71 6 72 7 73 8 74 9 76 10 77
REMARK SMILES IDX 11 78 30 79 12 80 29 81 13 82 28 83 14 84 27 85 15 86 16 87
REMARK SMILES IDX 17 88 31 89 32 90 33 91 34 92 35 93 18 94 19 95 26 96 20 97
REMARK SMILES IDX 25 98 21 100 24 101 22 102 23 103
REMARK H PARENT 3 5 92 23 60 34 7 75 26 99
REMARK Flexibility Score: inf
ROOT
ATOM      1  C   UNL     1      10.139  -5.312   2.616  1.00  0.00     0.118 C 
ENDROOT
BRANCH   1   2
ATOM      2  N   UNL     1      10.872  -6.372   3.291  1.00  0.00    -0.352 N 
ATOM      3  O   UNL     1      11.780  -8.387   3.627  1.00  0.00    -0.269 OA
ATOM      4  C   UNL     1      11.434  -7.530   2.817  1.00  0.00     0.251 C 
ATOM      5  H   UNL     1      10.985  -6.235   4.259  1.00  0.00     0.163 HD
BRANCH   4   6
ATOM      6  C   UNL     1      11.627  -7.765   1.368  1.00  0.00     0.039 A 
ATOM      7  C   UNL     1      12.051  -6.748   0.509  1.00  0.00     0.014 A 
ATOM      8  C   UNL     1      11.473  -9.066   0.875  1.00  0.00     0.014 A 
ATOM      9  C   UNL     1      12.207  -7.001  -0.852  1.00  0.00     0.010 A 
ATOM     10  C   UNL     1      11.700  -9.335  -0.477  1.00  0.00     0.010 A 
ATOM     11  C   UNL     1      12.047  -8.299  -1.357  1.00  0.00    -0.014 A 
BRANCH  11  12
ATOM     12  C   UNL     1      12.290  -8.575  -2.795  1.00  0.00     0.031 A 
ATOM     13  C   UNL     1      11.164  -9.005  -3.691  1.00  0.00     0.074 A 
ATOM     14  C   UNL     1      13.538  -8.455  -3.286  1.00  0.00     0.049 A 
ATOM     15  N   UNL     1      11.196  -9.352  -4.952  1.00  0.00    -0.248 NA
ATOM     16  C   UNL     1       9.829  -9.069  -3.081  1.00  0.00     0.031 C 
ATOM     17  C   UNL     1      14.716  -8.062  -2.508  1.00  0.00     0.029 A 
ATOM     18  N   UNL     1      14.026  -8.657  -4.551  1.00  0.00    -0.354 N 
ATOM     19  C   UNL     1       9.890  -9.695  -5.285  1.00  0.00     0.074 A 
ATOM     20  C   UNL     1       9.100  -9.543  -4.080  1.00  0.00     0.031 C 
ATOM     21  C   UNL     1      15.788  -8.045  -3.315  1.00  0.00     0.029 A 
ATOM     22  C   UNL     1      15.384  -8.470  -4.650  1.00  0.00     0.049 A 
ATOM     23  H   UNL     1      13.459  -8.912  -5.314  1.00  0.00     0.167 HD
ATOM     24  C   UNL     1       9.398 -10.093  -6.486  1.00  0.00     0.034 A 
ATOM     25  C   UNL     1      16.219  -8.650  -5.691  1.00  0.00     0.034 A 
ATOM     26  C   UNL     1      10.198 -10.234  -7.678  1.00  0.00     0.049 A 
ATOM     27  C   UNL     1      15.659  -9.110  -7.005  1.00  0.00     0.074 A 
ATOM     28  C   UNL     1       9.795 -10.588  -8.955  1.00  0.00     0.029 A 
ATOM     29  N   UNL     1      11.572 -10.040  -7.738  1.00  0.00    -0.354 N 
ATOM     30  N   UNL     1      14.420  -9.417  -7.309  1.00  0.00    -0.248 NA
ATOM     31  C   UNL     1      16.609  -9.248  -8.116  1.00  0.00     0.031 C 
ATOM     32  C   UNL     1      10.931 -10.652  -9.774  1.00  0.00     0.029 A 
ATOM     33  C   UNL     1      12.036 -10.289  -9.021  1.00  0.00     0.049 A 
ATOM     34  H   UNL     1      12.136  -9.765  -6.979  1.00  0.00     0.167 HD
ATOM     35  C   UNL     1      14.439  -9.776  -8.651  1.00  0.00     0.074 A 
ATOM     36  C   UNL     1      15.811  -9.642  -9.100  1.00  0.00     0.031 C 
ATOM     37  C   UNL     1      13.411 -10.173  -9.443  1.00  0.00     0.034 A 
BRANCH  24  38
ATOM     38  C   UNL     1       7.931 -10.443  -6.541  1.00  0.00     0.023 A 
ATOM     39  C   UNL     1       6.934  -9.476  -6.325  1.00  0.00     0.031 A 
ATOM     40  C   UNL     1       7.526 -11.772  -6.753  1.00  0.00     0.131 A 
ATOM     41  C   UNL     1       5.588  -9.864  -6.244  1.00  0.00     0.055 A 
ATOM     42  C   UNL     1       6.179 -12.140  -6.746  1.00  0.00     0.041 A 
ATOM     43  F   UNL     1       8.435 -12.741  -6.945  1.00  0.00    -0.206 F 
ATOM     44  C   UNL     1       5.202 -11.187  -6.472  1.00  0.00     0.022 A 
BRANCH  41  45
ATOM     45  S   UNL     1       4.370  -8.646  -5.674  1.00  0.00     0.124 S 
ATOM     46  O   UNL     1       4.954  -8.208  -4.408  1.00  0.00    -0.237 OA
ATOM     47  O   UNL     1       4.377  -7.666  -6.753  1.00  0.00    -0.237 OA
ATOM     48  O   UNL     1       3.140  -9.426  -5.545  1.00  0.00    -0.744 OA
ENDBRANCH  41  45
ENDBRANCH  24  38
BRANCH  25  49
ATOM     49  C   UNL     1      17.677  -8.439  -5.502  1.00  0.00     0.023 A 
ATOM     50  C   UNL     1      18.325  -7.315  -6.033  1.00  0.00     0.031 A 
ATOM     51  C   UNL     1      18.434  -9.355  -4.750  1.00  0.00     0.131 A 
ATOM     52  C   UNL     1      19.700  -7.141  -5.814  1.00  0.00     0.055 A 
ATOM     53  C   UNL     1      19.794  -9.162  -4.511  1.00  0.00     0.041 A 
ATOM     54  F   UNL     1      17.848 -10.435  -4.210  1.00  0.00    -0.206 F 
ATOM     55  C   UNL     1      20.436  -8.051  -5.049  1.00  0.00     0.022 A 
BRANCH  52  56
ATOM     56  S   UNL     1      20.523  -5.703  -6.550  1.00  0.00     0.124 S 
ATOM     57  O   UNL     1      20.383  -5.976  -7.976  1.00  0.00    -0.237 OA
ATOM     58  O   UNL     1      19.729  -4.596  -6.028  1.00  0.00    -0.237 OA
ATOM     59  O   UNL     1      21.886  -5.786  -6.028  1.00  0.00    -0.744 OA
ENDBRANCH  52  56
ENDBRANCH  25  49
BRANCH  37  60
ATOM     60  C   UNL     1      13.740 -10.457 -10.882  1.00  0.00     0.023 A 
ATOM     61  C   UNL     1      14.416 -11.629 -11.262  1.00  0.00     0.031 A 
ATOM     62  C   UNL     1      13.380  -9.538 -11.881  1.00  0.00     0.131 A 
ATOM     63  C   UNL     1      14.744 -11.834 -12.611  1.00  0.00     0.055 A 
ATOM     64  C   UNL     1      13.675  -9.765 -13.225  1.00  0.00     0.041 A 
ATOM     65  F   UNL     1      12.735  -8.404 -11.563  1.00  0.00    -0.206 F 
ATOM     66  C   UNL     1      14.368 -10.915 -13.595  1.00  0.00     0.022 A 
BRANCH  63  67
ATOM     67  S   UNL     1      15.709 -13.302 -13.063  1.00  0.00     0.124 S 
ATOM     68  O   UNL     1      16.976 -13.051 -12.385  1.00  0.00    -0.237 OA
ATOM     69  O   UNL     1      14.900 -14.390 -12.523  1.00  0.00    -0.237 OA
ATOM     70  O   UNL     1      15.764 -13.239 -14.523  1.00  0.00    -0.744 OA
ENDBRANCH  63  67
ENDBRANCH  37  60
ENDBRANCH  11  12
ENDBRANCH   4   6
ENDBRANCH   1   2
BRANCH   1  71
ATOM     71  C   UNL     1       8.634  -5.409   2.842  1.00  0.00     0.042 C 
BRANCH  71  72
ATOM     72  C   UNL     1       8.223  -5.414   4.308  1.00  0.00     0.117 C 
BRANCH  72  73
ATOM     73  N   UNL     1       8.608  -4.201   5.017  1.00  0.00    -0.354 N 
ATOM     74  C   UNL     1       7.812  -3.228   5.567  1.00  0.00     0.242 C 
ATOM     75  H   UNL     1       9.577  -4.059   5.115  1.00  0.00     0.163 HD
ATOM     76  O   UNL     1       8.340  -2.350   6.248  1.00  0.00    -0.273 OA
BRANCH  74  77
ATOM     77  C   UNL     1       6.291  -3.355   5.379  1.00  0.00     0.175 C 
ATOM     78  C   UNL     1       5.830  -4.353   6.448  1.00  0.00     0.044 C 
ATOM     79  N   UNL     1       5.413  -2.215   5.626  1.00  0.00    -0.330 N 
ATOM     80  C   UNL     1       4.326  -4.107   6.637  1.00  0.00    -0.006 C 
ATOM     81  C   UNL     1       4.165  -2.628   6.247  1.00  0.00     0.127 C 
ATOM     82  C   UNL     1       3.922  -4.338   8.102  1.00  0.00     0.030 C 
ATOM     83  C   UNL     1       3.476  -5.039   5.745  1.00  0.00     0.030 C 
ATOM     84  C   UNL     1       4.103  -5.798   8.492  1.00  0.00     0.120 C 
ATOM     85  C   UNL     1       3.512  -6.508   6.192  1.00  0.00     0.120 C 
ATOM     86  N   UNL     1       3.304  -6.670   7.632  1.00  0.00    -0.337 N 
ATOM     87  C   UNL     1       2.713  -7.861   8.077  1.00  0.00     0.270 C 
ATOM     88  O   UNL     1       2.414  -8.765   7.299  1.00  0.00    -0.267 OA
BRANCH  79  89
ATOM     89  C   UNL     1       5.488  -0.947   5.082  1.00  0.00     0.226 C 
ATOM     90  O   UNL     1       4.550  -0.153   5.135  1.00  0.00    -0.275 OA
BRANCH  89  91
ATOM     91  C   UNL     1       6.782  -0.479   4.526  1.00  0.00     0.079 C 
ATOM     92  C   UNL     1       7.446  -1.062   3.305  1.00  0.00     0.014 C 
ATOM     93  C   UNL     1       6.783   0.277   3.213  1.00  0.00     0.014 C 
ENDBRANCH  89  91
ENDBRANCH  79  89
BRANCH  87  94
ATOM     94  C   UNL     1       2.475  -7.989   9.498  1.00  0.00     0.105 A 
ATOM     95  C   UNL     1       2.757  -9.058  10.330  1.00  0.00     0.042 A 
ATOM     96  N   UNL     1       1.843  -7.046  10.277  1.00  0.00    -0.351 N 
ATOM     97  C   UNL     1       2.439  -8.678  11.663  1.00  0.00     0.000 A 
ATOM     98  C   UNL     1       1.888  -7.400  11.604  1.00  0.00     0.046 A 
ATOM     99  H   UNL     1       1.416  -6.229   9.930  1.00  0.00     0.167 HD
ATOM    100  C   UNL     1       2.583  -9.296  12.920  1.00  0.00     0.010 A 
ATOM    101  C   UNL     1       1.485  -6.694  12.742  1.00  0.00     0.026 A 
ATOM    102  C   UNL     1       2.191  -8.603  14.071  1.00  0.00     0.001 A 
ATOM    103  C   UNL     1       1.654  -7.320  13.981  1.00  0.00     0.002 A 
ENDBRANCH  87  94
ENDBRANCH  74  77
ENDBRANCH  72  73
ENDBRANCH  71  72
ENDBRANCH   1  71
TORSDOF 16
