REMARK SMILES Cc1nsc(N(C)C(=O)Nc2cccc(Cl)c2)c1C(=O)NCCCNC(=O)c1ccc(-c2c3nc(c(-c4cc(S(=O)(=O)[O-])ccc4F)c4ccc([nH]4)c(-c4cc(S(=O)(=O)[O-])ccc4F)c4nc(c(-c5cc(S(=O)(=O)[O-])ccc5F)c5ccc2[nH]5)C=C4)C=C3)cc1
REMARK SMILES IDX 23 1 22 2 21 3 19 4 20 5 18 7 1 8 2 9 3 10 4 11 5 12 6 13
REMARK SMILES IDX 7 14 8 15 9 16 10 17 11 19 12 20 17 21 13 22 15 23 14 24
REMARK SMILES IDX 16 25 24 26 25 27 26 28 27 30 28 31 29 32 90 33 30 34 89 35
REMARK SMILES IDX 31 36 32 37 33 38 83 39 34 40 88 41 82 42 84 43 35 44 87 45
REMARK SMILES IDX 81 46 80 47 36 49 68 50 48 51 67 52 49 53 52 54 66 55 85 56
REMARK SMILES IDX 50 57 51 58 65 60 86 61 53 62 37 63 38 64 46 65 39 66 45 67
REMARK SMILES IDX 47 68 44 69 40 70 41 71 42 72 43 73 69 74 70 75 78 76 71 77
REMARK SMILES IDX 77 78 79 79 76 80 72 81 73 82 74 83 75 84 54 85 55 86 63 87
REMARK SMILES IDX 56 88 62 89 64 90 61 91 57 92 58 93 59 94 60 95
REMARK H PARENT 21 6 10 18 25 29 84 48 52 59
REMARK Flexibility Score: inf
ROOT
ATOM      1  C   UNL     1       2.649  -0.367   1.466  1.00  0.00     0.042 C 
ENDROOT
BRANCH   1   2
ATOM      2  C   UNL     1       1.608   0.650   1.944  1.00  0.00     0.118 C 
BRANCH   2   3
ATOM      3  N   UNL     1       1.876   1.989   1.453  1.00  0.00    -0.352 N 
ATOM      4  C   UNL     1       0.934   2.792   0.846  1.00  0.00     0.256 C 
ATOM      5  O   UNL     1       0.462   3.724   1.499  1.00  0.00    -0.269 OA
ATOM      6  H   UNL     1       2.788   2.345   1.559  1.00  0.00     0.163 HD
BRANCH   4   7
ATOM      7  C   UNL     1       0.561   2.587  -0.558  1.00  0.00     0.097 A 
ATOM      8  C   UNL     1       0.417  -0.074  -0.909  1.00  0.00     0.069 C 
ATOM      9  C   UNL     1       0.227   1.352  -1.275  1.00  0.00     0.066 A 
ATOM     10  N   UNL     1      -0.379   1.503  -2.451  1.00  0.00    -0.195 NA
ATOM     11  S   UNL     1      -0.512   3.086  -2.787  1.00  0.00    -0.017 S 
ATOM     12  C   UNL     1       0.440   3.658  -1.468  1.00  0.00     0.133 A 
BRANCH  12  13
ATOM     13  N   UNL     1       0.861   5.022  -1.545  1.00  0.00    -0.286 N 
ATOM     14  C   UNL     1       0.629   5.786  -2.784  1.00  0.00     0.156 C 
BRANCH  13  15
ATOM     15  C   UNL     1       1.779   5.492  -0.605  1.00  0.00     0.326 C 
ATOM     16  O   UNL     1       2.566   4.754  -0.002  1.00  0.00    -0.248 OA
ATOM     17  N   UNL     1       1.988   6.838  -0.427  1.00  0.00    -0.307 N 
ATOM     18  H   UNL     1       2.775   7.035   0.131  1.00  0.00     0.171 HD
BRANCH  17  19
ATOM     19  C   UNL     1       1.323   7.993  -0.870  1.00  0.00     0.044 A 
ATOM     20  C   UNL     1      -0.059   8.069  -1.050  1.00  0.00     0.026 A 
ATOM     21  C   UNL     1       2.130   9.068  -1.260  1.00  0.00     0.046 A 
ATOM     22  C   UNL     1      -0.614   9.135  -1.767  1.00  0.00     0.004 A 
ATOM     23  C   UNL     1       1.575  10.118  -1.990  1.00  0.00     0.043 A 
ATOM     24  C   UNL     1       0.211  10.142  -2.271  1.00  0.00     0.020 A 
ATOM     25  Cl  UNL     1       2.596  11.349  -2.627  1.00  0.00    -0.084 Cl
ENDBRANCH  17  19
ENDBRANCH  13  15
ENDBRANCH  12  13
ENDBRANCH   4   7
ENDBRANCH   2   3
ENDBRANCH   1   2
BRANCH   1  26
ATOM     26  C   UNL     1       3.750  -0.600   2.481  1.00  0.00     0.118 C 
BRANCH  26  27
ATOM     27  N   UNL     1       3.255  -1.288   3.673  1.00  0.00    -0.352 N 
ATOM     28  C   UNL     1       3.935  -1.576   4.842  1.00  0.00     0.251 C 
ATOM     29  H   UNL     1       2.316  -1.583   3.639  1.00  0.00     0.163 HD
ATOM     30  O   UNL     1       3.538  -2.462   5.579  1.00  0.00    -0.269 OA
BRANCH  28  31
ATOM     31  C   UNL     1       5.149  -0.800   5.160  1.00  0.00     0.039 A 
ATOM     32  C   UNL     1       6.275  -1.417   5.707  1.00  0.00     0.014 A 
ATOM     33  C   UNL     1       5.162   0.561   4.857  1.00  0.00     0.014 A 
ATOM     34  C   UNL     1       7.439  -0.667   5.853  1.00  0.00     0.010 A 
ATOM     35  C   UNL     1       6.348   1.252   4.847  1.00  0.00     0.010 A 
ATOM     36  C   UNL     1       7.482   0.661   5.383  1.00  0.00    -0.014 A 
BRANCH  36  37
ATOM     37  C   UNL     1       8.756   1.368   5.252  1.00  0.00     0.031 A 
ATOM     38  C   UNL     1       9.776   0.564   4.531  1.00  0.00     0.074 A 
ATOM     39  C   UNL     1       8.958   2.670   5.559  1.00  0.00     0.049 A 
ATOM     40  N   UNL     1      10.758  -0.081   5.065  1.00  0.00    -0.248 NA
ATOM     41  C   UNL     1       9.559   0.231   3.112  1.00  0.00     0.031 C 
ATOM     42  C   UNL     1       7.983   3.655   6.034  1.00  0.00     0.029 A 
ATOM     43  N   UNL     1      10.089   3.423   5.434  1.00  0.00    -0.354 N 
ATOM     44  C   UNL     1      11.464  -0.632   4.005  1.00  0.00     0.074 A 
ATOM     45  C   UNL     1      10.549  -0.639   2.897  1.00  0.00     0.031 C 
ATOM     46  C   UNL     1       8.503   4.902   5.939  1.00  0.00     0.029 A 
ATOM     47  C   UNL     1       9.900   4.804   5.548  1.00  0.00     0.049 A 
ATOM     48  H   UNL     1      10.974   3.023   5.274  1.00  0.00     0.167 HD
ATOM     49  C   UNL     1      12.821  -0.726   4.068  1.00  0.00     0.034 A 
ATOM     50  C   UNL     1      10.820   5.794   5.346  1.00  0.00     0.034 A 
ATOM     51  C   UNL     1      13.279  -0.566   5.438  1.00  0.00     0.049 A 
ATOM     52  C   UNL     1      12.150   5.166   5.546  1.00  0.00     0.074 A 
ATOM     53  C   UNL     1      12.967  -1.185   6.636  1.00  0.00     0.029 A 
ATOM     54  N   UNL     1      13.862   0.634   5.792  1.00  0.00    -0.354 N 
ATOM     55  N   UNL     1      12.548   4.707   6.702  1.00  0.00    -0.248 NA
ATOM     56  C   UNL     1      12.800   4.575   4.386  1.00  0.00     0.031 C 
ATOM     57  C   UNL     1      12.881  -0.123   7.585  1.00  0.00     0.029 A 
ATOM     58  C   UNL     1      13.268   1.061   6.955  1.00  0.00     0.049 A 
ATOM     59  H   UNL     1      14.575   1.100   5.299  1.00  0.00     0.167 HD
ATOM     60  C   UNL     1      13.127   3.482   6.414  1.00  0.00     0.074 A 
ATOM     61  C   UNL     1      13.332   3.493   4.963  1.00  0.00     0.031 C 
ATOM     62  C   UNL     1      13.111   2.458   7.319  1.00  0.00     0.034 A 
BRANCH  49  63
ATOM     63  C   UNL     1      13.748  -0.520   2.885  1.00  0.00     0.023 A 
ATOM     64  C   UNL     1      15.128  -0.578   3.152  1.00  0.00     0.031 A 
ATOM     65  C   UNL     1      13.393   0.017   1.627  1.00  0.00     0.131 A 
ATOM     66  C   UNL     1      16.058   0.008   2.279  1.00  0.00     0.055 A 
ATOM     67  C   UNL     1      14.330   0.535   0.728  1.00  0.00     0.041 A 
ATOM     68  F   UNL     1      12.127   0.156   1.219  1.00  0.00    -0.206 F 
ATOM     69  C   UNL     1      15.669   0.569   1.068  1.00  0.00     0.022 A 
BRANCH  66  70
ATOM     70  S   UNL     1      17.762   0.195   2.858  1.00  0.00     0.124 S 
ATOM     71  O   UNL     1      17.562   0.957   4.087  1.00  0.00    -0.237 OA
ATOM     72  O   UNL     1      18.176  -1.194   3.021  1.00  0.00    -0.237 OA
ATOM     73  O   UNL     1      18.411   0.917   1.768  1.00  0.00    -0.744 OA
ENDBRANCH  66  70
ENDBRANCH  49  63
BRANCH  50  74
ATOM     74  C   UNL     1      10.645   7.141   4.713  1.00  0.00     0.023 A 
ATOM     75  C   UNL     1      11.632   8.161   4.761  1.00  0.00     0.031 A 
ATOM     76  C   UNL     1       9.586   7.346   3.801  1.00  0.00     0.131 A 
ATOM     77  C   UNL     1      11.538   9.299   3.917  1.00  0.00     0.055 A 
ATOM     78  C   UNL     1       9.505   8.465   2.965  1.00  0.00     0.041 A 
ATOM     79  F   UNL     1       8.634   6.419   3.622  1.00  0.00    -0.206 F 
ATOM     80  C   UNL     1      10.487   9.440   3.010  1.00  0.00     0.022 A 
BRANCH  77  81
ATOM     81  S   UNL     1      12.836  10.589   3.906  1.00  0.00     0.124 S 
ATOM     82  O   UNL     1      12.611  11.267   5.177  1.00  0.00    -0.237 OA
ATOM     83  O   UNL     1      14.062   9.808   3.792  1.00  0.00    -0.237 OA
ATOM     84  O   UNL     1      12.514  11.388   2.722  1.00  0.00    -0.744 OA
ENDBRANCH  77  81
ENDBRANCH  50  74
BRANCH  62  85
ATOM     85  C   UNL     1      12.738   2.756   8.761  1.00  0.00     0.023 A 
ATOM     86  C   UNL     1      11.535   3.359   9.200  1.00  0.00     0.031 A 
ATOM     87  C   UNL     1      13.624   2.285   9.749  1.00  0.00     0.131 A 
ATOM     88  C   UNL     1      11.268   3.475  10.582  1.00  0.00     0.055 A 
ATOM     89  C   UNL     1      13.344   2.378  11.110  1.00  0.00     0.041 A 
ATOM     90  F   UNL     1      14.776   1.688   9.401  1.00  0.00    -0.206 F 
ATOM     91  C   UNL     1      12.166   2.979  11.532  1.00  0.00     0.022 A 
BRANCH  88  92
ATOM     92  S   UNL     1       9.754   4.300  11.183  1.00  0.00     0.124 S 
ATOM     93  O   UNL     1       9.701   5.530  10.402  1.00  0.00    -0.237 OA
ATOM     94  O   UNL     1       8.718   3.312  10.892  1.00  0.00    -0.237 OA
ATOM     95  O   UNL     1      10.018   4.497  12.610  1.00  0.00    -0.744 OA
ENDBRANCH  88  92
ENDBRANCH  62  85
ENDBRANCH  36  37
ENDBRANCH  28  31
ENDBRANCH  26  27
ENDBRANCH   1  26
TORSDOF 16
