REMARK SMILES Cc1ccc(-c2cc([C@@H](C)C(=O)NCCCNC(=O)c3ccc(-c4c5nc(c(-c6cc(S(=O)(=O)[O-])ccc6F)c6ccc([nH]6)c(-c6cc(S(=O)(=O)[O-])ccc6F)c6nc(c(-c7cc(S(=O)(=O)[O-])ccc7F)c7ccc4[nH]7)C=C6)C=C5)cc3)ccc2C[C@H]2CCCC2=O)cc1
REMARK SMILES IDX 15 1 14 2 13 3 11 4 12 5 9 7 10 8 8 9 6 10 7 11 85 12 84 13
REMARK SMILES IDX 83 14 5 15 1 16 2 17 3 18 94 19 4 20 93 21 86 22 87 23 88 24
REMARK SMILES IDX 91 25 89 26 90 27 92 28 16 29 17 30 18 31 19 33 20 34 21 35
REMARK SMILES IDX 82 36 22 37 81 38 23 39 24 40 25 41 75 42 26 43 80 44 74 45
REMARK SMILES IDX 76 46 27 47 79 48 73 49 72 50 28 52 60 53 40 54 59 55 41 56
REMARK SMILES IDX 44 57 58 58 77 59 42 60 43 61 57 63 78 64 45 65 29 66 30 67
REMARK SMILES IDX 38 68 31 69 37 70 39 71 36 72 32 73 33 74 34 75 35 76 61 77
REMARK SMILES IDX 62 78 70 79 63 80 69 81 71 82 68 83 64 84 65 85 66 86 67 87
REMARK SMILES IDX 46 88 47 89 55 90 48 91 54 92 56 93 53 94 49 95 50 96 51 97
REMARK SMILES IDX 52 98
REMARK H PARENT 13 6 17 32 76 51 44 62
REMARK Flexibility Score: inf
ROOT
ATOM      1  C   UNL     1      -8.745   0.339   0.299  1.00  0.00     0.042 C 
ENDROOT
BRANCH   1   2
ATOM      2  C   UNL     1      -8.910   0.891  -1.115  1.00  0.00     0.117 C 
BRANCH   2   3
ATOM      3  N   UNL     1      -8.036   2.026  -1.375  1.00  0.00    -0.356 N 
ATOM      4  C   UNL     1      -6.785   2.132  -1.899  1.00  0.00     0.227 C 
ATOM      5  O   UNL     1      -6.285   3.265  -1.929  1.00  0.00    -0.274 OA
ATOM      6  H   UNL     1      -8.430   2.892  -1.120  1.00  0.00     0.163 HD
BRANCH   4   7
ATOM      7  C   UNL     1      -5.961   0.944  -2.431  1.00  0.00     0.105 C 
ATOM      8  C   UNL     1      -6.669   0.050  -3.446  1.00  0.00     0.023 C 
BRANCH   7   9
ATOM      9  C   UNL     1      -5.194   0.208  -1.342  1.00  0.00    -0.035 A 
ATOM     10  C   UNL     1      -3.120  -0.099  -0.045  1.00  0.00    -0.015 A 
ATOM     11  C   UNL     1      -3.842   0.506  -1.097  1.00  0.00     0.013 A 
ATOM     12  C   UNL     1      -3.823  -0.912   0.873  1.00  0.00    -0.039 A 
ATOM     13  C   UNL     1      -5.142  -1.279   0.573  1.00  0.00     0.004 A 
ATOM     14  C   UNL     1      -5.793  -0.765  -0.547  1.00  0.00     0.005 A 
BRANCH  10  15
ATOM     15  C   UNL     1      -1.651   0.029  -0.019  1.00  0.00    -0.018 A 
ATOM     16  C   UNL     1       2.675   0.217  -0.021  1.00  0.00     0.044 C 
ATOM     17  C   UNL     1       1.177   0.168  -0.034  1.00  0.00    -0.051 A 
ATOM     18  C   UNL     1       0.531  -1.062  -0.174  1.00  0.00     0.004 A 
ATOM     19  C   UNL     1       0.404   1.328   0.104  1.00  0.00     0.004 A 
ATOM     20  C   UNL     1      -0.862  -1.125  -0.179  1.00  0.00     0.009 A 
ATOM     21  C   UNL     1      -0.996   1.260   0.107  1.00  0.00     0.009 A 
ENDBRANCH  10  15
BRANCH  12  22
ATOM     22  C   UNL     1      -3.229  -1.393   2.184  1.00  0.00     0.047 C 
BRANCH  22  23
ATOM     23  C   UNL     1      -3.610  -0.596   3.440  1.00  0.00     0.060 C 
ATOM     24  C   UNL     1      -3.358   0.916   3.416  1.00  0.00     0.012 C 
ATOM     25  C   UNL     1      -5.085  -0.666   3.769  1.00  0.00     0.136 C 
ATOM     26  C   UNL     1      -4.704   1.566   3.120  1.00  0.00     0.009 C 
ATOM     27  C   UNL     1      -5.731   0.693   3.824  1.00  0.00     0.076 C 
ATOM     28  O   UNL     1      -5.673  -1.712   4.019  1.00  0.00    -0.299 OA
ENDBRANCH  22  23
ENDBRANCH  12  22
ENDBRANCH   7   9
ENDBRANCH   4   7
ENDBRANCH   2   3
ENDBRANCH   1   2
BRANCH   1  29
ATOM     29  C   UNL     1      -9.762   0.867   1.304  1.00  0.00     0.118 C 
BRANCH  29  30
ATOM     30  N   UNL     1     -10.546  -0.224   1.894  1.00  0.00    -0.352 N 
ATOM     31  C   UNL     1     -11.207  -0.280   3.108  1.00  0.00     0.251 C 
ATOM     32  H   UNL     1     -10.613  -1.038   1.343  1.00  0.00     0.163 HD
ATOM     33  O   UNL     1     -11.858  -1.244   3.462  1.00  0.00    -0.269 OA
BRANCH  31  34
ATOM     34  C   UNL     1     -11.202   0.951   3.922  1.00  0.00     0.039 A 
ATOM     35  C   UNL     1     -12.395   1.677   3.961  1.00  0.00     0.014 A 
ATOM     36  C   UNL     1      -9.991   1.515   4.313  1.00  0.00     0.014 A 
ATOM     37  C   UNL     1     -12.336   3.051   4.162  1.00  0.00     0.010 A 
ATOM     38  C   UNL     1      -9.926   2.893   4.436  1.00  0.00     0.010 A 
ATOM     39  C   UNL     1     -11.085   3.666   4.276  1.00  0.00    -0.014 A 
BRANCH  39  40
ATOM     40  C   UNL     1     -10.914   5.095   4.023  1.00  0.00     0.031 A 
ATOM     41  C   UNL     1     -10.615   6.041   5.121  1.00  0.00     0.074 A 
ATOM     42  C   UNL     1     -11.117   5.618   2.790  1.00  0.00     0.049 A 
ATOM     43  N   UNL     1     -11.101   7.239   5.183  1.00  0.00    -0.248 NA
ATOM     44  C   UNL     1      -9.760   5.703   6.254  1.00  0.00     0.031 C 
ATOM     45  C   UNL     1     -10.841   6.992   2.370  1.00  0.00     0.029 A 
ATOM     46  N   UNL     1     -11.767   5.095   1.688  1.00  0.00    -0.354 N 
ATOM     47  C   UNL     1     -10.407   7.910   6.158  1.00  0.00     0.074 A 
ATOM     48  C   UNL     1      -9.649   6.893   6.855  1.00  0.00     0.031 C 
ATOM     49  C   UNL     1     -11.586   7.271   1.288  1.00  0.00     0.029 A 
ATOM     50  C   UNL     1     -12.445   6.129   1.045  1.00  0.00     0.049 A 
ATOM     51  H   UNL     1     -11.753   4.152   1.404  1.00  0.00     0.167 HD
ATOM     52  C   UNL     1     -10.399   9.271   6.195  1.00  0.00     0.034 A 
ATOM     53  C   UNL     1     -13.791   6.177   0.826  1.00  0.00     0.034 A 
ATOM     54  C   UNL     1     -11.140   9.877   5.095  1.00  0.00     0.049 A 
ATOM     55  C   UNL     1     -14.446   7.439   1.354  1.00  0.00     0.074 A 
ATOM     56  C   UNL     1     -10.736  10.451   3.900  1.00  0.00     0.029 A 
ATOM     57  N   UNL     1     -12.520   9.739   5.015  1.00  0.00    -0.354 N 
ATOM     58  N   UNL     1     -13.871   8.263   2.185  1.00  0.00    -0.248 NA
ATOM     59  C   UNL     1     -15.812   7.847   1.035  1.00  0.00     0.031 C 
ATOM     60  C   UNL     1     -11.882  10.655   3.095  1.00  0.00     0.029 A 
ATOM     61  C   UNL     1     -12.986  10.213   3.802  1.00  0.00     0.049 A 
ATOM     62  H   UNL     1     -13.088   9.357   5.723  1.00  0.00     0.167 HD
ATOM     63  C   UNL     1     -14.753   9.251   2.552  1.00  0.00     0.074 A 
ATOM     64  C   UNL     1     -15.945   8.962   1.776  1.00  0.00     0.031 C 
ATOM     65  C   UNL     1     -14.409  10.194   3.483  1.00  0.00     0.034 A 
BRANCH  52  66
ATOM     66  C   UNL     1      -9.429  10.033   7.059  1.00  0.00     0.023 A 
ATOM     67  C   UNL     1      -8.787  11.181   6.555  1.00  0.00     0.031 A 
ATOM     68  C   UNL     1      -9.077   9.654   8.367  1.00  0.00     0.131 A 
ATOM     69  C   UNL     1      -7.778  11.832   7.283  1.00  0.00     0.055 A 
ATOM     70  C   UNL     1      -8.037  10.269   9.075  1.00  0.00     0.041 A 
ATOM     71  F   UNL     1      -9.739   8.675   9.006  1.00  0.00    -0.206 F 
ATOM     72  C   UNL     1      -7.369  11.356   8.525  1.00  0.00     0.022 A 
BRANCH  69  73
ATOM     73  S   UNL     1      -7.002  13.310   6.573  1.00  0.00     0.124 S 
ATOM     74  O   UNL     1      -6.506  12.818   5.292  1.00  0.00    -0.237 OA
ATOM     75  O   UNL     1      -8.120  14.246   6.514  1.00  0.00    -0.237 OA
ATOM     76  O   UNL     1      -5.965  13.648   7.546  1.00  0.00    -0.744 OA
ENDBRANCH  69  73
ENDBRANCH  52  66
BRANCH  53  77
ATOM     77  C   UNL     1     -14.452   4.848   0.751  1.00  0.00     0.023 A 
ATOM     78  C   UNL     1     -14.013   3.967  -0.257  1.00  0.00     0.031 A 
ATOM     79  C   UNL     1     -15.187   4.316   1.818  1.00  0.00     0.131 A 
ATOM     80  C   UNL     1     -14.157   2.583  -0.097  1.00  0.00     0.055 A 
ATOM     81  C   UNL     1     -15.386   2.936   1.943  1.00  0.00     0.041 A 
ATOM     82  F   UNL     1     -15.613   5.104   2.816  1.00  0.00    -0.206 F 
ATOM     83  C   UNL     1     -14.831   2.059   1.008  1.00  0.00     0.022 A 
BRANCH  80  84
ATOM     84  S   UNL     1     -13.226   1.470  -1.192  1.00  0.00     0.124 S 
ATOM     85  O   UNL     1     -14.240   1.065  -2.157  1.00  0.00    -0.237 OA
ATOM     86  O   UNL     1     -12.164   2.329  -1.708  1.00  0.00    -0.237 OA
ATOM     87  O   UNL     1     -12.753   0.424  -0.289  1.00  0.00    -0.744 OA
ENDBRANCH  80  84
ENDBRANCH  53  77
BRANCH  65  88
ATOM     88  C   UNL     1     -15.317  11.231   4.124  1.00  0.00     0.023 A 
ATOM     89  C   UNL     1     -16.714  11.240   3.998  1.00  0.00     0.031 A 
ATOM     90  C   UNL     1     -14.783  12.246   4.963  1.00  0.00     0.131 A 
ATOM     91  C   UNL     1     -17.503  12.233   4.616  1.00  0.00     0.055 A 
ATOM     92  C   UNL     1     -15.571  13.193   5.625  1.00  0.00     0.041 A 
ATOM     93  F   UNL     1     -13.466  12.359   5.190  1.00  0.00    -0.206 F 
ATOM     94  C   UNL     1     -16.942  13.200   5.444  1.00  0.00     0.022 A 
BRANCH  91  95
ATOM     95  S   UNL     1     -19.283  12.258   4.271  1.00  0.00     0.124 S 
ATOM     96  O   UNL     1     -19.308  12.472   2.826  1.00  0.00    -0.237 OA
ATOM     97  O   UNL     1     -19.706  10.937   4.723  1.00  0.00    -0.237 OA
ATOM     98  O   UNL     1     -19.776  13.377   5.072  1.00  0.00    -0.744 OA
ENDBRANCH  91  95
ENDBRANCH  65  88
ENDBRANCH  39  40
ENDBRANCH  31  34
ENDBRANCH  29  30
ENDBRANCH   1  29
TORSDOF 17
