REMARK SMILES Cc1sc(NC(=O)c2ccc(Br)nc2)c(C(=O)NCCCNC(=O)c2ccc(-c3c4nc(c(-c5cc(S(=O)(=O)[O-])ccc5F)c5ccc([nH]5)c(-c5cc(S(=O)(=O)[O-])ccc5F)c5nc(c(-c6cc(S(=O)(=O)[O-])ccc6F)c6ccc3[nH]6)C=C5)C=C4)cc2)c1C
REMARK SMILES IDX 20 1 19 2 18 3 16 4 17 5 15 7 1 8 2 9 3 10 88 11 4 12 89 13
REMARK SMILES IDX 5 14 6 15 7 17 8 18 9 19 14 20 10 21 13 22 11 23 12 24 21 25
REMARK SMILES IDX 22 26 23 27 24 29 25 30 26 31 87 32 27 33 86 34 28 35 29 36
REMARK SMILES IDX 30 37 80 38 31 39 85 40 79 41 81 42 32 43 84 44 78 45 77 46
REMARK SMILES IDX 33 48 65 49 45 50 64 51 46 52 49 53 63 54 82 55 47 56 48 57
REMARK SMILES IDX 62 59 83 60 50 61 34 62 35 63 43 64 36 65 42 66 44 67 41 68
REMARK SMILES IDX 37 69 38 70 39 71 40 72 66 73 67 74 75 75 68 76 74 77 76 78
REMARK SMILES IDX 73 79 69 80 70 81 71 82 72 83 51 84 52 85 60 86 53 87 59 88
REMARK SMILES IDX 61 89 58 90 54 91 55 92 56 93 57 94
REMARK H PARENT 18 6 5 16 22 28 81 47 49 58
REMARK Flexibility Score: inf
ROOT
ATOM      1  C   UNL     1       2.286  -4.362   2.528  1.00  0.00     0.042 C 
ENDROOT
BRANCH   1   2
ATOM      2  C   UNL     1       1.615  -3.388   1.573  1.00  0.00     0.118 C 
BRANCH   2   3
ATOM      3  N   UNL     1       0.177  -3.565   1.462  1.00  0.00    -0.352 N 
ATOM      4  C   UNL     1      -0.754  -2.747   0.867  1.00  0.00     0.254 C 
ATOM      5  O   UNL     1      -1.944  -3.005   1.032  1.00  0.00    -0.269 OA
ATOM      6  H   UNL     1      -0.180  -4.387   1.869  1.00  0.00     0.163 HD
BRANCH   4   7
ATOM      7  C   UNL     1      -0.319  -1.561   0.124  1.00  0.00     0.077 A 
ATOM      8  C   UNL     1      -0.478   2.214  -0.344  1.00  0.00     0.057 C 
ATOM      9  C   UNL     1      -0.231   0.741  -0.343  1.00  0.00     0.007 A 
ATOM     10  S   UNL     1       1.156   0.126  -1.124  1.00  0.00    -0.122 S 
ATOM     11  C   UNL     1      -1.001  -0.274   0.205  1.00  0.00    -0.022 A 
ATOM     12  C   UNL     1       0.688  -1.481  -0.820  1.00  0.00     0.109 A 
ATOM     13  C   UNL     1      -2.344  -0.085   0.846  1.00  0.00     0.046 C 
BRANCH  12  14
ATOM     14  N   UNL     1       1.436  -2.371  -1.558  1.00  0.00    -0.313 N 
ATOM     15  C   UNL     1       1.168  -3.685  -1.865  1.00  0.00     0.257 C 
ATOM     16  H   UNL     1       2.282  -2.017  -1.916  1.00  0.00     0.171 HD
ATOM     17  O   UNL     1       2.080  -4.420  -2.235  1.00  0.00    -0.269 OA
BRANCH  15  18
ATOM     18  C   UNL     1      -0.198  -4.234  -1.808  1.00  0.00     0.058 A 
ATOM     19  C   UNL     1      -1.314  -3.525  -2.254  1.00  0.00     0.018 A 
ATOM     20  C   UNL     1      -0.392  -5.512  -1.299  1.00  0.00     0.126 A 
ATOM     21  C   UNL     1      -2.582  -4.074  -2.070  1.00  0.00     0.037 A 
ATOM     22  N   UNL     1      -1.613  -6.067  -1.111  1.00  0.00    -0.249 NA
ATOM     23  C   UNL     1      -2.683  -5.327  -1.477  1.00  0.00     0.106 A 
ATOM     24  Br  UNL     1      -4.406  -6.048  -1.156  1.00  0.00    -0.029 Br
ENDBRANCH  15  18
ENDBRANCH  12  14
ENDBRANCH   4   7
ENDBRANCH   2   3
ENDBRANCH   1   2
BRANCH   1  25
ATOM     25  C   UNL     1       2.114  -5.841   2.194  1.00  0.00     0.118 C 
BRANCH  25  26
ATOM     26  N   UNL     1       2.647  -6.268   0.908  1.00  0.00    -0.352 N 
ATOM     27  C   UNL     1       3.254  -7.464   0.575  1.00  0.00     0.251 C 
ATOM     28  H   UNL     1       2.564  -5.615   0.176  1.00  0.00     0.163 HD
ATOM     29  O   UNL     1       3.588  -7.673  -0.588  1.00  0.00    -0.269 OA
BRANCH  27  30
ATOM     30  C   UNL     1       3.596  -8.448   1.629  1.00  0.00     0.039 A 
ATOM     31  C   UNL     1       4.896  -8.962   1.649  1.00  0.00     0.014 A 
ATOM     32  C   UNL     1       2.700  -8.786   2.644  1.00  0.00     0.014 A 
ATOM     33  C   UNL     1       5.337  -9.691   2.755  1.00  0.00     0.010 A 
ATOM     34  C   UNL     1       3.169  -9.427   3.790  1.00  0.00     0.010 A 
ATOM     35  C   UNL     1       4.503  -9.856   3.873  1.00  0.00    -0.014 A 
BRANCH  35  36
ATOM     36  C   UNL     1       5.036 -10.401   5.152  1.00  0.00     0.031 A 
ATOM     37  C   UNL     1       4.447 -11.641   5.767  1.00  0.00     0.074 A 
ATOM     38  C   UNL     1       5.998  -9.719   5.808  1.00  0.00     0.049 A 
ATOM     39  N   UNL     1       4.734 -12.216   6.907  1.00  0.00    -0.248 NA
ATOM     40  C   UNL     1       3.362 -12.293   5.021  1.00  0.00     0.031 C 
ATOM     41  C   UNL     1       6.592  -8.452   5.367  1.00  0.00     0.029 A 
ATOM     42  N   UNL     1       6.645  -9.987   6.988  1.00  0.00    -0.354 N 
ATOM     43  C   UNL     1       3.848 -13.280   7.030  1.00  0.00     0.074 A 
ATOM     44  C   UNL     1       2.976 -13.229   5.874  1.00  0.00     0.031 C 
ATOM     45  C   UNL     1       7.540  -8.079   6.240  1.00  0.00     0.029 A 
ATOM     46  C   UNL     1       7.600  -9.054   7.322  1.00  0.00     0.049 A 
ATOM     47  H   UNL     1       6.445 -10.774   7.545  1.00  0.00     0.167 HD
ATOM     48  C   UNL     1       3.781 -14.227   8.001  1.00  0.00     0.034 A 
ATOM     49  C   UNL     1       8.435  -8.991   8.377  1.00  0.00     0.034 A 
ATOM     50  C   UNL     1       4.675 -14.283   9.133  1.00  0.00     0.049 A 
ATOM     51  C   UNL     1       8.391 -10.089   9.406  1.00  0.00     0.074 A 
ATOM     52  C   UNL     1       4.734 -15.228  10.143  1.00  0.00     0.029 A 
ATOM     53  N   UNL     1       5.673 -13.355   9.403  1.00  0.00    -0.354 N 
ATOM     54  N   UNL     1       7.583 -11.121   9.477  1.00  0.00    -0.248 NA
ATOM     55  C   UNL     1       9.384 -10.021  10.485  1.00  0.00     0.031 C 
ATOM     56  C   UNL     1       5.739 -14.850  11.044  1.00  0.00     0.029 A 
ATOM     57  C   UNL     1       6.345 -13.699  10.567  1.00  0.00     0.049 A 
ATOM     58  H   UNL     1       5.875 -12.567   8.848  1.00  0.00     0.167 HD
ATOM     59  C   UNL     1       7.986 -11.838  10.599  1.00  0.00     0.074 A 
ATOM     60  C   UNL     1       9.121 -11.131  11.158  1.00  0.00     0.031 C 
ATOM     61  C   UNL     1       7.465 -12.977  11.121  1.00  0.00     0.034 A 
BRANCH  48  62
ATOM     62  C   UNL     1       2.688 -15.261   7.876  1.00  0.00     0.023 A 
ATOM     63  C   UNL     1       2.639 -16.149   6.787  1.00  0.00     0.031 A 
ATOM     64  C   UNL     1       1.651 -15.325   8.822  1.00  0.00     0.131 A 
ATOM     65  C   UNL     1       1.532 -16.993   6.619  1.00  0.00     0.055 A 
ATOM     66  C   UNL     1       0.594 -16.230   8.696  1.00  0.00     0.041 A 
ATOM     67  F   UNL     1       1.633 -14.493   9.875  1.00  0.00    -0.206 F 
ATOM     68  C   UNL     1       0.520 -17.058   7.579  1.00  0.00     0.022 A 
BRANCH  65  69
ATOM     69  S   UNL     1       1.357 -17.886   5.050  1.00  0.00     0.124 S 
ATOM     70  O   UNL     1       1.294 -16.785   4.092  1.00  0.00    -0.237 OA
ATOM     71  O   UNL     1       2.568 -18.697   5.011  1.00  0.00    -0.237 OA
ATOM     72  O   UNL     1       0.111 -18.631   5.216  1.00  0.00    -0.744 OA
ENDBRANCH  65  69
ENDBRANCH  48  62
BRANCH  49  73
ATOM     73  C   UNL     1       9.398  -7.864   8.513  1.00  0.00     0.023 A 
ATOM     74  C   UNL     1      10.779  -8.078   8.380  1.00  0.00     0.031 A 
ATOM     75  C   UNL     1       8.955  -6.564   8.811  1.00  0.00     0.131 A 
ATOM     76  C   UNL     1      11.674  -7.019   8.592  1.00  0.00     0.055 A 
ATOM     77  C   UNL     1       9.848  -5.504   8.979  1.00  0.00     0.041 A 
ATOM     78  F   UNL     1       7.643  -6.305   8.933  1.00  0.00    -0.206 F 
ATOM     79  C   UNL     1      11.217  -5.731   8.882  1.00  0.00     0.022 A 
BRANCH  76  80
ATOM     80  S   UNL     1      13.454  -7.366   8.550  1.00  0.00     0.124 S 
ATOM     81  O   UNL     1      13.586  -8.380   9.589  1.00  0.00    -0.237 OA
ATOM     82  O   UNL     1      13.640  -7.825   7.177  1.00  0.00    -0.237 OA
ATOM     83  O   UNL     1      14.060  -6.072   8.859  1.00  0.00    -0.744 OA
ENDBRANCH  76  80
ENDBRANCH  49  73
BRANCH  61  84
ATOM     84  C   UNL     1       8.155 -13.538  12.338  1.00  0.00     0.023 A 
ATOM     85  C   UNL     1       8.119 -12.872  13.576  1.00  0.00     0.031 A 
ATOM     86  C   UNL     1       8.891 -14.731  12.247  1.00  0.00     0.131 A 
ATOM     87  C   UNL     1       8.860 -13.370  14.658  1.00  0.00     0.055 A 
ATOM     88  C   UNL     1       9.583 -15.251  13.341  1.00  0.00     0.041 A 
ATOM     89  F   UNL     1       8.959 -15.404  11.087  1.00  0.00    -0.206 F 
ATOM     90  C   UNL     1       9.583 -14.562  14.551  1.00  0.00     0.022 A 
BRANCH  87  91
ATOM     91  S   UNL     1       8.951 -12.385  16.178  1.00  0.00     0.124 S 
ATOM     92  O   UNL     1       9.459 -11.108  15.685  1.00  0.00    -0.237 OA
ATOM     93  O   UNL     1       7.565 -12.387  16.634  1.00  0.00    -0.237 OA
ATOM     94  O   UNL     1       9.881 -13.137  17.019  1.00  0.00    -0.744 OA
ENDBRANCH  87  91
ENDBRANCH  61  84
ENDBRANCH  35  36
ENDBRANCH  27  30
ENDBRANCH  25  26
ENDBRANCH   1  25
TORSDOF 15
