REMARK SMILES Cc1nn(C)c(=O)c(C(=O)N2CCCC[C@H]2C(=O)NCCCNC(=O)c2ccc(-c3c4nc(c(-c5cc(S(=O)(=O)[O-])ccc5F)c5ccc([nH]5)c(-c5cc(S(=O)(=O)[O-])ccc5F)c5nc(c(-c6cc(S(=O)(=O)[O-])ccc6F)c6ccc3[nH]6)C=C5)C=C4)cc2)c1C
REMARK SMILES IDX 21 1 20 2 19 3 17 4 18 5 16 7 11 8 12 9 13 10 15 11 14 12
REMARK SMILES IDX 9 13 10 14 8 15 1 16 2 17 3 18 89 19 4 20 90 21 5 22 6 23
REMARK SMILES IDX 7 24 22 25 23 26 24 27 25 29 26 30 27 31 88 32 28 33 87 34
REMARK SMILES IDX 29 35 30 36 31 37 81 38 32 39 86 40 80 41 82 42 33 43 85 44
REMARK SMILES IDX 79 45 78 46 34 48 66 49 46 50 65 51 47 52 50 53 64 54 83 55
REMARK SMILES IDX 48 56 49 57 63 59 84 60 51 61 35 62 36 63 44 64 37 65 43 66
REMARK SMILES IDX 45 67 42 68 38 69 39 70 40 71 41 72 67 73 68 74 76 75 69 76
REMARK SMILES IDX 75 77 77 78 74 79 70 80 71 81 72 82 73 83 52 84 53 85 61 86
REMARK SMILES IDX 54 87 60 88 62 89 59 90 55 91 56 92 57 93 58 94
REMARK H PARENT 19 6 23 28 82 47 50 58
REMARK Flexibility Score: inf
ROOT
ATOM      1  C   UNL     1      -0.963   3.132  -6.930  1.00  0.00     0.042 C 
ENDROOT
BRANCH   1   2
ATOM      2  C   UNL     1      -0.081   2.422  -5.896  1.00  0.00     0.117 C 
BRANCH   2   3
ATOM      3  N   UNL     1      -0.827   2.179  -4.678  1.00  0.00    -0.354 N 
ATOM      4  C   UNL     1      -1.667   1.163  -4.340  1.00  0.00     0.242 C 
ATOM      5  O   UNL     1      -2.559   1.475  -3.546  1.00  0.00    -0.273 OA
ATOM      6  H   UNL     1      -0.707   2.863  -3.979  1.00  0.00     0.163 HD
BRANCH   4   7
ATOM      7  C   UNL     1      -1.462  -0.299  -4.849  1.00  0.00     0.174 C 
ATOM      8  N   UNL     1      -2.342  -1.271  -4.126  1.00  0.00    -0.326 N 
ATOM      9  C   UNL     1      -3.777  -1.172  -4.437  1.00  0.00     0.120 C 
ATOM     10  C   UNL     1      -4.061  -1.236  -5.931  1.00  0.00     0.022 C 
ATOM     11  C   UNL     1      -1.725  -0.455  -6.358  1.00  0.00     0.035 C 
ATOM     12  C   UNL     1      -3.199  -0.247  -6.702  1.00  0.00     0.004 C 
BRANCH   8  13
ATOM     13  C   UNL     1      -1.976  -2.248  -3.206  1.00  0.00     0.260 C 
ATOM     14  O   UNL     1      -2.754  -3.156  -2.894  1.00  0.00    -0.269 OA
BRANCH  13  15
ATOM     15  C   UNL     1      -0.677  -2.209  -2.465  1.00  0.00     0.111 A 
ATOM     16  C   UNL     1       1.336  -0.210   0.030  1.00  0.00     0.069 C 
ATOM     17  C   UNL     1       0.755  -1.402  -0.697  1.00  0.00     0.062 A 
ATOM     18  N   UNL     1       1.276  -2.554  -0.428  1.00  0.00    -0.175 NA
ATOM     19  C   UNL     1      -0.396  -1.196  -1.622  1.00  0.00    -0.010 A 
ATOM     20  N   UNL     1       0.831  -3.626  -1.149  1.00  0.00    -0.232 N 
ATOM     21  C   UNL     1      -1.226   0.019  -1.363  1.00  0.00     0.047 C 
ATOM     22  C   UNL     1       1.306  -4.921  -0.694  1.00  0.00     0.178 C 
ATOM     23  C   UNL     1       0.063  -3.506  -2.305  1.00  0.00     0.279 A 
ATOM     24  O   UNL     1      -0.055  -4.409  -3.131  1.00  0.00    -0.267 OA
ENDBRANCH  13  15
ENDBRANCH   8  13
ENDBRANCH   4   7
ENDBRANCH   2   3
ENDBRANCH   1   2
BRANCH   1  25
ATOM     25  C   UNL     1      -1.468   4.505  -6.474  1.00  0.00     0.118 C 
BRANCH  25  26
ATOM     26  N   UNL     1      -0.383   5.463  -6.335  1.00  0.00    -0.352 N 
ATOM     27  C   UNL     1      -0.160   6.628  -7.027  1.00  0.00     0.251 C 
ATOM     28  H   UNL     1       0.286   5.245  -5.647  1.00  0.00     0.163 HD
ATOM     29  O   UNL     1       0.941   7.163  -6.963  1.00  0.00    -0.269 OA
BRANCH  27  30
ATOM     30  C   UNL     1      -1.239   7.224  -7.844  1.00  0.00     0.039 A 
ATOM     31  C   UNL     1      -0.935   7.705  -9.120  1.00  0.00     0.014 A 
ATOM     32  C   UNL     1      -2.535   7.352  -7.334  1.00  0.00     0.014 A 
ATOM     33  C   UNL     1      -1.942   8.276  -9.902  1.00  0.00     0.010 A 
ATOM     34  C   UNL     1      -3.550   7.870  -8.137  1.00  0.00     0.010 A 
ATOM     35  C   UNL     1      -3.261   8.346  -9.425  1.00  0.00    -0.014 A 
BRANCH  35  36
ATOM     36  C   UNL     1      -4.342   8.945 -10.248  1.00  0.00     0.031 A 
ATOM     37  C   UNL     1      -4.987  10.234  -9.816  1.00  0.00     0.074 A 
ATOM     38  C   UNL     1      -4.758   8.319 -11.366  1.00  0.00     0.049 A 
ATOM     39  N   UNL     1      -5.982  10.883 -10.361  1.00  0.00    -0.248 NA
ATOM     40  C   UNL     1      -4.453  10.866  -8.599  1.00  0.00     0.031 C 
ATOM     41  C   UNL     1      -4.215   7.059 -11.879  1.00  0.00     0.029 A 
ATOM     42  N   UNL     1      -5.728   8.657 -12.276  1.00  0.00    -0.354 N 
ATOM     43  C   UNL     1      -6.196  11.996  -9.556  1.00  0.00     0.074 A 
ATOM     44  C   UNL     1      -5.264  11.903  -8.453  1.00  0.00     0.031 C 
ATOM     45  C   UNL     1      -4.836   6.750 -13.029  1.00  0.00     0.029 A 
ATOM     46  C   UNL     1      -5.848   7.762 -13.314  1.00  0.00     0.049 A 
ATOM     47  H   UNL     1      -6.285   9.464 -12.194  1.00  0.00     0.167 HD
ATOM     48  C   UNL     1      -7.072  13.014  -9.733  1.00  0.00     0.034 A 
ATOM     49  C   UNL     1      -6.683   7.756 -14.372  1.00  0.00     0.034 A 
ATOM     50  C   UNL     1      -7.984  13.106 -10.845  1.00  0.00     0.049 A 
ATOM     51  C   UNL     1      -7.679   8.875 -14.524  1.00  0.00     0.074 A 
ATOM     52  C   UNL     1      -8.891  14.110 -11.134  1.00  0.00     0.029 A 
ATOM     53  N   UNL     1      -8.102  12.160 -11.854  1.00  0.00    -0.354 N 
ATOM     54  N   UNL     1      -7.869   9.918 -13.749  1.00  0.00    -0.248 NA
ATOM     55  C   UNL     1      -8.573   8.817 -15.688  1.00  0.00     0.031 C 
ATOM     56  C   UNL     1      -9.595  13.746 -12.286  1.00  0.00     0.029 A 
ATOM     57  C   UNL     1      -9.084  12.545 -12.752  1.00  0.00     0.049 A 
ATOM     58  H   UNL     1      -7.568  11.336 -11.921  1.00  0.00     0.167 HD
ATOM     59  C   UNL     1      -8.893  10.649 -14.343  1.00  0.00     0.074 A 
ATOM     60  C   UNL     1      -9.274   9.934 -15.544  1.00  0.00     0.031 C 
ATOM     61  C   UNL     1      -9.462  11.810 -13.935  1.00  0.00     0.034 A 
BRANCH  48  62
ATOM     62  C   UNL     1      -7.092  14.106  -8.695  1.00  0.00     0.023 A 
ATOM     63  C   UNL     1      -6.005  14.982  -8.534  1.00  0.00     0.031 A 
ATOM     64  C   UNL     1      -8.213  14.282  -7.866  1.00  0.00     0.131 A 
ATOM     65  C   UNL     1      -6.042  15.964  -7.533  1.00  0.00     0.055 A 
ATOM     66  C   UNL     1      -8.271  15.303  -6.916  1.00  0.00     0.041 A 
ATOM     67  F   UNL     1      -9.272  13.462  -7.965  1.00  0.00    -0.206 F 
ATOM     68  C   UNL     1      -7.177  16.146  -6.739  1.00  0.00     0.022 A 
BRANCH  65  69
ATOM     69  S   UNL     1      -4.550  16.947  -7.225  1.00  0.00     0.124 S 
ATOM     70  O   UNL     1      -3.619  15.926  -6.751  1.00  0.00    -0.237 OA
ATOM     71  O   UNL     1      -4.264  17.511  -8.539  1.00  0.00    -0.237 OA
ATOM     72  O   UNL     1      -4.978  17.910  -6.213  1.00  0.00    -0.744 OA
ENDBRANCH  65  69
ENDBRANCH  48  62
BRANCH  49  73
ATOM     73  C   UNL     1      -6.614   6.654 -15.371  1.00  0.00     0.023 A 
ATOM     74  C   UNL     1      -6.150   6.892 -16.674  1.00  0.00     0.031 A 
ATOM     75  C   UNL     1      -7.009   5.347 -15.036  1.00  0.00     0.131 A 
ATOM     76  C   UNL     1      -6.114   5.842 -17.604  1.00  0.00     0.055 A 
ATOM     77  C   UNL     1      -6.935   4.298 -15.953  1.00  0.00     0.041 A 
ATOM     78  F   UNL     1      -7.449   5.068 -13.799  1.00  0.00    -0.206 F 
ATOM     79  C   UNL     1      -6.491   4.544 -17.249  1.00  0.00     0.022 A 
BRANCH  76  80
ATOM     80  S   UNL     1      -5.587   6.201 -19.302  1.00  0.00     0.124 S 
ATOM     81  O   UNL     1      -6.634   7.110 -19.751  1.00  0.00    -0.237 OA
ATOM     82  O   UNL     1      -4.269   6.791 -19.094  1.00  0.00    -0.237 OA
ATOM     83  O   UNL     1      -5.583   4.886 -19.941  1.00  0.00    -0.744 OA
ENDBRANCH  76  80
ENDBRANCH  49  73
BRANCH  61  84
ATOM     84  C   UNL     1     -10.546  12.392 -14.803  1.00  0.00     0.023 A 
ATOM     85  C   UNL     1     -11.818  11.803 -14.877  1.00  0.00     0.031 A 
ATOM     86  C   UNL     1     -10.313  13.574 -15.528  1.00  0.00     0.131 A 
ATOM     87  C   UNL     1     -12.807  12.384 -15.686  1.00  0.00     0.055 A 
ATOM     88  C   UNL     1     -11.314  14.172 -16.294  1.00  0.00     0.041 A 
ATOM     89  F   UNL     1      -9.113  14.175 -15.486  1.00  0.00    -0.206 F 
ATOM     90  C   UNL     1     -12.568  13.573 -16.380  1.00  0.00     0.022 A 
BRANCH  87  91
ATOM     91  S   UNL     1     -14.405  11.543 -15.847  1.00  0.00     0.124 S 
ATOM     92  O   UNL     1     -14.025  10.298 -16.508  1.00  0.00    -0.237 OA
ATOM     93  O   UNL     1     -14.839  11.420 -14.459  1.00  0.00    -0.237 OA
ATOM     94  O   UNL     1     -15.196  12.463 -16.663  1.00  0.00    -0.744 OA
ENDBRANCH  87  91
ENDBRANCH  61  84
ENDBRANCH  35  36
ENDBRANCH  27  30
ENDBRANCH  25  26
ENDBRANCH   1  25
TORSDOF 15
