REMARK SMILES O=C(NCCCNC(=O)c1nccnc1C(=O)Nc1ccc2c(c1)OCO2)c1ccc(-c2c3nc(c(-c4cc(S(=O)(=O)[O-])ccc4F)c4ccc([nH]4)c(-c4cc(S(=O)(=O)[O-])ccc4F)c4nc(c(-c5cc(S(=O)(=O)[O-])ccc5F)c5ccc2[nH]5)C=C4)C=C3)cc1
REMARK SMILES IDX 4 1 3 2 1 3 2 4 28 6 29 7 90 8 30 9 89 10 31 11 32 12 33 13
REMARK SMILES IDX 83 14 34 15 88 16 82 17 84 18 35 19 87 20 81 21 80 22 36 24
REMARK SMILES IDX 68 25 48 26 67 27 49 28 52 29 66 30 85 31 50 32 51 33 65 35
REMARK SMILES IDX 86 36 53 37 37 38 38 39 46 40 39 41 45 42 47 43 44 44 40 45
REMARK SMILES IDX 41 46 42 47 43 48 69 49 70 50 78 51 71 52 77 53 79 54 76 55
REMARK SMILES IDX 72 56 73 57 74 58 75 59 54 60 55 61 63 62 56 63 62 64 64 65
REMARK SMILES IDX 61 66 57 67 58 68 59 69 60 70 5 71 6 72 7 73 8 74 9 76 10 77
REMARK SMILES IDX 11 78 15 79 12 80 14 81 13 82 16 83 17 84 18 85 19 87 20 88
REMARK SMILES IDX 24 89 21 90 23 91 22 92 25 93 27 94 26 95
REMARK H PARENT 3 5 84 23 52 34 7 75 18 86
REMARK Flexibility Score: inf
ROOT
ATOM      1  C   UNL     1       4.384  -1.437  -0.552  1.00  0.00     0.118 C 
ENDROOT
BRANCH   1   2
ATOM      2  N   UNL     1       3.139  -0.721  -0.813  1.00  0.00    -0.352 N 
ATOM      3  O   UNL     1       1.331   0.512  -0.250  1.00  0.00    -0.269 OA
ATOM      4  C   UNL     1       2.495   0.200  -0.021  1.00  0.00     0.251 C 
ATOM      5  H   UNL     1       2.702  -0.925  -1.671  1.00  0.00     0.163 HD
BRANCH   4   6
ATOM      6  C   UNL     1       3.218   0.810   1.115  1.00  0.00     0.039 A 
ATOM      7  C   UNL     1       4.497   1.339   0.924  1.00  0.00     0.014 A 
ATOM      8  C   UNL     1       2.612   0.861   2.374  1.00  0.00     0.014 A 
ATOM      9  C   UNL     1       5.217   1.814   2.016  1.00  0.00     0.010 A 
ATOM     10  C   UNL     1       3.318   1.385   3.460  1.00  0.00     0.010 A 
ATOM     11  C   UNL     1       4.637   1.835   3.294  1.00  0.00    -0.014 A 
BRANCH  11  12
ATOM     12  C   UNL     1       5.434   2.344   4.437  1.00  0.00     0.031 A 
ATOM     13  C   UNL     1       5.957   1.404   5.486  1.00  0.00     0.074 A 
ATOM     14  C   UNL     1       5.725   3.656   4.493  1.00  0.00     0.049 A 
ATOM     15  N   UNL     1       6.735   1.657   6.508  1.00  0.00    -0.248 NA
ATOM     16  C   UNL     1       5.545  -0.003   5.378  1.00  0.00     0.031 C 
ATOM     17  C   UNL     1       5.259   4.662   3.536  1.00  0.00     0.029 A 
ATOM     18  N   UNL     1       6.498   4.365   5.374  1.00  0.00    -0.354 N 
ATOM     19  C   UNL     1       6.899   0.447   7.172  1.00  0.00     0.074 A 
ATOM     20  C   UNL     1       6.112  -0.534   6.452  1.00  0.00     0.031 C 
ATOM     21  C   UNL     1       5.788   5.852   3.860  1.00  0.00     0.029 A 
ATOM     22  C   UNL     1       6.603   5.699   5.061  1.00  0.00     0.049 A 
ATOM     23  H   UNL     1       6.936   3.959   6.156  1.00  0.00     0.167 HD
ATOM     24  C   UNL     1       7.642   0.178   8.275  1.00  0.00     0.034 A 
ATOM     25  C   UNL     1       7.282   6.688   5.671  1.00  0.00     0.034 A 
ATOM     26  C   UNL     1       8.427   1.164   8.979  1.00  0.00     0.049 A 
ATOM     27  C   UNL     1       8.099   6.366   6.890  1.00  0.00     0.074 A 
ATOM     28  C   UNL     1       9.247   0.993  10.082  1.00  0.00     0.029 A 
ATOM     29  N   UNL     1       8.482   2.514   8.653  1.00  0.00    -0.354 N 
ATOM     30  N   UNL     1       8.262   5.211   7.492  1.00  0.00    -0.248 NA
ATOM     31  C   UNL     1       8.827   7.481   7.506  1.00  0.00     0.031 C 
ATOM     32  C   UNL     1       9.760   2.244  10.449  1.00  0.00     0.029 A 
ATOM     33  C   UNL     1       9.301   3.189   9.546  1.00  0.00     0.049 A 
ATOM     34  H   UNL     1       8.009   2.930   7.897  1.00  0.00     0.167 HD
ATOM     35  C   UNL     1       9.119   5.460   8.557  1.00  0.00     0.074 A 
ATOM     36  C   UNL     1       9.451   6.871   8.504  1.00  0.00     0.031 C 
ATOM     37  C   UNL     1       9.594   4.601   9.494  1.00  0.00     0.034 A 
BRANCH  24  38
ATOM     38  C   UNL     1       7.596  -1.232   8.807  1.00  0.00     0.023 A 
ATOM     39  C   UNL     1       8.142  -2.312   8.090  1.00  0.00     0.031 A 
ATOM     40  C   UNL     1       6.961  -1.506  10.031  1.00  0.00     0.131 A 
ATOM     41  C   UNL     1       7.984  -3.621   8.570  1.00  0.00     0.055 A 
ATOM     42  C   UNL     1       6.865  -2.804  10.535  1.00  0.00     0.041 A 
ATOM     43  F   UNL     1       6.405  -0.516  10.748  1.00  0.00    -0.206 F 
ATOM     44  C   UNL     1       7.366  -3.873   9.797  1.00  0.00     0.022 A 
BRANCH  41  45
ATOM     45  S   UNL     1       8.480  -5.004   7.504  1.00  0.00     0.124 S 
ATOM     46  O   UNL     1       7.693  -4.750   6.299  1.00  0.00    -0.237 OA
ATOM     47  O   UNL     1       9.919  -4.806   7.380  1.00  0.00    -0.237 OA
ATOM     48  O   UNL     1       8.075  -6.185   8.263  1.00  0.00    -0.744 OA
ENDBRANCH  41  45
ENDBRANCH  24  38
BRANCH  25  49
ATOM     49  C   UNL     1       7.208   8.074   5.142  1.00  0.00     0.023 A 
ATOM     50  C   UNL     1       8.309   8.665   4.507  1.00  0.00     0.031 A 
ATOM     51  C   UNL     1       6.027   8.825   5.269  1.00  0.00     0.131 A 
ATOM     52  C   UNL     1       8.215   9.985   4.040  1.00  0.00     0.055 A 
ATOM     53  C   UNL     1       5.928  10.125   4.775  1.00  0.00     0.041 A 
ATOM     54  F   UNL     1       4.945   8.292   5.860  1.00  0.00    -0.206 F 
ATOM     55  C   UNL     1       7.029  10.715   4.162  1.00  0.00     0.022 A 
BRANCH  52  56
ATOM     56  S   UNL     1       9.681  10.751   3.297  1.00  0.00     0.124 S 
ATOM     57  O   UNL     1      10.640  10.688   4.394  1.00  0.00    -0.237 OA
ATOM     58  O   UNL     1       9.943   9.869   2.164  1.00  0.00    -0.237 OA
ATOM     59  O   UNL     1       9.223  12.093   2.945  1.00  0.00    -0.744 OA
ENDBRANCH  52  56
ENDBRANCH  25  49
BRANCH  37  60
ATOM     60  C   UNL     1      10.532   5.180  10.517  1.00  0.00     0.023 A 
ATOM     61  C   UNL     1      10.070   6.041  11.527  1.00  0.00     0.031 A 
ATOM     62  C   UNL     1      11.908   4.903  10.453  1.00  0.00     0.131 A 
ATOM     63  C   UNL     1      10.985   6.637  12.407  1.00  0.00     0.055 A 
ATOM     64  C   UNL     1      12.809   5.466  11.357  1.00  0.00     0.041 A 
ATOM     65  F   UNL     1      12.397   4.089   9.504  1.00  0.00    -0.206 F 
ATOM     66  C   UNL     1      12.351   6.348  12.333  1.00  0.00     0.022 A 
BRANCH  63  67
ATOM     67  S   UNL     1      10.378   7.862  13.598  1.00  0.00     0.124 S 
ATOM     68  O   UNL     1       9.751   8.851  12.727  1.00  0.00    -0.237 OA
ATOM     69  O   UNL     1       9.471   7.072  14.423  1.00  0.00    -0.237 OA
ATOM     70  O   UNL     1      11.593   8.315  14.274  1.00  0.00    -0.744 OA
ENDBRANCH  63  67
ENDBRANCH  37  60
ENDBRANCH  11  12
ENDBRANCH   4   6
ENDBRANCH   1   2
BRANCH   1  71
ATOM     71  C   UNL     1       4.143  -2.937  -0.427  1.00  0.00     0.042 C 
BRANCH  71  72
ATOM     72  C   UNL     1       3.936  -3.609  -1.779  1.00  0.00     0.118 C 
BRANCH  72  73
ATOM     73  N   UNL     1       5.175  -4.115  -2.329  1.00  0.00    -0.351 N 
ATOM     74  C   UNL     1       5.296  -4.426  -3.667  1.00  0.00     0.272 C 
ATOM     75  H   UNL     1       5.950  -4.240  -1.735  1.00  0.00     0.163 HD
ATOM     76  O   UNL     1       4.548  -4.047  -4.560  1.00  0.00    -0.267 OA
BRANCH  74  77
ATOM     77  C   UNL     1       6.361  -5.408  -3.957  1.00  0.00     0.159 A 
ATOM     78  N   UNL     1       6.019  -6.705  -3.703  1.00  0.00    -0.247 NA
ATOM     79  C   UNL     1       7.633  -5.039  -4.366  1.00  0.00     0.159 A 
ATOM     80  C   UNL     1       7.012  -7.602  -3.863  1.00  0.00     0.132 A 
ATOM     81  N   UNL     1       8.631  -5.949  -4.546  1.00  0.00    -0.247 NA
ATOM     82  C   UNL     1       8.288  -7.232  -4.267  1.00  0.00     0.132 A 
BRANCH  79  83
ATOM     83  C   UNL     1       7.966  -3.606  -4.480  1.00  0.00     0.276 C 
ATOM     84  O   UNL     1       8.535  -3.055  -3.547  1.00  0.00    -0.267 OA
ATOM     85  N   UNL     1       7.458  -3.009  -5.617  1.00  0.00    -0.320 N 
ATOM     86  H   UNL     1       7.636  -3.435  -6.487  1.00  0.00     0.170 HD
BRANCH  85  87
ATOM     87  C   UNL     1       6.697  -1.818  -5.600  1.00  0.00     0.045 A 
ATOM     88  C   UNL     1       6.481  -1.074  -4.421  1.00  0.00     0.030 A 
ATOM     89  C   UNL     1       5.972  -1.517  -6.760  1.00  0.00     0.076 A 
ATOM     90  C   UNL     1       5.479  -0.101  -4.362  1.00  0.00     0.053 A 
ATOM     91  C   UNL     1       4.978  -0.567  -6.664  1.00  0.00     0.167 A 
ATOM     92  C   UNL     1       4.724   0.106  -5.492  1.00  0.00     0.165 A 
ATOM     93  O   UNL     1       4.105  -0.232  -7.653  1.00  0.00    -0.454 OA
ATOM     94  O   UNL     1       3.653   0.936  -5.592  1.00  0.00    -0.454 OA
ATOM     95  C   UNL     1       3.207   0.635  -6.928  1.00  0.00     0.468 C 
ENDBRANCH  85  87
ENDBRANCH  79  83
ENDBRANCH  74  77
ENDBRANCH  72  73
ENDBRANCH  71  72
ENDBRANCH   1  71
TORSDOF 15
