REMARK SMILES Cc1ccc(Br)cc1S(=O)(=O)N[C@H]1C=C[C@H](C(=O)NCCCNC(=O)c2ccc(-c3c4nc(c(-c5cc(S(=O)(=O)[O-])ccc5F)c5ccc([nH]5)c(-c5cc(S(=O)(=O)[O-])ccc5F)c5nc(c(-c6cc(S(=O)(=O)[O-])ccc6F)c6ccc3[nH]6)C=C5)C=C4)cc2)C1
REMARK SMILES IDX 21 1 20 2 19 3 17 4 18 5 16 7 13 8 14 9 89 10 15 11 12 12
REMARK SMILES IDX 9 14 10 15 11 16 8 17 1 18 2 19 3 20 4 21 7 22 5 23 6 24
REMARK SMILES IDX 22 25 23 26 24 27 25 29 26 30 27 31 88 32 28 33 87 34 29 35
REMARK SMILES IDX 30 36 31 37 81 38 32 39 86 40 80 41 82 42 33 43 85 44 79 45
REMARK SMILES IDX 78 46 34 48 66 49 46 50 65 51 47 52 50 53 64 54 83 55 48 56
REMARK SMILES IDX 49 57 63 59 84 60 51 61 35 62 36 63 44 64 37 65 43 66 45 67
REMARK SMILES IDX 42 68 38 69 39 70 40 71 41 72 67 73 68 74 76 75 69 76 75 77
REMARK SMILES IDX 77 78 74 79 70 80 71 81 72 82 73 83 52 84 53 85 61 86 54 87
REMARK SMILES IDX 60 88 62 89 59 90 55 91 56 92 57 93 58 94
REMARK H PARENT 19 6 12 13 23 28 82 47 50 58
REMARK Flexibility Score: inf
ROOT
ATOM      1  C   UNL     1       3.403   1.322  -4.546  1.00  0.00     0.042 C 
ENDROOT
BRANCH   1   2
ATOM      2  C   UNL     1       3.249   0.005  -3.798  1.00  0.00     0.117 C 
BRANCH   2   3
ATOM      3  N   UNL     1       4.362  -0.895  -4.049  1.00  0.00    -0.356 N 
ATOM      4  C   UNL     1       5.531  -1.174  -3.426  1.00  0.00     0.226 C 
ATOM      5  O   UNL     1       6.298  -1.923  -4.046  1.00  0.00    -0.274 OA
ATOM      6  H   UNL     1       4.236  -1.429  -4.866  1.00  0.00     0.163 HD
BRANCH   4   7
ATOM      7  C   UNL     1       5.977  -0.636  -2.063  1.00  0.00     0.103 C 
ATOM      8  C   UNL     1       4.995   1.411  -1.178  1.00  0.00     0.093 C 
ATOM      9  C   UNL     1       6.400   1.639  -1.633  1.00  0.00    -0.011 C 
ATOM     10  C   UNL     1       4.961  -0.119  -1.062  1.00  0.00     0.042 C 
ATOM     11  C   UNL     1       6.922   0.526  -2.165  1.00  0.00    -0.016 C 
BRANCH   8  12
ATOM     12  N   UNL     1       4.757   2.013   0.119  1.00  0.00    -0.204 NA
ATOM     13  H   UNL     1       4.980   1.307   0.821  1.00  0.00     0.142 HD
BRANCH  12  14
ATOM     14  S   UNL     1       3.223   2.597   0.480  1.00  0.00     0.241 S 
ATOM     15  O   UNL     1       2.797   3.374  -0.667  1.00  0.00    -0.207 OA
ATOM     16  O   UNL     1       3.288   3.170   1.801  1.00  0.00    -0.207 OA
BRANCH  14  17
ATOM     17  C   UNL     1       2.186   1.146   0.577  1.00  0.00     0.086 A 
ATOM     18  C   UNL     1       3.712  -0.111   2.241  1.00  0.00     0.046 C 
ATOM     19  C   UNL     1       2.529   0.002   1.321  1.00  0.00    -0.031 A 
ATOM     20  C   UNL     1       1.690  -1.126   1.230  1.00  0.00     0.006 A 
ATOM     21  C   UNL     1       0.518  -1.101   0.471  1.00  0.00     0.016 A 
ATOM     22  C   UNL     1       0.993   1.177  -0.168  1.00  0.00     0.037 A 
ATOM     23  C   UNL     1       0.163   0.060  -0.204  1.00  0.00     0.019 A 
ATOM     24  Br  UNL     1      -1.458   0.119  -1.173  1.00  0.00    -0.051 Br
ENDBRANCH  14  17
ENDBRANCH  12  14
ENDBRANCH   8  12
ENDBRANCH   4   7
ENDBRANCH   2   3
ENDBRANCH   1   2
BRANCH   1  25
ATOM     25  C   UNL     1       3.238   1.172  -6.053  1.00  0.00     0.118 C 
BRANCH  25  26
ATOM     26  N   UNL     1       1.878   0.799  -6.422  1.00  0.00    -0.352 N 
ATOM     27  C   UNL     1       0.936   1.495  -7.140  1.00  0.00     0.251 C 
ATOM     28  H   UNL     1       1.590  -0.089  -6.109  1.00  0.00     0.163 HD
ATOM     29  O   UNL     1      -0.228   1.105  -7.138  1.00  0.00    -0.269 OA
BRANCH  27  30
ATOM     30  C   UNL     1       1.319   2.708  -7.895  1.00  0.00     0.039 A 
ATOM     31  C   UNL     1       0.455   3.807  -7.905  1.00  0.00     0.014 A 
ATOM     32  C   UNL     1       2.515   2.753  -8.615  1.00  0.00     0.014 A 
ATOM     33  C   UNL     1       0.821   4.970  -8.588  1.00  0.00     0.010 A 
ATOM     34  C   UNL     1       2.919   3.940  -9.214  1.00  0.00     0.010 A 
ATOM     35  C   UNL     1       2.071   5.057  -9.221  1.00  0.00    -0.014 A 
BRANCH  35  36
ATOM     36  C   UNL     1       2.505   6.288  -9.932  1.00  0.00     0.031 A 
ATOM     37  C   UNL     1       2.792   6.230 -11.410  1.00  0.00     0.074 A 
ATOM     38  C   UNL     1       2.721   7.423  -9.240  1.00  0.00     0.049 A 
ATOM     39  N   UNL     1       3.310   7.142 -12.192  1.00  0.00    -0.248 NA
ATOM     40  C   UNL     1       2.501   4.956 -12.085  1.00  0.00     0.031 C 
ATOM     41  C   UNL     1       2.524   7.587  -7.798  1.00  0.00     0.029 A 
ATOM     42  N   UNL     1       3.167   8.652  -9.655  1.00  0.00    -0.354 N 
ATOM     43  C   UNL     1       3.441   6.539 -13.440  1.00  0.00     0.074 A 
ATOM     44  C   UNL     1       3.003   5.168 -13.291  1.00  0.00     0.031 C 
ATOM     45  C   UNL     1       2.824   8.850  -7.454  1.00  0.00     0.029 A 
ATOM     46  C   UNL     1       3.276   9.573  -8.638  1.00  0.00     0.049 A 
ATOM     47  H   UNL     1       3.389   8.857 -10.592  1.00  0.00     0.167 HD
ATOM     48  C   UNL     1       3.867   7.086 -14.606  1.00  0.00     0.034 A 
ATOM     49  C   UNL     1       3.702  10.851  -8.659  1.00  0.00     0.034 A 
ATOM     50  C   UNL     1       4.256   8.468 -14.742  1.00  0.00     0.049 A 
ATOM     51  C   UNL     1       4.142  11.447  -9.971  1.00  0.00     0.074 A 
ATOM     52  C   UNL     1       4.631   9.152 -15.886  1.00  0.00     0.029 A 
ATOM     53  N   UNL     1       4.318   9.381 -13.697  1.00  0.00    -0.354 N 
ATOM     54  N   UNL     1       4.219  10.878 -11.152  1.00  0.00    -0.248 NA
ATOM     55  C   UNL     1       4.540  12.860  -9.954  1.00  0.00     0.031 C 
ATOM     56  C   UNL     1       4.967  10.462 -15.523  1.00  0.00     0.029 A 
ATOM     57  C   UNL     1       4.742  10.615 -14.164  1.00  0.00     0.049 A 
ATOM     58  H   UNL     1       4.092   9.181 -12.759  1.00  0.00     0.167 HD
ATOM     59  C   UNL     1       4.649  11.874 -12.024  1.00  0.00     0.074 A 
ATOM     60  C   UNL     1       4.800  13.079 -11.235  1.00  0.00     0.031 C 
ATOM     61  C   UNL     1       4.894  11.802 -13.357  1.00  0.00     0.034 A 
BRANCH  48  62
ATOM     62  C   UNL     1       3.950   6.176 -15.810  1.00  0.00     0.023 A 
ATOM     63  C   UNL     1       2.811   5.547 -16.343  1.00  0.00     0.031 A 
ATOM     64  C   UNL     1       5.193   5.897 -16.406  1.00  0.00     0.131 A 
ATOM     65  C   UNL     1       2.948   4.604 -17.372  1.00  0.00     0.055 A 
ATOM     66  C   UNL     1       5.311   5.023 -17.489  1.00  0.00     0.041 A 
ATOM     67  F   UNL     1       6.319   6.452 -15.931  1.00  0.00    -0.206 F 
ATOM     68  C   UNL     1       4.186   4.356 -17.967  1.00  0.00     0.022 A 
BRANCH  65  69
ATOM     69  S   UNL     1       1.508   3.594 -17.816  1.00  0.00     0.124 S 
ATOM     70  O   UNL     1       1.218   2.925 -16.550  1.00  0.00    -0.237 OA
ATOM     71  O   UNL     1       0.539   4.596 -18.245  1.00  0.00    -0.237 OA
ATOM     72  O   UNL     1       2.013   2.721 -18.873  1.00  0.00    -0.744 OA
ENDBRANCH  65  69
ENDBRANCH  48  62
BRANCH  49  73
ATOM     73  C   UNL     1       3.732  11.657  -7.407  1.00  0.00     0.023 A 
ATOM     74  C   UNL     1       2.878  12.759  -7.241  1.00  0.00     0.031 A 
ATOM     75  C   UNL     1       4.635  11.358  -6.371  1.00  0.00     0.131 A 
ATOM     76  C   UNL     1       2.973  13.550  -6.085  1.00  0.00     0.055 A 
ATOM     77  C   UNL     1       4.693  12.121  -5.203  1.00  0.00     0.041 A 
ATOM     78  F   UNL     1       5.466  10.310  -6.476  1.00  0.00    -0.206 F 
ATOM     79  C   UNL     1       3.867  13.232  -5.060  1.00  0.00     0.022 A 
BRANCH  76  80
ATOM     80  S   UNL     1       1.957  15.048  -5.975  1.00  0.00     0.124 S 
ATOM     81  O   UNL     1       2.383  15.785  -7.159  1.00  0.00    -0.237 OA
ATOM     82  O   UNL     1       0.605  14.501  -6.012  1.00  0.00    -0.237 OA
ATOM     83  O   UNL     1       2.355  15.635  -4.697  1.00  0.00    -0.744 OA
ENDBRANCH  76  80
ENDBRANCH  49  73
BRANCH  61  84
ATOM     84  C   UNL     1       5.305  13.080 -14.042  1.00  0.00     0.023 A 
ATOM     85  C   UNL     1       6.552  13.679 -13.796  1.00  0.00     0.031 A 
ATOM     86  C   UNL     1       4.428  13.712 -14.939  1.00  0.00     0.131 A 
ATOM     87  C   UNL     1       6.867  14.905 -14.401  1.00  0.00     0.055 A 
ATOM     88  C   UNL     1       4.768  14.904 -15.580  1.00  0.00     0.041 A 
ATOM     89  F   UNL     1       3.225  13.180 -15.208  1.00  0.00    -0.206 F 
ATOM     90  C   UNL     1       5.989  15.514 -15.302  1.00  0.00     0.022 A 
BRANCH  87  91
ATOM     91  S   UNL     1       8.407  15.739 -13.930  1.00  0.00     0.124 S 
ATOM     92  O   UNL     1       8.230  15.913 -12.492  1.00  0.00    -0.237 OA
ATOM     93  O   UNL     1       9.422  14.772 -14.335  1.00  0.00    -0.237 OA
ATOM     94  O   UNL     1       8.382  16.974 -14.711  1.00  0.00    -0.744 OA
ENDBRANCH  87  91
ENDBRANCH  61  84
ENDBRANCH  35  36
ENDBRANCH  27  30
ENDBRANCH  25  26
ENDBRANCH   1  25
TORSDOF 16
