REMARK SMILES CC(C)n1c(CCC(=O)NCCCNC(=O)c2ccc(-c3c4nc(c(-c5cc(S(=O)(=O)[O-])ccc5F)c5ccc([nH]5)c(-c5cc(S(=O)(=O)[O-])ccc5F)c5nc(c(-c6cc(S(=O)(=O)[O-])ccc6F)c6ccc3[nH]6)C=C5)C=C4)cc2)ccc1-c1ccc(F)cc1
REMARK SMILES IDX 12 1 11 2 10 3 8 4 9 5 7 7 6 8 5 9 4 10 82 11 80 12 81 13
REMARK SMILES IDX 2 14 1 15 3 16 83 17 84 18 89 19 85 20 88 21 86 22 87 23
REMARK SMILES IDX 13 24 14 25 15 26 16 28 17 29 18 30 79 31 19 32 78 33 20 34
REMARK SMILES IDX 21 35 22 36 72 37 23 38 77 39 71 40 73 41 24 42 76 43 70 44
REMARK SMILES IDX 69 45 25 47 57 48 37 49 56 50 38 51 41 52 55 53 74 54 39 55
REMARK SMILES IDX 40 56 54 58 75 59 42 60 26 61 27 62 35 63 28 64 34 65 36 66
REMARK SMILES IDX 33 67 29 68 30 69 31 70 32 71 58 72 59 73 67 74 60 75 66 76
REMARK SMILES IDX 68 77 65 78 61 79 62 80 63 81 64 82 43 83 44 84 52 85 45 86
REMARK SMILES IDX 51 87 53 88 50 89 46 90 47 91 48 92 49 93
REMARK H PARENT 10 6 14 27 73 46 41 57
REMARK Flexibility Score: inf
ROOT
ATOM      1  C   UNL     1      -0.557   2.491  -1.240  1.00  0.00     0.042 C 
ENDROOT
BRANCH   1   2
ATOM      2  C   UNL     1      -0.736   1.138  -2.025  1.00  0.00     0.117 C 
BRANCH   2   3
ATOM      3  N   UNL     1       0.247   0.061  -1.767  1.00  0.00    -0.356 N 
ATOM      4  C   UNL     1       0.165  -1.252  -1.371  1.00  0.00     0.220 C 
ATOM      5  O   UNL     1       1.180  -1.942  -1.546  1.00  0.00    -0.275 OA
ATOM      6  H   UNL     1       1.176   0.355  -1.913  1.00  0.00     0.163 HD
BRANCH   4   7
ATOM      7  C   UNL     1      -1.053  -1.923  -0.737  1.00  0.00     0.106 C 
BRANCH   7   8
ATOM      8  C   UNL     1      -0.860  -2.350   0.742  1.00  0.00     0.064 C 
BRANCH   8   9
ATOM      9  C   UNL     1      -1.483  -1.368   1.686  1.00  0.00     0.019 A 
ATOM     10  N   UNL     1      -0.792  -0.422   2.433  1.00  0.00    -0.342 N 
ATOM     11  C   UNL     1      -1.745   0.503   2.896  1.00  0.00     0.048 A 
ATOM     12  C   UNL     1      -2.836  -1.202   1.934  1.00  0.00     0.024 A 
ATOM     13  C   UNL     1      -3.004  -0.021   2.681  1.00  0.00     0.029 A 
BRANCH  10  14
ATOM     14  C   UNL     1       0.682  -0.378   2.620  1.00  0.00     0.081 C 
ATOM     15  C   UNL     1       1.507  -0.156   1.340  1.00  0.00     0.031 C 
ATOM     16  C   UNL     1       1.266   0.577   3.686  1.00  0.00     0.031 C 
ENDBRANCH  10  14
BRANCH  11  17
ATOM     17  C   UNL     1      -1.400   1.897   3.055  1.00  0.00    -0.002 A 
ATOM     18  C   UNL     1      -1.866   2.865   3.922  1.00  0.00     0.013 A 
ATOM     19  C   UNL     1      -0.646   2.324   1.980  1.00  0.00     0.013 A 
ATOM     20  C   UNL     1      -1.504   4.179   3.644  1.00  0.00     0.040 A 
ATOM     21  C   UNL     1       0.117   3.437   2.036  1.00  0.00     0.040 A 
ATOM     22  C   UNL     1      -0.668   4.410   2.561  1.00  0.00     0.123 A 
ATOM     23  F   UNL     1      -1.215   5.204   1.630  1.00  0.00    -0.207 F 
ENDBRANCH  11  17
ENDBRANCH   8   9
ENDBRANCH   7   8
ENDBRANCH   4   7
ENDBRANCH   2   3
ENDBRANCH   1   2
BRANCH   1  24
ATOM     24  C   UNL     1       0.272   3.799  -1.589  1.00  0.00     0.118 C 
BRANCH  24  25
ATOM     25  N   UNL     1      -0.487   5.095  -1.328  1.00  0.00    -0.352 N 
ATOM     26  C   UNL     1      -0.263   6.415  -0.892  1.00  0.00     0.251 C 
ATOM     27  H   UNL     1      -1.443   4.968  -1.530  1.00  0.00     0.163 HD
ATOM     28  O   UNL     1      -1.144   7.244  -1.140  1.00  0.00    -0.269 OA
BRANCH  26  29
ATOM     29  C   UNL     1       0.879   6.888  -0.051  1.00  0.00     0.039 A 
ATOM     30  C   UNL     1       1.761   7.918  -0.331  1.00  0.00     0.014 A 
ATOM     31  C   UNL     1       0.781   6.705   1.306  1.00  0.00     0.014 A 
ATOM     32  C   UNL     1       2.804   8.215   0.591  1.00  0.00     0.010 A 
ATOM     33  C   UNL     1       1.869   6.782   2.154  1.00  0.00     0.010 A 
ATOM     34  C   UNL     1       3.012   7.426   1.742  1.00  0.00    -0.014 A 
BRANCH  34  35
ATOM     35  C   UNL     1       4.269   7.418   2.588  1.00  0.00     0.031 A 
ATOM     36  C   UNL     1       4.036   7.112   4.107  1.00  0.00     0.074 A 
ATOM     37  C   UNL     1       5.466   7.675   1.958  1.00  0.00     0.049 A 
ATOM     38  N   UNL     1       4.059   7.912   5.136  1.00  0.00    -0.248 NA
ATOM     39  C   UNL     1       3.483   5.781   4.507  1.00  0.00     0.031 C 
ATOM     40  C   UNL     1       5.689   7.654   0.487  1.00  0.00     0.029 A 
ATOM     41  N   UNL     1       6.737   8.008   2.384  1.00  0.00    -0.354 N 
ATOM     42  C   UNL     1       3.730   7.144   6.292  1.00  0.00     0.074 A 
ATOM     43  C   UNL     1       3.118   5.953   5.785  1.00  0.00     0.031 C 
ATOM     44  C   UNL     1       6.910   8.127   0.152  1.00  0.00     0.029 A 
ATOM     45  C   UNL     1       7.633   8.464   1.359  1.00  0.00     0.049 A 
ATOM     46  H   UNL     1       7.011   7.937   3.328  1.00  0.00     0.167 HD
ATOM     47  C   UNL     1       4.258   7.355   7.548  1.00  0.00     0.034 A 
ATOM     48  C   UNL     1       8.839   9.112   1.482  1.00  0.00     0.034 A 
ATOM     49  C   UNL     1       5.357   8.257   7.399  1.00  0.00     0.049 A 
ATOM     50  C   UNL     1       9.071   9.121   2.928  1.00  0.00     0.074 A 
ATOM     51  C   UNL     1       5.473   9.568   7.026  1.00  0.00     0.029 A 
ATOM     52  N   UNL     1       6.595   7.648   7.288  1.00  0.00    -0.354 N 
ATOM     53  N   UNL     1       9.448   8.094   3.619  1.00  0.00    -0.248 NA
ATOM     54  C   UNL     1       8.826  10.365   3.669  1.00  0.00     0.031 C 
ATOM     55  C   UNL     1       6.598   9.535   6.176  1.00  0.00     0.029 A 
ATOM     56  C   UNL     1       7.287   8.323   6.328  1.00  0.00     0.049 A 
ATOM     57  H   UNL     1       6.914   6.874   7.805  1.00  0.00     0.167 HD
ATOM     58  C   UNL     1       9.149   8.480   4.897  1.00  0.00     0.074 A 
ATOM     59  C   UNL     1       9.101   9.930   4.896  1.00  0.00     0.031 C 
ATOM     60  C   UNL     1       8.377   7.655   5.649  1.00  0.00     0.034 A 
BRANCH  47  61
ATOM     61  C   UNL     1       4.263   6.588   8.874  1.00  0.00     0.023 A 
ATOM     62  C   UNL     1       5.036   7.171   9.924  1.00  0.00     0.031 A 
ATOM     63  C   UNL     1       3.814   5.288   9.120  1.00  0.00     0.131 A 
ATOM     64  C   UNL     1       5.496   6.426  11.019  1.00  0.00     0.055 A 
ATOM     65  C   UNL     1       4.217   4.562  10.258  1.00  0.00     0.041 A 
ATOM     66  F   UNL     1       3.010   4.642   8.271  1.00  0.00    -0.206 F 
ATOM     67  C   UNL     1       5.098   5.110  11.188  1.00  0.00     0.022 A 
BRANCH  64  68
ATOM     68  S   UNL     1       6.771   7.166  12.084  1.00  0.00     0.124 S 
ATOM     69  O   UNL     1       7.799   7.530  11.120  1.00  0.00    -0.237 OA
ATOM     70  O   UNL     1       6.051   8.269  12.706  1.00  0.00    -0.237 OA
ATOM     71  O   UNL     1       7.128   6.068  12.992  1.00  0.00    -0.744 OA
ENDBRANCH  64  68
ENDBRANCH  47  61
BRANCH  48  72
ATOM     72  C   UNL     1       9.915   9.860   0.690  1.00  0.00     0.023 A 
ATOM     73  C   UNL     1       9.957  10.111  -0.692  1.00  0.00     0.031 A 
ATOM     74  C   UNL     1      10.975  10.489   1.432  1.00  0.00     0.131 A 
ATOM     75  C   UNL     1      10.942  11.004  -1.225  1.00  0.00     0.055 A 
ATOM     76  C   UNL     1      11.857  11.438   0.925  1.00  0.00     0.041 A 
ATOM     77  F   UNL     1      11.208  10.217   2.724  1.00  0.00    -0.206 F 
ATOM     78  C   UNL     1      11.835  11.715  -0.416  1.00  0.00     0.022 A 
BRANCH  75  79
ATOM     79  S   UNL     1      11.111  11.300  -3.014  1.00  0.00     0.124 S 
ATOM     80  O   UNL     1      12.054  10.257  -3.403  1.00  0.00    -0.237 OA
ATOM     81  O   UNL     1       9.746  11.147  -3.503  1.00  0.00    -0.237 OA
ATOM     82  O   UNL     1      11.637  12.664  -3.080  1.00  0.00    -0.744 OA
ENDBRANCH  75  79
ENDBRANCH  48  72
BRANCH  60  83
ATOM     83  C   UNL     1       8.496   6.170   5.286  1.00  0.00     0.023 A 
ATOM     84  C   UNL     1       9.765   5.562   5.156  1.00  0.00     0.031 A 
ATOM     85  C   UNL     1       7.404   5.368   4.923  1.00  0.00     0.131 A 
ATOM     86  C   UNL     1       9.904   4.252   4.651  1.00  0.00     0.055 A 
ATOM     87  C   UNL     1       7.533   4.056   4.436  1.00  0.00     0.041 A 
ATOM     88  F   UNL     1       6.165   5.846   5.003  1.00  0.00    -0.206 F 
ATOM     89  C   UNL     1       8.792   3.493   4.293  1.00  0.00     0.022 A 
BRANCH  86  90
ATOM     90  S   UNL     1      11.564   3.539   4.466  1.00  0.00     0.124 S 
ATOM     91  O   UNL     1      12.106   4.276   3.331  1.00  0.00    -0.237 OA
ATOM     92  O   UNL     1      12.176   3.817   5.762  1.00  0.00    -0.237 OA
ATOM     93  O   UNL     1      11.300   2.122   4.210  1.00  0.00    -0.744 OA
ENDBRANCH  86  90
ENDBRANCH  60  83
ENDBRANCH  34  35
ENDBRANCH  26  29
ENDBRANCH  24  25
ENDBRANCH   1  24
TORSDOF 17
