REMARK SMILES Cc1cc(NC(=O)CC2(CC(=O)NCCCNC(=O)c3ccc(-c4c5nc(c(-c6cc(S(=O)(=O)[O-])ccc6F)c6ccc([nH]6)c(-c6cc(S(=O)(=O)[O-])ccc6F)c6nc(c(-c7cc(S(=O)(=O)[O-])ccc7F)c7ccc4[nH]7)C=C6)C=C5)cc3)CCCC2)ccn1
REMARK SMILES IDX 14 1 13 2 11 3 12 4 10 6 9 7 83 8 86 9 84 10 85 11 8 12 6 13
REMARK SMILES IDX 5 14 7 16 4 17 1 18 2 19 3 20 89 21 88 22 87 23 15 24 16 25
REMARK SMILES IDX 17 26 18 27 19 29 20 30 21 31 82 32 22 33 81 34 23 35 24 36
REMARK SMILES IDX 25 37 75 38 26 39 80 40 74 41 76 42 27 43 79 44 73 45 72 46
REMARK SMILES IDX 28 48 60 49 40 50 59 51 41 52 44 53 58 54 77 55 42 56 43 57
REMARK SMILES IDX 57 59 78 60 45 61 29 62 30 63 38 64 31 65 37 66 39 67 36 68
REMARK SMILES IDX 32 69 33 70 34 71 35 72 61 73 62 74 70 75 63 76 69 77 71 78
REMARK SMILES IDX 68 79 64 80 65 81 66 82 67 83 46 84 47 85 55 86 48 87 54 88
REMARK SMILES IDX 56 89 53 90 49 91 50 92 51 93 52 94
REMARK H PARENT 13 5 5 15 17 28 76 47 44 58
REMARK Flexibility Score: inf
ROOT
ATOM      1  C   UNL     1      -6.712   1.493   2.702  1.00  0.00     0.117 C 
ENDROOT
BRANCH   1   2
ATOM      2  N   UNL     1      -6.926   0.115   2.305  1.00  0.00    -0.356 N 
ATOM      3  C   UNL     1      -6.058  -0.924   2.210  1.00  0.00     0.220 C 
ATOM      4  O   UNL     1      -6.507  -2.009   1.835  1.00  0.00    -0.275 OA
ATOM      5  H   UNL     1      -7.855  -0.104   2.064  1.00  0.00     0.163 HD
BRANCH   3   6
ATOM      6  C   UNL     1      -4.597  -0.776   2.608  1.00  0.00     0.107 C 
BRANCH   6   7
ATOM      7  C   UNL     1      -3.550  -0.371   1.520  1.00  0.00    -0.012 C 
ATOM      8  C   UNL     1      -2.155  -0.471   2.189  1.00  0.00     0.008 C 
ATOM      9  C   UNL     1      -3.549   1.136   1.196  1.00  0.00     0.008 C 
ATOM     10  C   UNL     1      -2.010   0.791   3.040  1.00  0.00     0.001 C 
ATOM     11  C   UNL     1      -2.853   1.851   2.346  1.00  0.00     0.001 C 
BRANCH   7  12
ATOM     12  C   UNL     1      -3.743  -1.176   0.199  1.00  0.00     0.108 C 
BRANCH  12  13
ATOM     13  C   UNL     1      -2.852  -2.378  -0.046  1.00  0.00     0.224 C 
ATOM     14  N   UNL     1      -1.572  -2.278  -0.509  1.00  0.00    -0.326 N 
ATOM     15  H   UNL     1      -1.135  -3.148  -0.652  1.00  0.00     0.169 HD
ATOM     16  O   UNL     1      -3.255  -3.513   0.234  1.00  0.00    -0.275 OA
BRANCH  14  17
ATOM     17  C   UNL     1      -0.756  -1.178  -0.822  1.00  0.00     0.044 A 
ATOM     18  C   UNL     1       2.819  -0.239  -0.030  1.00  0.00     0.067 C 
ATOM     19  C   UNL     1       1.417  -0.187  -0.554  1.00  0.00     0.039 A 
ATOM     20  C   UNL     1       0.593  -1.305  -0.482  1.00  0.00     0.049 A 
ATOM     21  N   UNL     1       0.974   1.012  -0.990  1.00  0.00    -0.261 NA
ATOM     22  C   UNL     1      -0.309   1.087  -1.398  1.00  0.00     0.113 A 
ATOM     23  C   UNL     1      -1.199   0.026  -1.346  1.00  0.00     0.046 A 
ENDBRANCH  14  17
ENDBRANCH  12  13
ENDBRANCH   7  12
ENDBRANCH   6   7
ENDBRANCH   3   6
ENDBRANCH   1   2
BRANCH   1  24
ATOM     24  C   UNL     1      -6.887   2.437   1.518  1.00  0.00     0.042 C 
BRANCH  24  25
ATOM     25  C   UNL     1      -8.338   2.654   1.125  1.00  0.00     0.118 C 
BRANCH  25  26
ATOM     26  N   UNL     1      -9.024   3.540   2.047  1.00  0.00    -0.352 N 
ATOM     27  C   UNL     1      -9.398   4.854   1.901  1.00  0.00     0.251 C 
ATOM     28  H   UNL     1      -9.258   3.136   2.914  1.00  0.00     0.163 HD
ATOM     29  O   UNL     1      -9.735   5.486   2.898  1.00  0.00    -0.269 OA
BRANCH  27  30
ATOM     30  C   UNL     1      -9.374   5.516   0.573  1.00  0.00     0.039 A 
ATOM     31  C   UNL     1      -9.018   6.866   0.500  1.00  0.00     0.014 A 
ATOM     32  C   UNL     1      -9.744   4.841  -0.593  1.00  0.00     0.014 A 
ATOM     33  C   UNL     1      -8.984   7.515  -0.739  1.00  0.00     0.010 A 
ATOM     34  C   UNL     1      -9.606   5.456  -1.835  1.00  0.00     0.010 A 
ATOM     35  C   UNL     1      -9.248   6.808  -1.922  1.00  0.00    -0.014 A 
BRANCH  35  36
ATOM     36  C   UNL     1      -9.202   7.474  -3.252  1.00  0.00     0.031 A 
ATOM     37  C   UNL     1     -10.445   7.541  -4.102  1.00  0.00     0.074 A 
ATOM     38  C   UNL     1      -8.038   7.971  -3.716  1.00  0.00     0.049 A 
ATOM     39  N   UNL     1     -10.597   8.006  -5.316  1.00  0.00    -0.248 NA
ATOM     40  C   UNL     1     -11.674   6.978  -3.521  1.00  0.00     0.031 C 
ATOM     41  C   UNL     1      -6.758   7.931  -3.005  1.00  0.00     0.029 A 
ATOM     42  N   UNL     1      -7.739   8.602  -4.898  1.00  0.00    -0.354 N 
ATOM     43  C   UNL     1     -11.928   7.773  -5.649  1.00  0.00     0.074 A 
ATOM     44  C   UNL     1     -12.520   7.064  -4.535  1.00  0.00     0.031 C 
ATOM     45  C   UNL     1      -5.821   8.538  -3.751  1.00  0.00     0.029 A 
ATOM     46  C   UNL     1      -6.417   8.967  -5.012  1.00  0.00     0.049 A 
ATOM     47  H   UNL     1      -8.408   8.777  -5.599  1.00  0.00     0.167 HD
ATOM     48  C   UNL     1     -12.603   8.142  -6.766  1.00  0.00     0.034 A 
ATOM     49  C   UNL     1      -5.758   9.570  -6.021  1.00  0.00     0.034 A 
ATOM     50  C   UNL     1     -12.005   8.870  -7.858  1.00  0.00     0.049 A 
ATOM     51  C   UNL     1      -6.524   9.957  -7.261  1.00  0.00     0.074 A 
ATOM     52  C   UNL     1     -12.605   9.347  -9.010  1.00  0.00     0.029 A 
ATOM     53  N   UNL     1     -10.663   9.226  -7.935  1.00  0.00    -0.354 N 
ATOM     54  N   UNL     1      -7.795   9.773  -7.538  1.00  0.00    -0.248 NA
ATOM     55  C   UNL     1      -5.771  10.644  -8.318  1.00  0.00     0.031 C 
ATOM     56  C   UNL     1     -11.618   9.929  -9.812  1.00  0.00     0.029 A 
ATOM     57  C   UNL     1     -10.413   9.887  -9.128  1.00  0.00     0.049 A 
ATOM     58  H   UNL     1      -9.989   9.036  -7.243  1.00  0.00     0.167 HD
ATOM     59  C   UNL     1      -7.997  10.348  -8.790  1.00  0.00     0.074 A 
ATOM     60  C   UNL     1      -6.722  10.899  -9.203  1.00  0.00     0.031 C 
ATOM     61  C   UNL     1      -9.133  10.419  -9.530  1.00  0.00     0.034 A 
BRANCH  48  62
ATOM     62  C   UNL     1     -14.057   7.740  -6.865  1.00  0.00     0.023 A 
ATOM     63  C   UNL     1     -15.017   8.203  -5.948  1.00  0.00     0.031 A 
ATOM     64  C   UNL     1     -14.486   6.856  -7.872  1.00  0.00     0.131 A 
ATOM     65  C   UNL     1     -16.333   7.718  -6.003  1.00  0.00     0.055 A 
ATOM     66  C   UNL     1     -15.817   6.445  -7.974  1.00  0.00     0.041 A 
ATOM     67  F   UNL     1     -13.614   6.363  -8.766  1.00  0.00    -0.206 F 
ATOM     68  C   UNL     1     -16.746   6.863  -7.026  1.00  0.00     0.022 A 
BRANCH  65  69
ATOM     69  S   UNL     1     -17.454   8.103  -4.630  1.00  0.00     0.124 S 
ATOM     70  O   UNL     1     -16.733   7.535  -3.493  1.00  0.00    -0.237 OA
ATOM     71  O   UNL     1     -17.526   9.558  -4.679  1.00  0.00    -0.237 OA
ATOM     72  O   UNL     1     -18.687   7.404  -4.988  1.00  0.00    -0.744 OA
ENDBRANCH  65  69
ENDBRANCH  48  62
BRANCH  49  73
ATOM     73  C   UNL     1      -4.295   9.840  -5.915  1.00  0.00     0.023 A 
ATOM     74  C   UNL     1      -3.801  11.154  -5.898  1.00  0.00     0.031 A 
ATOM     75  C   UNL     1      -3.365   8.786  -5.868  1.00  0.00     0.131 A 
ATOM     76  C   UNL     1      -2.416  11.382  -5.883  1.00  0.00     0.055 A 
ATOM     77  C   UNL     1      -1.990   9.018  -5.800  1.00  0.00     0.041 A 
ATOM     78  F   UNL     1      -3.783   7.510  -5.875  1.00  0.00    -0.206 F 
ATOM     79  C   UNL     1      -1.508  10.323  -5.821  1.00  0.00     0.022 A 
BRANCH  76  80
ATOM     80  S   UNL     1      -1.815  13.087  -6.033  1.00  0.00     0.124 S 
ATOM     81  O   UNL     1      -2.412  13.502  -7.297  1.00  0.00    -0.237 OA
ATOM     82  O   UNL     1      -2.361  13.706  -4.830  1.00  0.00    -0.237 OA
ATOM     83  O   UNL     1      -0.361  12.934  -6.048  1.00  0.00    -0.744 OA
ENDBRANCH  76  80
ENDBRANCH  49  73
BRANCH  61  84
ATOM     84  C   UNL     1      -9.048  11.156 -10.844  1.00  0.00     0.023 A 
ATOM     85  C   UNL     1      -8.285  10.668 -11.919  1.00  0.00     0.031 A 
ATOM     86  C   UNL     1      -9.733  12.372 -11.017  1.00  0.00     0.131 A 
ATOM     87  C   UNL     1      -8.180  11.420 -13.099  1.00  0.00     0.055 A 
ATOM     88  C   UNL     1      -9.674  13.085 -12.215  1.00  0.00     0.041 A 
ATOM     89  F   UNL     1     -10.475  12.886 -10.023  1.00  0.00    -0.206 F 
ATOM     90  C   UNL     1      -8.883  12.616 -13.260  1.00  0.00     0.022 A 
BRANCH  87  91
ATOM     91  S   UNL     1      -7.035  10.859 -14.389  1.00  0.00     0.124 S 
ATOM     92  O   UNL     1      -5.762  10.835 -13.675  1.00  0.00    -0.237 OA
ATOM     93  O   UNL     1      -7.586   9.558 -14.752  1.00  0.00    -0.237 OA
ATOM     94  O   UNL     1      -7.148  11.889 -15.420  1.00  0.00    -0.744 OA
ENDBRANCH  87  91
ENDBRANCH  61  84
ENDBRANCH  35  36
ENDBRANCH  27  30
ENDBRANCH  25  26
ENDBRANCH  24  25
ENDBRANCH   1  24
TORSDOF 17
