REMARK SMILES CC[NH2+][C@@]1(C(=O)NCCCNC(=O)c2ccc(-c3c4nc(c(-c5cc(S(=O)(=O)[O-])ccc5F)c5ccc([nH]5)c(-c5cc(S(=O)(=O)[O-])ccc5F)c5nc(c(-c6cc(S(=O)(=O)[O-])ccc6F)c6ccc3[nH]6)C=C5)C=C4)cc2)CC[C@H]([NH+]2CCC(C(C)(C)C)CC2)C1
REMARK SMILES IDX 9 1 8 2 7 3 5 4 6 5 4 7 77 8 90 9 78 10 79 11 3 12 2 15 1 16
REMARK SMILES IDX 80 17 81 18 89 19 82 21 88 22 83 23 84 24 85 25 86 26 87 27
REMARK SMILES IDX 10 28 11 29 12 30 13 32 14 33 15 34 76 35 16 36 75 37 17 38
REMARK SMILES IDX 18 39 19 40 69 41 20 42 74 43 68 44 70 45 21 46 73 47 67 48
REMARK SMILES IDX 66 49 22 51 54 52 34 53 53 54 35 55 38 56 52 57 71 58 36 59
REMARK SMILES IDX 37 60 51 62 72 63 39 64 23 65 24 66 32 67 25 68 31 69 33 70
REMARK SMILES IDX 30 71 26 72 27 73 28 74 29 75 55 76 56 77 64 78 57 79 63 80
REMARK SMILES IDX 65 81 62 82 58 83 59 84 60 85 61 86 40 87 41 88 49 89 42 90
REMARK SMILES IDX 48 91 50 92 47 93 43 94 44 95 45 96 46 97
REMARK H PARENT 7 6 3 13 3 14 80 20 11 31 70 50 38 61
REMARK Flexibility Score: inf
ROOT
ATOM      1  C   UNL     1      -1.413   3.859   5.111  1.00  0.00     0.042 C 
ENDROOT
BRANCH   1   2
ATOM      2  C   UNL     1      -0.046   3.363   4.615  1.00  0.00     0.118 C 
BRANCH   2   3
ATOM      3  N   UNL     1      -0.107   2.948   3.197  1.00  0.00    -0.351 N 
ATOM      4  C   UNL     1       0.846   3.325   2.260  1.00  0.00     0.281 C 
ATOM      5  O   UNL     1       1.996   3.594   2.620  1.00  0.00    -0.268 OA
ATOM      6  H   UNL     1      -0.855   2.380   2.904  1.00  0.00     0.163 HD
BRANCH   4   7
ATOM      7  C   UNL     1       0.435   3.340   0.708  1.00  0.00     0.181 C 
ATOM      8  C   UNL     1       1.284   4.381  -0.090  1.00  0.00     0.085 C 
ATOM      9  C   UNL     1      -1.005   3.768   0.329  1.00  0.00     0.144 C 
ATOM     10  C   UNL     1       0.383   5.551  -0.517  1.00  0.00     0.072 C 
ATOM     11  C   UNL     1      -1.011   5.316   0.062  1.00  0.00     0.191 C 
BRANCH   7  12
ATOM     12  N   UNL     1       0.859   2.036   0.134  1.00  0.00    -0.334 N 
ATOM     13  H   UNL     1       0.741   2.095  -0.878  1.00  0.00     0.347 HD
ATOM     14  H   UNL     1       1.819   1.911   0.455  1.00  0.00     0.347 HD
BRANCH  12  15
ATOM     15  C   UNL     1       0.162   0.845   0.584  1.00  0.00     0.257 C 
ATOM     16  C   UNL     1       0.744  -0.341  -0.178  1.00  0.00     0.071 C 
ENDBRANCH  12  15
ENDBRANCH   7  12
BRANCH  11  17
ATOM     17  N   UNL     1      -1.476   6.193   1.150  1.00  0.00    -0.332 N 
ATOM     18  C   UNL     1      -1.458   7.649   1.014  1.00  0.00     0.262 C 
ATOM     19  C   UNL     1      -1.058   5.864   2.482  1.00  0.00     0.262 C 
ATOM     20  H   UNL     1      -2.449   5.925   0.998  1.00  0.00     0.348 HD
ATOM     21  C   UNL     1      -0.211   8.403   1.561  1.00  0.00     0.066 C 
ATOM     22  C   UNL     1       0.378   6.260   2.728  1.00  0.00     0.066 C 
ATOM     23  C   UNL     1       0.530   7.763   2.771  1.00  0.00     0.005 C 
BRANCH  23  24
ATOM     24  C   UNL     1       2.046   8.168   2.955  1.00  0.00    -0.035 C 
ATOM     25  C   UNL     1       2.107   9.639   3.389  1.00  0.00     0.011 C 
ATOM     26  C   UNL     1       2.739   7.330   4.065  1.00  0.00     0.011 C 
ATOM     27  C   UNL     1       2.889   7.973   1.677  1.00  0.00     0.011 C 
ENDBRANCH  23  24
ENDBRANCH  11  17
ENDBRANCH   4   7
ENDBRANCH   2   3
ENDBRANCH   1   2
BRANCH   1  28
ATOM     28  C   UNL     1      -1.448   4.632   6.427  1.00  0.00     0.118 C 
BRANCH  28  29
ATOM     29  N   UNL     1      -0.792   5.942   6.457  1.00  0.00    -0.352 N 
ATOM     30  C   UNL     1      -1.201   7.141   7.031  1.00  0.00     0.251 C 
ATOM     31  H   UNL     1       0.078   5.980   5.998  1.00  0.00     0.163 HD
ATOM     32  O   UNL     1      -0.465   8.127   6.950  1.00  0.00    -0.269 OA
BRANCH  30  33
ATOM     33  C   UNL     1      -2.531   7.271   7.684  1.00  0.00     0.039 A 
ATOM     34  C   UNL     1      -3.276   8.452   7.567  1.00  0.00     0.014 A 
ATOM     35  C   UNL     1      -3.083   6.196   8.368  1.00  0.00     0.014 A 
ATOM     36  C   UNL     1      -4.606   8.491   8.018  1.00  0.00     0.010 A 
ATOM     37  C   UNL     1      -4.443   6.171   8.629  1.00  0.00     0.010 A 
ATOM     38  C   UNL     1      -5.226   7.324   8.489  1.00  0.00    -0.014 A 
BRANCH  38  39
ATOM     39  C   UNL     1      -6.660   7.253   8.899  1.00  0.00     0.031 A 
ATOM     40  C   UNL     1      -7.011   6.677  10.254  1.00  0.00     0.074 A 
ATOM     41  C   UNL     1      -7.641   7.568   8.029  1.00  0.00     0.049 A 
ATOM     42  N   UNL     1      -8.173   6.310  10.732  1.00  0.00    -0.248 NA
ATOM     43  C   UNL     1      -5.884   6.393  11.156  1.00  0.00     0.031 C 
ATOM     44  C   UNL     1      -7.442   8.066   6.665  1.00  0.00     0.029 A 
ATOM     45  N   UNL     1      -9.007   7.508   8.158  1.00  0.00    -0.354 N 
ATOM     46  C   UNL     1      -7.898   5.700  11.954  1.00  0.00     0.074 A 
ATOM     47  C   UNL     1      -6.460   5.635  12.073  1.00  0.00     0.031 C 
ATOM     48  C   UNL     1      -8.637   8.325   6.110  1.00  0.00     0.029 A 
ATOM     49  C   UNL     1      -9.690   7.955   7.049  1.00  0.00     0.049 A 
ATOM     50  H   UNL     1      -9.456   7.177   8.968  1.00  0.00     0.167 HD
ATOM     51  C   UNL     1      -8.760   5.281  12.915  1.00  0.00     0.034 A 
ATOM     52  C   UNL     1     -11.014   8.055   6.820  1.00  0.00     0.034 A 
ATOM     53  C   UNL     1     -10.189   5.421  12.796  1.00  0.00     0.049 A 
ATOM     54  C   UNL     1     -11.965   7.609   7.902  1.00  0.00     0.074 A 
ATOM     55  C   UNL     1     -11.170   5.122  13.723  1.00  0.00     0.029 A 
ATOM     56  N   UNL     1     -10.842   5.914  11.671  1.00  0.00    -0.354 N 
ATOM     57  N   UNL     1     -11.694   7.085   9.076  1.00  0.00    -0.248 NA
ATOM     58  C   UNL     1     -13.397   7.778   7.633  1.00  0.00     0.031 C 
ATOM     59  C   UNL     1     -12.415   5.367  13.134  1.00  0.00     0.029 A 
ATOM     60  C   UNL     1     -12.212   5.900  11.870  1.00  0.00     0.049 A 
ATOM     61  H   UNL     1     -10.394   6.228  10.852  1.00  0.00     0.167 HD
ATOM     62  C   UNL     1     -12.924   6.892   9.699  1.00  0.00     0.074 A 
ATOM     63  C   UNL     1     -13.933   7.370   8.774  1.00  0.00     0.031 C 
ATOM     64  C   UNL     1     -13.198   6.373  10.925  1.00  0.00     0.034 A 
BRANCH  51  65
ATOM     65  C   UNL     1      -8.165   4.639  14.153  1.00  0.00     0.023 A 
ATOM     66  C   UNL     1      -7.215   5.307  14.949  1.00  0.00     0.031 A 
ATOM     67  C   UNL     1      -8.481   3.313  14.497  1.00  0.00     0.131 A 
ATOM     68  C   UNL     1      -6.518   4.612  15.948  1.00  0.00     0.055 A 
ATOM     69  C   UNL     1      -7.867   2.663  15.572  1.00  0.00     0.041 A 
ATOM     70  F   UNL     1      -9.366   2.609  13.775  1.00  0.00    -0.206 F 
ATOM     71  C   UNL     1      -6.859   3.302  16.287  1.00  0.00     0.022 A 
BRANCH  68  72
ATOM     72  S   UNL     1      -5.020   5.371  16.639  1.00  0.00     0.124 S 
ATOM     73  O   UNL     1      -4.216   5.577  15.435  1.00  0.00    -0.237 OA
ATOM     74  O   UNL     1      -5.540   6.575  17.274  1.00  0.00    -0.237 OA
ATOM     75  O   UNL     1      -4.509   4.351  17.552  1.00  0.00    -0.744 OA
ENDBRANCH  68  72
ENDBRANCH  51  65
BRANCH  52  76
ATOM     76  C   UNL     1     -11.518   8.632   5.539  1.00  0.00     0.023 A 
ATOM     77  C   UNL     1     -12.206   9.857   5.528  1.00  0.00     0.031 A 
ATOM     78  C   UNL     1     -11.322   7.979   4.310  1.00  0.00     0.131 A 
ATOM     79  C   UNL     1     -12.699  10.376   4.321  1.00  0.00     0.055 A 
ATOM     80  C   UNL     1     -11.772   8.523   3.104  1.00  0.00     0.041 A 
ATOM     81  F   UNL     1     -10.666   6.809   4.260  1.00  0.00    -0.206 F 
ATOM     82  C   UNL     1     -12.473   9.725   3.106  1.00  0.00     0.022 A 
BRANCH  79  83
ATOM     83  S   UNL     1     -13.697  11.891   4.367  1.00  0.00     0.124 S 
ATOM     84  O   UNL     1     -14.803  11.492   5.230  1.00  0.00    -0.237 OA
ATOM     85  O   UNL     1     -12.758  12.856   4.930  1.00  0.00    -0.237 OA
ATOM     86  O   UNL     1     -14.047  12.112   2.966  1.00  0.00    -0.744 OA
ENDBRANCH  79  83
ENDBRANCH  52  76
BRANCH  64  87
ATOM     87  C   UNL     1     -14.646   6.340  11.345  1.00  0.00     0.023 A 
ATOM     88  C   UNL     1     -15.587   5.528  10.690  1.00  0.00     0.031 A 
ATOM     89  C   UNL     1     -15.088   7.134  12.419  1.00  0.00     0.131 A 
ATOM     90  C   UNL     1     -16.934   5.574  11.075  1.00  0.00     0.055 A 
ATOM     91  C   UNL     1     -16.416   7.121  12.843  1.00  0.00     0.041 A 
ATOM     92  F   UNL     1     -14.231   7.930  13.078  1.00  0.00    -0.206 F 
ATOM     93  C   UNL     1     -17.351   6.349  12.161  1.00  0.00     0.022 A 
BRANCH  90  94
ATOM     94  S   UNL     1     -18.154   4.688  10.069  1.00  0.00     0.124 S 
ATOM     95  O   UNL     1     -17.956   5.291   8.754  1.00  0.00    -0.237 OA
ATOM     96  O   UNL     1     -17.723   3.300  10.205  1.00  0.00    -0.237 OA
ATOM     97  O   UNL     1     -19.427   5.007  10.713  1.00  0.00    -0.744 OA
ENDBRANCH  90  94
ENDBRANCH  64  87
ENDBRANCH  38  39
ENDBRANCH  30  33
ENDBRANCH  28  29
ENDBRANCH   1  28
TORSDOF 17
