REMARK SMILES O=C(NCCCNC(=O)c1cc(/C=C/c2cc(O)cc(O)c2)ccc1O)c1ccc(-c2c3nc(c(-c4cc(S(=O)(=O)[O-])ccc4F)c4ccc([nH]4)c(-c4cc(S(=O)(=O)[O-])ccc4F)c4nc(c(-c5cc(S(=O)(=O)[O-])ccc5F)c5ccc2[nH]5)C=C4)C=C3)cc1
REMARK SMILES IDX 5 1 4 2 3 3 1 4 2 5 27 7 28 8 89 9 29 10 88 11 30 12 31 13
REMARK SMILES IDX 32 14 82 15 33 16 87 17 81 18 83 19 34 20 86 21 80 22 79 23
REMARK SMILES IDX 35 25 67 26 47 27 66 28 48 29 51 30 65 31 84 32 49 33 50 34
REMARK SMILES IDX 64 36 85 37 52 38 36 39 37 40 45 41 38 42 44 43 46 44 43 45
REMARK SMILES IDX 39 46 40 47 41 48 42 49 68 50 69 51 77 52 70 53 76 54 78 55
REMARK SMILES IDX 75 56 71 57 72 58 73 59 74 60 53 61 54 62 62 63 55 64 61 65
REMARK SMILES IDX 63 66 60 67 56 68 57 69 58 70 59 71 6 72 7 73 8 74 9 76
REMARK SMILES IDX 10 77 11 78 25 79 12 80 24 81 23 82 26 83 13 85 14 86 15 87
REMARK SMILES IDX 16 88 22 89 17 90 20 91 19 92 18 93 21 95
REMARK H PARENT 3 6 83 24 51 35 7 75 26 84 18 94 21 96
REMARK Flexibility Score: inf
ROOT
ATOM      1  C   UNL     1       4.933  -2.084   1.175  1.00  0.00     0.042 C 
ENDROOT
BRANCH   1   2
ATOM      2  C   UNL     1       4.523  -1.278  -0.048  1.00  0.00     0.118 C 
BRANCH   2   3
ATOM      3  N   UNL     1       3.084  -1.061  -0.136  1.00  0.00    -0.352 N 
ATOM      4  O   UNL     1       1.126   0.036   0.029  1.00  0.00    -0.269 OA
ATOM      5  C   UNL     1       2.352   0.098  -0.028  1.00  0.00     0.251 C 
ATOM      6  H   UNL     1       2.552  -1.873  -0.298  1.00  0.00     0.163 HD
BRANCH   5   7
ATOM      7  C   UNL     1       3.031   1.411   0.043  1.00  0.00     0.039 A 
ATOM      8  C   UNL     1       4.125   1.695  -0.775  1.00  0.00     0.014 A 
ATOM      9  C   UNL     1       2.555   2.382   0.929  1.00  0.00     0.014 A 
ATOM     10  C   UNL     1       4.848   2.866  -0.583  1.00  0.00     0.010 A 
ATOM     11  C   UNL     1       3.219   3.609   1.042  1.00  0.00     0.010 A 
ATOM     12  C   UNL     1       4.393   3.848   0.311  1.00  0.00    -0.014 A 
BRANCH  12  13
ATOM     13  C   UNL     1       5.134   5.133   0.410  1.00  0.00     0.031 A 
ATOM     14  C   UNL     1       5.793   5.556   1.694  1.00  0.00     0.074 A 
ATOM     15  C   UNL     1       5.238   5.902  -0.692  1.00  0.00     0.049 A 
ATOM     16  N   UNL     1       6.490   6.635   1.946  1.00  0.00    -0.248 NA
ATOM     17  C   UNL     1       5.642   4.658   2.847  1.00  0.00     0.031 C 
ATOM     18  C   UNL     1       4.634   5.591  -1.991  1.00  0.00     0.029 A 
ATOM     19  N   UNL     1       5.901   7.081  -0.910  1.00  0.00    -0.354 N 
ATOM     20  C   UNL     1       6.847   6.558   3.288  1.00  0.00     0.074 A 
ATOM     21  C   UNL     1       6.256   5.340   3.804  1.00  0.00     0.031 C 
ATOM     22  C   UNL     1       5.001   6.523  -2.882  1.00  0.00     0.029 A 
ATOM     23  C   UNL     1       5.797   7.538  -2.203  1.00  0.00     0.049 A 
ATOM     24  H   UNL     1       6.404   7.555  -0.209  1.00  0.00     0.167 HD
ATOM     25  C   UNL     1       7.604   7.419   4.016  1.00  0.00     0.034 A 
ATOM     26  C   UNL     1       6.268   8.660  -2.779  1.00  0.00     0.034 A 
ATOM     27  C   UNL     1       8.185   8.629   3.479  1.00  0.00     0.049 A 
ATOM     28  C   UNL     1       7.064   9.620  -1.940  1.00  0.00     0.074 A 
ATOM     29  C   UNL     1       8.993   9.555   4.116  1.00  0.00     0.029 A 
ATOM     30  N   UNL     1       8.010   9.089   2.178  1.00  0.00    -0.354 N 
ATOM     31  N   UNL     1       7.402   9.524  -0.674  1.00  0.00    -0.248 NA
ATOM     32  C   UNL     1       7.539  10.838  -2.605  1.00  0.00     0.031 C 
ATOM     33  C   UNL     1       9.248  10.605   3.225  1.00  0.00     0.029 A 
ATOM     34  C   UNL     1       8.665  10.301   2.006  1.00  0.00     0.049 A 
ATOM     35  H   UNL     1       7.497   8.622   1.480  1.00  0.00     0.167 HD
ATOM     36  C   UNL     1       8.143  10.667  -0.396  1.00  0.00     0.074 A 
ATOM     37  C   UNL     1       8.221  11.422  -1.631  1.00  0.00     0.031 C 
ATOM     38  C   UNL     1       8.709  11.057   0.775  1.00  0.00     0.034 A 
BRANCH  25  39
ATOM     39  C   UNL     1       7.800   7.104   5.481  1.00  0.00     0.023 A 
ATOM     40  C   UNL     1       8.476   5.947   5.910  1.00  0.00     0.031 A 
ATOM     41  C   UNL     1       7.278   7.960   6.468  1.00  0.00     0.131 A 
ATOM     42  C   UNL     1       8.544   5.640   7.279  1.00  0.00     0.055 A 
ATOM     43  C   UNL     1       7.419   7.691   7.831  1.00  0.00     0.041 A 
ATOM     44  F   UNL     1       6.606   9.070   6.123  1.00  0.00    -0.206 F 
ATOM     45  C   UNL     1       8.041   6.516   8.243  1.00  0.00     0.022 A 
BRANCH  42  46
ATOM     46  S   UNL     1       9.163   4.007   7.772  1.00  0.00     0.124 S 
ATOM     47  O   UNL     1       8.268   3.115   7.037  1.00  0.00    -0.237 OA
ATOM     48  O   UNL     1      10.547   4.043   7.313  1.00  0.00    -0.237 OA
ATOM     49  O   UNL     1       8.986   3.996   9.222  1.00  0.00    -0.744 OA
ENDBRANCH  42  46
ENDBRANCH  25  39
BRANCH  26  50
ATOM     50  C   UNL     1       5.964   8.948  -4.208  1.00  0.00     0.023 A 
ATOM     51  C   UNL     1       6.983   9.002  -5.170  1.00  0.00     0.031 A 
ATOM     52  C   UNL     1       4.642   9.182  -4.630  1.00  0.00     0.131 A 
ATOM     53  C   UNL     1       6.668   9.311  -6.502  1.00  0.00     0.055 A 
ATOM     54  C   UNL     1       4.328   9.438  -5.964  1.00  0.00     0.041 A 
ATOM     55  F   UNL     1       3.630   9.137  -3.748  1.00  0.00    -0.206 F 
ATOM     56  C   UNL     1       5.346   9.514  -6.908  1.00  0.00     0.022 A 
BRANCH  53  57
ATOM     57  S   UNL     1       8.022   9.508  -7.692  1.00  0.00     0.124 S 
ATOM     58  O   UNL     1       8.799  10.582  -7.083  1.00  0.00    -0.237 OA
ATOM     59  O   UNL     1       8.634   8.184  -7.676  1.00  0.00    -0.237 OA
ATOM     60  O   UNL     1       7.336   9.860  -8.933  1.00  0.00    -0.744 OA
ENDBRANCH  53  57
ENDBRANCH  26  50
BRANCH  38  61
ATOM     61  C   UNL     1       9.484  12.351   0.752  1.00  0.00     0.023 A 
ATOM     62  C   UNL     1       8.845  13.588   0.553  1.00  0.00     0.031 A 
ATOM     63  C   UNL     1      10.882  12.343   0.897  1.00  0.00     0.131 A 
ATOM     64  C   UNL     1       9.611  14.759   0.444  1.00  0.00     0.055 A 
ATOM     65  C   UNL     1      11.632  13.518   0.848  1.00  0.00     0.041 A 
ATOM     66  F   UNL     1      11.542  11.189   1.085  1.00  0.00    -0.206 F 
ATOM     67  C   UNL     1      10.998  14.734   0.606  1.00  0.00     0.022 A 
BRANCH  64  68
ATOM     68  S   UNL     1       8.778  16.305  -0.011  1.00  0.00     0.124 S 
ATOM     69  O   UNL     1       8.184  15.962  -1.299  1.00  0.00    -0.237 OA
ATOM     70  O   UNL     1       7.842  16.492   1.093  1.00  0.00    -0.237 OA
ATOM     71  O   UNL     1       9.868  17.277  -0.070  1.00  0.00    -0.744 OA
ENDBRANCH  64  68
ENDBRANCH  38  61
ENDBRANCH  12  13
ENDBRANCH   5   7
ENDBRANCH   2   3
ENDBRANCH   1   2
BRANCH   1  72
ATOM     72  C   UNL     1       4.395  -3.505   1.201  1.00  0.00     0.118 C 
BRANCH  72  73
ATOM     73  N   UNL     1       4.821  -4.291   0.054  1.00  0.00    -0.352 N 
ATOM     74  C   UNL     1       5.510  -5.476   0.016  1.00  0.00     0.255 C 
ATOM     75  H   UNL     1       4.580  -3.917  -0.824  1.00  0.00     0.163 HD
ATOM     76  O   UNL     1       5.845  -5.952  -1.067  1.00  0.00    -0.269 OA
BRANCH  74  77
ATOM     77  C   UNL     1       5.921  -6.156   1.261  1.00  0.00     0.082 A 
ATOM     78  C   UNL     1       7.280  -6.494   1.377  1.00  0.00     0.025 A 
ATOM     79  C   UNL     1       5.024  -6.514   2.271  1.00  0.00     0.128 A 
ATOM     80  C   UNL     1       7.762  -7.148   2.517  1.00  0.00    -0.025 A 
ATOM     81  C   UNL     1       5.494  -7.131   3.427  1.00  0.00     0.047 A 
ATOM     82  C   UNL     1       6.854  -7.439   3.548  1.00  0.00     0.012 A 
BRANCH  79  83
ATOM     83  O   UNL     1       3.686  -6.275   2.135  1.00  0.00    -0.507 OA
ATOM     84  H   UNL     1       3.361  -5.860   1.360  1.00  0.00     0.293 HD
ENDBRANCH  79  83
BRANCH  80  85
ATOM     85  C   UNL     1       9.164  -7.577   2.681  1.00  0.00     0.009 C 
ATOM     86  C   UNL     1      10.147  -7.438   1.776  1.00  0.00     0.009 C 
BRANCH  86  87
ATOM     87  C   UNL     1      11.505  -7.957   1.988  1.00  0.00    -0.018 A 
ATOM     88  C   UNL     1      11.722  -9.273   2.426  1.00  0.00     0.054 A 
ATOM     89  C   UNL     1      12.606  -7.147   1.678  1.00  0.00     0.054 A 
ATOM     90  C   UNL     1      13.023  -9.753   2.566  1.00  0.00     0.119 A 
ATOM     91  C   UNL     1      13.898  -7.648   1.828  1.00  0.00     0.119 A 
ATOM     92  C   UNL     1      14.115  -8.947   2.271  1.00  0.00     0.092 A 
BRANCH  90  93
ATOM     93  O   UNL     1      13.263 -11.029   2.986  1.00  0.00    -0.508 OA
ATOM     94  H   UNL     1      12.547 -11.597   3.193  1.00  0.00     0.293 HD
ENDBRANCH  90  93
BRANCH  91  95
ATOM     95  O   UNL     1      14.992  -6.884   1.541  1.00  0.00    -0.508 OA
ATOM     96  H   UNL     1      15.852  -7.239   1.648  1.00  0.00     0.293 HD
ENDBRANCH  91  95
ENDBRANCH  86  87
ENDBRANCH  80  85
ENDBRANCH  74  77
ENDBRANCH  72  73
ENDBRANCH   1  72
TORSDOF 18
