REMARK SMILES Cc1cc(F)cc(N[C@@](C)(C(=O)NCCCNC(=O)c2ccc(-c3c4nc(c(-c5cc(S(=O)(=O)[O-])ccc5F)c5ccc([nH]5)c(-c5cc(S(=O)(=O)[O-])ccc5F)c5nc(c(-c6cc(S(=O)(=O)[O-])ccc6F)c6ccc3[nH]6)C=C5)C=C4)cc2)c2ccc(O)cc2)c1
REMARK SMILES IDX 15 1 14 2 13 3 11 4 12 5 9 7 10 8 8 9 7 11 1 12 2 13 3 14
REMARK SMILES IDX 90 15 4 16 5 17 6 18 83 19 84 20 89 21 85 22 88 23 86 24
REMARK SMILES IDX 87 25 16 27 17 28 18 29 19 31 20 32 21 33 82 34 22 35 81 36
REMARK SMILES IDX 23 37 24 38 25 39 75 40 26 41 80 42 74 43 76 44 27 45 79 46
REMARK SMILES IDX 73 47 72 48 28 50 60 51 40 52 59 53 41 54 44 55 58 56 77 57
REMARK SMILES IDX 42 58 43 59 57 61 78 62 45 63 29 64 30 65 38 66 31 67 37 68
REMARK SMILES IDX 39 69 36 70 32 71 33 72 34 73 35 74 61 75 62 76 70 77 63 78
REMARK SMILES IDX 69 79 71 80 68 81 64 82 65 83 66 84 67 85 46 86 47 87 55 88
REMARK SMILES IDX 48 89 54 90 56 91 53 92 49 93 50 94 51 95 52 96
REMARK H PARENT 13 6 8 10 87 26 17 30 76 49 44 60
REMARK Flexibility Score: inf
ROOT
ATOM      1  C   UNL     1       2.647  -5.732   1.084  1.00  0.00     0.042 C 
ENDROOT
BRANCH   1   2
ATOM      2  C   UNL     1       1.331  -5.998   0.370  1.00  0.00     0.117 C 
BRANCH   2   3
ATOM      3  N   UNL     1       0.181  -5.721   1.211  1.00  0.00    -0.354 N 
ATOM      4  C   UNL     1      -0.837  -4.809   1.137  1.00  0.00     0.250 C 
ATOM      5  O   UNL     1      -1.530  -4.755   2.161  1.00  0.00    -0.272 OA
ATOM      6  H   UNL     1       0.121  -6.310   1.997  1.00  0.00     0.163 HD
BRANCH   4   7
ATOM      7  C   UNL     1      -1.082  -3.890  -0.137  1.00  0.00     0.139 C 
ATOM      8  C   UNL     1      -1.118  -4.742  -1.431  1.00  0.00     0.051 C 
BRANCH   7   9
ATOM      9  N   UNL     1       0.076  -2.950  -0.220  1.00  0.00    -0.368 N 
ATOM     10  H   UNL     1       0.842  -3.299  -0.731  1.00  0.00     0.161 HD
BRANCH   9  11
ATOM     11  C   UNL     1       0.270  -1.677   0.291  1.00  0.00     0.038 A 
ATOM     12  C   UNL     1       2.877   1.093  -0.244  1.00  0.00     0.044 C 
ATOM     13  C   UNL     1       1.617   0.388   0.159  1.00  0.00    -0.046 A 
ATOM     14  C   UNL     1       0.570   1.107   0.731  1.00  0.00     0.042 A 
ATOM     15  C   UNL     1       1.440  -0.987  -0.085  1.00  0.00     0.029 A 
ATOM     16  C   UNL     1      -0.552   0.427   1.176  1.00  0.00     0.125 A 
ATOM     17  F   UNL     1      -1.558   1.118   1.731  1.00  0.00    -0.207 F 
ATOM     18  C   UNL     1      -0.674  -0.953   1.020  1.00  0.00     0.065 A 
ENDBRANCH   9  11
ENDBRANCH   7   9
BRANCH   7  19
ATOM     19  C   UNL     1      -2.476  -3.197  -0.167  1.00  0.00    -0.013 A 
ATOM     20  C   UNL     1      -2.693  -2.031  -0.934  1.00  0.00     0.010 A 
ATOM     21  C   UNL     1      -3.590  -3.725   0.513  1.00  0.00     0.010 A 
ATOM     22  C   UNL     1      -3.894  -1.321  -0.851  1.00  0.00     0.046 A 
ATOM     23  C   UNL     1      -4.801  -3.030   0.581  1.00  0.00     0.046 A 
ATOM     24  C   UNL     1      -4.925  -1.810  -0.066  1.00  0.00     0.115 A 
BRANCH  24  25
ATOM     25  O   UNL     1      -6.057  -1.061   0.055  1.00  0.00    -0.508 OA
ATOM     26  H   UNL     1      -6.125  -0.239  -0.390  1.00  0.00     0.293 HD
ENDBRANCH  24  25
ENDBRANCH   7  19
ENDBRANCH   4   7
ENDBRANCH   2   3
ENDBRANCH   1   2
BRANCH   1  27
ATOM     27  C   UNL     1       2.911  -6.641   2.276  1.00  0.00     0.118 C 
BRANCH  27  28
ATOM     28  N   UNL     1       3.035  -8.043   1.899  1.00  0.00    -0.352 N 
ATOM     29  C   UNL     1       4.113  -8.895   1.975  1.00  0.00     0.251 C 
ATOM     30  H   UNL     1       2.215  -8.445   1.531  1.00  0.00     0.163 HD
ATOM     31  O   UNL     1       4.052  -9.983   1.415  1.00  0.00    -0.269 OA
BRANCH  29  32
ATOM     32  C   UNL     1       5.342  -8.491   2.697  1.00  0.00     0.039 A 
ATOM     33  C   UNL     1       6.586  -8.837   2.162  1.00  0.00     0.014 A 
ATOM     34  C   UNL     1       5.277  -7.788   3.901  1.00  0.00     0.014 A 
ATOM     35  C   UNL     1       7.757  -8.415   2.797  1.00  0.00     0.010 A 
ATOM     36  C   UNL     1       6.439  -7.279   4.473  1.00  0.00     0.010 A 
ATOM     37  C   UNL     1       7.694  -7.596   3.936  1.00  0.00    -0.014 A 
BRANCH  37  38
ATOM     38  C   UNL     1       8.926  -7.080   4.589  1.00  0.00     0.031 A 
ATOM     39  C   UNL     1       9.229  -7.437   6.020  1.00  0.00     0.074 A 
ATOM     40  C   UNL     1       9.736  -6.236   3.921  1.00  0.00     0.049 A 
ATOM     41  N   UNL     1      10.206  -7.030   6.789  1.00  0.00    -0.248 NA
ATOM     42  C   UNL     1       8.279  -8.341   6.685  1.00  0.00     0.031 C 
ATOM     43  C   UNL     1       9.521  -5.770   2.549  1.00  0.00     0.029 A 
ATOM     44  N   UNL     1      10.894  -5.609   4.306  1.00  0.00    -0.354 N 
ATOM     45  C   UNL     1       9.980  -7.614   8.031  1.00  0.00     0.074 A 
ATOM     46  C   UNL     1       8.728  -8.333   7.929  1.00  0.00     0.031 C 
ATOM     47  C   UNL     1      10.527  -4.954   2.200  1.00  0.00     0.029 A 
ATOM     48  C   UNL     1      11.430  -4.795   3.335  1.00  0.00     0.049 A 
ATOM     49  H   UNL     1      11.303  -5.731   5.193  1.00  0.00     0.167 HD
ATOM     50  C   UNL     1      10.757  -7.580   9.144  1.00  0.00     0.034 A 
ATOM     51  C   UNL     1      12.516  -3.997   3.359  1.00  0.00     0.034 A 
ATOM     52  C   UNL     1      12.003  -6.855   9.223  1.00  0.00     0.049 A 
ATOM     53  C   UNL     1      13.358  -3.950   4.607  1.00  0.00     0.074 A 
ATOM     54  C   UNL     1      12.902  -6.795  10.273  1.00  0.00     0.029 A 
ATOM     55  N   UNL     1      12.519  -6.046   8.216  1.00  0.00    -0.354 N 
ATOM     56  N   UNL     1      13.168  -4.561   5.755  1.00  0.00    -0.248 NA
ATOM     57  C   UNL     1      14.566  -3.119   4.558  1.00  0.00     0.031 C 
ATOM     58  C   UNL     1      13.913  -5.889   9.935  1.00  0.00     0.029 A 
ATOM     59  C   UNL     1      13.701  -5.453   8.636  1.00  0.00     0.049 A 
ATOM     60  H   UNL     1      12.106  -5.913   7.332  1.00  0.00     0.167 HD
ATOM     61  C   UNL     1      14.250  -4.207   6.557  1.00  0.00     0.074 A 
ATOM     62  C   UNL     1      15.092  -3.342   5.754  1.00  0.00     0.031 C 
ATOM     63  C   UNL     1      14.525  -4.572   7.837  1.00  0.00     0.034 A 
BRANCH  50  64
ATOM     64  C   UNL     1      10.249  -8.320  10.363  1.00  0.00     0.023 A 
ATOM     65  C   UNL     1       9.979  -9.701  10.330  1.00  0.00     0.031 A 
ATOM     66  C   UNL     1       9.961  -7.629  11.553  1.00  0.00     0.131 A 
ATOM     67  C   UNL     1       9.334 -10.318  11.412  1.00  0.00     0.055 A 
ATOM     68  C   UNL     1       9.417  -8.272  12.667  1.00  0.00     0.041 A 
ATOM     69  F   UNL     1      10.176  -6.307  11.647  1.00  0.00    -0.206 F 
ATOM     70  C   UNL     1       9.076  -9.620  12.592  1.00  0.00     0.022 A 
BRANCH  67  71
ATOM     71  S   UNL     1       8.650 -11.982  11.172  1.00  0.00     0.124 S 
ATOM     72  O   UNL     1       7.791 -11.783  10.007  1.00  0.00    -0.237 OA
ATOM     73  O   UNL     1       9.847 -12.786  10.954  1.00  0.00    -0.237 OA
ATOM     74  O   UNL     1       7.939 -12.244  12.422  1.00  0.00    -0.744 OA
ENDBRANCH  67  71
ENDBRANCH  50  64
BRANCH  51  75
ATOM     75  C   UNL     1      12.856  -3.172   2.165  1.00  0.00     0.023 A 
ATOM     76  C   UNL     1      14.012  -3.422   1.409  1.00  0.00     0.031 A 
ATOM     77  C   UNL     1      12.015  -2.120   1.758  1.00  0.00     0.131 A 
ATOM     78  C   UNL     1      14.309  -2.613   0.300  1.00  0.00     0.055 A 
ATOM     79  C   UNL     1      12.290  -1.351   0.627  1.00  0.00     0.041 A 
ATOM     80  F   UNL     1      10.893  -1.846   2.442  1.00  0.00    -0.206 F 
ATOM     81  C   UNL     1      13.447  -1.591  -0.105  1.00  0.00     0.022 A 
BRANCH  78  82
ATOM     82  S   UNL     1      15.869  -2.885  -0.585  1.00  0.00     0.124 S 
ATOM     83  O   UNL     1      16.852  -2.634   0.463  1.00  0.00    -0.237 OA
ATOM     84  O   UNL     1      15.734  -4.271  -1.021  1.00  0.00    -0.237 OA
ATOM     85  O   UNL     1      15.830  -1.891  -1.656  1.00  0.00    -0.744 OA
ENDBRANCH  78  82
ENDBRANCH  51  75
BRANCH  63  86
ATOM     86  C   UNL     1      15.817  -4.066   8.434  1.00  0.00     0.023 A 
ATOM     87  C   UNL     1      16.046  -2.698   8.666  1.00  0.00     0.031 A 
ATOM     88  C   UNL     1      16.842  -4.970   8.768  1.00  0.00     0.131 A 
ATOM     89  C   UNL     1      17.289  -2.269   9.158  1.00  0.00     0.055 A 
ATOM     90  C   UNL     1      18.050  -4.545   9.323  1.00  0.00     0.041 A 
ATOM     91  F   UNL     1      16.685  -6.288   8.563  1.00  0.00    -0.206 F 
ATOM     92  C   UNL     1      18.284  -3.186   9.507  1.00  0.00     0.022 A 
BRANCH  89  93
ATOM     93  S   UNL     1      17.631  -0.489   9.232  1.00  0.00     0.124 S 
ATOM     94  O   UNL     1      17.426  -0.084   7.845  1.00  0.00    -0.237 OA
ATOM     95  O   UNL     1      16.634  -0.019  10.188  1.00  0.00    -0.237 OA
ATOM     96  O   UNL     1      19.015  -0.425   9.698  1.00  0.00    -0.744 OA
ENDBRANCH  89  93
ENDBRANCH  63  86
ENDBRANCH  37  38
ENDBRANCH  29  32
ENDBRANCH  27  28
ENDBRANCH   1  27
TORSDOF 17
