REMARK SMILES COCCN1C(=O)C[C@H](C(=O)NCCCNC(=O)c2ccc(-c3c4nc(c(-c5cc(S(=O)(=O)[O-])ccc5F)c5ccc([nH]5)c(-c5cc(S(=O)(=O)[O-])ccc5F)c5nc(c(-c6cc(S(=O)(=O)[O-])ccc6F)c6ccc3[nH]6)C=C5)C=C4)cc2)[C@@H]1c1ccccc1N1CCOCC1
REMARK SMILES IDX 14 1 13 2 12 3 10 4 11 5 9 7 5 8 6 9 82 10 7 11 8 12 4 13
REMARK SMILES IDX 3 14 2 15 1 16 83 17 84 18 88 19 85 20 87 21 86 22 89 23
REMARK SMILES IDX 90 24 94 25 91 26 93 27 92 28 15 29 16 30 17 31 18 33 19 34
REMARK SMILES IDX 20 35 81 36 21 37 80 38 22 39 23 40 24 41 74 42 25 43 79 44
REMARK SMILES IDX 73 45 75 46 26 47 78 48 72 49 71 50 27 52 59 53 39 54 58 55
REMARK SMILES IDX 40 56 43 57 57 58 76 59 41 60 42 61 56 63 77 64 44 65 28 66
REMARK SMILES IDX 29 67 37 68 30 69 36 70 38 71 35 72 31 73 32 74 33 75 34 76
REMARK SMILES IDX 60 77 61 78 69 79 62 80 68 81 70 82 67 83 63 84 64 85 65 86
REMARK SMILES IDX 66 87 45 88 46 89 54 90 47 91 53 92 55 93 52 94 48 95 49 96
REMARK SMILES IDX 50 97 51 98
REMARK H PARENT 12 6 16 32 75 51 43 62
REMARK Flexibility Score: inf
ROOT
ATOM      1  C   UNL     1       1.720  -3.146   6.465  1.00  0.00     0.042 C 
ENDROOT
BRANCH   1   2
ATOM      2  C   UNL     1       2.170  -2.342   5.273  1.00  0.00     0.117 C 
BRANCH   2   3
ATOM      3  N   UNL     1       2.579  -3.182   4.168  1.00  0.00    -0.356 N 
ATOM      4  C   UNL     1       2.443  -2.978   2.839  1.00  0.00     0.226 C 
ATOM      5  O   UNL     1       2.883  -3.848   2.081  1.00  0.00    -0.275 OA
ATOM      6  H   UNL     1       3.020  -4.026   4.422  1.00  0.00     0.163 HD
BRANCH   4   7
ATOM      7  C   UNL     1       1.661  -1.826   2.269  1.00  0.00     0.115 C 
ATOM      8  N   UNL     1       0.725   0.306   2.470  1.00  0.00    -0.332 N 
ATOM      9  C   UNL     1      -0.335  -0.573   2.623  1.00  0.00     0.224 C 
ATOM     10  C   UNL     1       2.045  -0.350   2.493  1.00  0.00     0.130 C 
ATOM     11  O   UNL     1      -1.518  -0.280   2.709  1.00  0.00    -0.275 OA
ATOM     12  C   UNL     1       0.182  -1.975   2.620  1.00  0.00     0.116 C 
BRANCH   8  13
ATOM     13  C   UNL     1       0.498   1.721   2.173  1.00  0.00     0.148 C 
BRANCH  13  14
ATOM     14  C   UNL     1       1.054   2.209   0.829  1.00  0.00     0.181 C 
BRANCH  14  15
ATOM     15  O   UNL     1       0.353   1.722  -0.316  1.00  0.00    -0.383 OA
ATOM     16  C   UNL     1       0.712   0.406  -0.707  1.00  0.00     0.194 C 
ENDBRANCH  14  15
ENDBRANCH  13  14
ENDBRANCH   8  13
BRANCH  10  17
ATOM     17  C   UNL     1       2.983   0.094   3.618  1.00  0.00    -0.001 A 
ATOM     18  C   UNL     1       2.480   0.872   4.693  1.00  0.00     0.008 A 
ATOM     19  C   UNL     1       4.357  -0.284   3.656  1.00  0.00     0.042 A 
ATOM     20  C   UNL     1       3.285   1.286   5.756  1.00  0.00     0.001 A 
ATOM     21  C   UNL     1       5.147   0.166   4.740  1.00  0.00     0.026 A 
ATOM     22  C   UNL     1       4.622   0.936   5.778  1.00  0.00     0.002 A 
BRANCH  19  23
ATOM     23  N   UNL     1       4.909  -1.158   2.718  1.00  0.00    -0.367 N 
ATOM     24  C   UNL     1       5.241  -0.640   1.382  1.00  0.00     0.145 C 
ATOM     25  C   UNL     1       5.896  -2.168   3.184  1.00  0.00     0.145 C 
ATOM     26  C   UNL     1       5.354  -1.830   0.415  1.00  0.00     0.181 C 
ATOM     27  C   UNL     1       6.108  -3.267   2.127  1.00  0.00     0.181 C 
ATOM     28  O   UNL     1       6.403  -2.721   0.829  1.00  0.00    -0.378 OA
ENDBRANCH  19  23
ENDBRANCH  10  17
ENDBRANCH   4   7
ENDBRANCH   2   3
ENDBRANCH   1   2
BRANCH   1  29
ATOM     29  C   UNL     1       2.906  -3.792   7.154  1.00  0.00     0.118 C 
BRANCH  29  30
ATOM     30  N   UNL     1       3.748  -2.821   7.851  1.00  0.00    -0.352 N 
ATOM     31  C   UNL     1       4.004  -2.713   9.198  1.00  0.00     0.251 C 
ATOM     32  H   UNL     1       4.192  -2.154   7.278  1.00  0.00     0.163 HD
ATOM     33  O   UNL     1       4.580  -1.727   9.644  1.00  0.00    -0.269 OA
BRANCH  31  34
ATOM     34  C   UNL     1       3.534  -3.792  10.088  1.00  0.00     0.039 A 
ATOM     35  C   UNL     1       2.851  -3.474  11.261  1.00  0.00     0.014 A 
ATOM     36  C   UNL     1       3.694  -5.124   9.699  1.00  0.00     0.014 A 
ATOM     37  C   UNL     1       2.269  -4.499  12.009  1.00  0.00     0.010 A 
ATOM     38  C   UNL     1       2.987  -6.116  10.356  1.00  0.00     0.010 A 
ATOM     39  C   UNL     1       2.300  -5.824  11.542  1.00  0.00    -0.014 A 
BRANCH  39  40
ATOM     40  C   UNL     1       1.700  -6.942  12.314  1.00  0.00     0.031 A 
ATOM     41  C   UNL     1       2.584  -8.082  12.757  1.00  0.00     0.074 A 
ATOM     42  C   UNL     1       0.376  -6.965  12.562  1.00  0.00     0.049 A 
ATOM     43  N   UNL     1       2.263  -9.198  13.356  1.00  0.00    -0.248 NA
ATOM     44  C   UNL     1       4.016  -7.973  12.429  1.00  0.00     0.031 C 
ATOM     45  C   UNL     1      -0.589  -5.951  12.129  1.00  0.00     0.029 A 
ATOM     46  N   UNL     1      -0.389  -7.879  13.240  1.00  0.00    -0.354 N 
ATOM     47  C   UNL     1       3.444  -9.929  13.447  1.00  0.00     0.074 A 
ATOM     48  C   UNL     1       4.462  -9.174  12.754  1.00  0.00     0.031 C 
ATOM     49  C   UNL     1      -1.807  -6.277  12.592  1.00  0.00     0.029 A 
ATOM     50  C   UNL     1      -1.721  -7.542  13.314  1.00  0.00     0.049 A 
ATOM     51  H   UNL     1      -0.020  -8.701  13.637  1.00  0.00     0.167 HD
ATOM     52  C   UNL     1       3.672 -11.101  14.088  1.00  0.00     0.034 A 
ATOM     53  C   UNL     1      -2.751  -8.182  13.902  1.00  0.00     0.034 A 
ATOM     54  C   UNL     1       2.650 -11.817  14.809  1.00  0.00     0.049 A 
ATOM     55  C   UNL     1      -2.472  -9.473  14.631  1.00  0.00     0.074 A 
ATOM     56  C   UNL     1       2.766 -12.986  15.539  1.00  0.00     0.029 A 
ATOM     57  N   UNL     1       1.320 -11.424  14.896  1.00  0.00    -0.354 N 
ATOM     58  N   UNL     1      -1.339 -10.129  14.752  1.00  0.00    -0.248 NA
ATOM     59  C   UNL     1      -3.605 -10.096  15.324  1.00  0.00     0.031 C 
ATOM     60  C   UNL     1       1.496 -13.331  16.015  1.00  0.00     0.029 A 
ATOM     61  C   UNL     1       0.603 -12.334  15.654  1.00  0.00     0.049 A 
ATOM     62  H   UNL     1       0.943 -10.615  14.479  1.00  0.00     0.167 HD
ATOM     63  C   UNL     1      -1.619 -11.220  15.572  1.00  0.00     0.074 A 
ATOM     64  C   UNL     1      -3.020 -11.119  15.926  1.00  0.00     0.031 C 
ATOM     65  C   UNL     1      -0.795 -12.214  15.996  1.00  0.00     0.034 A 
BRANCH  52  66
ATOM     66  C   UNL     1       5.072 -11.668  14.019  1.00  0.00     0.023 A 
ATOM     67  C   UNL     1       6.182 -10.961  14.519  1.00  0.00     0.031 A 
ATOM     68  C   UNL     1       5.311 -12.904  13.395  1.00  0.00     0.131 A 
ATOM     69  C   UNL     1       7.480 -11.446  14.300  1.00  0.00     0.055 A 
ATOM     70  C   UNL     1       6.600 -13.428  13.268  1.00  0.00     0.041 A 
ATOM     71  F   UNL     1       4.299 -13.616  12.876  1.00  0.00    -0.206 F 
ATOM     72  C   UNL     1       7.696 -12.689  13.704  1.00  0.00     0.022 A 
BRANCH  69  73
ATOM     73  S   UNL     1       8.883 -10.350  14.652  1.00  0.00     0.124 S 
ATOM     74  O   UNL     1       8.602  -9.220  13.768  1.00  0.00    -0.237 OA
ATOM     75  O   UNL     1       8.736 -10.095  16.080  1.00  0.00    -0.237 OA
ATOM     76  O   UNL     1      10.046 -11.150  14.276  1.00  0.00    -0.744 OA
ENDBRANCH  69  73
ENDBRANCH  52  66
BRANCH  53  77
ATOM     77  C   UNL     1      -4.130  -7.616  13.850  1.00  0.00     0.023 A 
ATOM     78  C   UNL     1      -4.788  -7.206  15.021  1.00  0.00     0.031 A 
ATOM     79  C   UNL     1      -4.831  -7.520  12.635  1.00  0.00     0.131 A 
ATOM     80  C   UNL     1      -6.123  -6.775  14.962  1.00  0.00     0.055 A 
ATOM     81  C   UNL     1      -6.140  -7.037  12.574  1.00  0.00     0.041 A 
ATOM     82  F   UNL     1      -4.247  -7.889  11.484  1.00  0.00    -0.206 F 
ATOM     83  C   UNL     1      -6.799  -6.676  13.745  1.00  0.00     0.022 A 
BRANCH  80  84
ATOM     84  S   UNL     1      -6.995  -6.434  16.516  1.00  0.00     0.124 S 
ATOM     85  O   UNL     1      -6.869  -7.708  17.213  1.00  0.00    -0.237 OA
ATOM     86  O   UNL     1      -6.218  -5.325  17.061  1.00  0.00    -0.237 OA
ATOM     87  O   UNL     1      -8.346  -6.090  16.079  1.00  0.00    -0.744 OA
ENDBRANCH  80  84
ENDBRANCH  53  77
BRANCH  65  88
ATOM     88  C   UNL     1      -1.384 -13.229  16.947  1.00  0.00     0.023 A 
ATOM     89  C   UNL     1      -2.425 -14.091  16.563  1.00  0.00     0.031 A 
ATOM     90  C   UNL     1      -0.915 -13.308  18.270  1.00  0.00     0.131 A 
ATOM     91  C   UNL     1      -3.018 -14.936  17.512  1.00  0.00     0.055 A 
ATOM     92  C   UNL     1      -1.458 -14.205  19.191  1.00  0.00     0.041 A 
ATOM     93  F   UNL     1       0.078 -12.509  18.694  1.00  0.00    -0.206 F 
ATOM     94  C   UNL     1      -2.529 -15.012  18.819  1.00  0.00     0.022 A 
BRANCH  91  95
ATOM     95  S   UNL     1      -4.524 -15.836  17.052  1.00  0.00     0.124 S 
ATOM     96  O   UNL     1      -5.394 -14.757  16.594  1.00  0.00    -0.237 OA
ATOM     97  O   UNL     1      -4.039 -16.745  16.019  1.00  0.00    -0.237 OA
ATOM     98  O   UNL     1      -4.934 -16.476  18.300  1.00  0.00    -0.744 OA
ENDBRANCH  91  95
ENDBRANCH  65  88
ENDBRANCH  39  40
ENDBRANCH  31  34
ENDBRANCH  29  30
ENDBRANCH   1  29
TORSDOF 18
