REMARK SMILES C#CCN(CC(=O)NCCCNC(=O)c1ccc(-c2c3nc(c(-c4cc(S(=O)(=O)[O-])ccc4F)c4ccc([nH]4)c(-c4cc(S(=O)(=O)[O-])ccc4F)c4nc(c(-c5cc(S(=O)(=O)[O-])ccc5F)c5ccc2[nH]5)C=C4)C=C3)cc1)C(=O)C(C)(C)[NH2+]CC
REMARK SMILES IDX 9 1 8 2 6 3 7 4 5 6 4 7 3 8 2 9 1 10 78 11 79 12 80 13 81 14
REMARK SMILES IDX 82 15 83 16 84 19 85 20 10 21 11 22 12 23 13 24 14 26 15 27
REMARK SMILES IDX 16 28 77 29 17 30 76 31 18 32 19 33 20 34 70 35 21 36 75 37
REMARK SMILES IDX 69 38 71 39 22 40 74 41 68 42 67 43 23 45 55 46 35 47 54 48
REMARK SMILES IDX 36 49 39 50 53 51 72 52 37 53 38 54 52 56 73 57 40 58 24 59
REMARK SMILES IDX 25 60 33 61 26 62 32 63 34 64 31 65 27 66 28 67 29 68 30 69
REMARK SMILES IDX 56 70 57 71 65 72 58 73 64 74 66 75 63 76 59 77 60 78 61 79
REMARK SMILES IDX 62 80 41 81 42 82 50 83 43 84 49 85 51 86 48 87 44 88 45 89
REMARK SMILES IDX 46 90 47 91
REMARK H PARENT 8 5 83 17 83 18 12 25 71 44 39 55
REMARK Flexibility Score: inf
ROOT
ATOM      1  C   UNL     1      -5.249   0.059  -0.202  1.00  0.00     0.117 C 
ENDROOT
BRANCH   1   2
ATOM      2  N   UNL     1      -5.501   0.132   1.224  1.00  0.00    -0.354 N 
ATOM      3  C   UNL     1      -4.684   0.514   2.247  1.00  0.00     0.239 C 
ATOM      4  O   UNL     1      -5.223   0.802   3.321  1.00  0.00    -0.273 OA
ATOM      5  H   UNL     1      -6.407  -0.138   1.498  1.00  0.00     0.163 HD
BRANCH   3   6
ATOM      6  C   UNL     1      -3.172   0.715   2.069  1.00  0.00     0.220 C 
BRANCH   6   7
ATOM      7  N   UNL     1      -2.442  -0.354   1.389  1.00  0.00    -0.317 N 
BRANCH   7   8
ATOM      8  C   UNL     1      -1.879  -0.018   0.081  1.00  0.00     0.210 C 
BRANCH   8   9
ATOM      9  C   UNL     1      -0.359  -0.018   0.081  1.00  0.00    -0.085 C 
ATOM     10  C   UNL     1       0.945  -0.018   0.081  1.00  0.00     0.006 C 
ENDBRANCH   8   9
ENDBRANCH   7   8
BRANCH   7  11
ATOM     11  C   UNL     1      -2.234  -1.660   1.843  1.00  0.00     0.284 C 
ATOM     12  O   UNL     1      -1.828  -2.495   1.019  1.00  0.00    -0.268 OA
BRANCH  11  13
ATOM     13  C   UNL     1      -2.570  -2.141   3.322  1.00  0.00     0.170 C 
ATOM     14  C   UNL     1      -2.348  -1.126   4.446  1.00  0.00     0.090 C 
ATOM     15  C   UNL     1      -4.032  -2.626   3.338  1.00  0.00     0.090 C 
BRANCH  13  16
ATOM     16  N   UNL     1      -1.800  -3.379   3.655  1.00  0.00    -0.334 N 
ATOM     17  H   UNL     1      -2.142  -4.117   3.039  1.00  0.00     0.347 HD
ATOM     18  H   UNL     1      -1.963  -3.503   4.654  1.00  0.00     0.347 HD
BRANCH  16  19
ATOM     19  C   UNL     1      -0.346  -3.369   3.540  1.00  0.00     0.257 C 
ATOM     20  C   UNL     1       0.385  -2.764   4.731  1.00  0.00     0.071 C 
ENDBRANCH  16  19
ENDBRANCH  13  16
ENDBRANCH  11  13
ENDBRANCH   7  11
ENDBRANCH   6   7
ENDBRANCH   3   6
ENDBRANCH   1   2
BRANCH   1  21
ATOM     21  C   UNL     1      -5.082  -1.362  -0.735  1.00  0.00     0.042 C 
BRANCH  21  22
ATOM     22  C   UNL     1      -6.335  -2.235  -0.660  1.00  0.00     0.118 C 
BRANCH  22  23
ATOM     23  N   UNL     1      -7.461  -1.672  -1.389  1.00  0.00    -0.352 N 
ATOM     24  C   UNL     1      -8.095  -2.079  -2.537  1.00  0.00     0.251 C 
ATOM     25  H   UNL     1      -7.835  -0.854  -0.988  1.00  0.00     0.163 HD
ATOM     26  O   UNL     1      -8.893  -1.302  -3.070  1.00  0.00    -0.269 OA
BRANCH  24  27
ATOM     27  C   UNL     1      -7.836  -3.401  -3.152  1.00  0.00     0.039 A 
ATOM     28  C   UNL     1      -7.790  -3.493  -4.547  1.00  0.00     0.014 A 
ATOM     29  C   UNL     1      -7.696  -4.557  -2.381  1.00  0.00     0.014 A 
ATOM     30  C   UNL     1      -7.524  -4.721  -5.163  1.00  0.00     0.010 A 
ATOM     31  C   UNL     1      -7.368  -5.769  -2.991  1.00  0.00     0.010 A 
ATOM     32  C   UNL     1      -7.264  -5.861  -4.388  1.00  0.00    -0.014 A 
BRANCH  32  33
ATOM     33  C   UNL     1      -6.834  -7.141  -5.013  1.00  0.00     0.031 A 
ATOM     34  C   UNL     1      -7.693  -8.371  -4.913  1.00  0.00     0.074 A 
ATOM     35  C   UNL     1      -5.622  -7.211  -5.599  1.00  0.00     0.049 A 
ATOM     36  N   UNL     1      -7.431  -9.597  -5.289  1.00  0.00    -0.248 NA
ATOM     37  C   UNL     1      -9.012  -8.203  -4.287  1.00  0.00     0.031 C 
ATOM     38  C   UNL     1      -4.685  -6.093  -5.732  1.00  0.00     0.029 A 
ATOM     39  N   UNL     1      -4.960  -8.268  -6.173  1.00  0.00    -0.354 N 
ATOM     40  C   UNL     1      -8.544 -10.352  -4.935  1.00  0.00     0.074 A 
ATOM     41  C   UNL     1      -9.465  -9.449  -4.274  1.00  0.00     0.031 C 
ATOM     42  C   UNL     1      -3.574  -6.522  -6.351  1.00  0.00     0.029 A 
ATOM     43  C   UNL     1      -3.694  -7.952  -6.611  1.00  0.00     0.049 A 
ATOM     44  H   UNL     1      -5.353  -9.166  -6.263  1.00  0.00     0.167 HD
ATOM     45  C   UNL     1      -8.779 -11.671  -5.153  1.00  0.00     0.034 A 
ATOM     46  C   UNL     1      -2.725  -8.729  -7.134  1.00  0.00     0.034 A 
ATOM     47  C   UNL     1      -7.850 -12.556  -5.817  1.00  0.00     0.049 A 
ATOM     48  C   UNL     1      -2.989 -10.200  -7.318  1.00  0.00     0.074 A 
ATOM     49  C   UNL     1      -8.019 -13.889  -6.153  1.00  0.00     0.029 A 
ATOM     50  N   UNL     1      -6.570 -12.206  -6.229  1.00  0.00    -0.354 N 
ATOM     51  N   UNL     1      -4.069 -10.888  -7.026  1.00  0.00    -0.248 NA
ATOM     52  C   UNL     1      -1.904 -10.999  -7.902  1.00  0.00     0.031 C 
ATOM     53  C   UNL     1      -6.820 -14.361  -6.700  1.00  0.00     0.029 A 
ATOM     54  C   UNL     1      -5.924 -13.307  -6.774  1.00  0.00     0.049 A 
ATOM     55  H   UNL     1      -6.178 -11.306  -6.145  1.00  0.00     0.167 HD
ATOM     56  C   UNL     1      -3.796 -12.199  -7.407  1.00  0.00     0.074 A 
ATOM     57  C   UNL     1      -2.461 -12.199  -7.969  1.00  0.00     0.031 C 
ATOM     58  C   UNL     1      -4.580 -13.302  -7.303  1.00  0.00     0.034 A 
BRANCH  45  59
ATOM     59  C   UNL     1     -10.079 -12.242  -4.638  1.00  0.00     0.023 A 
ATOM     60  C   UNL     1     -11.324 -11.810  -5.129  1.00  0.00     0.031 A 
ATOM     61  C   UNL     1     -10.076 -13.222  -3.629  1.00  0.00     0.131 A 
ATOM     62  C   UNL     1     -12.511 -12.302  -4.564  1.00  0.00     0.055 A 
ATOM     63  C   UNL     1     -11.259 -13.764  -3.124  1.00  0.00     0.041 A 
ATOM     64  F   UNL     1      -8.920 -13.662  -3.107  1.00  0.00    -0.206 F 
ATOM     65  C   UNL     1     -12.487 -13.294  -3.581  1.00  0.00     0.022 A 
BRANCH  62  66
ATOM     66  S   UNL     1     -14.082 -11.528  -5.035  1.00  0.00     0.124 S 
ATOM     67  O   UNL     1     -13.849 -10.135  -4.664  1.00  0.00    -0.237 OA
ATOM     68  O   UNL     1     -14.154 -11.806  -6.465  1.00  0.00    -0.237 OA
ATOM     69  O   UNL     1     -15.069 -12.227  -4.213  1.00  0.00    -0.744 OA
ENDBRANCH  62  66
ENDBRANCH  45  59
BRANCH  46  70
ATOM     70  C   UNL     1      -1.399  -8.144  -7.485  1.00  0.00     0.023 A 
ATOM     71  C   UNL     1      -0.959  -8.096  -8.816  1.00  0.00     0.031 A 
ATOM     72  C   UNL     1      -0.539  -7.655  -6.486  1.00  0.00     0.131 A 
ATOM     73  C   UNL     1       0.322  -7.605  -9.111  1.00  0.00     0.055 A 
ATOM     74  C   UNL     1       0.715  -7.121  -6.788  1.00  0.00     0.041 A 
ATOM     75  F   UNL     1      -0.913  -7.676  -5.197  1.00  0.00    -0.206 F 
ATOM     76  C   UNL     1       1.156  -7.105  -8.108  1.00  0.00     0.022 A 
BRANCH  73  77
ATOM     77  S   UNL     1       0.914  -7.696 -10.822  1.00  0.00     0.124 S 
ATOM     78  O   UNL     1       0.835  -9.127 -11.090  1.00  0.00    -0.237 OA
ATOM     79  O   UNL     1      -0.054  -6.858 -11.523  1.00  0.00    -0.237 OA
ATOM     80  O   UNL     1       2.267  -7.149 -10.745  1.00  0.00    -0.744 OA
ENDBRANCH  73  77
ENDBRANCH  46  70
BRANCH  58  81
ATOM     81  C   UNL     1      -4.009 -14.595  -7.831  1.00  0.00     0.023 A 
ATOM     82  C   UNL     1      -2.916 -15.225  -7.209  1.00  0.00     0.031 A 
ATOM     83  C   UNL     1      -4.550 -15.194  -8.982  1.00  0.00     0.131 A 
ATOM     84  C   UNL     1      -2.365 -16.386  -7.772  1.00  0.00     0.055 A 
ATOM     85  C   UNL     1      -4.035 -16.381  -9.504  1.00  0.00     0.041 A 
ATOM     86  F   UNL     1      -5.590 -14.633  -9.619  1.00  0.00    -0.206 F 
ATOM     87  C   UNL     1      -2.928 -16.977  -8.906  1.00  0.00     0.022 A 
BRANCH  84  88
ATOM     88  S   UNL     1      -0.847 -17.070  -7.051  1.00  0.00     0.124 S 
ATOM     89  O   UNL     1       0.090 -15.963  -7.210  1.00  0.00    -0.237 OA
ATOM     90  O   UNL     1      -1.257 -17.368  -5.682  1.00  0.00    -0.237 OA
ATOM     91  O   UNL     1      -0.570 -18.241  -7.882  1.00  0.00    -0.744 OA
ENDBRANCH  84  88
ENDBRANCH  58  81
ENDBRANCH  32  33
ENDBRANCH  24  27
ENDBRANCH  22  23
ENDBRANCH  21  22
ENDBRANCH   1  21
TORSDOF 20
