REMARK SMILES Cc1ccc(CSCC(=O)N[C@H]2C=C[C@@H](C(=O)NCCCNC(=O)c3ccc(-c4c5nc(c(-c6cc(S(=O)(=O)[O-])ccc6F)c6ccc([nH]6)c(-c6cc(S(=O)(=O)[O-])ccc6F)c6nc(c(-c7cc(S(=O)(=O)[O-])ccc7F)c7ccc4[nH]7)C=C6)C=C5)cc3)C2)cc1
REMARK SMILES IDX 19 1 18 2 16 3 17 4 15 6 12 7 13 8 88 9 14 10 11 11 9 12
REMARK SMILES IDX 10 13 8 15 7 16 6 17 5 18 1 19 2 20 3 21 90 22 4 23 89 24
REMARK SMILES IDX 20 25 21 26 22 27 23 28 24 30 25 31 26 32 87 33 27 34 86 35
REMARK SMILES IDX 28 36 29 37 30 38 80 39 31 40 85 41 79 42 81 43 32 44 84 45
REMARK SMILES IDX 78 46 77 47 33 49 65 50 45 51 64 52 46 53 49 54 63 55 82 56
REMARK SMILES IDX 47 57 48 58 62 60 83 61 50 62 34 63 35 64 43 65 36 66 42 67
REMARK SMILES IDX 44 68 41 69 37 70 38 71 39 72 40 73 66 74 67 75 75 76 68 77
REMARK SMILES IDX 74 78 76 79 73 80 69 81 70 82 71 83 72 84 51 85 52 86 60 87
REMARK SMILES IDX 53 88 59 89 61 90 58 91 54 92 55 93 56 94 57 95
REMARK H PARENT 18 5 11 14 22 29 81 48 49 59
REMARK Flexibility Score: inf
ROOT
ATOM      1  C   UNL     1      -5.229  -1.094   0.329  1.00  0.00     0.117 C 
ENDROOT
BRANCH   1   2
ATOM      2  N   UNL     1      -6.636  -1.276   0.649  1.00  0.00    -0.356 N 
ATOM      3  C   UNL     1      -7.756  -1.178  -0.114  1.00  0.00     0.227 C 
ATOM      4  O   UNL     1      -8.844  -1.387   0.435  1.00  0.00    -0.274 OA
ATOM      5  H   UNL     1      -6.808  -1.512   1.590  1.00  0.00     0.163 HD
BRANCH   3   6
ATOM      6  C   UNL     1      -7.733  -0.790  -1.597  1.00  0.00     0.103 C 
ATOM      7  C   UNL     1      -6.334   0.561  -3.128  1.00  0.00     0.106 C 
ATOM      8  C   UNL     1      -6.117  -0.899  -3.296  1.00  0.00    -0.006 C 
ATOM      9  C   UNL     1      -7.257   0.635  -1.888  1.00  0.00     0.047 C 
ATOM     10  C   UNL     1      -6.869  -1.636  -2.470  1.00  0.00    -0.016 C 
BRANCH   7  11
ATOM     11  N   UNL     1      -5.140   1.354  -2.874  1.00  0.00    -0.349 N 
ATOM     12  C   UNL     1      -3.912   1.461  -3.439  1.00  0.00     0.230 C 
ATOM     13  O   UNL     1      -3.282   2.493  -3.179  1.00  0.00    -0.274 OA
ATOM     14  H   UNL     1      -5.250   1.959  -2.106  1.00  0.00     0.164 HD
BRANCH  12  15
ATOM     15  C   UNL     1      -3.298   0.398  -4.318  1.00  0.00     0.169 C 
BRANCH  15  16
ATOM     16  S   UNL     1      -2.701  -1.091  -3.471  1.00  0.00    -0.147 SA
BRANCH  16  17
ATOM     17  C   UNL     1      -2.301  -0.483  -1.811  1.00  0.00     0.105 C 
BRANCH  17  18
ATOM     18  C   UNL     1      -0.839  -0.248  -1.557  1.00  0.00    -0.038 A 
ATOM     19  C   UNL     1       3.159   0.245  -0.022  1.00  0.00     0.044 C 
ATOM     20  C   UNL     1       1.808   0.107  -0.655  1.00  0.00    -0.051 A 
ATOM     21  C   UNL     1       1.342  -1.165  -1.008  1.00  0.00     0.004 A 
ATOM     22  C   UNL     1       0.951   1.207  -0.787  1.00  0.00     0.004 A 
ATOM     23  C   UNL     1       0.030  -1.342  -1.450  1.00  0.00     0.005 A 
ATOM     24  C   UNL     1      -0.360   1.033  -1.243  1.00  0.00     0.005 A 
ENDBRANCH  17  18
ENDBRANCH  16  17
ENDBRANCH  15  16
ENDBRANCH  12  15
ENDBRANCH   7  11
ENDBRANCH   3   6
ENDBRANCH   1   2
BRANCH   1  25
ATOM     25  C   UNL     1      -4.703   0.224   0.885  1.00  0.00     0.042 C 
BRANCH  25  26
ATOM     26  C   UNL     1      -3.657   0.055   1.984  1.00  0.00     0.118 C 
BRANCH  26  27
ATOM     27  N   UNL     1      -2.373  -0.472   1.519  1.00  0.00    -0.352 N 
ATOM     28  C   UNL     1      -1.060  -0.334   1.956  1.00  0.00     0.251 C 
ATOM     29  H   UNL     1      -2.458  -1.048   0.725  1.00  0.00     0.163 HD
ATOM     30  O   UNL     1      -0.204  -1.077   1.531  1.00  0.00    -0.269 OA
BRANCH  28  31
ATOM     31  C   UNL     1      -0.679   0.529   3.111  1.00  0.00     0.039 A 
ATOM     32  C   UNL     1      -0.014  -0.238   4.080  1.00  0.00     0.014 A 
ATOM     33  C   UNL     1      -1.533   1.542   3.495  1.00  0.00     0.014 A 
ATOM     34  C   UNL     1      -0.660  -0.442   5.282  1.00  0.00     0.010 A 
ATOM     35  C   UNL     1      -2.227   1.309   4.661  1.00  0.00     0.010 A 
ATOM     36  C   UNL     1      -1.865   0.221   5.471  1.00  0.00    -0.014 A 
BRANCH  36  37
ATOM     37  C   UNL     1      -2.865  -0.226   6.420  1.00  0.00     0.031 A 
ATOM     38  C   UNL     1      -3.053   0.571   7.640  1.00  0.00     0.074 A 
ATOM     39  C   UNL     1      -3.608  -1.332   6.192  1.00  0.00     0.049 A 
ATOM     40  N   UNL     1      -3.579   0.127   8.725  1.00  0.00    -0.248 NA
ATOM     41  C   UNL     1      -2.554   1.936   7.760  1.00  0.00     0.031 C 
ATOM     42  C   UNL     1      -4.805  -1.750   6.918  1.00  0.00     0.029 A 
ATOM     43  N   UNL     1      -3.345  -2.415   5.372  1.00  0.00    -0.354 N 
ATOM     44  C   UNL     1      -3.769   1.198   9.564  1.00  0.00     0.074 A 
ATOM     45  C   UNL     1      -3.004   2.264   8.971  1.00  0.00     0.031 C 
ATOM     46  C   UNL     1      -5.016  -3.059   6.704  1.00  0.00     0.029 A 
ATOM     47  C   UNL     1      -3.885  -3.566   5.949  1.00  0.00     0.049 A 
ATOM     48  H   UNL     1      -2.855  -2.379   4.518  1.00  0.00     0.167 HD
ATOM     49  C   UNL     1      -4.673   1.073  10.573  1.00  0.00     0.034 A 
ATOM     50  C   UNL     1      -3.101  -4.613   6.345  1.00  0.00     0.034 A 
ATOM     51  C   UNL     1      -5.090  -0.329  10.720  1.00  0.00     0.049 A 
ATOM     52  C   UNL     1      -3.115  -4.842   7.848  1.00  0.00     0.074 A 
ATOM     53  C   UNL     1      -6.228  -1.028  10.354  1.00  0.00     0.029 A 
ATOM     54  N   UNL     1      -4.134  -1.287  11.047  1.00  0.00    -0.354 N 
ATOM     55  N   UNL     1      -3.589  -3.986   8.715  1.00  0.00    -0.248 NA
ATOM     56  C   UNL     1      -2.595  -6.044   8.493  1.00  0.00     0.031 C 
ATOM     57  C   UNL     1      -5.919  -2.417  10.389  1.00  0.00     0.029 A 
ATOM     58  C   UNL     1      -4.610  -2.564  10.816  1.00  0.00     0.049 A 
ATOM     59  H   UNL     1      -3.236  -1.082  11.396  1.00  0.00     0.167 HD
ATOM     60  C   UNL     1      -3.420  -4.465   9.990  1.00  0.00     0.074 A 
ATOM     61  C   UNL     1      -2.820  -5.774   9.792  1.00  0.00     0.031 C 
ATOM     62  C   UNL     1      -3.771  -3.728  11.091  1.00  0.00     0.034 A 
BRANCH  49  63
ATOM     63  C   UNL     1      -5.397   2.233  11.235  1.00  0.00     0.023 A 
ATOM     64  C   UNL     1      -6.594   1.962  11.932  1.00  0.00     0.031 A 
ATOM     65  C   UNL     1      -5.062   3.602  11.153  1.00  0.00     0.131 A 
ATOM     66  C   UNL     1      -7.416   2.996  12.423  1.00  0.00     0.055 A 
ATOM     67  C   UNL     1      -5.885   4.631  11.627  1.00  0.00     0.041 A 
ATOM     68  F   UNL     1      -3.913   4.039  10.636  1.00  0.00    -0.206 F 
ATOM     69  C   UNL     1      -7.076   4.334  12.257  1.00  0.00     0.022 A 
BRANCH  66  70
ATOM     70  S   UNL     1      -8.960   2.570  13.268  1.00  0.00     0.124 S 
ATOM     71  O   UNL     1      -9.710   1.896  12.214  1.00  0.00    -0.237 OA
ATOM     72  O   UNL     1      -8.491   1.735  14.368  1.00  0.00    -0.237 OA
ATOM     73  O   UNL     1      -9.495   3.872  13.669  1.00  0.00    -0.744 OA
ENDBRANCH  66  70
ENDBRANCH  49  63
BRANCH  50  74
ATOM     74  C   UNL     1      -1.952  -4.859   5.429  1.00  0.00     0.023 A 
ATOM     75  C   UNL     1      -2.262  -5.259   4.112  1.00  0.00     0.031 A 
ATOM     76  C   UNL     1      -0.685  -4.306   5.666  1.00  0.00     0.131 A 
ATOM     77  C   UNL     1      -1.396  -4.941   3.055  1.00  0.00     0.055 A 
ATOM     78  C   UNL     1       0.202  -4.048   4.611  1.00  0.00     0.041 A 
ATOM     79  F   UNL     1      -0.344  -3.879   6.890  1.00  0.00    -0.206 F 
ATOM     80  C   UNL     1      -0.168  -4.326   3.294  1.00  0.00     0.022 A 
BRANCH  77  81
ATOM     81  S   UNL     1      -2.009  -5.155   1.359  1.00  0.00     0.124 S 
ATOM     82  O   UNL     1      -2.418  -6.556   1.352  1.00  0.00    -0.237 OA
ATOM     83  O   UNL     1      -3.093  -4.173   1.309  1.00  0.00    -0.237 OA
ATOM     84  O   UNL     1      -0.855  -4.845   0.521  1.00  0.00    -0.744 OA
ENDBRANCH  77  81
ENDBRANCH  50  74
BRANCH  62  85
ATOM     85  C   UNL     1      -3.418  -4.047  12.536  1.00  0.00     0.023 A 
ATOM     86  C   UNL     1      -2.459  -4.997  12.915  1.00  0.00     0.031 A 
ATOM     87  C   UNL     1      -4.002  -3.320  13.607  1.00  0.00     0.131 A 
ATOM     88  C   UNL     1      -2.171  -5.248  14.271  1.00  0.00     0.055 A 
ATOM     89  C   UNL     1      -3.650  -3.508  14.947  1.00  0.00     0.041 A 
ATOM     90  F   UNL     1      -4.938  -2.382  13.402  1.00  0.00    -0.206 F 
ATOM     91  C   UNL     1      -2.739  -4.491  15.290  1.00  0.00     0.022 A 
BRANCH  88  92
ATOM     92  S   UNL     1      -1.091  -6.647  14.674  1.00  0.00     0.124 S 
ATOM     93  O   UNL     1      -1.832  -7.771  14.106  1.00  0.00    -0.237 OA
ATOM     94  O   UNL     1       0.147  -6.294  13.989  1.00  0.00    -0.237 OA
ATOM     95  O   UNL     1      -1.024  -6.624  16.134  1.00  0.00    -0.744 OA
ENDBRANCH  88  92
ENDBRANCH  62  85
ENDBRANCH  36  37
ENDBRANCH  28  31
ENDBRANCH  26  27
ENDBRANCH  25  26
ENDBRANCH   1  25
TORSDOF 18
