REMARK SMILES Cc1cc(C)c2c(OCCCC(=O)NCCCNC(=O)c3ccc(-c4c5nc(c(-c6cc(S(=O)(=O)[O-])ccc6F)c6ccc([nH]6)c(-c6cc(S(=O)(=O)[O-])ccc6F)c6nc(c(-c7cc(S(=O)(=O)[O-])ccc7F)c7ccc4[nH]7)C=C6)C=C5)cc3)nsc2n1
REMARK SMILES IDX 15 1 14 2 12 3 13 4 11 6 10 7 9 8 8 9 7 10 1 11 2 12 3 13
REMARK SMILES IDX 87 14 4 15 86 16 5 17 6 18 85 19 84 20 16 21 17 22 18 23
REMARK SMILES IDX 19 24 20 26 21 27 22 28 83 29 23 30 82 31 24 32 25 33 26 34
REMARK SMILES IDX 76 35 27 36 81 37 75 38 77 39 28 40 80 41 74 42 73 43 29 45
REMARK SMILES IDX 61 46 41 47 60 48 42 49 45 50 59 51 78 52 43 53 44 54 58 56
REMARK SMILES IDX 79 57 46 58 30 59 31 60 39 61 32 62 38 63 40 64 37 65 33 66
REMARK SMILES IDX 34 67 35 68 36 69 62 70 63 71 71 72 64 73 70 74 72 75 69 76
REMARK SMILES IDX 65 77 66 78 67 79 68 80 47 81 48 82 56 83 49 84 55 85 57 86
REMARK SMILES IDX 54 87 50 88 51 89 52 90 53 91
REMARK H PARENT 14 5 18 25 77 44 45 55
REMARK Flexibility Score: inf
ROOT
ATOM      1  C   UNL     1      -3.317   2.237  -2.030  1.00  0.00     0.117 C 
ENDROOT
BRANCH   1   2
ATOM      2  N   UNL     1      -2.661   1.238  -3.082  1.00  0.00    -0.356 N 
ATOM      3  C   UNL     1      -1.650   0.917  -3.970  1.00  0.00     0.220 C 
ATOM      4  O   UNL     1      -1.826  -0.264  -4.357  1.00  0.00    -0.275 OA
ATOM      5  H   UNL     1      -3.278   0.472  -3.118  1.00  0.00     0.163 HD
BRANCH   3   6
ATOM      6  C   UNL     1      -0.177   1.552  -4.511  1.00  0.00     0.103 C 
BRANCH   6   7
ATOM      7  C   UNL     1       0.515   2.760  -5.410  1.00  0.00     0.051 C 
BRANCH   7   8
ATOM      8  C   UNL     1       0.499   4.384  -5.384  1.00  0.00     0.232 C 
BRANCH   8   9
ATOM      9  O   UNL     1       1.353   5.253  -4.607  1.00  0.00    -0.477 OA
BRANCH   9  10
ATOM     10  C   UNL     1       1.373   5.299  -3.246  1.00  0.00     0.235 A 
ATOM     11  C   UNL     1       1.185   1.066   0.247  1.00  0.00     0.067 C 
ATOM     12  C   UNL     1       0.946   2.338  -0.527  1.00  0.00     0.039 A 
ATOM     13  C   UNL     1      -0.025   2.355  -1.524  1.00  0.00     0.027 A 
ATOM     14  N   UNL     1       1.685   3.428  -0.209  1.00  0.00    -0.240 NA
ATOM     15  C   UNL     1      -0.147   3.465  -2.380  1.00  0.00    -0.034 A 
ATOM     16  C   UNL     1       1.616   4.400  -1.144  1.00  0.00     0.147 A 
ATOM     17  C   UNL     1      -1.204   3.846  -3.330  1.00  0.00     0.045 C 
ATOM     18  C   UNL     1       0.878   4.371  -2.309  1.00  0.00     0.078 A 
ATOM     19  S   UNL     1       2.370   5.926  -1.102  1.00  0.00    -0.012 S 
ATOM     20  N   UNL     1       2.080   6.299  -2.719  1.00  0.00    -0.153 NA
ENDBRANCH   9  10
ENDBRANCH   8   9
ENDBRANCH   7   8
ENDBRANCH   6   7
ENDBRANCH   3   6
ENDBRANCH   1   2
BRANCH   1  21
ATOM     21  C   UNL     1      -3.931   3.561  -2.623  1.00  0.00     0.042 C 
BRANCH  21  22
ATOM     22  C   UNL     1      -5.296   4.058  -2.235  1.00  0.00     0.118 C 
BRANCH  22  23
ATOM     23  N   UNL     1      -5.333   4.829  -0.989  1.00  0.00    -0.352 N 
ATOM     24  C   UNL     1      -6.467   4.999  -0.198  1.00  0.00     0.251 C 
ATOM     25  H   UNL     1      -4.498   5.256  -0.690  1.00  0.00     0.163 HD
ATOM     26  O   UNL     1      -6.642   5.985   0.476  1.00  0.00    -0.269 OA
BRANCH  24  27
ATOM     27  C   UNL     1      -7.442   3.892  -0.270  1.00  0.00     0.039 A 
ATOM     28  C   UNL     1      -8.768   4.130  -0.615  1.00  0.00     0.014 A 
ATOM     29  C   UNL     1      -6.895   2.609  -0.286  1.00  0.00     0.014 A 
ATOM     30  C   UNL     1      -9.511   3.055  -1.091  1.00  0.00     0.010 A 
ATOM     31  C   UNL     1      -7.563   1.622  -0.966  1.00  0.00     0.010 A 
ATOM     32  C   UNL     1      -8.886   1.810  -1.332  1.00  0.00    -0.014 A 
BRANCH  32  33
ATOM     33  C   UNL     1      -9.570   0.753  -2.080  1.00  0.00     0.031 A 
ATOM     34  C   UNL     1     -10.441   1.249  -3.172  1.00  0.00     0.074 A 
ATOM     35  C   UNL     1      -9.439  -0.577  -1.871  1.00  0.00     0.049 A 
ATOM     36  N   UNL     1     -11.695   1.517  -3.041  1.00  0.00    -0.248 NA
ATOM     37  C   UNL     1      -9.873   1.707  -4.447  1.00  0.00     0.031 C 
ATOM     38  C   UNL     1      -8.517  -1.306  -0.994  1.00  0.00     0.029 A 
ATOM     39  N   UNL     1     -10.143  -1.589  -2.454  1.00  0.00    -0.354 N 
ATOM     40  C   UNL     1     -12.145   1.913  -4.287  1.00  0.00     0.074 A 
ATOM     41  C   UNL     1     -10.958   2.214  -5.045  1.00  0.00     0.031 C 
ATOM     42  C   UNL     1      -8.579  -2.632  -1.252  1.00  0.00     0.029 A 
ATOM     43  C   UNL     1      -9.670  -2.870  -2.179  1.00  0.00     0.049 A 
ATOM     44  H   UNL     1     -10.928  -1.427  -3.026  1.00  0.00     0.167 HD
ATOM     45  C   UNL     1     -13.445   1.700  -4.628  1.00  0.00     0.034 A 
ATOM     46  C   UNL     1     -10.188  -4.064  -2.584  1.00  0.00     0.034 A 
ATOM     47  C   UNL     1     -14.238   1.377  -3.453  1.00  0.00     0.049 A 
ATOM     48  C   UNL     1     -11.639  -3.818  -2.785  1.00  0.00     0.074 A 
ATOM     49  C   UNL     1     -14.479   2.013  -2.247  1.00  0.00     0.029 A 
ATOM     50  N   UNL     1     -14.562   0.053  -3.235  1.00  0.00    -0.354 N 
ATOM     51  N   UNL     1     -12.444  -3.513  -1.799  1.00  0.00    -0.248 NA
ATOM     52  C   UNL     1     -12.079  -3.384  -4.102  1.00  0.00     0.031 C 
ATOM     53  C   UNL     1     -14.408   0.976  -1.268  1.00  0.00     0.029 A 
ATOM     54  C   UNL     1     -14.238  -0.240  -1.932  1.00  0.00     0.049 A 
ATOM     55  H   UNL     1     -14.952  -0.567  -3.893  1.00  0.00     0.167 HD
ATOM     56  C   UNL     1     -13.240  -2.489  -2.292  1.00  0.00     0.074 A 
ATOM     57  C   UNL     1     -13.016  -2.502  -3.739  1.00  0.00     0.031 C 
ATOM     58  C   UNL     1     -13.792  -1.544  -1.474  1.00  0.00     0.034 A 
BRANCH  45  59
ATOM     59  C   UNL     1     -13.927   1.369  -6.018  1.00  0.00     0.023 A 
ATOM     60  C   UNL     1     -15.308   1.143  -6.168  1.00  0.00     0.031 A 
ATOM     61  C   UNL     1     -13.113   0.956  -7.095  1.00  0.00     0.131 A 
ATOM     62  C   UNL     1     -15.804   0.414  -7.259  1.00  0.00     0.055 A 
ATOM     63  C   UNL     1     -13.620   0.286  -8.211  1.00  0.00     0.041 A 
ATOM     64  F   UNL     1     -11.782   1.090  -7.093  1.00  0.00    -0.206 F 
ATOM     65  C   UNL     1     -14.967  -0.025  -8.280  1.00  0.00     0.022 A 
BRANCH  62  66
ATOM     66  S   UNL     1     -17.539  -0.096  -7.218  1.00  0.00     0.124 S 
ATOM     67  O   UNL     1     -17.580  -0.881  -5.989  1.00  0.00    -0.237 OA
ATOM     68  O   UNL     1     -18.228   1.190  -7.184  1.00  0.00    -0.237 OA
ATOM     69  O   UNL     1     -17.697  -0.856  -8.455  1.00  0.00    -0.744 OA
ENDBRANCH  62  66
ENDBRANCH  45  59
BRANCH  46  70
ATOM     70  C   UNL     1      -9.424  -5.206  -3.182  1.00  0.00     0.023 A 
ATOM     71  C   UNL     1     -10.027  -6.442  -3.525  1.00  0.00     0.031 A 
ATOM     72  C   UNL     1      -8.102  -5.010  -3.647  1.00  0.00     0.131 A 
ATOM     73  C   UNL     1      -9.320  -7.398  -4.301  1.00  0.00     0.055 A 
ATOM     74  C   UNL     1      -7.414  -5.954  -4.414  1.00  0.00     0.041 A 
ATOM     75  F   UNL     1      -7.452  -3.855  -3.440  1.00  0.00    -0.206 F 
ATOM     76  C   UNL     1      -8.024  -7.149  -4.754  1.00  0.00     0.022 A 
BRANCH  73  77
ATOM     77  S   UNL     1     -10.111  -8.957  -4.832  1.00  0.00     0.124 S 
ATOM     78  O   UNL     1     -10.104  -9.741  -3.603  1.00  0.00    -0.237 OA
ATOM     79  O   UNL     1     -11.415  -8.507  -5.307  1.00  0.00    -0.237 OA
ATOM     80  O   UNL     1      -9.218  -9.451  -5.881  1.00  0.00    -0.744 OA
ENDBRANCH  73  77
ENDBRANCH  46  70
BRANCH  58  81
ATOM     81  C   UNL     1     -13.796  -1.763   0.027  1.00  0.00     0.023 A 
ATOM     82  C   UNL     1     -12.648  -1.872   0.845  1.00  0.00     0.031 A 
ATOM     83  C   UNL     1     -15.047  -1.680   0.666  1.00  0.00     0.131 A 
ATOM     84  C   UNL     1     -12.787  -1.883   2.252  1.00  0.00     0.055 A 
ATOM     85  C   UNL     1     -15.178  -1.669   2.053  1.00  0.00     0.041 A 
ATOM     86  F   UNL     1     -16.172  -1.550  -0.058  1.00  0.00    -0.206 F 
ATOM     87  C   UNL     1     -14.047  -1.770   2.852  1.00  0.00     0.022 A 
BRANCH  84  88
ATOM     88  S   UNL     1     -11.325  -2.012   3.336  1.00  0.00     0.124 S 
ATOM     89  O   UNL     1     -10.706  -3.264   2.915  1.00  0.00    -0.237 OA
ATOM     90  O   UNL     1     -10.581  -0.795   3.024  1.00  0.00    -0.237 OA
ATOM     91  O   UNL     1     -11.897  -2.042   4.684  1.00  0.00    -0.744 OA
ENDBRANCH  84  88
ENDBRANCH  58  81
ENDBRANCH  32  33
ENDBRANCH  24  27
ENDBRANCH  22  23
ENDBRANCH  21  22
ENDBRANCH   1  21
TORSDOF 17
