REMARK SMILES COC(=O)c1ccc([C@H]2CC(=O)Nc3c(C(=O)NCCCNC(=O)c4ccc(-c5c6nc(c(-c7cc(S(=O)(=O)[O-])ccc7F)c7ccc([nH]7)c(-c7cc(S(=O)(=O)[O-])ccc7F)c7nc(c(-c8cc(S(=O)(=O)[O-])ccc8F)c8ccc5[nH]8)C=C7)C=C6)cc4)cn(-c4ccccc4)c32)cc1
REMARK SMILES IDX 20 1 19 2 18 3 16 4 17 5 15 7 9 8 10 9 96 10 11 11 14 12
REMARK SMILES IDX 89 13 12 14 13 15 88 16 8 18 5 19 6 20 98 21 7 22 97 23 3 24
REMARK SMILES IDX 4 25 2 26 1 27 90 28 91 29 95 30 92 31 94 32 93 33 21 34
REMARK SMILES IDX 22 35 23 36 24 38 25 39 26 40 87 41 27 42 86 43 28 44 29 45
REMARK SMILES IDX 30 46 80 47 31 48 85 49 79 50 81 51 32 52 84 53 78 54 77 55
REMARK SMILES IDX 33 57 65 58 45 59 64 60 46 61 49 62 63 63 82 64 47 65 48 66
REMARK SMILES IDX 62 68 83 69 50 70 34 71 35 72 43 73 36 74 42 75 44 76 41 77
REMARK SMILES IDX 37 78 38 79 39 80 40 81 66 82 67 83 75 84 68 85 74 86 76 87
REMARK SMILES IDX 73 88 69 89 70 90 71 91 72 92 51 93 52 94 60 95 53 96 59 97
REMARK SMILES IDX 61 98 58 99 54 100 55 101 56 102 57 103
REMARK H PARENT 18 6 13 17 22 37 81 56 49 67
REMARK Flexibility Score: inf
ROOT
ATOM      1  C   UNL     1      -4.517  10.899  -3.291  1.00  0.00     0.042 C 
ENDROOT
BRANCH   1   2
ATOM      2  C   UNL     1      -4.455   9.871  -4.432  1.00  0.00     0.118 C 
BRANCH   2   3
ATOM      3  N   UNL     1      -3.242   9.969  -5.211  1.00  0.00    -0.352 N 
ATOM      4  C   UNL     1      -1.953   9.541  -5.039  1.00  0.00     0.254 C 
ATOM      5  O   UNL     1      -1.220   9.718  -6.018  1.00  0.00    -0.269 OA
ATOM      6  H   UNL     1      -3.372  10.453  -6.058  1.00  0.00     0.163 HD
BRANCH   4   7
ATOM      7  C   UNL     1      -1.402   8.932  -3.816  1.00  0.00     0.081 A 
ATOM      8  C   UNL     1      -0.848   7.798  -0.282  1.00  0.00     0.078 C 
ATOM      9  C   UNL     1      -2.103   8.456   0.331  1.00  0.00     0.115 C 
ATOM     10  C   UNL     1      -0.776   8.132  -1.753  1.00  0.00     0.055 A 
ATOM     11  C   UNL     1      -3.298   8.456  -0.570  1.00  0.00     0.225 C 
ATOM     12  C   UNL     1      -1.843   8.604  -2.499  1.00  0.00     0.076 A 
ATOM     13  N   UNL     1       0.268   7.921  -2.629  1.00  0.00    -0.317 N 
ATOM     14  O   UNL     1      -4.447   8.415  -0.133  1.00  0.00    -0.275 OA
ATOM     15  N   UNL     1      -3.074   8.636  -1.899  1.00  0.00    -0.324 N 
ATOM     16  C   UNL     1      -0.061   8.536  -3.813  1.00  0.00     0.107 A 
ATOM     17  H   UNL     1      -3.855   8.803  -2.474  1.00  0.00     0.170 HD
BRANCH   8  18
ATOM     18  C   UNL     1       0.300   8.218   0.642  1.00  0.00    -0.038 A 
ATOM     19  C   UNL     1       2.120   9.151   2.592  1.00  0.00     0.060 A 
ATOM     20  C   UNL     1       1.138   8.223   2.938  1.00  0.00     0.016 A 
ATOM     21  C   UNL     1       2.216   9.590   1.267  1.00  0.00     0.016 A 
ATOM     22  C   UNL     1       0.259   7.745   1.970  1.00  0.00     0.005 A 
ATOM     23  C   UNL     1       1.295   9.147   0.307  1.00  0.00     0.005 A 
BRANCH  19  24
ATOM     24  C   UNL     1       3.006   9.642   3.678  1.00  0.00     0.337 C 
ATOM     25  O   UNL     1       3.117   9.087   4.754  1.00  0.00    -0.246 OA
BRANCH  24  26
ATOM     26  O   UNL     1       3.608  10.804   3.313  1.00  0.00    -0.465 OA
ATOM     27  C   UNL     1       4.410  11.373   4.348  1.00  0.00     0.282 C 
ENDBRANCH  24  26
ENDBRANCH  19  24
ENDBRANCH   8  18
BRANCH  13  28
ATOM     28  C   UNL     1       1.473   7.221  -2.390  1.00  0.00     0.045 A 
ATOM     29  C   UNL     1       1.446   5.999  -1.709  1.00  0.00     0.026 A 
ATOM     30  C   UNL     1       2.690   7.782  -2.794  1.00  0.00     0.026 A 
ATOM     31  C   UNL     1       2.642   5.369  -1.374  1.00  0.00     0.002 A 
ATOM     32  C   UNL     1       3.883   7.162  -2.422  1.00  0.00     0.002 A 
ATOM     33  C   UNL     1       3.859   5.964  -1.706  1.00  0.00     0.000 A 
ENDBRANCH  13  28
ENDBRANCH   4   7
ENDBRANCH   2   3
ENDBRANCH   1   2
BRANCH   1  34
ATOM     34  C   UNL     1      -5.427  12.066  -3.618  1.00  0.00     0.118 C 
BRANCH  34  35
ATOM     35  N   UNL     1      -6.842  11.664  -3.588  1.00  0.00    -0.352 N 
ATOM     36  C   UNL     1      -7.948  12.356  -4.047  1.00  0.00     0.251 C 
ATOM     37  H   UNL     1      -7.026  10.784  -3.187  1.00  0.00     0.163 HD
ATOM     38  O   UNL     1      -9.067  12.095  -3.624  1.00  0.00    -0.269 OA
BRANCH  36  39
ATOM     39  C   UNL     1      -7.733  13.414  -5.046  1.00  0.00     0.039 A 
ATOM     40  C   UNL     1      -8.392  14.642  -4.989  1.00  0.00     0.014 A 
ATOM     41  C   UNL     1      -6.747  13.175  -5.994  1.00  0.00     0.014 A 
ATOM     42  C   UNL     1      -7.964  15.658  -5.841  1.00  0.00     0.010 A 
ATOM     43  C   UNL     1      -6.167  14.236  -6.627  1.00  0.00     0.010 A 
ATOM     44  C   UNL     1      -6.819  15.456  -6.636  1.00  0.00    -0.014 A 
BRANCH  44  45
ATOM     45  C   UNL     1      -6.203  16.536  -7.399  1.00  0.00     0.031 A 
ATOM     46  C   UNL     1      -6.009  17.780  -6.615  1.00  0.00     0.074 A 
ATOM     47  C   UNL     1      -5.682  16.378  -8.639  1.00  0.00     0.049 A 
ATOM     48  N   UNL     1      -6.722  18.853  -6.687  1.00  0.00    -0.248 NA
ATOM     49  C   UNL     1      -5.069  17.773  -5.483  1.00  0.00     0.031 C 
ATOM     50  C   UNL     1      -5.543  15.153  -9.437  1.00  0.00     0.029 A 
ATOM     51  N   UNL     1      -5.076  17.302  -9.432  1.00  0.00    -0.354 N 
ATOM     52  C   UNL     1      -6.145  19.757  -5.806  1.00  0.00     0.074 A 
ATOM     53  C   UNL     1      -5.303  18.972  -4.943  1.00  0.00     0.031 C 
ATOM     54  C   UNL     1      -4.701  15.367 -10.473  1.00  0.00     0.029 A 
ATOM     55  C   UNL     1      -4.389  16.783 -10.529  1.00  0.00     0.049 A 
ATOM     56  H   UNL     1      -5.119  18.268  -9.245  1.00  0.00     0.167 HD
ATOM     57  C   UNL     1      -6.220  21.096  -6.046  1.00  0.00     0.034 A 
ATOM     58  C   UNL     1      -3.632  17.466 -11.433  1.00  0.00     0.034 A 
ATOM     59  C   UNL     1      -7.217  21.373  -7.062  1.00  0.00     0.049 A 
ATOM     60  C   UNL     1      -4.105  18.873 -11.381  1.00  0.00     0.074 A 
ATOM     61  C   UNL     1      -8.574  21.134  -7.173  1.00  0.00     0.029 A 
ATOM     62  N   UNL     1      -6.777  21.594  -8.351  1.00  0.00    -0.354 N 
ATOM     63  N   UNL     1      -5.310  19.227 -11.741  1.00  0.00    -0.248 NA
ATOM     64  C   UNL     1      -3.451  19.775 -10.444  1.00  0.00     0.031 C 
ATOM     65  C   UNL     1      -8.759  20.708  -8.523  1.00  0.00     0.029 A 
ATOM     66  C   UNL     1      -7.537  20.815  -9.191  1.00  0.00     0.049 A 
ATOM     67  H   UNL     1      -6.050  22.200  -8.620  1.00  0.00     0.167 HD
ATOM     68  C   UNL     1      -5.731  20.115 -10.762  1.00  0.00     0.074 A 
ATOM     69  C   UNL     1      -4.511  20.482 -10.039  1.00  0.00     0.031 C 
ATOM     70  C   UNL     1      -7.053  20.245 -10.439  1.00  0.00     0.034 A 
BRANCH  57  71
ATOM     71  C   UNL     1      -5.159  22.108  -5.676  1.00  0.00     0.023 A 
ATOM     72  C   UNL     1      -5.402  23.445  -6.043  1.00  0.00     0.031 A 
ATOM     73  C   UNL     1      -3.839  21.816  -5.265  1.00  0.00     0.131 A 
ATOM     74  C   UNL     1      -4.355  24.378  -6.114  1.00  0.00     0.055 A 
ATOM     75  C   UNL     1      -2.813  22.766  -5.274  1.00  0.00     0.041 A 
ATOM     76  F   UNL     1      -3.437  20.589  -4.921  1.00  0.00    -0.206 F 
ATOM     77  C   UNL     1      -3.058  24.047  -5.735  1.00  0.00     0.022 A 
BRANCH  74  78
ATOM     78  S   UNL     1      -4.689  25.978  -6.894  1.00  0.00     0.124 S 
ATOM     79  O   UNL     1      -5.232  25.567  -8.183  1.00  0.00    -0.237 OA
ATOM     80  O   UNL     1      -5.633  26.576  -5.956  1.00  0.00    -0.237 OA
ATOM     81  O   UNL     1      -3.373  26.610  -6.943  1.00  0.00    -0.744 OA
ENDBRANCH  74  78
ENDBRANCH  57  71
BRANCH  58  82
ATOM     82  C   UNL     1      -2.324  17.051 -12.027  1.00  0.00     0.023 A 
ATOM     83  C   UNL     1      -1.762  17.650 -13.180  1.00  0.00     0.031 A 
ATOM     84  C   UNL     1      -1.474  16.200 -11.286  1.00  0.00     0.131 A 
ATOM     85  C   UNL     1      -0.413  17.392 -13.537  1.00  0.00     0.055 A 
ATOM     86  C   UNL     1      -0.144  15.955 -11.639  1.00  0.00     0.041 A 
ATOM     87  F   UNL     1      -1.884  15.641 -10.136  1.00  0.00    -0.206 F 
ATOM     88  C   UNL     1       0.396  16.559 -12.761  1.00  0.00     0.022 A 
BRANCH  85  89
ATOM     89  S   UNL     1       0.351  18.201 -14.988  1.00  0.00     0.124 S 
ATOM     90  O   UNL     1      -0.376  17.599 -16.099  1.00  0.00    -0.237 OA
ATOM     91  O   UNL     1       0.096  19.613 -14.732  1.00  0.00    -0.237 OA
ATOM     92  O   UNL     1       1.760  17.810 -14.896  1.00  0.00    -0.744 OA
ENDBRANCH  85  89
ENDBRANCH  58  82
BRANCH  70  93
ATOM     93  C   UNL     1      -8.089  19.602 -11.348  1.00  0.00     0.023 A 
ATOM     94  C   UNL     1      -8.165  18.223 -11.664  1.00  0.00     0.031 A 
ATOM     95  C   UNL     1      -9.123  20.431 -11.819  1.00  0.00     0.131 A 
ATOM     96  C   UNL     1      -9.244  17.732 -12.431  1.00  0.00     0.055 A 
ATOM     97  C   UNL     1     -10.200  19.938 -12.554  1.00  0.00     0.041 A 
ATOM     98  F   UNL     1      -9.123  21.744 -11.536  1.00  0.00    -0.206 F 
ATOM     99  C   UNL     1     -10.262  18.586 -12.868  1.00  0.00     0.022 A 
BRANCH  96 100
ATOM    100  S   UNL     1      -9.339  15.971 -12.902  1.00  0.00     0.124 S 
ATOM    101  O   UNL     1      -8.010  15.684 -13.426  1.00  0.00    -0.237 OA
ATOM    102  O   UNL     1      -9.682  15.321 -11.639  1.00  0.00    -0.237 OA
ATOM    103  O   UNL     1     -10.407  15.943 -13.905  1.00  0.00    -0.744 OA
ENDBRANCH  96 100
ENDBRANCH  70  93
ENDBRANCH  44  45
ENDBRANCH  36  39
ENDBRANCH  34  35
ENDBRANCH   1  34
TORSDOF 17
