REMARK SMILES C[C@@H](CC(=O)NCCCNC(=O)c1ccc(-c2c3nc(c(-c4cc(S(=O)(=O)[O-])ccc4F)c4ccc([nH]4)c(-c4cc(S(=O)(=O)[O-])ccc4F)c4nc(c(-c5cc(S(=O)(=O)[O-])ccc5F)c5ccc2[nH]5)C=C4)C=C3)cc1)CC(=O)NC(=O)NC[C@]1(C)CCCO1
REMARK SMILES IDX 7 1 6 2 4 3 5 4 3 6 2 7 1 8 76 9 77 10 78 11 79 12 80 13
REMARK SMILES IDX 81 15 82 16 83 18 84 19 86 20 89 21 85 22 87 23 88 24 8 25
REMARK SMILES IDX 9 26 10 27 11 28 12 30 13 31 14 32 75 33 15 34 74 35 16 36
REMARK SMILES IDX 17 37 18 38 68 39 19 40 73 41 67 42 69 43 20 44 72 45 66 46
REMARK SMILES IDX 65 47 21 49 53 50 33 51 52 52 34 53 37 54 51 55 70 56 35 57
REMARK SMILES IDX 36 58 50 60 71 61 38 62 22 63 23 64 31 65 24 66 30 67 32 68
REMARK SMILES IDX 29 69 25 70 26 71 27 72 28 73 54 74 55 75 63 76 56 77 62 78
REMARK SMILES IDX 64 79 61 80 57 81 58 82 59 83 60 84 39 85 40 86 48 87 41 88
REMARK SMILES IDX 47 89 49 90 46 91 42 92 43 93 44 94 45 95
REMARK H PARENT 6 5 79 14 82 17 10 29 69 48 37 59
REMARK Flexibility Score: inf
ROOT
ATOM      1  C   UNL     1      -0.650   3.195  -2.872  1.00  0.00     0.117 C 
ENDROOT
BRANCH   1   2
ATOM      2  N   UNL     1      -0.725   2.199  -3.932  1.00  0.00    -0.356 N 
ATOM      3  C   UNL     1      -0.823   0.835  -3.921  1.00  0.00     0.220 C 
ATOM      4  O   UNL     1      -1.378   0.308  -4.891  1.00  0.00    -0.275 OA
ATOM      5  H   UNL     1      -0.700   2.585  -4.838  1.00  0.00     0.163 HD
BRANCH   3   6
ATOM      6  C   UNL     1      -0.229  -0.058  -2.833  1.00  0.00     0.103 C 
BRANCH   6   7
ATOM      7  C   UNL     1       0.773  -1.135  -3.385  1.00  0.00     0.004 C 
ATOM      8  C   UNL     1       1.637  -1.816  -2.300  1.00  0.00     0.009 C 
BRANCH   7   9
ATOM      9  C   UNL     1       1.556  -0.718  -4.663  1.00  0.00     0.104 C 
BRANCH   9  10
ATOM     10  C   UNL     1       3.072  -0.759  -4.602  1.00  0.00     0.228 C 
ATOM     11  O   UNL     1       3.706  -1.718  -5.043  1.00  0.00    -0.275 OA
ATOM     12  N   UNL     1       3.736   0.277  -3.992  1.00  0.00    -0.278 N 
ATOM     13  C   UNL     1       3.352   1.585  -3.859  1.00  0.00     0.321 C 
ATOM     14  H   UNL     1       4.607   0.048  -3.596  1.00  0.00     0.174 HD
ATOM     15  O   UNL     1       3.123   2.340  -4.795  1.00  0.00    -0.248 OA
ATOM     16  N   UNL     1       3.419   2.067  -2.565  1.00  0.00    -0.335 N 
ATOM     17  H   UNL     1       4.112   2.707  -2.283  1.00  0.00     0.165 HD
BRANCH  16  18
ATOM     18  C   UNL     1       2.411   1.576  -1.647  1.00  0.00     0.152 C 
BRANCH  18  19
ATOM     19  C   UNL     1       2.406   1.921  -0.149  1.00  0.00     0.083 C 
ATOM     20  C   UNL     1       2.800   3.356   0.163  1.00  0.00     0.039 C 
ATOM     21  O   UNL     1       3.369   1.068   0.493  1.00  0.00    -0.373 OA
ATOM     22  C   UNL     1       1.037   1.563   0.463  1.00  0.00     0.044 C 
ATOM     23  C   UNL     1       4.291   3.249   0.361  1.00  0.00     0.031 C 
ATOM     24  C   UNL     1       4.467   1.861   0.937  1.00  0.00     0.161 C 
ENDBRANCH  18  19
ENDBRANCH  16  18
ENDBRANCH   9  10
ENDBRANCH   7   9
ENDBRANCH   6   7
ENDBRANCH   3   6
ENDBRANCH   1   2
BRANCH   1  25
ATOM     25  C   UNL     1       0.477   4.240  -2.989  1.00  0.00     0.042 C 
BRANCH  25  26
ATOM     26  C   UNL     1       0.368   5.263  -4.127  1.00  0.00     0.118 C 
BRANCH  26  27
ATOM     27  N   UNL     1       0.787   6.585  -3.659  1.00  0.00    -0.352 N 
ATOM     28  C   UNL     1       1.762   7.481  -4.025  1.00  0.00     0.251 C 
ATOM     29  H   UNL     1       0.243   6.908  -2.905  1.00  0.00     0.163 HD
ATOM     30  O   UNL     1       1.968   8.413  -3.242  1.00  0.00    -0.269 OA
BRANCH  28  31
ATOM     31  C   UNL     1       2.554   7.413  -5.285  1.00  0.00     0.039 A 
ATOM     32  C   UNL     1       3.758   8.140  -5.344  1.00  0.00     0.014 A 
ATOM     33  C   UNL     1       2.101   6.791  -6.447  1.00  0.00     0.014 A 
ATOM     34  C   UNL     1       4.486   8.246  -6.539  1.00  0.00     0.010 A 
ATOM     35  C   UNL     1       2.861   6.841  -7.625  1.00  0.00     0.010 A 
ATOM     36  C   UNL     1       4.042   7.598  -7.698  1.00  0.00    -0.014 A 
BRANCH  36  37
ATOM     37  C   UNL     1       4.725   7.783  -9.014  1.00  0.00     0.031 A 
ATOM     38  C   UNL     1       3.989   8.473 -10.139  1.00  0.00     0.074 A 
ATOM     39  C   UNL     1       5.965   7.299  -9.228  1.00  0.00     0.049 A 
ATOM     40  N   UNL     1       4.322   8.605 -11.399  1.00  0.00    -0.248 NA
ATOM     41  C   UNL     1       2.683   9.062  -9.804  1.00  0.00     0.031 C 
ATOM     42  C   UNL     1       6.783   6.598  -8.238  1.00  0.00     0.029 A 
ATOM     43  N   UNL     1       6.747   7.304 -10.359  1.00  0.00    -0.354 N 
ATOM     44  C   UNL     1       3.247   9.241 -12.015  1.00  0.00     0.074 A 
ATOM     45  C   UNL     1       2.242   9.442 -10.993  1.00  0.00     0.031 C 
ATOM     46  C   UNL     1       7.949   6.242  -8.804  1.00  0.00     0.029 A 
ATOM     47  C   UNL     1       7.951   6.654 -10.205  1.00  0.00     0.049 A 
ATOM     48  H   UNL     1       6.472   7.734 -11.201  1.00  0.00     0.167 HD
ATOM     49  C   UNL     1       3.112   9.629 -13.308  1.00  0.00     0.034 A 
ATOM     50  C   UNL     1       8.934   6.402 -11.094  1.00  0.00     0.034 A 
ATOM     51  C   UNL     1       4.145   9.479 -14.305  1.00  0.00     0.049 A 
ATOM     52  C   UNL     1       8.787   6.899 -12.513  1.00  0.00     0.074 A 
ATOM     53  C   UNL     1       4.135   9.891 -15.627  1.00  0.00     0.029 A 
ATOM     54  N   UNL     1       5.379   8.882 -14.086  1.00  0.00    -0.354 N 
ATOM     55  N   UNL     1       7.772   7.519 -13.070  1.00  0.00    -0.248 NA
ATOM     56  C   UNL     1       9.925   6.678 -13.416  1.00  0.00     0.031 C 
ATOM     57  C   UNL     1       5.345   9.507 -16.218  1.00  0.00     0.029 A 
ATOM     58  C   UNL     1       6.134   8.911 -15.248  1.00  0.00     0.049 A 
ATOM     59  H   UNL     1       5.675   8.495 -13.230  1.00  0.00     0.167 HD
ATOM     60  C   UNL     1       8.169   7.796 -14.377  1.00  0.00     0.074 A 
ATOM     61  C   UNL     1       9.517   7.288 -14.520  1.00  0.00     0.031 C 
ATOM     62  C   UNL     1       7.483   8.417 -15.369  1.00  0.00     0.034 A 
BRANCH  49  63
ATOM     63  C   UNL     1       1.790  10.227 -13.726  1.00  0.00     0.023 A 
ATOM     64  C   UNL     1       1.332  11.453 -13.213  1.00  0.00     0.031 A 
ATOM     65  C   UNL     1       0.968   9.550 -14.645  1.00  0.00     0.131 A 
ATOM     66  C   UNL     1       0.058  11.928 -13.567  1.00  0.00     0.055 A 
ATOM     67  C   UNL     1      -0.264  10.066 -15.054  1.00  0.00     0.041 A 
ATOM     68  F   UNL     1       1.345   8.367 -15.157  1.00  0.00    -0.206 F 
ATOM     69  C   UNL     1      -0.731  11.256 -14.504  1.00  0.00     0.022 A 
BRANCH  66  70
ATOM     70  S   UNL     1      -0.593  13.377 -12.700  1.00  0.00     0.124 S 
ATOM     71  O   UNL     1      -0.692  12.875 -11.322  1.00  0.00    -0.237 OA
ATOM     72  O   UNL     1       0.419  14.385 -12.942  1.00  0.00    -0.237 OA
ATOM     73  O   UNL     1      -1.889  13.615 -13.355  1.00  0.00    -0.744 OA
ENDBRANCH  66  70
ENDBRANCH  49  63
BRANCH  50  74
ATOM     74  C   UNL     1      10.150   5.636 -10.691  1.00  0.00     0.023 A 
ATOM     75  C   UNL     1      11.419   6.237 -10.694  1.00  0.00     0.031 A 
ATOM     76  C   UNL     1      10.069   4.271 -10.362  1.00  0.00     0.131 A 
ATOM     77  C   UNL     1      12.562   5.466 -10.433  1.00  0.00     0.055 A 
ATOM     78  C   UNL     1      11.204   3.520 -10.050  1.00  0.00     0.041 A 
ATOM     79  F   UNL     1       8.881   3.647 -10.338  1.00  0.00    -0.206 F 
ATOM     80  C   UNL     1      12.462   4.113 -10.101  1.00  0.00     0.022 A 
BRANCH  77  81
ATOM     81  S   UNL     1      14.193   6.234 -10.637  1.00  0.00     0.124 S 
ATOM     82  O   UNL     1      14.116   6.741 -12.002  1.00  0.00    -0.237 OA
ATOM     83  O   UNL     1      14.187   7.237  -9.578  1.00  0.00    -0.237 OA
ATOM     84  O   UNL     1      15.120   5.122 -10.435  1.00  0.00    -0.744 OA
ENDBRANCH  77  81
ENDBRANCH  50  74
BRANCH  62  85
ATOM     85  C   UNL     1       8.213   8.647 -16.669  1.00  0.00     0.023 A 
ATOM     86  C   UNL     1       8.570   7.586 -17.519  1.00  0.00     0.031 A 
ATOM     87  C   UNL     1       8.570   9.952 -17.050  1.00  0.00     0.131 A 
ATOM     88  C   UNL     1       9.313   7.844 -18.681  1.00  0.00     0.055 A 
ATOM     89  C   UNL     1       9.264  10.208 -18.233  1.00  0.00     0.041 A 
ATOM     90  F   UNL     1       8.253  11.001 -16.274  1.00  0.00    -0.206 F 
ATOM     91  C   UNL     1       9.651   9.149 -19.050  1.00  0.00     0.022 A 
BRANCH  88  92
ATOM     92  S   UNL     1       9.911   6.440 -19.663  1.00  0.00     0.124 S 
ATOM     93  O   UNL     1      10.679   5.685 -18.679  1.00  0.00    -0.237 OA
ATOM     94  O   UNL     1       8.668   5.823 -20.113  1.00  0.00    -0.237 OA
ATOM     95  O   UNL     1      10.704   7.072 -20.716  1.00  0.00    -0.744 OA
ENDBRANCH  88  92
ENDBRANCH  62  85
ENDBRANCH  36  37
ENDBRANCH  28  31
ENDBRANCH  26  27
ENDBRANCH  25  26
ENDBRANCH   1  25
TORSDOF 18
