REMARK SMILES C[NH2+][C@@]1(C(=O)NCCCNC(=O)c2ccc(-c3c4nc(c(-c5cc(S(=O)(=O)[O-])ccc5F)c5ccc([nH]5)c(-c5cc(S(=O)(=O)[O-])ccc5F)c5nc(c(-c6cc(S(=O)(=O)[O-])ccc6F)c6ccc3[nH]6)C=C5)C=C4)cc2)CC[C@H](SC(C)C)C1
REMARK SMILES IDX 8 1 7 2 6 3 4 4 5 5 3 7 76 8 83 9 77 10 78 11 2 12 1 13
REMARK SMILES IDX 79 16 80 17 81 18 82 19 9 20 10 21 11 22 12 24 13 25 14 26
REMARK SMILES IDX 75 27 15 28 74 29 16 30 17 31 18 32 68 33 19 34 73 35 67 36
REMARK SMILES IDX 69 37 20 38 72 39 66 40 65 41 21 43 53 44 33 45 52 46 34 47
REMARK SMILES IDX 37 48 51 49 70 50 35 51 36 52 50 54 71 55 38 56 22 57 23 58
REMARK SMILES IDX 31 59 24 60 30 61 32 62 29 63 25 64 26 65 27 66 28 67 54 68
REMARK SMILES IDX 55 69 63 70 56 71 62 72 64 73 61 74 57 75 58 76 59 77 60 78
REMARK SMILES IDX 39 79 40 80 48 81 41 82 47 83 49 84 46 85 42 86 43 87 44 88
REMARK SMILES IDX 45 89
REMARK H PARENT 6 6 2 14 2 15 10 23 69 42 37 53
REMARK Flexibility Score: inf
ROOT
ATOM      1  C   UNL     1      -4.509  -0.146   0.940  1.00  0.00     0.042 C 
ENDROOT
BRANCH   1   2
ATOM      2  C   UNL     1      -3.788   1.079   0.410  1.00  0.00     0.118 C 
BRANCH   2   3
ATOM      3  N   UNL     1      -2.462   1.275   0.942  1.00  0.00    -0.351 N 
ATOM      4  C   UNL     1      -1.264   1.434   0.325  1.00  0.00     0.281 C 
ATOM      5  O   UNL     1      -0.392   1.958   1.039  1.00  0.00    -0.268 OA
ATOM      6  H   UNL     1      -2.418   1.296   1.925  1.00  0.00     0.163 HD
BRANCH   4   7
ATOM      7  C   UNL     1      -0.927   1.061  -1.185  1.00  0.00     0.176 C 
ATOM      8  C   UNL     1      -1.427   2.142  -2.157  1.00  0.00     0.080 C 
ATOM      9  C   UNL     1      -1.506  -0.245  -1.749  1.00  0.00     0.093 C 
ATOM     10  C   UNL     1      -2.720   1.619  -2.785  1.00  0.00     0.022 C 
ATOM     11  C   UNL     1      -2.608   0.094  -2.791  1.00  0.00     0.054 C 
BRANCH   7  12
ATOM     12  N   UNL     1       0.575   1.052  -1.290  1.00  0.00    -0.336 N 
ATOM     13  C   UNL     1       1.218  -0.052  -0.571  1.00  0.00     0.331 C 
ATOM     14  H   UNL     1       0.827   0.982  -2.276  1.00  0.00     0.346 HD
ATOM     15  H   UNL     1       0.905   1.915  -0.858  1.00  0.00     0.346 HD
ENDBRANCH   7  12
BRANCH  11  16
ATOM     16  S   UNL     1      -3.981  -1.082  -2.423  1.00  0.00    -0.155 SA
BRANCH  16  17
ATOM     17  C   UNL     1      -5.595  -0.410  -2.970  1.00  0.00     0.040 C 
ATOM     18  C   UNL     1      -5.855   1.081  -2.866  1.00  0.00     0.019 C 
ATOM     19  C   UNL     1      -5.947  -0.949  -4.349  1.00  0.00     0.019 C 
ENDBRANCH  16  17
ENDBRANCH  11  16
ENDBRANCH   4   7
ENDBRANCH   2   3
ENDBRANCH   1   2
BRANCH   1  20
ATOM     20  C   UNL     1      -5.095   0.064   2.325  1.00  0.00     0.118 C 
BRANCH  20  21
ATOM     21  N   UNL     1      -6.199   1.020   2.314  1.00  0.00    -0.352 N 
ATOM     22  C   UNL     1      -7.557   0.868   2.156  1.00  0.00     0.251 C 
ATOM     23  H   UNL     1      -5.916   1.954   2.445  1.00  0.00     0.163 HD
ATOM     24  O   UNL     1      -8.222   1.874   1.909  1.00  0.00    -0.269 OA
BRANCH  22  25
ATOM     25  C   UNL     1      -8.230  -0.452   2.251  1.00  0.00     0.039 A 
ATOM     26  C   UNL     1      -9.425  -0.658   1.549  1.00  0.00     0.014 A 
ATOM     27  C   UNL     1      -7.756  -1.466   3.080  1.00  0.00     0.014 A 
ATOM     28  C   UNL     1     -10.098  -1.884   1.640  1.00  0.00     0.010 A 
ATOM     29  C   UNL     1      -8.350  -2.725   3.068  1.00  0.00     0.010 A 
ATOM     30  C   UNL     1      -9.546  -2.946   2.372  1.00  0.00    -0.014 A 
BRANCH  30  31
ATOM     31  C   UNL     1     -10.213  -4.274   2.483  1.00  0.00     0.031 A 
ATOM     32  C   UNL     1     -10.565  -4.826   3.844  1.00  0.00     0.074 A 
ATOM     33  C   UNL     1     -10.423  -5.021   1.381  1.00  0.00     0.049 A 
ATOM     34  N   UNL     1     -10.995  -6.017   4.175  1.00  0.00    -0.248 NA
ATOM     35  C   UNL     1     -10.355  -3.929   4.992  1.00  0.00     0.031 C 
ATOM     36  C   UNL     1     -10.091  -4.622   0.011  1.00  0.00     0.029 A 
ATOM     37  N   UNL     1     -10.953  -6.279   1.237  1.00  0.00    -0.354 N 
ATOM     38  C   UNL     1     -11.065  -6.024   5.566  1.00  0.00     0.074 A 
ATOM     39  C   UNL     1     -10.567  -4.742   6.014  1.00  0.00     0.031 C 
ATOM     40  C   UNL     1     -10.452  -5.601  -0.833  1.00  0.00     0.029 A 
ATOM     41  C   UNL     1     -10.988  -6.720  -0.066  1.00  0.00     0.049 A 
ATOM     42  H   UNL     1     -11.278  -6.816   1.996  1.00  0.00     0.167 HD
ATOM     43  C   UNL     1     -11.527  -6.997   6.391  1.00  0.00     0.034 A 
ATOM     44  C   UNL     1     -11.390  -7.898  -0.583  1.00  0.00     0.034 A 
ATOM     45  C   UNL     1     -12.063  -8.252   5.923  1.00  0.00     0.049 A 
ATOM     46  C   UNL     1     -11.906  -8.964   0.351  1.00  0.00     0.074 A 
ATOM     47  C   UNL     1     -12.627  -9.278   6.660  1.00  0.00     0.029 A 
ATOM     48  N   UNL     1     -12.104  -8.650   4.592  1.00  0.00    -0.354 N 
ATOM     49  N   UNL     1     -12.004  -8.939   1.661  1.00  0.00    -0.248 NA
ATOM     50  C   UNL     1     -12.373 -10.213  -0.265  1.00  0.00     0.031 C 
ATOM     51  C   UNL     1     -12.950 -10.321   5.784  1.00  0.00     0.029 A 
ATOM     52  C   UNL     1     -12.659  -9.917   4.491  1.00  0.00     0.049 A 
ATOM     53  H   UNL     1     -11.785  -8.112   3.832  1.00  0.00     0.167 HD
ATOM     54  C   UNL     1     -12.575 -10.157   2.021  1.00  0.00     0.074 A 
ATOM     55  C   UNL     1     -12.811 -10.884   0.790  1.00  0.00     0.031 C 
ATOM     56  C   UNL     1     -12.881 -10.631   3.256  1.00  0.00     0.034 A 
BRANCH  43  57
ATOM     57  C   UNL     1     -11.451  -6.744   7.881  1.00  0.00     0.023 A 
ATOM     58  C   UNL     1     -12.131  -5.671   8.486  1.00  0.00     0.031 A 
ATOM     59  C   UNL     1     -10.657  -7.562   8.704  1.00  0.00     0.131 A 
ATOM     60  C   UNL     1     -11.930  -5.390   9.846  1.00  0.00     0.055 A 
ATOM     61  C   UNL     1     -10.535  -7.332  10.077  1.00  0.00     0.041 A 
ATOM     62  F   UNL     1      -9.967  -8.591   8.186  1.00  0.00    -0.206 F 
ATOM     63  C   UNL     1     -11.159  -6.228  10.652  1.00  0.00     0.022 A 
BRANCH  60  64
ATOM     64  S   UNL     1     -12.558  -3.820  10.504  1.00  0.00     0.124 S 
ATOM     65  O   UNL     1     -11.872  -2.850   9.654  1.00  0.00    -0.237 OA
ATOM     66  O   UNL     1     -13.995  -3.945  10.301  1.00  0.00    -0.237 OA
ATOM     67  O   UNL     1     -12.119  -3.833  11.899  1.00  0.00    -0.744 OA
ENDBRANCH  60  64
ENDBRANCH  43  57
BRANCH  44  68
ATOM     68  C   UNL     1     -11.323  -8.141  -2.052  1.00  0.00     0.023 A 
ATOM     69  C   UNL     1     -12.493  -8.329  -2.805  1.00  0.00     0.031 A 
ATOM     70  C   UNL     1     -10.089  -8.222  -2.722  1.00  0.00     0.131 A 
ATOM     71  C   UNL     1     -12.406  -8.633  -4.172  1.00  0.00     0.055 A 
ATOM     72  C   UNL     1     -10.009  -8.472  -4.093  1.00  0.00     0.041 A 
ATOM     73  F   UNL     1      -8.940  -8.043  -2.052  1.00  0.00    -0.206 F 
ATOM     74  C   UNL     1     -11.173  -8.693  -4.824  1.00  0.00     0.022 A 
BRANCH  71  75
ATOM     75  S   UNL     1     -13.930  -9.030  -5.071  1.00  0.00     0.124 S 
ATOM     76  O   UNL     1     -14.438 -10.166  -4.309  1.00  0.00    -0.237 OA
ATOM     77  O   UNL     1     -14.685  -7.787  -4.951  1.00  0.00    -0.237 OA
ATOM     78  O   UNL     1     -13.459  -9.342  -6.419  1.00  0.00    -0.744 OA
ENDBRANCH  71  75
ENDBRANCH  44  68
BRANCH  56  79
ATOM     79  C   UNL     1     -13.553 -11.980   3.324  1.00  0.00     0.023 A 
ATOM     80  C   UNL     1     -12.885 -13.161   2.958  1.00  0.00     0.031 A 
ATOM     81  C   UNL     1     -14.889 -12.081   3.755  1.00  0.00     0.131 A 
ATOM     82  C   UNL     1     -13.571 -14.385   2.975  1.00  0.00     0.055 A 
ATOM     83  C   UNL     1     -15.546 -13.309   3.829  1.00  0.00     0.041 A 
ATOM     84  F   UNL     1     -15.575 -10.984   4.115  1.00  0.00    -0.206 F 
ATOM     85  C   UNL     1     -14.891 -14.469   3.425  1.00  0.00     0.022 A 
BRANCH  82  86
ATOM     86  S   UNL     1     -12.742 -15.856   2.312  1.00  0.00     0.124 S 
ATOM     87  O   UNL     1     -12.446 -15.447   0.943  1.00  0.00    -0.237 OA
ATOM     88  O   UNL     1     -11.592 -15.993   3.200  1.00  0.00    -0.237 OA
ATOM     89  O   UNL     1     -13.752 -16.905   2.442  1.00  0.00    -0.744 OA
ENDBRANCH  82  86
ENDBRANCH  56  79
ENDBRANCH  30  31
ENDBRANCH  22  25
ENDBRANCH  20  21
ENDBRANCH   1  20
TORSDOF 16
