REMARK SMILES CC1(C)C(C(=O)N[C@H](C(=O)NCCCNC(=O)c2ccc(-c3c4nc(c(-c5cc(S(=O)(=O)[O-])ccc5F)c5ccc([nH]5)c(-c5cc(S(=O)(=O)[O-])ccc5F)c5nc(c(-c6cc(S(=O)(=O)[O-])ccc6F)c6ccc3[nH]6)C=C5)C=C4)cc2)c2ccccc2)C1(C)C
REMARK SMILES IDX 13 1 12 2 11 3 9 4 10 5 8 7 7 8 5 9 6 10 4 12 1 13 2 14 3 15
REMARK SMILES IDX 87 16 88 17 89 18 81 19 82 20 86 21 83 22 85 23 84 24 14 25
REMARK SMILES IDX 15 26 16 27 17 29 18 30 19 31 80 32 20 33 79 34 21 35 22 36
REMARK SMILES IDX 23 37 73 38 24 39 78 40 72 41 74 42 25 43 77 44 71 45 70 46
REMARK SMILES IDX 26 48 58 49 38 50 57 51 39 52 42 53 56 54 75 55 40 56 41 57
REMARK SMILES IDX 55 59 76 60 43 61 27 62 28 63 36 64 29 65 35 66 37 67 34 68
REMARK SMILES IDX 30 69 31 70 32 71 33 72 59 73 60 74 68 75 61 76 67 77 69 78
REMARK SMILES IDX 66 79 62 80 63 81 64 82 65 83 44 84 45 85 53 86 46 87 52 88
REMARK SMILES IDX 54 89 51 90 47 91 48 92 49 93 50 94
REMARK H PARENT 11 6 7 11 15 28 74 47 42 58
REMARK Flexibility Score: inf
ROOT
ATOM      1  C   UNL     1       0.857  -7.038  -3.901  1.00  0.00     0.042 C 
ENDROOT
BRANCH   1   2
ATOM      2  C   UNL     1       0.675  -5.788  -3.019  1.00  0.00     0.117 C 
BRANCH   2   3
ATOM      3  N   UNL     1       0.702  -4.580  -3.836  1.00  0.00    -0.354 N 
ATOM      4  C   UNL     1      -0.294  -3.735  -4.249  1.00  0.00     0.247 C 
ATOM      5  O   UNL     1       0.025  -2.913  -5.120  1.00  0.00    -0.272 OA
ATOM      6  H   UNL     1       1.600  -4.325  -4.147  1.00  0.00     0.163 HD
BRANCH   4   7
ATOM      7  C   UNL     1      -1.715  -3.689  -3.591  1.00  0.00     0.202 C 
BRANCH   7   8
ATOM      8  N   UNL     1      -2.135  -2.303  -3.772  1.00  0.00    -0.340 N 
ATOM      9  C   UNL     1      -2.844  -1.408  -3.031  1.00  0.00     0.225 C 
ATOM     10  O   UNL     1      -2.688  -0.228  -3.298  1.00  0.00    -0.275 OA
ATOM     11  H   UNL     1      -1.835  -1.927  -4.632  1.00  0.00     0.164 HD
BRANCH   9  12
ATOM     12  C   UNL     1      -3.899  -1.728  -2.030  1.00  0.00     0.091 C 
ATOM     13  C   UNL     1      -5.846  -2.912  -0.886  1.00  0.00     0.012 C 
ATOM     14  C   UNL     1      -4.328  -2.829  -1.064  1.00  0.00    -0.017 C 
ATOM     15  C   UNL     1      -3.711  -4.168  -0.747  1.00  0.00     0.012 C 
ATOM     16  C   UNL     1      -3.560  -1.600  -0.550  1.00  0.00    -0.017 C 
ATOM     17  C   UNL     1      -4.294  -0.584   0.289  1.00  0.00     0.012 C 
ATOM     18  C   UNL     1      -2.096  -1.707  -0.164  1.00  0.00     0.012 C 
ENDBRANCH   9  12
ENDBRANCH   7   8
BRANCH   7  19
ATOM     19  C   UNL     1      -2.750  -4.715  -4.043  1.00  0.00    -0.016 A 
ATOM     20  C   UNL     1      -4.130  -4.483  -3.959  1.00  0.00     0.006 A 
ATOM     21  C   UNL     1      -2.376  -6.029  -4.319  1.00  0.00     0.006 A 
ATOM     22  C   UNL     1      -5.047  -5.542  -3.928  1.00  0.00     0.000 A 
ATOM     23  C   UNL     1      -3.268  -7.099  -4.266  1.00  0.00     0.000 A 
ATOM     24  C   UNL     1      -4.607  -6.857  -4.021  1.00  0.00     0.000 A 
ENDBRANCH   7  19
ENDBRANCH   4   7
ENDBRANCH   2   3
ENDBRANCH   1   2
BRANCH   1  25
ATOM     25  C   UNL     1       2.307  -7.410  -4.183  1.00  0.00     0.118 C 
BRANCH  25  26
ATOM     26  N   UNL     1       2.739  -8.535  -3.377  1.00  0.00    -0.352 N 
ATOM     27  C   UNL     1       2.547  -9.892  -3.505  1.00  0.00     0.251 C 
ATOM     28  H   UNL     1       3.269  -8.280  -2.588  1.00  0.00     0.163 HD
ATOM     29  O   UNL     1       2.798 -10.584  -2.517  1.00  0.00    -0.269 OA
BRANCH  27  30
ATOM     30  C   UNL     1       2.037 -10.551  -4.743  1.00  0.00     0.039 A 
ATOM     31  C   UNL     1       1.367 -11.777  -4.602  1.00  0.00     0.014 A 
ATOM     32  C   UNL     1       2.294 -10.089  -6.034  1.00  0.00     0.014 A 
ATOM     33  C   UNL     1       0.961 -12.513  -5.725  1.00  0.00     0.010 A 
ATOM     34  C   UNL     1       1.805 -10.776  -7.154  1.00  0.00     0.010 A 
ATOM     35  C   UNL     1       1.160 -12.015  -7.021  1.00  0.00    -0.014 A 
BRANCH  35  36
ATOM     36  C   UNL     1       0.774 -12.801  -8.234  1.00  0.00     0.031 A 
ATOM     37  C   UNL     1       1.828 -13.214  -9.238  1.00  0.00     0.074 A 
ATOM     38  C   UNL     1      -0.516 -13.128  -8.459  1.00  0.00     0.049 A 
ATOM     39  N   UNL     1       1.687 -13.807 -10.398  1.00  0.00    -0.248 NA
ATOM     40  C   UNL     1       3.223 -12.889  -8.903  1.00  0.00     0.031 C 
ATOM     41  C   UNL     1      -1.639 -12.788  -7.583  1.00  0.00     0.029 A 
ATOM     42  N   UNL     1      -1.105 -13.815  -9.494  1.00  0.00    -0.354 N 
ATOM     43  C   UNL     1       2.968 -13.908 -10.937  1.00  0.00     0.074 A 
ATOM     44  C   UNL     1       3.862 -13.254 -10.005  1.00  0.00     0.031 C 
ATOM     45  C   UNL     1      -2.771 -13.292  -8.100  1.00  0.00     0.029 A 
ATOM     46  C   UNL     1      -2.471 -13.943  -9.372  1.00  0.00     0.049 A 
ATOM     47  H   UNL     1      -0.596 -14.182 -10.253  1.00  0.00     0.167 HD
ATOM     48  C   UNL     1       3.371 -14.511 -12.084  1.00  0.00     0.034 A 
ATOM     49  C   UNL     1      -3.381 -14.505 -10.194  1.00  0.00     0.034 A 
ATOM     50  C   UNL     1       2.480 -15.187 -12.996  1.00  0.00     0.049 A 
ATOM     51  C   UNL     1      -2.913 -15.135 -11.486  1.00  0.00     0.074 A 
ATOM     52  C   UNL     1       2.789 -15.857 -14.168  1.00  0.00     0.029 A 
ATOM     53  N   UNL     1       1.104 -15.286 -12.837  1.00  0.00    -0.354 N 
ATOM     54  N   UNL     1      -1.695 -15.232 -11.965  1.00  0.00    -0.248 NA
ATOM     55  C   UNL     1      -3.945 -15.739 -12.341  1.00  0.00     0.031 C 
ATOM     56  C   UNL     1       1.598 -16.306 -14.747  1.00  0.00     0.029 A 
ATOM     57  C   UNL     1       0.551 -15.986 -13.899  1.00  0.00     0.049 A 
ATOM     58  H   UNL     1       0.596 -14.913 -12.081  1.00  0.00     0.167 HD
ATOM     59  C   UNL     1      -1.813 -15.943 -13.157  1.00  0.00     0.074 A 
ATOM     60  C   UNL     1      -3.216 -16.263 -13.314  1.00  0.00     0.031 C 
ATOM     61  C   UNL     1      -0.849 -16.303 -14.043  1.00  0.00     0.034 A 
BRANCH  48  62
ATOM     62  C   UNL     1       4.844 -14.456 -12.423  1.00  0.00     0.023 A 
ATOM     63  C   UNL     1       5.812 -15.064 -11.604  1.00  0.00     0.031 A 
ATOM     64  C   UNL     1       5.290 -13.781 -13.574  1.00  0.00     0.131 A 
ATOM     65  C   UNL     1       7.175 -14.922 -11.904  1.00  0.00     0.055 A 
ATOM     66  C   UNL     1       6.644 -13.715 -13.912  1.00  0.00     0.041 A 
ATOM     67  F   UNL     1       4.417 -13.165 -14.387  1.00  0.00    -0.206 F 
ATOM     68  C   UNL     1       7.597 -14.275 -13.067  1.00  0.00     0.022 A 
BRANCH  65  69
ATOM     69  S   UNL     1       8.392 -15.476 -10.679  1.00  0.00     0.124 S 
ATOM     70  O   UNL     1       8.046 -14.648  -9.526  1.00  0.00    -0.237 OA
ATOM     71  O   UNL     1       8.094 -16.898 -10.557  1.00  0.00    -0.237 OA
ATOM     72  O   UNL     1       9.675 -15.158 -11.302  1.00  0.00    -0.744 OA
ENDBRANCH  65  69
ENDBRANCH  48  62
BRANCH  49  73
ATOM     73  C   UNL     1      -4.834 -14.497  -9.848  1.00  0.00     0.023 A 
ATOM     74  C   UNL     1      -5.539 -15.698  -9.665  1.00  0.00     0.031 A 
ATOM     75  C   UNL     1      -5.558 -13.293  -9.769  1.00  0.00     0.131 A 
ATOM     76  C   UNL     1      -6.930 -15.674  -9.476  1.00  0.00     0.055 A 
ATOM     77  C   UNL     1      -6.931 -13.272  -9.517  1.00  0.00     0.041 A 
ATOM     78  F   UNL     1      -4.936 -12.114  -9.935  1.00  0.00    -0.206 F 
ATOM     79  C   UNL     1      -7.628 -14.468  -9.386  1.00  0.00     0.022 A 
BRANCH  76  80
ATOM     80  S   UNL     1      -7.831 -17.249  -9.467  1.00  0.00     0.124 S 
ATOM     81  O   UNL     1      -7.440 -17.821 -10.750  1.00  0.00    -0.237 OA
ATOM     82  O   UNL     1      -7.287 -17.900  -8.280  1.00  0.00    -0.237 OA
ATOM     83  O   UNL     1      -9.230 -16.839  -9.366  1.00  0.00    -0.744 OA
ENDBRANCH  76  80
ENDBRANCH  49  73
BRANCH  61  84
ATOM     84  C   UNL     1      -1.277 -17.137 -15.226  1.00  0.00     0.023 A 
ATOM     85  C   UNL     1      -2.117 -16.626 -16.231  1.00  0.00     0.031 A 
ATOM     86  C   UNL     1      -0.844 -18.471 -15.341  1.00  0.00     0.131 A 
ATOM     87  C   UNL     1      -2.546 -17.460 -17.274  1.00  0.00     0.055 A 
ATOM     88  C   UNL     1      -1.224 -19.277 -16.414  1.00  0.00     0.041 A 
ATOM     89  F   UNL     1      -0.042 -19.012 -14.410  1.00  0.00    -0.206 F 
ATOM     90  C   UNL     1      -2.092 -18.777 -17.381  1.00  0.00     0.022 A 
BRANCH  87  91
ATOM     91  S   UNL     1      -3.783 -16.829 -18.441  1.00  0.00     0.124 S 
ATOM     92  O   UNL     1      -4.893 -16.494 -17.556  1.00  0.00    -0.237 OA
ATOM     93  O   UNL     1      -3.089 -15.699 -19.050  1.00  0.00    -0.237 OA
ATOM     94  O   UNL     1      -4.022 -17.962 -19.334  1.00  0.00    -0.744 OA
ENDBRANCH  87  91
ENDBRANCH  61  84
ENDBRANCH  35  36
ENDBRANCH  27  30
ENDBRANCH  25  26
ENDBRANCH   1  25
TORSDOF 16
