REMARK SMILES CCCN(CCC)c1ccc(C(=O)NCCCNC(=O)c2ccc(-c3c4nc(c(-c5cc(S(=O)(=O)[O-])ccc5F)c5ccc([nH]5)c(-c5cc(S(=O)(=O)[O-])ccc5F)c5nc(c(-c6cc(S(=O)(=O)[O-])ccc6F)c6ccc3[nH]6)C=C5)C=C4)cc2)cc1[N+](=O)[O-]
REMARK SMILES IDX 16 1 15 2 14 3 12 4 13 5 11 7 8 8 9 9 85 10 10 11 84 12 4 13
REMARK SMILES IDX 3 14 2 15 1 16 5 17 6 18 7 19 86 20 87 21 88 22 17 23 18 24
REMARK SMILES IDX 19 25 20 27 21 28 22 29 83 30 23 31 82 32 24 33 25 34 26 35
REMARK SMILES IDX 76 36 27 37 81 38 75 39 77 40 28 41 80 42 74 43 73 44 29 46
REMARK SMILES IDX 61 47 41 48 60 49 42 50 45 51 59 52 78 53 43 54 44 55 58 57
REMARK SMILES IDX 79 58 46 59 30 60 31 61 39 62 32 63 38 64 40 65 37 66 33 67
REMARK SMILES IDX 34 68 35 69 36 70 62 71 63 72 71 73 64 74 70 75 72 76 69 77
REMARK SMILES IDX 65 78 66 79 67 80 68 81 47 82 48 83 56 84 49 85 55 86 57 87
REMARK SMILES IDX 54 88 50 89 51 90 52 91 53 92
REMARK H PARENT 14 6 18 26 77 45 45 56
REMARK Flexibility Score: inf
ROOT
ATOM      1  C   UNL     1       0.478  -4.927   2.104  1.00  0.00     0.042 C 
ENDROOT
BRANCH   1   2
ATOM      2  C   UNL     1       1.721  -4.808   1.228  1.00  0.00     0.118 C 
BRANCH   2   3
ATOM      3  N   UNL     1       1.651  -5.663   0.052  1.00  0.00    -0.352 N 
ATOM      4  C   UNL     1       1.513  -5.312  -1.266  1.00  0.00     0.251 C 
ATOM      5  O   UNL     1       1.657  -6.147  -2.155  1.00  0.00    -0.269 OA
ATOM      6  H   UNL     1       1.712  -6.630   0.228  1.00  0.00     0.163 HD
BRANCH   4   7
ATOM      7  C   UNL     1       1.234  -3.911  -1.632  1.00  0.00     0.046 A 
ATOM      8  C   UNL     1       0.768  -1.221  -2.383  1.00  0.00     0.116 A 
ATOM      9  C   UNL     1       1.843  -1.954  -2.916  1.00  0.00     0.034 A 
ATOM     10  C   UNL     1      -0.051  -1.886  -1.454  1.00  0.00     0.293 A 
ATOM     11  C   UNL     1       2.067  -3.287  -2.561  1.00  0.00     0.016 A 
ATOM     12  C   UNL     1       0.155  -3.220  -1.085  1.00  0.00     0.101 A 
BRANCH   8  13
ATOM     13  N   UNL     1       0.543   0.073  -2.816  1.00  0.00    -0.366 N 
BRANCH  13  14
ATOM     14  C   UNL     1       1.458   1.153  -2.437  1.00  0.00     0.116 C 
BRANCH  14  15
ATOM     15  C   UNL     1       1.186   1.642  -1.009  1.00  0.00     0.018 C 
ATOM     16  C   UNL     1       2.030   0.928   0.040  1.00  0.00     0.006 C 
ENDBRANCH  14  15
ENDBRANCH  13  14
BRANCH  13  17
ATOM     17  C   UNL     1      -0.402   0.278  -3.926  1.00  0.00     0.116 C 
BRANCH  17  18
ATOM     18  C   UNL     1       0.204  -0.100  -5.285  1.00  0.00     0.018 C 
ATOM     19  C   UNL     1      -0.173  -1.508  -5.733  1.00  0.00     0.006 C 
ENDBRANCH  17  18
ENDBRANCH  13  17
ENDBRANCH   8  13
BRANCH  10  20
ATOM     20  N   UNL     1      -1.082  -1.166  -0.731  1.00  0.00     0.065 N 
ATOM     21  O   UNL     1      -0.910  -1.043   0.492  1.00  0.00    -0.258 OA
ATOM     22  O   UNL     1      -2.079  -0.788  -1.358  1.00  0.00    -0.258 OA
ENDBRANCH  10  20
ENDBRANCH   4   7
ENDBRANCH   2   3
ENDBRANCH   1   2
BRANCH   1  23
ATOM     23  C   UNL     1       0.350  -6.272   2.809  1.00  0.00     0.118 C 
BRANCH  23  24
ATOM     24  N   UNL     1       1.374  -6.459   3.825  1.00  0.00    -0.352 N 
ATOM     25  C   UNL     1       1.244  -6.714   5.168  1.00  0.00     0.251 C 
ATOM     26  H   UNL     1       2.301  -6.393   3.500  1.00  0.00     0.163 HD
ATOM     27  O   UNL     1       2.232  -6.618   5.890  1.00  0.00    -0.269 OA
BRANCH  25  28
ATOM     28  C   UNL     1      -0.070  -7.082   5.745  1.00  0.00     0.039 A 
ATOM     29  C   UNL     1      -0.425  -6.564   6.994  1.00  0.00     0.014 A 
ATOM     30  C   UNL     1      -0.932  -7.964   5.087  1.00  0.00     0.014 A 
ATOM     31  C   UNL     1      -1.661  -6.890   7.558  1.00  0.00     0.010 A 
ATOM     32  C   UNL     1      -2.194  -8.230   5.616  1.00  0.00     0.010 A 
ATOM     33  C   UNL     1      -2.568  -7.705   6.862  1.00  0.00    -0.014 A 
BRANCH  33  34
ATOM     34  C   UNL     1      -3.900  -8.037   7.431  1.00  0.00     0.031 A 
ATOM     35  C   UNL     1      -4.237  -9.463   7.778  1.00  0.00     0.074 A 
ATOM     36  C   UNL     1      -4.824  -7.067   7.579  1.00  0.00     0.049 A 
ATOM     37  N   UNL     1      -5.366  -9.969   8.203  1.00  0.00    -0.248 NA
ATOM     38  C   UNL     1      -3.167 -10.454   7.591  1.00  0.00     0.031 C 
ATOM     39  C   UNL     1      -4.628  -5.656   7.241  1.00  0.00     0.029 A 
ATOM     40  N   UNL     1      -6.116  -7.121   8.039  1.00  0.00    -0.354 N 
ATOM     41  C   UNL     1      -5.149 -11.339   8.316  1.00  0.00     0.074 A 
ATOM     42  C   UNL     1      -3.798 -11.587   7.861  1.00  0.00     0.031 C 
ATOM     43  C   UNL     1      -5.752  -4.976   7.522  1.00  0.00     0.029 A 
ATOM     44  C   UNL     1      -6.762  -5.906   8.018  1.00  0.00     0.049 A 
ATOM     45  H   UNL     1      -6.541  -7.951   8.355  1.00  0.00     0.167 HD
ATOM     46  C   UNL     1      -5.993 -12.297   8.777  1.00  0.00     0.034 A 
ATOM     47  C   UNL     1      -8.027  -5.581   8.347  1.00  0.00     0.034 A 
ATOM     48  C   UNL     1      -7.332 -12.028   9.244  1.00  0.00     0.049 A 
ATOM     49  C   UNL     1      -8.949  -6.662   8.851  1.00  0.00     0.074 A 
ATOM     50  C   UNL     1      -8.251 -12.910   9.783  1.00  0.00     0.029 A 
ATOM     51  N   UNL     1      -7.946 -10.781   9.222  1.00  0.00    -0.354 N 
ATOM     52  N   UNL     1      -8.714  -7.946   8.996  1.00  0.00    -0.248 NA
ATOM     53  C   UNL     1     -10.301  -6.248   9.248  1.00  0.00     0.031 C 
ATOM     54  C   UNL     1      -9.439 -12.213  10.029  1.00  0.00     0.029 A 
ATOM     55  C   UNL     1      -9.240 -10.878   9.713  1.00  0.00     0.049 A 
ATOM     56  H   UNL     1      -7.525  -9.950   8.904  1.00  0.00     0.167 HD
ATOM     57  C   UNL     1      -9.881  -8.486   9.529  1.00  0.00     0.074 A 
ATOM     58  C   UNL     1     -10.810  -7.387   9.693  1.00  0.00     0.031 C 
ATOM     59  C   UNL     1     -10.159  -9.774   9.859  1.00  0.00     0.034 A 
BRANCH  46  60
ATOM     60  C   UNL     1      -5.495 -13.723   8.769  1.00  0.00     0.023 A 
ATOM     61  C   UNL     1      -4.389 -14.126   9.539  1.00  0.00     0.031 A 
ATOM     62  C   UNL     1      -6.116 -14.690   7.958  1.00  0.00     0.131 A 
ATOM     63  C   UNL     1      -3.891 -15.432   9.423  1.00  0.00     0.055 A 
ATOM     64  C   UNL     1      -5.666 -16.011   7.910  1.00  0.00     0.041 A 
ATOM     65  F   UNL     1      -7.163 -14.363   7.185  1.00  0.00    -0.206 F 
ATOM     66  C   UNL     1      -4.537 -16.385   8.633  1.00  0.00     0.022 A 
BRANCH  63  67
ATOM     67  S   UNL     1      -2.303 -15.826  10.206  1.00  0.00     0.124 S 
ATOM     68  O   UNL     1      -1.409 -14.872   9.554  1.00  0.00    -0.237 OA
ATOM     69  O   UNL     1      -2.577 -15.584  11.617  1.00  0.00    -0.237 OA
ATOM     70  O   UNL     1      -2.079 -17.224   9.844  1.00  0.00    -0.744 OA
ENDBRANCH  63  67
ENDBRANCH  46  60
BRANCH  47  71
ATOM     71  C   UNL     1      -8.506  -4.176   8.204  1.00  0.00     0.023 A 
ATOM     72  C   UNL     1      -8.870  -3.417   9.326  1.00  0.00     0.031 A 
ATOM     73  C   UNL     1      -8.639  -3.584   6.935  1.00  0.00     0.131 A 
ATOM     74  C   UNL     1      -9.391  -2.125   9.158  1.00  0.00     0.055 A 
ATOM     75  C   UNL     1      -9.111  -2.280   6.776  1.00  0.00     0.041 A 
ATOM     76  F   UNL     1      -8.299  -4.265   5.829  1.00  0.00    -0.206 F 
ATOM     77  C   UNL     1      -9.502  -1.547   7.892  1.00  0.00     0.022 A 
BRANCH  74  78
ATOM     78  S   UNL     1      -9.998  -1.237  10.619  1.00  0.00     0.124 S 
ATOM     79  O   UNL     1     -11.011  -2.155  11.127  1.00  0.00    -0.237 OA
ATOM     80  O   UNL     1      -8.786  -1.110  11.421  1.00  0.00    -0.237 OA
ATOM     81  O   UNL     1     -10.511   0.015  10.067  1.00  0.00    -0.744 OA
ENDBRANCH  74  78
ENDBRANCH  47  71
BRANCH  59  82
ATOM     82  C   UNL     1     -11.510 -10.046  10.473  1.00  0.00     0.023 A 
ATOM     83  C   UNL     1     -12.700  -9.906   9.737  1.00  0.00     0.031 A 
ATOM     84  C   UNL     1     -11.606 -10.438  11.820  1.00  0.00     0.131 A 
ATOM     85  C   UNL     1     -13.937 -10.102  10.368  1.00  0.00     0.055 A 
ATOM     86  C   UNL     1     -12.837 -10.688  12.426  1.00  0.00     0.041 A 
ATOM     87  F   UNL     1     -10.502 -10.584  12.569  1.00  0.00    -0.206 F 
ATOM     88  C   UNL     1     -14.013 -10.508  11.703  1.00  0.00     0.022 A 
BRANCH  85  89
ATOM     89  S   UNL     1     -15.454  -9.733   9.444  1.00  0.00     0.124 S 
ATOM     90  O   UNL     1     -15.266  -8.328   9.100  1.00  0.00    -0.237 OA
ATOM     91  O   UNL     1     -15.382 -10.677   8.334  1.00  0.00    -0.237 OA
ATOM     92  O   UNL     1     -16.518  -9.997  10.412  1.00  0.00    -0.744 OA
ENDBRANCH  85  89
ENDBRANCH  59  82
ENDBRANCH  33  34
ENDBRANCH  25  28
ENDBRANCH  23  24
ENDBRANCH   1  23
TORSDOF 19
