REMARK SMILES O=C(NCCCNC(=O)[C@H]1CC=CC[C@H]1C(=O)N[C@@H]1CCN(c2cccc(Cl)c2)C1)c1ccc(-c2c3nc(c(-c4cc(S(=O)(=O)[O-])ccc4F)c4ccc([nH]4)c(-c4cc(S(=O)(=O)[O-])ccc4F)c4nc(c(-c5cc(S(=O)(=O)[O-])ccc5F)c5ccc2[nH]5)C=C4)C=C3)cc1
REMARK SMILES IDX 5 1 4 2 3 3 1 4 2 5 31 7 32 8 93 9 33 10 92 11 34 12 35 13
REMARK SMILES IDX 36 14 86 15 37 16 91 17 85 18 87 19 38 20 90 21 84 22 83 23
REMARK SMILES IDX 39 25 71 26 51 27 70 28 52 29 55 30 69 31 88 32 53 33 54 34
REMARK SMILES IDX 68 36 89 37 56 38 40 39 41 40 49 41 42 42 48 43 50 44 47 45
REMARK SMILES IDX 43 46 44 47 45 48 46 49 72 50 73 51 81 52 74 53 80 54 82 55
REMARK SMILES IDX 79 56 75 57 76 58 77 59 78 60 57 61 58 62 66 63 59 64 65 65
REMARK SMILES IDX 67 66 64 67 60 68 61 69 62 70 63 71 6 72 7 73 8 74 9 76
REMARK SMILES IDX 10 77 11 78 15 79 12 80 14 81 13 82 16 83 17 84 18 85 19 87
REMARK SMILES IDX 20 88 30 89 21 90 22 91 23 92 24 93 29 94 25 95 27 96 26 97
REMARK SMILES IDX 28 98
REMARK H PARENT 3 6 87 24 55 35 7 75 18 86
REMARK Flexibility Score: inf
ROOT
ATOM      1  C   UNL     1       4.691   1.306   2.171  1.00  0.00     0.042 C 
ENDROOT
BRANCH   1   2
ATOM      2  C   UNL     1       4.440  -0.018   1.455  1.00  0.00     0.118 C 
BRANCH   2   3
ATOM      3  N   UNL     1       3.029  -0.242   1.169  1.00  0.00    -0.352 N 
ATOM      4  O   UNL     1       1.096  -0.131   0.027  1.00  0.00    -0.269 OA
ATOM      5  C   UNL     1       2.330  -0.093  -0.003  1.00  0.00     0.251 C 
ATOM      6  H   UNL     1       2.493  -0.548   1.936  1.00  0.00     0.163 HD
BRANCH   5   7
ATOM      7  C   UNL     1       3.030   0.128  -1.286  1.00  0.00     0.039 A 
ATOM      8  C   UNL     1       4.160  -0.619  -1.625  1.00  0.00     0.014 A 
ATOM      9  C   UNL     1       2.519   1.061  -2.195  1.00  0.00     0.014 A 
ATOM     10  C   UNL     1       4.855  -0.343  -2.799  1.00  0.00     0.010 A 
ATOM     11  C   UNL     1       3.172   1.281  -3.413  1.00  0.00     0.010 A 
ATOM     12  C   UNL     1       4.363   0.600  -3.713  1.00  0.00    -0.014 A 
BRANCH  12  13
ATOM     13  C   UNL     1       5.079   0.816  -4.998  1.00  0.00     0.031 A 
ATOM     14  C   UNL     1       5.723   2.138  -5.313  1.00  0.00     0.074 A 
ATOM     15  C   UNL     1       5.156  -0.202  -5.878  1.00  0.00     0.049 A 
ATOM     16  N   UNL     1       6.381   2.502  -6.384  1.00  0.00    -0.248 NA
ATOM     17  C   UNL     1       5.599   3.192  -4.297  1.00  0.00     0.031 C 
ATOM     18  C   UNL     1       4.559  -1.526  -5.685  1.00  0.00     0.029 A 
ATOM     19  N   UNL     1       5.769  -0.290  -7.102  1.00  0.00    -0.354 N 
ATOM     20  C   UNL     1       6.741   3.830  -6.180  1.00  0.00     0.074 A 
ATOM     21  C   UNL     1       6.190   4.216  -4.897  1.00  0.00     0.031 C 
ATOM     22  C   UNL     1       4.857  -2.301  -6.738  1.00  0.00     0.029 A 
ATOM     23  C   UNL     1       5.611  -1.515  -7.708  1.00  0.00     0.049 A 
ATOM     24  H   UNL     1       6.273   0.452  -7.508  1.00  0.00     0.167 HD
ATOM     25  C   UNL     1       7.469   4.645  -6.986  1.00  0.00     0.034 A 
ATOM     26  C   UNL     1       6.003  -1.952  -8.920  1.00  0.00     0.034 A 
ATOM     27  C   UNL     1       8.010   4.238  -8.263  1.00  0.00     0.049 A 
ATOM     28  C   UNL     1       6.778  -1.021  -9.810  1.00  0.00     0.074 A 
ATOM     29  C   UNL     1       8.800   4.965  -9.137  1.00  0.00     0.029 A 
ATOM     30  N   UNL     1       7.804   2.999  -8.858  1.00  0.00    -0.354 N 
ATOM     31  N   UNL     1       7.138   0.222  -9.588  1.00  0.00    -0.248 NA
ATOM     32  C   UNL     1       7.205  -1.552 -11.110  1.00  0.00     0.031 C 
ATOM     33  C   UNL     1       9.012   4.195 -10.287  1.00  0.00     0.029 A 
ATOM     34  C   UNL     1       8.419   2.956 -10.102  1.00  0.00     0.049 A 
ATOM     35  H   UNL     1       7.296   2.258  -8.456  1.00  0.00     0.167 HD
ATOM     36  C   UNL     1       7.846   0.618 -10.718  1.00  0.00     0.074 A 
ATOM     37  C   UNL     1       7.880  -0.525 -11.608  1.00  0.00     0.031 C 
ATOM     38  C   UNL     1       8.420   1.818 -10.993  1.00  0.00     0.034 A 
BRANCH  25  39
ATOM     39  C   UNL     1       7.678   6.071  -6.527  1.00  0.00     0.023 A 
ATOM     40  C   UNL     1       8.389   6.379  -5.354  1.00  0.00     0.031 A 
ATOM     41  C   UNL     1       7.128   7.138  -7.260  1.00  0.00     0.131 A 
ATOM     42  C   UNL     1       8.467   7.709  -4.909  1.00  0.00     0.055 A 
ATOM     43  C   UNL     1       7.277   8.466  -6.854  1.00  0.00     0.041 A 
ATOM     44  F   UNL     1       6.421   6.908  -8.377  1.00  0.00    -0.206 F 
ATOM     45  C   UNL     1       7.935   8.757  -5.663  1.00  0.00     0.022 A 
BRANCH  42  46
ATOM     46  S   UNL     1       9.137   8.033  -3.254  1.00  0.00     0.124 S 
ATOM     47  O   UNL     1       8.277   7.200  -2.416  1.00  0.00    -0.237 OA
ATOM     48  O   UNL     1      10.521   7.595  -3.383  1.00  0.00    -0.237 OA
ATOM     49  O   UNL     1       8.950   9.473  -3.084  1.00  0.00    -0.744 OA
ENDBRANCH  42  46
ENDBRANCH  25  39
BRANCH  26  50
ATOM     50  C   UNL     1       5.626  -3.321  -9.372  1.00  0.00     0.023 A 
ATOM     51  C   UNL     1       6.593  -4.313  -9.589  1.00  0.00     0.031 A 
ATOM     52  C   UNL     1       4.277  -3.651  -9.598  1.00  0.00     0.131 A 
ATOM     53  C   UNL     1       6.200  -5.581 -10.047  1.00  0.00     0.055 A 
ATOM     54  C   UNL     1       3.887  -4.926 -10.005  1.00  0.00     0.041 A 
ATOM     55  F   UNL     1       3.313  -2.737  -9.400  1.00  0.00    -0.206 F 
ATOM     56  C   UNL     1       4.853  -5.898 -10.242  1.00  0.00     0.022 A 
BRANCH  53  57
ATOM     57  S   UNL     1       7.484  -6.798 -10.449  1.00  0.00     0.124 S 
ATOM     58  O   UNL     1       8.253  -6.094 -11.469  1.00  0.00    -0.237 OA
ATOM     59  O   UNL     1       8.143  -6.981  -9.160  1.00  0.00    -0.237 OA
ATOM     60  O   UNL     1       6.722  -7.950 -10.926  1.00  0.00    -0.744 OA
ENDBRANCH  53  57
ENDBRANCH  26  50
BRANCH  38  61
ATOM     61  C   UNL     1       9.155   1.933 -12.305  1.00  0.00     0.023 A 
ATOM     62  C   UNL     1       8.476   1.900 -13.536  1.00  0.00     0.031 A 
ATOM     63  C   UNL     1      10.555   2.054 -12.324  1.00  0.00     0.131 A 
ATOM     64  C   UNL     1       9.203   1.933 -14.736  1.00  0.00     0.055 A 
ATOM     65  C   UNL     1      11.269   2.143 -13.520  1.00  0.00     0.041 A 
ATOM     66  F   UNL     1      11.254   2.086 -11.177  1.00  0.00    -0.206 F 
ATOM     67  C   UNL     1      10.594   2.070 -14.735  1.00  0.00     0.022 A 
BRANCH  64  68
ATOM     68  S   UNL     1       8.315   1.707 -16.301  1.00  0.00     0.124 S 
ATOM     69  O   UNL     1       7.712   0.390 -16.121  1.00  0.00    -0.237 OA
ATOM     70  O   UNL     1       7.392   2.837 -16.303  1.00  0.00    -0.237 OA
ATOM     71  O   UNL     1       9.373   1.771 -17.308  1.00  0.00    -0.744 OA
ENDBRANCH  64  68
ENDBRANCH  38  61
ENDBRANCH  12  13
ENDBRANCH   5   7
ENDBRANCH   2   3
ENDBRANCH   1   2
BRANCH   1  72
ATOM     72  C   UNL     1       4.098   1.398   3.578  1.00  0.00     0.117 C 
BRANCH  72  73
ATOM     73  N   UNL     1       4.518   0.327   4.474  1.00  0.00    -0.356 N 
ATOM     74  C   UNL     1       5.832   0.234   4.851  1.00  0.00     0.224 C 
ATOM     75  H   UNL     1       3.861  -0.327   4.807  1.00  0.00     0.163 HD
ATOM     76  O   UNL     1       6.627  -0.325   4.099  1.00  0.00    -0.275 OA
BRANCH  74  77
ATOM     77  C   UNL     1       6.255   0.809   6.198  1.00  0.00     0.095 C 
ATOM     78  C   UNL     1       5.200   1.679   6.906  1.00  0.00     0.041 C 
ATOM     79  C   UNL     1       6.936  -0.201   7.166  1.00  0.00     0.095 C 
ATOM     80  C   UNL     1       4.359   0.962   7.914  1.00  0.00    -0.030 C 
ATOM     81  C   UNL     1       6.062  -0.825   8.273  1.00  0.00     0.041 C 
ATOM     82  C   UNL     1       4.749  -0.160   8.525  1.00  0.00    -0.030 C 
BRANCH  79  83
ATOM     83  C   UNL     1       7.861  -1.260   6.550  1.00  0.00     0.224 C 
ATOM     84  O   UNL     1       9.084  -1.091   6.584  1.00  0.00    -0.275 OA
ATOM     85  N   UNL     1       7.410  -2.434   6.024  1.00  0.00    -0.351 N 
ATOM     86  H   UNL     1       8.111  -3.102   5.849  1.00  0.00     0.163 HD
BRANCH  85  87
ATOM     87  C   UNL     1       6.057  -2.866   5.678  1.00  0.00     0.103 C 
ATOM     88  C   UNL     1       5.677  -4.197   6.337  1.00  0.00     0.048 C 
ATOM     89  C   UNL     1       5.884  -3.107   4.160  1.00  0.00     0.141 C 
ATOM     90  C   UNL     1       5.836  -5.253   5.251  1.00  0.00     0.119 C 
ATOM     91  N   UNL     1       5.586  -4.529   4.022  1.00  0.00    -0.369 N 
BRANCH  91  92
ATOM     92  C   UNL     1       4.776  -4.920   2.982  1.00  0.00     0.038 A 
ATOM     93  C   UNL     1       3.571  -5.604   3.189  1.00  0.00     0.026 A 
ATOM     94  C   UNL     1       5.103  -4.563   1.664  1.00  0.00     0.046 A 
ATOM     95  C   UNL     1       2.709  -5.896   2.125  1.00  0.00     0.004 A 
ATOM     96  C   UNL     1       4.258  -4.876   0.600  1.00  0.00     0.043 A 
ATOM     97  C   UNL     1       3.053  -5.532   0.826  1.00  0.00     0.020 A 
ATOM     98  Cl  UNL     1       4.705  -4.444  -1.004  1.00  0.00    -0.084 Cl
ENDBRANCH  91  92
ENDBRANCH  85  87
ENDBRANCH  79  83
ENDBRANCH  74  77
ENDBRANCH  72  73
ENDBRANCH   1  72
TORSDOF 16
