REMARK SMILES O=C(C[NH+]1CCC(C(=O)NCCCNC(=O)c2ccc(-c3c4nc(c(-c5cc(S(=O)(=O)[O-])ccc5F)c5ccc([nH]5)c(-c5cc(S(=O)(=O)[O-])ccc5F)c5nc(c(-c6cc(S(=O)(=O)[O-])ccc6F)c6ccc3[nH]6)C=C5)C=C4)cc2)CC1)Nc1ccccc1Oc1ccccc1
REMARK SMILES IDX 11 1 10 2 8 3 9 4 7 6 4 7 5 8 81 9 6 11 80 12 3 13 2 14 1 15
REMARK SMILES IDX 82 16 83 18 84 19 88 20 85 21 87 22 86 23 89 24 90 25 91 26
REMARK SMILES IDX 95 27 92 28 94 29 93 30 12 31 13 32 14 33 15 34 16 36 17 37
REMARK SMILES IDX 18 38 79 39 19 40 78 41 20 42 21 43 22 44 72 45 23 46 77 47
REMARK SMILES IDX 71 48 73 49 24 50 76 51 70 52 69 53 25 55 57 56 37 57 56 58
REMARK SMILES IDX 38 59 41 60 55 61 74 62 39 63 40 64 54 66 75 67 42 68 26 69
REMARK SMILES IDX 27 70 35 71 28 72 34 73 36 74 33 75 29 76 30 77 31 78 32 79
REMARK SMILES IDX 58 80 59 81 67 82 60 83 66 84 68 85 65 86 61 87 62 88 63 89
REMARK SMILES IDX 64 90 43 91 44 92 52 93 45 94 51 95 53 96 50 97 46 98 47 99
REMARK SMILES IDX 48 100 49 101
REMARK H PARENT 10 5 4 10 82 17 14 35 73 54 41 65
REMARK Flexibility Score: inf
ROOT
ATOM      1  C   UNL     1       7.051  -3.713  -1.965  1.00  0.00     0.117 C 
ENDROOT
BRANCH   1   2
ATOM      2  N   UNL     1       6.531  -4.415  -3.132  1.00  0.00    -0.356 N 
ATOM      3  C   UNL     1       5.266  -4.490  -3.631  1.00  0.00     0.223 C 
ATOM      4  O   UNL     1       5.070  -5.177  -4.634  1.00  0.00    -0.275 OA
ATOM      5  H   UNL     1       7.205  -4.918  -3.643  1.00  0.00     0.163 HD
BRANCH   3   6
ATOM      6  C   UNL     1       4.134  -3.708  -2.994  1.00  0.00     0.089 C 
ATOM      7  N   UNL     1       3.708  -1.949  -0.733  1.00  0.00    -0.327 N 
ATOM      8  C   UNL     1       3.013  -3.240  -0.753  1.00  0.00     0.263 C 
ATOM      9  C   UNL     1       3.716  -1.367  -2.082  1.00  0.00     0.263 C 
ATOM     10  H   UNL     1       4.683  -2.077  -0.460  1.00  0.00     0.348 HD
ATOM     11  C   UNL     1       3.802  -4.234  -1.593  1.00  0.00     0.075 C 
ATOM     12  C   UNL     1       4.445  -2.214  -3.100  1.00  0.00     0.075 C 
BRANCH   7  13
ATOM     13  C   UNL     1       3.097  -1.057   0.287  1.00  0.00     0.363 C 
BRANCH  13  14
ATOM     14  C   UNL     1       2.087  -0.068  -0.303  1.00  0.00     0.279 C 
ATOM     15  O   UNL     1       0.925  -0.372  -0.558  1.00  0.00    -0.268 OA
ATOM     16  N   UNL     1       2.707   1.129  -0.650  1.00  0.00    -0.318 N 
ATOM     17  H   UNL     1       3.664   1.233  -0.444  1.00  0.00     0.170 HD
BRANCH  16  18
ATOM     18  C   UNL     1       2.046   2.192  -1.274  1.00  0.00     0.084 A 
ATOM     19  C   UNL     1       2.577   2.565  -2.522  1.00  0.00     0.030 A 
ATOM     20  C   UNL     1       0.948   2.883  -0.741  1.00  0.00     0.150 A 
ATOM     21  C   UNL     1       1.967   3.552  -3.291  1.00  0.00     0.002 A 
ATOM     22  C   UNL     1       0.351   3.881  -1.531  1.00  0.00     0.049 A 
ATOM     23  C   UNL     1       0.845   4.205  -2.798  1.00  0.00     0.004 A 
BRANCH  20  24
ATOM     24  O   UNL     1       0.350   2.767   0.500  1.00  0.00    -0.455 OA
BRANCH  24  25
ATOM     25  C   UNL     1       0.928   2.047   1.514  1.00  0.00     0.127 A 
ATOM     26  C   UNL     1       0.172   0.997   2.042  1.00  0.00     0.047 A 
ATOM     27  C   UNL     1       2.192   2.329   2.038  1.00  0.00     0.047 A 
ATOM     28  C   UNL     1       0.720   0.156   3.010  1.00  0.00     0.004 A 
ATOM     29  C   UNL     1       2.742   1.482   3.005  1.00  0.00     0.004 A 
ATOM     30  C   UNL     1       2.012   0.388   3.478  1.00  0.00     0.000 A 
ENDBRANCH  24  25
ENDBRANCH  20  24
ENDBRANCH  16  18
ENDBRANCH  13  14
ENDBRANCH   7  13
ENDBRANCH   3   6
ENDBRANCH   1   2
BRANCH   1  31
ATOM     31  C   UNL     1       7.608  -4.667  -0.924  1.00  0.00     0.042 C 
BRANCH  31  32
ATOM     32  C   UNL     1       8.767  -5.502  -1.437  1.00  0.00     0.118 C 
BRANCH  32  33
ATOM     33  N   UNL     1       9.898  -4.687  -1.854  1.00  0.00    -0.352 N 
ATOM     34  C   UNL     1      11.211  -4.759  -1.466  1.00  0.00     0.251 C 
ATOM     35  H   UNL     1       9.690  -3.982  -2.509  1.00  0.00     0.163 HD
ATOM     36  O   UNL     1      11.978  -3.845  -1.768  1.00  0.00    -0.269 OA
BRANCH  34  37
ATOM     37  C   UNL     1      11.684  -5.910  -0.669  1.00  0.00     0.039 A 
ATOM     38  C   UNL     1      12.599  -5.684   0.359  1.00  0.00     0.014 A 
ATOM     39  C   UNL     1      11.224  -7.205  -0.926  1.00  0.00     0.014 A 
ATOM     40  C   UNL     1      13.007  -6.750   1.161  1.00  0.00     0.010 A 
ATOM     41  C   UNL     1      11.544  -8.242  -0.058  1.00  0.00     0.010 A 
ATOM     42  C   UNL     1      12.453  -8.030   0.986  1.00  0.00    -0.014 A 
BRANCH  42  43
ATOM     43  C   UNL     1      12.836  -9.149   1.886  1.00  0.00     0.031 A 
ATOM     44  C   UNL     1      13.519 -10.371   1.330  1.00  0.00     0.074 A 
ATOM     45  C   UNL     1      12.560  -9.059   3.203  1.00  0.00     0.049 A 
ATOM     46  N   UNL     1      13.950 -11.433   1.962  1.00  0.00    -0.248 NA
ATOM     47  C   UNL     1      13.722 -10.421  -0.127  1.00  0.00     0.031 C 
ATOM     48  C   UNL     1      11.851  -7.947   3.844  1.00  0.00     0.029 A 
ATOM     49  N   UNL     1      12.854  -9.903   4.243  1.00  0.00    -0.354 N 
ATOM     50  C   UNL     1      14.483 -12.267   0.984  1.00  0.00     0.074 A 
ATOM     51  C   UNL     1      14.243 -11.628  -0.290  1.00  0.00     0.031 C 
ATOM     52  C   UNL     1      11.816  -8.152   5.170  1.00  0.00     0.029 A 
ATOM     53  C   UNL     1      12.452  -9.429   5.471  1.00  0.00     0.049 A 
ATOM     54  H   UNL     1      13.310 -10.767   4.122  1.00  0.00     0.167 HD
ATOM     55  C   UNL     1      15.146 -13.440   1.137  1.00  0.00     0.034 A 
ATOM     56  C   UNL     1      12.586  -9.964   6.701  1.00  0.00     0.034 A 
ATOM     57  C   UNL     1      15.382 -14.064   2.415  1.00  0.00     0.049 A 
ATOM     58  C   UNL     1      13.305 -11.284   6.835  1.00  0.00     0.074 A 
ATOM     59  C   UNL     1      16.057 -15.241   2.688  1.00  0.00     0.029 A 
ATOM     60  N   UNL     1      14.952 -13.562   3.637  1.00  0.00    -0.354 N 
ATOM     61  N   UNL     1      13.850 -12.030   5.901  1.00  0.00    -0.248 NA
ATOM     62  C   UNL     1      13.447 -11.821   8.193  1.00  0.00     0.031 C 
ATOM     63  C   UNL     1      15.979 -15.483   4.064  1.00  0.00     0.029 A 
ATOM     64  C   UNL     1      15.330 -14.416   4.662  1.00  0.00     0.049 A 
ATOM     65  H   UNL     1      14.452 -12.722   3.757  1.00  0.00     0.167 HD
ATOM     66  C   UNL     1      14.432 -13.105   6.569  1.00  0.00     0.074 A 
ATOM     67  C   UNL     1      14.204 -12.884   7.981  1.00  0.00     0.031 C 
ATOM     68  C   UNL     1      15.088 -14.183   6.066  1.00  0.00     0.034 A 
BRANCH  55  69
ATOM     69  C   UNL     1      15.659 -14.119  -0.109  1.00  0.00     0.023 A 
ATOM     70  C   UNL     1      16.642 -13.521  -0.919  1.00  0.00     0.031 A 
ATOM     71  C   UNL     1      15.172 -15.381  -0.491  1.00  0.00     0.131 A 
ATOM     72  C   UNL     1      17.066 -14.158  -2.095  1.00  0.00     0.055 A 
ATOM     73  C   UNL     1      15.654 -16.045  -1.621  1.00  0.00     0.041 A 
ATOM     74  F   UNL     1      14.216 -15.991   0.228  1.00  0.00    -0.206 F 
ATOM     75  C   UNL     1      16.600 -15.429  -2.436  1.00  0.00     0.022 A 
BRANCH  72  76
ATOM     76  S   UNL     1      18.150 -13.251  -3.230  1.00  0.00     0.124 S 
ATOM     77  O   UNL     1      17.317 -12.103  -3.579  1.00  0.00    -0.237 OA
ATOM     78  O   UNL     1      19.313 -12.966  -2.398  1.00  0.00    -0.237 OA
ATOM     79  O   UNL     1      18.378 -14.200  -4.318  1.00  0.00    -0.744 OA
ENDBRANCH  72  76
ENDBRANCH  55  69
BRANCH  56  80
ATOM     80  C   UNL     1      12.036  -9.275   7.907  1.00  0.00     0.023 A 
ATOM     81  C   UNL     1      12.873  -8.902   8.971  1.00  0.00     0.031 A 
ATOM     82  C   UNL     1      10.653  -9.066   8.057  1.00  0.00     0.131 A 
ATOM     83  C   UNL     1      12.316  -8.427  10.168  1.00  0.00     0.055 A 
ATOM     84  C   UNL     1      10.111  -8.519   9.222  1.00  0.00     0.041 A 
ATOM     85  F   UNL     1       9.803  -9.398   7.072  1.00  0.00    -0.206 F 
ATOM     86  C   UNL     1      10.942  -8.219  10.296  1.00  0.00     0.022 A 
BRANCH  83  87
ATOM     87  S   UNL     1      13.402  -8.228  11.609  1.00  0.00     0.124 S 
ATOM     88  O   UNL     1      14.010  -9.550  11.705  1.00  0.00    -0.237 OA
ATOM     89  O   UNL     1      14.281  -7.147  11.176  1.00  0.00    -0.237 OA
ATOM     90  O   UNL     1      12.476  -7.884  12.686  1.00  0.00    -0.744 OA
ENDBRANCH  83  87
ENDBRANCH  56  80
BRANCH  68  91
ATOM     91  C   UNL     1      15.639 -15.169   7.069  1.00  0.00     0.023 A 
ATOM     92  C   UNL     1      14.798 -15.880   7.943  1.00  0.00     0.031 A 
ATOM     93  C   UNL     1      17.028 -15.353   7.196  1.00  0.00     0.131 A 
ATOM     94  C   UNL     1      15.353 -16.657   8.970  1.00  0.00     0.055 A 
ATOM     95  C   UNL     1      17.572 -16.196   8.166  1.00  0.00     0.041 A 
ATOM     96  F   UNL     1      17.882 -14.702   6.389  1.00  0.00    -0.206 F 
ATOM     97  C   UNL     1      16.734 -16.835   9.076  1.00  0.00     0.022 A 
BRANCH  94  98
ATOM     98  S   UNL     1      14.250 -17.299  10.259  1.00  0.00     0.124 S 
ATOM     99  O   UNL     1      13.592 -16.084  10.727  1.00  0.00    -0.237 OA
ATOM    100  O   UNL     1      13.411 -18.231   9.514  1.00  0.00    -0.237 OA
ATOM    101  O   UNL     1      15.166 -17.918  11.216  1.00  0.00    -0.744 OA
ENDBRANCH  94  98
ENDBRANCH  68  91
ENDBRANCH  42  43
ENDBRANCH  34  37
ENDBRANCH  32  33
ENDBRANCH  31  32
ENDBRANCH   1  31
TORSDOF 18
