REMARK SMILES O=C(NCCCNC(=O)[C@@H]1CC[C@@H](CN2C(=O)CC3(CCCC3)CC2=O)O1)c1ccc(-c2c3nc(c(-c4cc(S(=O)(=O)[O-])ccc4F)c4ccc([nH]4)c(-c4cc(S(=O)(=O)[O-])ccc4F)c4nc(c(-c5cc(S(=O)(=O)[O-])ccc5F)c5ccc2[nH]5)C=C4)C=C3)cc1
REMARK SMILES IDX 4 1 3 2 1 3 2 4 28 6 29 7 90 8 30 9 89 10 31 11 32 12 33 13
REMARK SMILES IDX 83 14 34 15 88 16 82 17 84 18 35 19 87 20 81 21 80 22 36 24
REMARK SMILES IDX 68 25 48 26 67 27 49 28 52 29 66 30 85 31 50 32 51 33 65 35
REMARK SMILES IDX 86 36 53 37 37 38 38 39 46 40 39 41 45 42 47 43 44 44 40 45
REMARK SMILES IDX 41 46 42 47 43 48 69 49 70 50 78 51 71 52 77 53 79 54 76 55
REMARK SMILES IDX 72 56 73 57 74 58 75 59 54 60 55 61 63 62 56 63 62 64 64 65
REMARK SMILES IDX 61 66 57 67 58 68 59 69 60 70 5 71 6 72 7 73 8 74 9 76 10 77
REMARK SMILES IDX 11 78 27 79 12 80 13 81 14 82 15 83 16 84 25 85 17 86 18 87
REMARK SMILES IDX 24 88 26 89 19 90 20 91 23 92 21 93 22 94
REMARK H PARENT 3 5 84 23 52 34 7 75
REMARK Flexibility Score: inf
ROOT
ATOM      1  C   UNL     1       4.487  -1.000  -1.255  1.00  0.00     0.118 C 
ENDROOT
BRANCH   1   2
ATOM      2  N   UNL     1       3.072  -0.670  -1.130  1.00  0.00    -0.352 N 
ATOM      3  O   UNL     1       1.170   0.091  -0.209  1.00  0.00    -0.269 OA
ATOM      4  C   UNL     1       2.397   0.022  -0.154  1.00  0.00     0.251 C 
ATOM      5  H   UNL     1       2.508  -0.997  -1.867  1.00  0.00     0.163 HD
BRANCH   4   6
ATOM      6  C   UNL     1       3.119   0.660   0.972  1.00  0.00     0.039 A 
ATOM      7  C   UNL     1       4.311   1.357   0.771  1.00  0.00     0.014 A 
ATOM      8  C   UNL     1       2.573   0.578   2.258  1.00  0.00     0.014 A 
ATOM      9  C   UNL     1       5.033   1.825   1.866  1.00  0.00     0.010 A 
ATOM     10  C   UNL     1       3.258   1.127   3.348  1.00  0.00     0.010 A 
ATOM     11  C   UNL     1       4.518   1.716   3.168  1.00  0.00    -0.014 A 
BRANCH  11  12
ATOM     12  C   UNL     1       5.313   2.237   4.314  1.00  0.00     0.031 A 
ATOM     13  C   UNL     1       5.847   1.309   5.373  1.00  0.00     0.074 A 
ATOM     14  C   UNL     1       5.595   3.554   4.370  1.00  0.00     0.049 A 
ATOM     15  N   UNL     1       6.611   1.581   6.402  1.00  0.00    -0.248 NA
ATOM     16  C   UNL     1       5.465  -0.106   5.271  1.00  0.00     0.031 C 
ATOM     17  C   UNL     1       5.122   4.556   3.411  1.00  0.00     0.029 A 
ATOM     18  N   UNL     1       6.364   4.275   5.248  1.00  0.00    -0.354 N 
ATOM     19  C   UNL     1       6.786   0.379   7.080  1.00  0.00     0.074 A 
ATOM     20  C   UNL     1       6.015  -0.616   6.364  1.00  0.00     0.031 C 
ATOM     21  C   UNL     1       5.657   5.747   3.719  1.00  0.00     0.029 A 
ATOM     22  C   UNL     1       6.463   5.609   4.928  1.00  0.00     0.049 A 
ATOM     23  H   UNL     1       6.802   3.875   6.034  1.00  0.00     0.167 HD
ATOM     24  C   UNL     1       7.527   0.127   8.189  1.00  0.00     0.034 A 
ATOM     25  C   UNL     1       7.124   6.612   5.537  1.00  0.00     0.034 A 
ATOM     26  C   UNL     1       8.300   1.128   8.888  1.00  0.00     0.049 A 
ATOM     27  C   UNL     1       7.923   6.309   6.776  1.00  0.00     0.074 A 
ATOM     28  C   UNL     1       9.122   0.969   9.992  1.00  0.00     0.029 A 
ATOM     29  N   UNL     1       8.340   2.477   8.559  1.00  0.00    -0.354 N 
ATOM     30  N   UNL     1       8.104   5.159   7.383  1.00  0.00    -0.248 NA
ATOM     31  C   UNL     1       8.612   7.441   7.407  1.00  0.00     0.031 C 
ATOM     32  C   UNL     1       9.605   2.228  10.368  1.00  0.00     0.029 A 
ATOM     33  C   UNL     1       9.146   3.165   9.457  1.00  0.00     0.049 A 
ATOM     34  H   UNL     1       7.866   2.886   7.800  1.00  0.00     0.167 HD
ATOM     35  C   UNL     1       8.947   5.428   8.457  1.00  0.00     0.074 A 
ATOM     36  C   UNL     1       9.254   6.843   8.399  1.00  0.00     0.031 C 
ATOM     37  C   UNL     1       9.428   4.581   9.402  1.00  0.00     0.034 A 
BRANCH  24  38
ATOM     38  C   UNL     1       7.500  -1.282   8.738  1.00  0.00     0.023 A 
ATOM     39  C   UNL     1       8.006  -2.373   8.011  1.00  0.00     0.031 A 
ATOM     40  C   UNL     1       6.933  -1.539   9.999  1.00  0.00     0.131 A 
ATOM     41  C   UNL     1       7.871  -3.676   8.516  1.00  0.00     0.055 A 
ATOM     42  C   UNL     1       6.870  -2.829  10.530  1.00  0.00     0.041 A 
ATOM     43  F   UNL     1       6.417  -0.541  10.733  1.00  0.00    -0.206 F 
ATOM     44  C   UNL     1       7.327  -3.910   9.781  1.00  0.00     0.022 A 
BRANCH  41  45
ATOM     45  S   UNL     1       8.286  -5.073   7.434  1.00  0.00     0.124 S 
ATOM     46  O   UNL     1       7.425  -4.824   6.280  1.00  0.00    -0.237 OA
ATOM     47  O   UNL     1       9.716  -4.888   7.214  1.00  0.00    -0.237 OA
ATOM     48  O   UNL     1       7.924  -6.244   8.230  1.00  0.00    -0.744 OA
ENDBRANCH  41  45
ENDBRANCH  24  38
BRANCH  25  49
ATOM     49  C   UNL     1       7.051   7.997   4.994  1.00  0.00     0.023 A 
ATOM     50  C   UNL     1       8.192   8.636   4.487  1.00  0.00     0.031 A 
ATOM     51  C   UNL     1       5.840   8.712   5.001  1.00  0.00     0.131 A 
ATOM     52  C   UNL     1       8.108   9.963   4.039  1.00  0.00     0.055 A 
ATOM     53  C   UNL     1       5.751  10.014   4.508  1.00  0.00     0.041 A 
ATOM     54  F   UNL     1       4.718   8.143   5.471  1.00  0.00    -0.206 F 
ATOM     55  C   UNL     1       6.893  10.652   4.034  1.00  0.00     0.022 A 
BRANCH  52  56
ATOM     56  S   UNL     1       9.631  10.804   3.525  1.00  0.00     0.124 S 
ATOM     57  O   UNL     1      10.443  10.714   4.733  1.00  0.00    -0.237 OA
ATOM     58  O   UNL     1      10.063   9.985   2.398  1.00  0.00    -0.237 OA
ATOM     59  O   UNL     1       9.175  12.148   3.177  1.00  0.00    -0.744 OA
ENDBRANCH  52  56
ENDBRANCH  25  49
BRANCH  37  60
ATOM     60  C   UNL     1      10.367   5.171  10.426  1.00  0.00     0.023 A 
ATOM     61  C   UNL     1       9.930   6.115  11.372  1.00  0.00     0.031 A 
ATOM     62  C   UNL     1      11.726   4.812  10.427  1.00  0.00     0.131 A 
ATOM     63  C   UNL     1      10.856   6.717  12.237  1.00  0.00     0.055 A 
ATOM     64  C   UNL     1      12.632   5.371  11.330  1.00  0.00     0.041 A 
ATOM     65  F   UNL     1      12.198   3.918   9.544  1.00  0.00    -0.206 F 
ATOM     66  C   UNL     1      12.201   6.340  12.232  1.00  0.00     0.022 A 
BRANCH  63  67
ATOM     67  S   UNL     1      10.298   8.078  13.299  1.00  0.00     0.124 S 
ATOM     68  O   UNL     1       9.768   9.027  12.325  1.00  0.00    -0.237 OA
ATOM     69  O   UNL     1       9.313   7.423  14.153  1.00  0.00    -0.237 OA
ATOM     70  O   UNL     1      11.520   8.506  13.979  1.00  0.00    -0.744 OA
ENDBRANCH  63  67
ENDBRANCH  37  60
ENDBRANCH  11  12
ENDBRANCH   4   6
ENDBRANCH   1   2
BRANCH   1  71
ATOM     71  C   UNL     1       4.756  -2.490  -1.443  1.00  0.00     0.042 C 
BRANCH  71  72
ATOM     72  C   UNL     1       4.112  -3.109  -2.678  1.00  0.00     0.117 C 
BRANCH  72  73
ATOM     73  N   UNL     1       4.544  -2.485  -3.920  1.00  0.00    -0.354 N 
ATOM     74  C   UNL     1       5.347  -2.992  -4.905  1.00  0.00     0.249 C 
ATOM     75  H   UNL     1       4.213  -1.571  -4.072  1.00  0.00     0.163 HD
ATOM     76  O   UNL     1       5.559  -2.297  -5.901  1.00  0.00    -0.272 OA
BRANCH  74  77
ATOM     77  C   UNL     1       6.017  -4.359  -4.696  1.00  0.00     0.207 C 
ATOM     78  C   UNL     1       6.861  -4.801  -5.880  1.00  0.00     0.045 C 
ATOM     79  O   UNL     1       5.100  -5.434  -4.479  1.00  0.00    -0.363 OA
ATOM     80  C   UNL     1       6.986  -6.290  -5.650  1.00  0.00     0.037 C 
ATOM     81  C   UNL     1       5.651  -6.655  -5.005  1.00  0.00     0.139 C 
BRANCH  81  82
ATOM     82  C   UNL     1       5.702  -7.742  -3.899  1.00  0.00     0.160 C 
BRANCH  82  83
ATOM     83  N   UNL     1       6.746  -7.454  -2.910  1.00  0.00    -0.280 N 
ATOM     84  C   UNL     1       7.923  -8.180  -2.969  1.00  0.00     0.229 C 
ATOM     85  C   UNL     1       6.455  -6.547  -1.904  1.00  0.00     0.229 C 
ATOM     86  O   UNL     1       8.050  -9.196  -3.656  1.00  0.00    -0.274 OA
ATOM     87  C   UNL     1       9.129  -7.600  -2.269  1.00  0.00     0.108 C 
ATOM     88  C   UNL     1       7.641  -5.784  -1.374  1.00  0.00     0.108 C 
ATOM     89  O   UNL     1       5.315  -6.286  -1.526  1.00  0.00    -0.274 OA
ATOM     90  C   UNL     1       8.863  -6.652  -1.097  1.00  0.00    -0.012 C 
ATOM     91  C   UNL     1      10.110  -5.742  -0.901  1.00  0.00     0.008 C 
ATOM     92  C   UNL     1       8.716  -7.412   0.242  1.00  0.00     0.008 C 
ATOM     93  C   UNL     1      10.438  -5.796   0.580  1.00  0.00     0.001 C 
ATOM     94  C   UNL     1      10.045  -7.210   0.963  1.00  0.00     0.001 C 
ENDBRANCH  82  83
ENDBRANCH  81  82
ENDBRANCH  74  77
ENDBRANCH  72  73
ENDBRANCH  71  72
ENDBRANCH   1  71
TORSDOF 15
