REMARK SMILES Cc1cc(S(=O)(=O)Nc2ccc(Cl)cc2F)ccc1OCC(=O)NCCCNC(=O)c1ccc(-c2c3nc(c(-c4cc(S(=O)(=O)[O-])ccc4F)c4ccc([nH]4)c(-c4cc(S(=O)(=O)[O-])ccc4F)c4nc(c(-c5cc(S(=O)(=O)[O-])ccc5F)c5ccc2[nH]5)C=C4)C=C3)cc1
REMARK SMILES IDX 25 1 24 2 22 3 23 4 21 6 20 7 19 8 1 9 2 10 3 11 4 12 18 13
REMARK SMILES IDX 17 14 5 15 6 16 7 17 8 18 9 20 10 21 15 22 11 23 14 24 16 25
REMARK SMILES IDX 12 26 13 27 26 28 27 29 28 30 29 31 30 33 31 34 32 35 93 36
REMARK SMILES IDX 33 37 92 38 34 39 35 40 36 41 86 42 37 43 91 44 85 45 87 46
REMARK SMILES IDX 38 47 90 48 84 49 83 50 39 52 71 53 51 54 70 55 52 56 55 57
REMARK SMILES IDX 69 58 88 59 53 60 54 61 68 63 89 64 56 65 40 66 41 67 49 68
REMARK SMILES IDX 42 69 48 70 50 71 47 72 43 73 44 74 45 75 46 76 72 77 73 78
REMARK SMILES IDX 81 79 74 80 80 81 82 82 79 83 75 84 76 85 77 86 78 87 57 88
REMARK SMILES IDX 58 89 66 90 59 91 65 92 67 93 64 94 60 95 61 96 62 97 63 98
REMARK H PARENT 24 5 8 19 28 32 87 51 55 62
REMARK Flexibility Score: inf
ROOT
ATOM      1  C   UNL     1       1.984   4.277   2.376  1.00  0.00     0.117 C 
ENDROOT
BRANCH   1   2
ATOM      2  N   UNL     1       2.892   3.142   2.395  1.00  0.00    -0.353 N 
ATOM      3  C   UNL     1       3.195   2.257   1.398  1.00  0.00     0.257 C 
ATOM      4  O   UNL     1       4.008   1.350   1.586  1.00  0.00    -0.271 OA
ATOM      5  H   UNL     1       3.356   2.987   3.249  1.00  0.00     0.163 HD
BRANCH   3   6
ATOM      6  C   UNL     1       2.557   2.449   0.018  1.00  0.00     0.329 C 
BRANCH   6   7
ATOM      7  O   UNL     1       1.172   2.223  -0.121  1.00  0.00    -0.484 OA
BRANCH   7   8
ATOM      8  C   UNL     1       0.614   0.985   0.011  1.00  0.00     0.123 A 
ATOM      9  C   UNL     1       2.533  -0.579  -0.737  1.00  0.00     0.048 C 
ATOM     10  C   UNL     1       1.123  -0.278  -0.320  1.00  0.00    -0.008 A 
ATOM     11  C   UNL     1       0.248  -1.389  -0.260  1.00  0.00     0.029 A 
ATOM     12  C   UNL     1      -1.084  -1.266   0.153  1.00  0.00     0.088 A 
ATOM     13  C   UNL     1      -0.712   1.079   0.469  1.00  0.00     0.048 A 
ATOM     14  C   UNL     1      -1.536  -0.038   0.605  1.00  0.00     0.026 A 
BRANCH  12  15
ATOM     15  S   UNL     1      -2.130  -2.688  -0.083  1.00  0.00     0.262 S 
ATOM     16  O   UNL     1      -2.029  -3.087  -1.464  1.00  0.00    -0.201 OA
ATOM     17  O   UNL     1      -1.792  -3.620   0.981  1.00  0.00    -0.201 OA
BRANCH  15  18
ATOM     18  N   UNL     1      -3.730  -2.293   0.235  1.00  0.00    -0.277 N 
ATOM     19  H   UNL     1      -4.266  -2.950   0.736  1.00  0.00     0.180 HD
BRANCH  18  20
ATOM     20  C   UNL     1      -4.379  -1.089  -0.157  1.00  0.00     0.085 A 
ATOM     21  C   UNL     1      -5.322  -0.589   0.751  1.00  0.00     0.031 A 
ATOM     22  C   UNL     1      -4.092  -0.344  -1.308  1.00  0.00     0.148 A 
ATOM     23  C   UNL     1      -5.868   0.684   0.576  1.00  0.00     0.023 A 
ATOM     24  C   UNL     1      -4.630   0.930  -1.485  1.00  0.00     0.062 A 
ATOM     25  F   UNL     1      -3.226  -0.790  -2.225  1.00  0.00    -0.205 F 
ATOM     26  C   UNL     1      -5.499   1.448  -0.529  1.00  0.00     0.044 A 
ATOM     27  Cl  UNL     1      -6.107   3.048  -0.694  1.00  0.00    -0.084 Cl
ENDBRANCH  18  20
ENDBRANCH  15  18
ENDBRANCH  12  15
ENDBRANCH   7   8
ENDBRANCH   6   7
ENDBRANCH   3   6
ENDBRANCH   1   2
BRANCH   1  28
ATOM     28  C   UNL     1       0.572   3.908   2.801  1.00  0.00     0.042 C 
BRANCH  28  29
ATOM     29  C   UNL     1       0.434   3.526   4.269  1.00  0.00     0.118 C 
BRANCH  29  30
ATOM     30  N   UNL     1      -0.009   4.623   5.126  1.00  0.00    -0.352 N 
ATOM     31  C   UNL     1      -0.441   4.581   6.439  1.00  0.00     0.251 C 
ATOM     32  H   UNL     1       0.003   5.516   4.711  1.00  0.00     0.163 HD
ATOM     33  O   UNL     1      -0.834   5.590   7.018  1.00  0.00    -0.269 OA
BRANCH  31  34
ATOM     34  C   UNL     1      -0.287   3.319   7.198  1.00  0.00     0.039 A 
ATOM     35  C   UNL     1       0.489   3.366   8.362  1.00  0.00     0.014 A 
ATOM     36  C   UNL     1      -0.672   2.097   6.654  1.00  0.00     0.014 A 
ATOM     37  C   UNL     1       1.082   2.200   8.835  1.00  0.00     0.010 A 
ATOM     38  C   UNL     1      -0.014   0.954   7.063  1.00  0.00     0.010 A 
ATOM     39  C   UNL     1       0.912   1.020   8.110  1.00  0.00    -0.014 A 
BRANCH  39  40
ATOM     40  C   UNL     1       1.782  -0.137   8.282  1.00  0.00     0.031 A 
ATOM     41  C   UNL     1       1.325  -1.333   9.008  1.00  0.00     0.074 A 
ATOM     42  C   UNL     1       3.020  -0.125   7.742  1.00  0.00     0.049 A 
ATOM     43  N   UNL     1       2.096  -2.104   9.699  1.00  0.00    -0.248 NA
ATOM     44  C   UNL     1      -0.073  -1.738   9.032  1.00  0.00     0.031 C 
ATOM     45  C   UNL     1       3.951  -1.242   7.627  1.00  0.00     0.029 A 
ATOM     46  N   UNL     1       3.772   0.994   7.398  1.00  0.00    -0.354 N 
ATOM     47  C   UNL     1       1.384  -3.247   9.982  1.00  0.00     0.074 A 
ATOM     48  C   UNL     1       0.018  -2.932   9.626  1.00  0.00     0.031 C 
ATOM     49  C   UNL     1       5.196  -0.755   7.498  1.00  0.00     0.029 A 
ATOM     50  C   UNL     1       5.118   0.686   7.662  1.00  0.00     0.049 A 
ATOM     51  H   UNL     1       3.427   1.842   7.037  1.00  0.00     0.167 HD
ATOM     52  C   UNL     1       2.043  -4.392  10.322  1.00  0.00     0.034 A 
ATOM     53  C   UNL     1       5.843   1.424   8.552  1.00  0.00     0.034 A 
ATOM     54  C   UNL     1       3.494  -4.197  10.350  1.00  0.00     0.049 A 
ATOM     55  C   UNL     1       6.354   0.616   9.723  1.00  0.00     0.074 A 
ATOM     56  C   UNL     1       4.492  -4.514   9.442  1.00  0.00     0.029 A 
ATOM     57  N   UNL     1       4.072  -3.345  11.285  1.00  0.00    -0.354 N 
ATOM     58  N   UNL     1       5.903  -0.564  10.050  1.00  0.00    -0.248 NA
ATOM     59  C   UNL     1       7.398   1.082  10.630  1.00  0.00     0.031 C 
ATOM     60  C   UNL     1       5.662  -3.803   9.806  1.00  0.00     0.029 A 
ATOM     61  C   UNL     1       5.386  -3.074  10.950  1.00  0.00     0.049 A 
ATOM     62  H   UNL     1       3.609  -2.985  12.076  1.00  0.00     0.167 HD
ATOM     63  C   UNL     1       6.536  -1.004  11.185  1.00  0.00     0.074 A 
ATOM     64  C   UNL     1       7.485   0.053  11.492  1.00  0.00     0.031 C 
ATOM     65  C   UNL     1       6.208  -2.195  11.774  1.00  0.00     0.034 A 
BRANCH  52  66
ATOM     66  C   UNL     1       1.397  -5.761  10.277  1.00  0.00     0.023 A 
ATOM     67  C   UNL     1       2.174  -6.886   9.928  1.00  0.00     0.031 A 
ATOM     68  C   UNL     1       0.035  -6.024  10.515  1.00  0.00     0.131 A 
ATOM     69  C   UNL     1       1.589  -8.145   9.701  1.00  0.00     0.055 A 
ATOM     70  C   UNL     1      -0.562  -7.260  10.227  1.00  0.00     0.041 A 
ATOM     71  F   UNL     1      -0.766  -5.110  11.082  1.00  0.00    -0.206 F 
ATOM     72  C   UNL     1       0.214  -8.326   9.798  1.00  0.00     0.022 A 
BRANCH  69  73
ATOM     73  S   UNL     1       2.659  -9.551   9.291  1.00  0.00     0.124 S 
ATOM     74  O   UNL     1       3.304  -9.104   8.061  1.00  0.00    -0.237 OA
ATOM     75  O   UNL     1       3.512  -9.644  10.471  1.00  0.00    -0.237 OA
ATOM     76  O   UNL     1       1.716 -10.658   9.127  1.00  0.00    -0.744 OA
ENDBRANCH  69  73
ENDBRANCH  52  66
BRANCH  53  77
ATOM     77  C   UNL     1       5.425   2.857   8.599  1.00  0.00     0.023 A 
ATOM     78  C   UNL     1       5.436   3.567   7.378  1.00  0.00     0.031 A 
ATOM     79  C   UNL     1       4.669   3.382   9.654  1.00  0.00     0.131 A 
ATOM     80  C   UNL     1       4.562   4.644   7.178  1.00  0.00     0.055 A 
ATOM     81  C   UNL     1       3.865   4.517   9.476  1.00  0.00     0.041 A 
ATOM     82  F   UNL     1       4.593   2.741  10.829  1.00  0.00    -0.206 F 
ATOM     83  C   UNL     1       3.771   5.125   8.221  1.00  0.00     0.022 A 
BRANCH  80  84
ATOM     84  S   UNL     1       4.256   5.183   5.471  1.00  0.00     0.124 S 
ATOM     85  O   UNL     1       5.400   6.046   5.205  1.00  0.00    -0.237 OA
ATOM     86  O   UNL     1       4.227   3.916   4.737  1.00  0.00    -0.237 OA
ATOM     87  O   UNL     1       2.961   5.857   5.532  1.00  0.00    -0.744 OA
ENDBRANCH  80  84
ENDBRANCH  53  77
BRANCH  65  88
ATOM     88  C   UNL     1       6.698  -2.694  13.120  1.00  0.00     0.023 A 
ATOM     89  C   UNL     1       7.302  -1.870  14.081  1.00  0.00     0.031 A 
ATOM     90  C   UNL     1       6.502  -4.042  13.514  1.00  0.00     0.131 A 
ATOM     91  C   UNL     1       7.759  -2.390  15.308  1.00  0.00     0.055 A 
ATOM     92  C   UNL     1       6.883  -4.539  14.764  1.00  0.00     0.041 A 
ATOM     93  F   UNL     1       5.921  -4.940  12.704  1.00  0.00    -0.206 F 
ATOM     94  C   UNL     1       7.535  -3.715  15.667  1.00  0.00     0.022 A 
BRANCH  91  95
ATOM     95  S   UNL     1       8.718  -1.303  16.396  1.00  0.00     0.124 S 
ATOM     96  O   UNL     1       9.872  -0.982  15.560  1.00  0.00    -0.237 OA
ATOM     97  O   UNL     1       7.789  -0.204  16.640  1.00  0.00    -0.237 OA
ATOM     98  O   UNL     1       9.008  -2.142  17.556  1.00  0.00    -0.744 OA
ENDBRANCH  91  95
ENDBRANCH  65  88
ENDBRANCH  39  40
ENDBRANCH  31  34
ENDBRANCH  29  30
ENDBRANCH  28  29
ENDBRANCH   1  28
TORSDOF 18
