REMARK SMILES Cc1c(Br)c(C)c2c(c1Br)O[C@H](C(F)(F)F)C(C(=O)NCCCNC(=O)c1ccc(-c3c4nc(c(-c5cc(S(=O)(=O)[O-])ccc5F)c5ccc([nH]5)c(-c5cc(S(=O)(=O)[O-])ccc5F)c5nc(c(-c6cc(S(=O)(=O)[O-])ccc6F)c6ccc3[nH]6)C=C5)C=C4)cc1)=C2
REMARK SMILES IDX 23 1 22 2 21 3 20 4 18 5 19 6 17 8 1 9 2 10 3 11 9 12 4 13
REMARK SMILES IDX 5 14 8 15 10 16 6 17 7 18 11 19 90 20 12 21 13 22 14 23
REMARK SMILES IDX 15 24 16 25 24 26 25 27 26 29 27 30 28 31 89 32 29 33 88 34
REMARK SMILES IDX 30 35 31 36 32 37 82 38 33 39 87 40 81 41 83 42 34 43 86 44
REMARK SMILES IDX 80 45 79 46 35 48 67 49 47 50 66 51 48 52 51 53 65 54 84 55
REMARK SMILES IDX 49 56 50 57 64 59 85 60 52 61 36 62 37 63 45 64 38 65 44 66
REMARK SMILES IDX 46 67 43 68 39 69 40 70 41 71 42 72 68 73 69 74 77 75 70 76
REMARK SMILES IDX 76 77 78 78 75 79 71 80 72 81 73 82 74 83 53 84 54 85 62 86
REMARK SMILES IDX 55 87 61 88 63 89 60 90 56 91 57 92 58 93 59 94
REMARK H PARENT 20 7 24 28 83 47 51 58
REMARK Flexibility Score: inf
ROOT
ATOM      1  C   UNL     1      -4.741   6.100  -7.310  1.00  0.00     0.118 C 
ENDROOT
BRANCH   1   2
ATOM      2  C   UNL     1      -4.146   4.912  -6.565  1.00  0.00     0.042 C 
BRANCH   2   3
ATOM      3  C   UNL     1      -2.627   4.904  -6.619  1.00  0.00     0.118 C 
BRANCH   3   4
ATOM      4  N   UNL     1      -2.044   5.857  -5.685  1.00  0.00    -0.352 N 
ATOM      5  C   UNL     1      -1.371   5.811  -4.513  1.00  0.00     0.251 C 
ATOM      6  O   UNL     1      -1.041   6.907  -4.048  1.00  0.00    -0.270 OA
ATOM      7  H   UNL     1      -2.176   6.784  -5.987  1.00  0.00     0.163 HD
BRANCH   5   8
ATOM      8  C   UNL     1      -1.006   4.562  -3.784  1.00  0.00     0.067 C 
ATOM      9  C   UNL     1       1.184  -0.070   0.313  1.00  0.00     0.047 C 
ATOM     10  C   UNL     1       0.775   1.176  -0.437  1.00  0.00    -0.019 A 
ATOM     11  C   UNL     1       1.229   2.452  -0.007  1.00  0.00     0.025 A 
ATOM     12  C   UNL     1      -0.074   1.119  -1.556  1.00  0.00     0.064 A 
ATOM     13  Br  UNL     1       2.347   2.543   1.555  1.00  0.00    -0.050 Br
ATOM     14  C   UNL     1       0.871   3.644  -0.689  1.00  0.00    -0.026 A 
ATOM     15  C   UNL     1      -0.429   2.291  -2.240  1.00  0.00     0.142 A 
ATOM     16  Br  UNL     1      -0.769  -0.541  -2.213  1.00  0.00    -0.046 Br
ATOM     17  C   UNL     1       1.350   5.010  -0.250  1.00  0.00     0.046 C 
ATOM     18  C   UNL     1       0.032   3.547  -1.824  1.00  0.00     0.022 A 
ATOM     19  O   UNL     1      -1.291   2.162  -3.298  1.00  0.00    -0.474 OA
ATOM     20  C   UNL     1      -0.413   4.723  -2.587  1.00  0.00     0.026 C 
ATOM     21  C   UNL     1      -1.235   3.185  -4.318  1.00  0.00     0.314 C 
BRANCH  21  22
ATOM     22  C   UNL     1      -0.218   2.788  -5.405  1.00  0.00     0.429 C 
ATOM     23  F   UNL     1      -0.668   1.725  -6.116  1.00  0.00    -0.167 F 
ATOM     24  F   UNL     1       0.004   3.782  -6.299  1.00  0.00    -0.167 F 
ATOM     25  F   UNL     1       0.988   2.453  -4.892  1.00  0.00    -0.167 F 
ENDBRANCH  21  22
ENDBRANCH   5   8
ENDBRANCH   3   4
ENDBRANCH   2   3
ENDBRANCH   1   2
BRANCH   1  26
ATOM     26  N   UNL     1      -4.426   6.053  -8.735  1.00  0.00    -0.352 N 
ATOM     27  C   UNL     1      -5.220   5.723  -9.804  1.00  0.00     0.251 C 
ATOM     28  H   UNL     1      -3.500   6.295  -8.965  1.00  0.00     0.163 HD
ATOM     29  O   UNL     1      -4.698   5.440 -10.881  1.00  0.00    -0.269 OA
BRANCH  27  30
ATOM     30  C   UNL     1      -6.687   5.707  -9.654  1.00  0.00     0.039 A 
ATOM     31  C   UNL     1      -7.435   4.711 -10.285  1.00  0.00     0.014 A 
ATOM     32  C   UNL     1      -7.325   6.697  -8.903  1.00  0.00     0.014 A 
ATOM     33  C   UNL     1      -8.819   4.675 -10.107  1.00  0.00     0.010 A 
ATOM     34  C   UNL     1      -8.684   6.600  -8.642  1.00  0.00     0.010 A 
ATOM     35  C   UNL     1      -9.447   5.599  -9.256  1.00  0.00    -0.014 A 
BRANCH  35  36
ATOM     36  C   UNL     1     -10.910   5.567  -9.022  1.00  0.00     0.031 A 
ATOM     37  C   UNL     1     -11.755   6.738  -9.443  1.00  0.00     0.074 A 
ATOM     38  C   UNL     1     -11.462   4.516  -8.387  1.00  0.00     0.049 A 
ATOM     39  N   UNL     1     -13.033   6.944  -9.258  1.00  0.00    -0.248 NA
ATOM     40  C   UNL     1     -11.065   7.839 -10.136  1.00  0.00     0.031 C 
ATOM     41  C   UNL     1     -10.732   3.340  -7.908  1.00  0.00     0.029 A 
ATOM     42  N   UNL     1     -12.763   4.262  -8.040  1.00  0.00    -0.354 N 
ATOM     43  C   UNL     1     -13.296   8.195  -9.803  1.00  0.00     0.074 A 
ATOM     44  C   UNL     1     -12.033   8.734 -10.257  1.00  0.00     0.031 C 
ATOM     45  C   UNL     1     -11.603   2.470  -7.373  1.00  0.00     0.029 A 
ATOM     46  C   UNL     1     -12.943   3.045  -7.426  1.00  0.00     0.049 A 
ATOM     47  H   UNL     1     -13.500   4.891  -8.214  1.00  0.00     0.167 HD
ATOM     48  C   UNL     1     -14.488   8.823  -9.942  1.00  0.00     0.034 A 
ATOM     49  C   UNL     1     -14.062   2.461  -6.956  1.00  0.00     0.034 A 
ATOM     50  C   UNL     1     -15.739   8.260  -9.507  1.00  0.00     0.049 A 
ATOM     51  C   UNL     1     -15.371   3.192  -7.086  1.00  0.00     0.074 A 
ATOM     52  C   UNL     1     -17.011   8.787  -9.636  1.00  0.00     0.029 A 
ATOM     53  N   UNL     1     -15.876   7.039  -8.857  1.00  0.00    -0.354 N 
ATOM     54  N   UNL     1     -15.606   4.370  -7.616  1.00  0.00    -0.248 NA
ATOM     55  C   UNL     1     -16.563   2.520  -6.553  1.00  0.00     0.031 C 
ATOM     56  C   UNL     1     -17.908   7.917  -9.011  1.00  0.00     0.029 A 
ATOM     57  C   UNL     1     -17.207   6.812  -8.553  1.00  0.00     0.049 A 
ATOM     58  H   UNL     1     -15.135   6.426  -8.645  1.00  0.00     0.167 HD
ATOM     59  C   UNL     1     -16.977   4.573  -7.497  1.00  0.00     0.074 A 
ATOM     60  C   UNL     1     -17.517   3.392  -6.852  1.00  0.00     0.031 C 
ATOM     61  C   UNL     1     -17.722   5.637  -7.891  1.00  0.00     0.034 A 
BRANCH  48  62
ATOM     62  C   UNL     1     -14.485  10.186 -10.584  1.00  0.00     0.023 A 
ATOM     63  C   UNL     1     -14.112  10.363 -11.928  1.00  0.00     0.031 A 
ATOM     64  C   UNL     1     -14.850  11.324  -9.845  1.00  0.00     0.131 A 
ATOM     65  C   UNL     1     -14.055  11.653 -12.475  1.00  0.00     0.055 A 
ATOM     66  C   UNL     1     -14.862  12.598 -10.416  1.00  0.00     0.041 A 
ATOM     67  F   UNL     1     -15.194  11.218  -8.552  1.00  0.00    -0.206 F 
ATOM     68  C   UNL     1     -14.452  12.769 -11.736  1.00  0.00     0.022 A 
BRANCH  65  69
ATOM     69  S   UNL     1     -13.353  11.861 -14.133  1.00  0.00     0.124 S 
ATOM     70  O   UNL     1     -11.979  11.408 -13.929  1.00  0.00    -0.237 OA
ATOM     71  O   UNL     1     -14.197  10.994 -14.947  1.00  0.00    -0.237 OA
ATOM     72  O   UNL     1     -13.499  13.292 -14.390  1.00  0.00    -0.744 OA
ENDBRANCH  65  69
ENDBRANCH  48  62
BRANCH  49  73
ATOM     73  C   UNL     1     -13.987   1.110  -6.336  1.00  0.00     0.023 A 
ATOM     74  C   UNL     1     -14.526  -0.009  -6.988  1.00  0.00     0.031 A 
ATOM     75  C   UNL     1     -13.346   0.914  -5.100  1.00  0.00     0.131 A 
ATOM     76  C   UNL     1     -14.426  -1.277  -6.394  1.00  0.00     0.055 A 
ATOM     77  C   UNL     1     -13.218  -0.354  -4.531  1.00  0.00     0.041 A 
ATOM     78  F   UNL     1     -12.802   1.952  -4.446  1.00  0.00    -0.206 F 
ATOM     79  C   UNL     1     -13.764  -1.459  -5.177  1.00  0.00     0.022 A 
BRANCH  76  80
ATOM     80  S   UNL     1     -15.186  -2.694  -7.234  1.00  0.00     0.124 S 
ATOM     81  O   UNL     1     -16.601  -2.347  -7.179  1.00  0.00    -0.237 OA
ATOM     82  O   UNL     1     -14.561  -2.640  -8.551  1.00  0.00    -0.237 OA
ATOM     83  O   UNL     1     -14.789  -3.832  -6.406  1.00  0.00    -0.744 OA
ENDBRANCH  76  80
ENDBRANCH  49  73
BRANCH  61  84
ATOM     84  C   UNL     1     -19.206   5.570  -7.649  1.00  0.00     0.023 A 
ATOM     85  C   UNL     1     -19.740   5.673  -6.354  1.00  0.00     0.031 A 
ATOM     86  C   UNL     1     -20.096   5.461  -8.732  1.00  0.00     0.131 A 
ATOM     87  C   UNL     1     -21.130   5.638  -6.171  1.00  0.00     0.055 A 
ATOM     88  C   UNL     1     -21.478   5.477  -8.548  1.00  0.00     0.041 A 
ATOM     89  F   UNL     1     -19.633   5.364  -9.989  1.00  0.00    -0.206 F 
ATOM     90  C   UNL     1     -22.002   5.561  -7.261  1.00  0.00     0.022 A 
BRANCH  87  91
ATOM     91  S   UNL     1     -21.786   5.661  -4.482  1.00  0.00     0.124 S 
ATOM     92  O   UNL     1     -21.267   4.409  -3.940  1.00  0.00    -0.237 OA
ATOM     93  O   UNL     1     -21.205   6.882  -3.933  1.00  0.00    -0.237 OA
ATOM     94  O   UNL     1     -23.234   5.699  -4.677  1.00  0.00    -0.744 OA
ENDBRANCH  87  91
ENDBRANCH  61  84
ENDBRANCH  35  36
ENDBRANCH  27  30
ENDBRANCH   1  26
TORSDOF 14
