REMARK SMILES COC(=O)c1cccnc1N[C@](C)(C(=O)NCCCNC(=O)c1ccc(-c2c3nc(c(-c4cc(S(=O)(=O)[O-])ccc4F)c4ccc([nH]4)c(-c4cc(S(=O)(=O)[O-])ccc4F)c4nc(c(-c5cc(S(=O)(=O)[O-])ccc5F)c5ccc2[nH]5)C=C4)C=C3)cc1)C(F)(F)F
REMARK SMILES IDX 17 1 16 2 14 3 15 4 12 6 13 7 11 8 10 10 5 11 6 12 7 13 9 14
REMARK SMILES IDX 8 15 3 16 4 17 2 18 1 19 86 20 87 21 88 22 89 23 18 24 19 25
REMARK SMILES IDX 20 26 21 27 22 29 23 30 24 31 85 32 25 33 84 34 26 35 27 36
REMARK SMILES IDX 28 37 78 38 29 39 83 40 77 41 79 42 30 43 82 44 76 45 75 46
REMARK SMILES IDX 31 48 63 49 43 50 62 51 44 52 47 53 61 54 80 55 45 56 46 57
REMARK SMILES IDX 60 59 81 60 48 61 32 62 33 63 41 64 34 65 40 66 42 67 39 68
REMARK SMILES IDX 35 69 36 70 37 71 38 72 64 73 65 74 73 75 66 76 72 77 74 78
REMARK SMILES IDX 71 79 67 80 68 81 69 82 70 83 49 84 50 85 58 86 51 87 57 88
REMARK SMILES IDX 59 89 56 90 52 91 53 92 54 93 55 94
REMARK H PARENT 16 5 11 9 20 28 79 47 47 58
REMARK Flexibility Score: inf
ROOT
ATOM      1  C   UNL     1       5.436  -2.920   2.269  1.00  0.00     0.117 C 
ENDROOT
BRANCH   1   2
ATOM      2  N   UNL     1       5.298  -2.793   3.712  1.00  0.00    -0.354 N 
ATOM      3  C   UNL     1       4.444  -3.416   4.589  1.00  0.00     0.254 C 
ATOM      4  O   UNL     1       4.541  -3.072   5.771  1.00  0.00    -0.272 OA
ATOM      5  H   UNL     1       5.920  -2.155   4.128  1.00  0.00     0.163 HD
BRANCH   3   6
ATOM      6  C   UNL     1       3.381  -4.419   4.092  1.00  0.00     0.211 C 
ATOM      7  C   UNL     1       2.304  -3.627   3.314  1.00  0.00     0.055 C 
BRANCH   6   8
ATOM      8  N   UNL     1       3.942  -5.449   3.167  1.00  0.00    -0.348 N 
ATOM      9  H   UNL     1       3.436  -5.658   2.348  1.00  0.00     0.163 HD
BRANCH   8  10
ATOM     10  C   UNL     1       5.125  -6.127   3.386  1.00  0.00     0.141 A 
ATOM     11  C   UNL     1       5.623  -7.068   2.475  1.00  0.00     0.102 A 
ATOM     12  C   UNL     1       6.871  -7.664   2.714  1.00  0.00     0.021 A 
ATOM     13  C   UNL     1       7.587  -7.318   3.852  1.00  0.00     0.021 A 
ATOM     14  N   UNL     1       5.817  -5.824   4.503  1.00  0.00    -0.239 NA
ATOM     15  C   UNL     1       7.019  -6.404   4.715  1.00  0.00     0.113 A 
BRANCH  11  16
ATOM     16  C   UNL     1       4.847  -7.400   1.260  1.00  0.00     0.341 C 
ATOM     17  O   UNL     1       4.037  -6.643   0.741  1.00  0.00    -0.246 OA
BRANCH  16  18
ATOM     18  O   UNL     1       5.114  -8.669   0.863  1.00  0.00    -0.465 OA
ATOM     19  C   UNL     1       4.329  -9.106  -0.247  1.00  0.00     0.282 C 
ENDBRANCH  16  18
ENDBRANCH  11  16
ENDBRANCH   8  10
ENDBRANCH   6   8
BRANCH   6  20
ATOM     20  C   UNL     1       2.688  -5.051   5.323  1.00  0.00     0.420 C 
ATOM     21  F   UNL     1       2.059  -4.134   6.100  1.00  0.00    -0.168 F 
ATOM     22  F   UNL     1       1.704  -5.903   4.903  1.00  0.00    -0.168 F 
ATOM     23  F   UNL     1       3.496  -5.780   6.121  1.00  0.00    -0.168 F 
ENDBRANCH   6  20
ENDBRANCH   3   6
ENDBRANCH   1   2
BRANCH   1  24
ATOM     24  C   UNL     1       5.257  -1.579   1.573  1.00  0.00     0.042 C 
BRANCH  24  25
ATOM     25  C   UNL     1       6.355  -0.574   1.893  1.00  0.00     0.118 C 
BRANCH  25  26
ATOM     26  N   UNL     1       7.652  -0.986   1.376  1.00  0.00    -0.352 N 
ATOM     27  C   UNL     1       8.469  -0.368   0.459  1.00  0.00     0.251 C 
ATOM     28  H   UNL     1       7.996  -1.835   1.737  1.00  0.00     0.163 HD
ATOM     29  O   UNL     1       9.428  -0.981  -0.002  1.00  0.00    -0.269 OA
BRANCH  27  30
ATOM     30  C   UNL     1       8.174   1.010   0.010  1.00  0.00     0.039 A 
ATOM     31  C   UNL     1       8.286   1.315  -1.348  1.00  0.00     0.014 A 
ATOM     32  C   UNL     1       7.778   1.996   0.918  1.00  0.00     0.014 A 
ATOM     33  C   UNL     1       7.919   2.582  -1.805  1.00  0.00     0.010 A 
ATOM     34  C   UNL     1       7.331   3.230   0.451  1.00  0.00     0.010 A 
ATOM     35  C   UNL     1       7.387   3.533  -0.917  1.00  0.00    -0.014 A 
BRANCH  35  36
ATOM     36  C   UNL     1       6.847   4.827  -1.411  1.00  0.00     0.031 A 
ATOM     37  C   UNL     1       7.457   6.128  -0.968  1.00  0.00     0.074 A 
ATOM     38  C   UNL     1       5.757   4.826  -2.204  1.00  0.00     0.049 A 
ATOM     39  N   UNL     1       7.079   7.352  -1.236  1.00  0.00    -0.248 NA
ATOM     40  C   UNL     1       8.630   6.041  -0.086  1.00  0.00     0.031 C 
ATOM     41  C   UNL     1       5.051   3.627  -2.664  1.00  0.00     0.029 A 
ATOM     42  N   UNL     1       5.044   5.860  -2.757  1.00  0.00    -0.354 N 
ATOM     43  C   UNL     1       7.958   8.181  -0.548  1.00  0.00     0.074 A 
ATOM     44  C   UNL     1       8.852   7.316   0.194  1.00  0.00     0.031 C 
ATOM     45  C   UNL     1       4.024   3.993  -3.445  1.00  0.00     0.029 A 
ATOM     46  C   UNL     1       3.958   5.450  -3.496  1.00  0.00     0.049 A 
ATOM     47  H   UNL     1       5.286   6.807  -2.635  1.00  0.00     0.167 HD
ATOM     48  C   UNL     1       8.023   9.536  -0.551  1.00  0.00     0.034 A 
ATOM     49  C   UNL     1       3.001   6.162  -4.124  1.00  0.00     0.034 A 
ATOM     50  C   UNL     1       7.119  10.379  -1.298  1.00  0.00     0.049 A 
ATOM     51  C   UNL     1       3.067   7.666  -4.078  1.00  0.00     0.074 A 
ATOM     52  C   UNL     1       7.139  11.757  -1.430  1.00  0.00     0.029 A 
ATOM     53  N   UNL     1       6.020   9.930  -2.021  1.00  0.00    -0.354 N 
ATOM     54  N   UNL     1       3.949   8.435  -3.482  1.00  0.00    -0.248 NA
ATOM     55  C   UNL     1       2.014   8.397  -4.792  1.00  0.00     0.031 C 
ATOM     56  C   UNL     1       6.006  12.146  -2.152  1.00  0.00     0.029 A 
ATOM     57  C   UNL     1       5.326  11.007  -2.554  1.00  0.00     0.049 A 
ATOM     58  H   UNL     1       5.771   8.985  -2.137  1.00  0.00     0.167 HD
ATOM     59  C   UNL     1       3.565   9.743  -3.765  1.00  0.00     0.074 A 
ATOM     60  C   UNL     1       2.388   9.655  -4.606  1.00  0.00     0.031 C 
ATOM     61  C   UNL     1       4.135  10.910  -3.367  1.00  0.00     0.034 A 
BRANCH  48  62
ATOM     62  C   UNL     1       9.081  10.187   0.311  1.00  0.00     0.023 A 
ATOM     63  C   UNL     1      10.453   9.963   0.100  1.00  0.00     0.031 A 
ATOM     64  C   UNL     1       8.711  11.028   1.377  1.00  0.00     0.131 A 
ATOM     65  C   UNL     1      11.397  10.504   0.987  1.00  0.00     0.055 A 
ATOM     66  C   UNL     1       9.661  11.635   2.201  1.00  0.00     0.041 A 
ATOM     67  F   UNL     1       7.417  11.264   1.644  1.00  0.00    -0.206 F 
ATOM     68  C   UNL     1      11.012  11.361   2.019  1.00  0.00     0.022 A 
BRANCH  65  69
ATOM     69  S   UNL     1      13.118   9.941   0.868  1.00  0.00     0.124 S 
ATOM     70  O   UNL     1      12.967   8.495   1.013  1.00  0.00    -0.237 OA
ATOM     71  O   UNL     1      13.513  10.412  -0.455  1.00  0.00    -0.237 OA
ATOM     72  O   UNL     1      13.775  10.607   1.991  1.00  0.00    -0.744 OA
ENDBRANCH  65  69
ENDBRANCH  48  62
BRANCH  49  73
ATOM     73  C   UNL     1       1.882   5.463  -4.820  1.00  0.00     0.023 A 
ATOM     74  C   UNL     1       1.707   5.570  -6.208  1.00  0.00     0.031 A 
ATOM     75  C   UNL     1       0.952   4.693  -4.096  1.00  0.00     0.131 A 
ATOM     76  C   UNL     1       0.609   4.949  -6.825  1.00  0.00     0.055 A 
ATOM     77  C   UNL     1      -0.104   4.030  -4.722  1.00  0.00     0.041 A 
ATOM     78  F   UNL     1       1.073   4.556  -2.766  1.00  0.00    -0.206 F 
ATOM     79  C   UNL     1      -0.287   4.166  -6.093  1.00  0.00     0.022 A 
BRANCH  76  80
ATOM     80  S   UNL     1       0.322   5.243  -8.591  1.00  0.00     0.124 S 
ATOM     81  O   UNL     1       0.183   6.694  -8.632  1.00  0.00    -0.237 OA
ATOM     82  O   UNL     1       1.534   4.697  -9.191  1.00  0.00    -0.237 OA
ATOM     83  O   UNL     1      -0.900   4.491  -8.867  1.00  0.00    -0.744 OA
ENDBRANCH  76  80
ENDBRANCH  49  73
BRANCH  61  84
ATOM     84  C   UNL     1       3.495  12.187  -3.859  1.00  0.00     0.023 A 
ATOM     85  C   UNL     1       2.197  12.561  -3.470  1.00  0.00     0.031 A 
ATOM     86  C   UNL     1       4.189  13.037  -4.740  1.00  0.00     0.131 A 
ATOM     87  C   UNL     1       1.611  13.718  -4.005  1.00  0.00     0.055 A 
ATOM     88  C   UNL     1       3.628  14.223  -5.214  1.00  0.00     0.041 A 
ATOM     89  F   UNL     1       5.429  12.728  -5.153  1.00  0.00    -0.206 F 
ATOM     90  C   UNL     1       2.326  14.563  -4.858  1.00  0.00     0.022 A 
BRANCH  87  91
ATOM     91  S   UNL     1      -0.138  14.050  -3.656  1.00  0.00     0.124 S 
ATOM     92  O   UNL     1      -0.783  12.851  -4.181  1.00  0.00    -0.237 OA
ATOM     93  O   UNL     1      -0.145  14.194  -2.204  1.00  0.00    -0.237 OA
ATOM     94  O   UNL     1      -0.409  15.278  -4.402  1.00  0.00    -0.744 OA
ENDBRANCH  87  91
ENDBRANCH  61  84
ENDBRANCH  35  36
ENDBRANCH  27  30
ENDBRANCH  25  26
ENDBRANCH  24  25
ENDBRANCH   1  24
TORSDOF 18
