REMARK SMILES C[C@H](Nc1ccc(F)cc1Br)[C@@H](C)C(=O)NCCCNC(=O)c1ccc(-c2c3nc(c(-c4cc(S(=O)(=O)[O-])ccc4F)c4ccc([nH]4)c(-c4cc(S(=O)(=O)[O-])ccc4F)c4nc(c(-c5cc(S(=O)(=O)[O-])ccc5F)c5ccc2[nH]5)C=C4)C=C3)cc1
REMARK SMILES IDX 18 1 17 2 16 3 14 4 15 5 12 7 13 8 2 9 1 10 3 11 4 13 5 14
REMARK SMILES IDX 10 15 6 16 9 17 11 18 7 19 8 20 19 21 20 22 21 23 22 25
REMARK SMILES IDX 23 26 24 27 85 28 25 29 84 30 26 31 27 32 28 33 78 34 29 35
REMARK SMILES IDX 83 36 77 37 79 38 30 39 82 40 76 41 75 42 31 44 63 45 43 46
REMARK SMILES IDX 62 47 44 48 47 49 61 50 80 51 45 52 46 53 60 55 81 56 48 57
REMARK SMILES IDX 32 58 33 59 41 60 34 61 40 62 42 63 39 64 35 65 36 66 37 67
REMARK SMILES IDX 38 68 64 69 65 70 73 71 66 72 72 73 74 74 71 75 67 76 68 77
REMARK SMILES IDX 69 78 70 79 49 80 50 81 58 82 51 83 57 84 59 85 56 86 52 87
REMARK SMILES IDX 53 88 54 89 55 90
REMARK H PARENT 16 6 3 12 20 24 79 43 47 54
REMARK Flexibility Score: inf
ROOT
ATOM      1  C   UNL     1       0.697  -4.243   2.235  1.00  0.00     0.042 C 
ENDROOT
BRANCH   1   2
ATOM      2  C   UNL     1      -0.570  -3.790   1.519  1.00  0.00     0.117 C 
BRANCH   2   3
ATOM      3  N   UNL     1      -1.394  -2.920   2.342  1.00  0.00    -0.356 N 
ATOM      4  C   UNL     1      -1.678  -1.594   2.254  1.00  0.00     0.224 C 
ATOM      5  O   UNL     1      -2.446  -1.124   3.099  1.00  0.00    -0.275 OA
ATOM      6  H   UNL     1      -1.826  -3.375   3.100  1.00  0.00     0.163 HD
BRANCH   4   7
ATOM      7  C   UNL     1      -1.095  -0.695   1.169  1.00  0.00     0.097 C 
ATOM      8  C   UNL     1      -1.663  -1.076  -0.201  1.00  0.00     0.020 C 
BRANCH   7   9
ATOM      9  C   UNL     1       0.444  -0.590   1.273  1.00  0.00     0.088 C 
ATOM     10  C   UNL     1       0.839   0.052   2.616  1.00  0.00     0.031 C 
BRANCH   9  11
ATOM     11  N   UNL     1       0.977   0.221   0.172  1.00  0.00    -0.381 N 
ATOM     12  H   UNL     1       0.354   0.564  -0.508  1.00  0.00     0.160 HD
BRANCH  11  13
ATOM     13  C   UNL     1       2.333   0.524   0.052  1.00  0.00     0.049 A 
ATOM     14  C   UNL     1       3.336  -0.388   0.415  1.00  0.00     0.030 A 
ATOM     15  C   UNL     1       2.739   1.807  -0.377  1.00  0.00     0.044 A 
ATOM     16  C   UNL     1       4.684  -0.019   0.405  1.00  0.00     0.041 A 
ATOM     17  C   UNL     1       4.083   2.182  -0.385  1.00  0.00     0.057 A 
ATOM     18  Br  UNL     1       1.454   3.108  -0.908  1.00  0.00    -0.048 Br
ATOM     19  C   UNL     1       5.042   1.265   0.018  1.00  0.00     0.124 A 
ATOM     20  F   UNL     1       6.331   1.627   0.038  1.00  0.00    -0.207 F 
ENDBRANCH  11  13
ENDBRANCH   9  11
ENDBRANCH   7   9
ENDBRANCH   4   7
ENDBRANCH   2   3
ENDBRANCH   1   2
BRANCH   1  21
ATOM     21  C   UNL     1       0.443  -5.141   3.439  1.00  0.00     0.118 C 
BRANCH  21  22
ATOM     22  N   UNL     1      -0.214  -6.388   3.073  1.00  0.00    -0.352 N 
ATOM     23  C   UNL     1       0.240  -7.681   3.137  1.00  0.00     0.251 C 
ATOM     24  H   UNL     1      -1.129  -6.287   2.725  1.00  0.00     0.163 HD
ATOM     25  O   UNL     1      -0.396  -8.564   2.558  1.00  0.00    -0.269 OA
BRANCH  23  26
ATOM     26  C   UNL     1       1.481  -8.015   3.867  1.00  0.00     0.039 A 
ATOM     27  C   UNL     1       2.345  -8.976   3.333  1.00  0.00     0.014 A 
ATOM     28  C   UNL     1       1.788  -7.409   5.088  1.00  0.00     0.014 A 
ATOM     29  C   UNL     1       3.542  -9.275   3.987  1.00  0.00     0.010 A 
ATOM     30  C   UNL     1       3.022  -7.637   5.688  1.00  0.00     0.010 A 
ATOM     31  C   UNL     1       3.911  -8.579   5.150  1.00  0.00    -0.014 A 
BRANCH  31  32
ATOM     32  C   UNL     1       5.215  -8.829   5.819  1.00  0.00     0.031 A 
ATOM     33  C   UNL     1       5.254  -9.345   7.232  1.00  0.00     0.074 A 
ATOM     34  C   UNL     1       6.361  -8.526   5.178  1.00  0.00     0.049 A 
ATOM     35  N   UNL     1       6.285  -9.555   8.010  1.00  0.00    -0.248 NA
ATOM     36  C   UNL     1       3.958  -9.630   7.865  1.00  0.00     0.031 C 
ATOM     37  C   UNL     1       6.449  -7.974   3.824  1.00  0.00     0.029 A 
ATOM     38  N   UNL     1       7.669  -8.628   5.579  1.00  0.00    -0.354 N 
ATOM     39  C   UNL     1       5.762  -9.980   9.228  1.00  0.00     0.074 A 
ATOM     40  C   UNL     1       4.321  -9.928   9.102  1.00  0.00     0.031 C 
ATOM     41  C   UNL     1       7.741  -7.814   3.498  1.00  0.00     0.029 A 
ATOM     42  C   UNL     1       8.572  -8.200   4.633  1.00  0.00     0.049 A 
ATOM     43  H   UNL     1       7.936  -8.976   6.460  1.00  0.00     0.167 HD
ATOM     44  C   UNL     1       6.423 -10.397  10.337  1.00  0.00     0.034 A 
ATOM     45  C   UNL     1       9.916  -8.113   4.679  1.00  0.00     0.034 A 
ATOM     46  C   UNL     1       7.862 -10.447  10.438  1.00  0.00     0.049 A 
ATOM     47  C   UNL     1      10.631  -8.557   5.929  1.00  0.00     0.074 A 
ATOM     48  C   UNL     1       8.637 -10.912  11.486  1.00  0.00     0.029 A 
ATOM     49  N   UNL     1       8.745 -10.004   9.460  1.00  0.00    -0.354 N 
ATOM     50  N   UNL     1      10.125  -9.016   7.051  1.00  0.00    -0.248 NA
ATOM     51  C   UNL     1      12.097  -8.485   5.913  1.00  0.00     0.031 C 
ATOM     52  C   UNL     1       9.981 -10.674  11.177  1.00  0.00     0.029 A 
ATOM     53  C   UNL     1      10.054 -10.146   9.898  1.00  0.00     0.049 A 
ATOM     54  H   UNL     1       8.480  -9.641   8.584  1.00  0.00     0.167 HD
ATOM     55  C   UNL     1      11.215  -9.312   7.866  1.00  0.00     0.074 A 
ATOM     56  C   UNL     1      12.402  -8.995   7.097  1.00  0.00     0.031 C 
ATOM     57  C   UNL     1      11.232  -9.807   9.130  1.00  0.00     0.034 A 
BRANCH  44  58
ATOM     58  C   UNL     1       5.588 -10.795  11.534  1.00  0.00     0.023 A 
ATOM     59  C   UNL     1       4.655 -11.847  11.471  1.00  0.00     0.031 A 
ATOM     60  C   UNL     1       5.691 -10.085  12.744  1.00  0.00     0.131 A 
ATOM     61  C   UNL     1       3.800 -12.094  12.556  1.00  0.00     0.055 A 
ATOM     62  C   UNL     1       4.903 -10.400  13.854  1.00  0.00     0.041 A 
ATOM     63  F   UNL     1       6.546  -9.058  12.864  1.00  0.00    -0.206 F 
ATOM     64  C   UNL     1       3.936 -11.396  13.757  1.00  0.00     0.022 A 
BRANCH  61  65
ATOM     65  S   UNL     1       2.394 -13.214  12.309  1.00  0.00     0.124 S 
ATOM     66  O   UNL     1       1.712 -12.587  11.179  1.00  0.00    -0.237 OA
ATOM     67  O   UNL     1       3.050 -14.487  12.033  1.00  0.00    -0.237 OA
ATOM     68  O   UNL     1       1.673 -13.144  13.579  1.00  0.00    -0.744 OA
ENDBRANCH  61  65
ENDBRANCH  44  58
BRANCH  45  69
ATOM     69  C   UNL     1      10.671  -7.573   3.513  1.00  0.00     0.023 A 
ATOM     70  C   UNL     1      11.551  -8.383   2.779  1.00  0.00     0.031 A 
ATOM     71  C   UNL     1      10.534  -6.228   3.123  1.00  0.00     0.131 A 
ATOM     72  C   UNL     1      12.288  -7.834   1.717  1.00  0.00     0.055 A 
ATOM     73  C   UNL     1      11.229  -5.699   2.034  1.00  0.00     0.041 A 
ATOM     74  F   UNL     1       9.700  -5.411   3.787  1.00  0.00    -0.206 F 
ATOM     75  C   UNL     1      12.121  -6.502   1.331  1.00  0.00     0.022 A 
BRANCH  72  76
ATOM     76  S   UNL     1      13.523  -8.870   0.887  1.00  0.00     0.124 S 
ATOM     77  O   UNL     1      14.412  -9.215   1.991  1.00  0.00    -0.237 OA
ATOM     78  O   UNL     1      12.703  -9.956   0.360  1.00  0.00    -0.237 OA
ATOM     79  O   UNL     1      14.094  -7.979  -0.120  1.00  0.00    -0.744 OA
ENDBRANCH  72  76
ENDBRANCH  45  69
BRANCH  57  80
ATOM     80  C   UNL     1      12.586 -10.073   9.745  1.00  0.00     0.023 A 
ATOM     81  C   UNL     1      13.488  -9.034  10.034  1.00  0.00     0.031 A 
ATOM     82  C   UNL     1      12.983 -11.391  10.037  1.00  0.00     0.131 A 
ATOM     83  C   UNL     1      14.762  -9.334  10.539  1.00  0.00     0.055 A 
ATOM     84  C   UNL     1      14.225 -11.678  10.603  1.00  0.00     0.041 A 
ATOM     85  F   UNL     1      12.165 -12.424   9.778  1.00  0.00    -0.206 F 
ATOM     86  C   UNL     1      15.129 -10.647  10.845  1.00  0.00     0.022 A 
BRANCH  83  87
ATOM     87  S   UNL     1      15.976  -7.995  10.695  1.00  0.00     0.124 S 
ATOM     88  O   UNL     1      16.050  -7.494   9.326  1.00  0.00    -0.237 OA
ATOM     89  O   UNL     1      15.341  -7.109  11.665  1.00  0.00    -0.237 OA
ATOM     90  O   UNL     1      17.179  -8.675  11.172  1.00  0.00    -0.744 OA
ENDBRANCH  83  87
ENDBRANCH  57  80
ENDBRANCH  31  32
ENDBRANCH  23  26
ENDBRANCH  21  22
ENDBRANCH   1  21
TORSDOF 16
