REMARK SMILES CC[C@@H](Oc1ccc(/C=C2/SC(=S)N(N3CCOCC3)C2=O)cc1OC)C(=O)NCCCNC(=O)c1ccc(-c2c3nc(c(-c4cc(S(=O)(=O)[O-])ccc4F)c4ccc([nH]4)c(-c4cc(S(=O)(=O)[O-])ccc4F)c4nc(c(-c5cc(S(=O)(=O)[O-])ccc5F)c5ccc2[nH]5)C=C4)C=C3)cc1
REMARK SMILES IDX 30 1 29 2 27 3 28 4 3 6 2 7 1 8 4 9 5 10 6 11 24 12 7 13
REMARK SMILES IDX 23 14 8 15 25 16 26 17 9 18 10 19 11 20 21 21 12 22 14 23
REMARK SMILES IDX 22 24 13 25 15 26 16 27 20 28 17 29 19 30 18 31 31 32 32 33
REMARK SMILES IDX 33 34 34 35 35 37 36 38 37 39 98 40 38 41 97 42 39 43 40 44
REMARK SMILES IDX 41 45 91 46 42 47 96 48 90 49 92 50 43 51 95 52 89 53 88 54
REMARK SMILES IDX 44 56 76 57 56 58 75 59 57 60 60 61 74 62 93 63 58 64 59 65
REMARK SMILES IDX 73 67 94 68 61 69 45 70 46 71 54 72 47 73 53 74 55 75 52 76
REMARK SMILES IDX 48 77 49 78 50 79 51 80 77 81 78 82 86 83 79 84 85 85 87 86
REMARK SMILES IDX 84 87 80 88 81 89 82 90 83 91 62 92 63 93 71 94 64 95 70 96
REMARK SMILES IDX 72 97 69 98 65 99 66 100 67 101 68 102
REMARK H PARENT 29 5 33 36 92 55 60 66
REMARK Flexibility Score: inf
ROOT
ATOM      1  C   UNL     1      -1.750  -1.339  -3.215  1.00  0.00     0.118 C 
ENDROOT
BRANCH   1   2
ATOM      2  N   UNL     1      -0.547  -1.139  -4.016  1.00  0.00    -0.353 N 
ATOM      3  C   UNL     1       0.782  -1.167  -3.691  1.00  0.00     0.261 C 
ATOM      4  O   UNL     1       1.582  -1.200  -4.636  1.00  0.00    -0.271 OA
ATOM      5  H   UNL     1      -0.725  -0.949  -4.965  1.00  0.00     0.163 HD
BRANCH   3   6
ATOM      6  C   UNL     1       1.310  -1.040  -2.241  1.00  0.00     0.261 C 
BRANCH   6   7
ATOM      7  C   UNL     1       1.589   0.458  -2.010  1.00  0.00     0.052 C 
ATOM      8  C   UNL     1       2.510   0.772  -0.836  1.00  0.00     0.008 C 
ENDBRANCH   6   7
BRANCH   6   9
ATOM      9  O   UNL     1       0.338  -1.534  -1.334  1.00  0.00    -0.477 OA
BRANCH   9  10
ATOM     10  C   UNL     1       0.766  -2.073  -0.164  1.00  0.00     0.162 A 
ATOM     11  C   UNL     1       1.243  -3.386  -0.121  1.00  0.00     0.051 A 
ATOM     12  C   UNL     1       0.543  -1.371   1.021  1.00  0.00     0.161 A 
ATOM     13  C   UNL     1       1.491  -3.998   1.115  1.00  0.00     0.012 A 
ATOM     14  C   UNL     1       0.865  -1.952   2.238  1.00  0.00     0.058 A 
ATOM     15  C   UNL     1       1.269  -3.291   2.301  1.00  0.00    -0.020 A 
BRANCH  12  16
ATOM     16  O   UNL     1       0.068  -0.088   1.092  1.00  0.00    -0.493 OA
ATOM     17  C   UNL     1      -1.207   0.064   0.473  1.00  0.00     0.278 C 
ENDBRANCH  12  16
BRANCH  15  18
ATOM     18  C   UNL     1       1.444  -3.907   3.620  1.00  0.00     0.029 C 
ATOM     19  C   UNL     1       0.504  -3.885   4.579  1.00  0.00     0.082 C 
ATOM     20  S   UNL     1       0.843  -4.299   6.218  1.00  0.00    -0.053 SA
ATOM     21  C   UNL     1      -0.911  -3.414   4.463  1.00  0.00     0.280 C 
ATOM     22  C   UNL     1      -0.638  -3.538   6.812  1.00  0.00     0.163 C 
ATOM     23  N   UNL     1      -1.421  -3.159   5.732  1.00  0.00    -0.220 N 
ATOM     24  O   UNL     1      -1.528  -3.348   3.400  1.00  0.00    -0.267 OA
ATOM     25  S   UNL     1      -0.920  -3.377   8.449  1.00  0.00    -0.050 S 
BRANCH  23  26
ATOM     26  N   UNL     1      -2.727  -2.671   5.834  1.00  0.00    -0.208 NA
ATOM     27  C   UNL     1      -3.020  -1.316   6.266  1.00  0.00     0.137 C 
ATOM     28  C   UNL     1      -3.844  -3.597   5.802  1.00  0.00     0.137 C 
ATOM     29  C   UNL     1      -3.925  -1.299   7.513  1.00  0.00     0.177 C 
ATOM     30  C   UNL     1      -4.626  -3.527   7.115  1.00  0.00     0.177 C 
ATOM     31  O   UNL     1      -5.049  -2.184   7.387  1.00  0.00    -0.379 OA
ENDBRANCH  23  26
ENDBRANCH  15  18
ENDBRANCH   9  10
ENDBRANCH   6   9
ENDBRANCH   3   6
ENDBRANCH   1   2
BRANCH   1  32
ATOM     32  C   UNL     1      -2.544  -0.060  -2.966  1.00  0.00     0.042 C 
BRANCH  32  33
ATOM     33  C   UNL     1      -3.409   0.377  -4.145  1.00  0.00     0.118 C 
BRANCH  33  34
ATOM     34  N   UNL     1      -4.439  -0.601  -4.475  1.00  0.00    -0.352 N 
ATOM     35  C   UNL     1      -5.803  -0.480  -4.562  1.00  0.00     0.251 C 
ATOM     36  H   UNL     1      -4.097  -1.504  -4.668  1.00  0.00     0.163 HD
ATOM     37  O   UNL     1      -6.478  -1.502  -4.672  1.00  0.00    -0.269 OA
BRANCH  35  38
ATOM     38  C   UNL     1      -6.466   0.842  -4.510  1.00  0.00     0.039 A 
ATOM     39  C   UNL     1      -7.696   0.950  -3.852  1.00  0.00     0.014 A 
ATOM     40  C   UNL     1      -5.919   1.962  -5.141  1.00  0.00     0.014 A 
ATOM     41  C   UNL     1      -8.342   2.187  -3.774  1.00  0.00     0.010 A 
ATOM     42  C   UNL     1      -6.525   3.209  -4.998  1.00  0.00     0.010 A 
ATOM     43  C   UNL     1      -7.744   3.335  -4.316  1.00  0.00    -0.014 A 
BRANCH  43  44
ATOM     44  C   UNL     1      -8.379   4.673  -4.181  1.00  0.00     0.031 A 
ATOM     45  C   UNL     1      -8.827   5.426  -5.405  1.00  0.00     0.074 A 
ATOM     46  C   UNL     1      -8.492   5.236  -2.962  1.00  0.00     0.049 A 
ATOM     47  N   UNL     1      -9.316   6.636  -5.501  1.00  0.00    -0.248 NA
ATOM     48  C   UNL     1      -8.677   4.735  -6.695  1.00  0.00     0.031 C 
ATOM     49  C   UNL     1      -8.065   4.618  -1.704  1.00  0.00     0.029 A 
ATOM     50  N   UNL     1      -8.990   6.456  -2.577  1.00  0.00    -0.354 N 
ATOM     51  C   UNL     1      -9.520   6.857  -6.859  1.00  0.00     0.074 A 
ATOM     52  C   UNL     1      -9.044   5.677  -7.550  1.00  0.00     0.031 C 
ATOM     53  C   UNL     1      -8.338   5.452  -0.689  1.00  0.00     0.029 A 
ATOM     54  C   UNL     1      -8.912   6.684  -1.222  1.00  0.00     0.049 A 
ATOM     55  H   UNL     1      -9.368   7.107  -3.211  1.00  0.00     0.167 HD
ATOM     56  C   UNL     1     -10.071   7.936  -7.471  1.00  0.00     0.034 A 
ATOM     57  C   UNL     1      -9.247   7.767  -0.493  1.00  0.00     0.034 A 
ATOM     58  C   UNL     1     -10.550   9.100  -6.764  1.00  0.00     0.049 A 
ATOM     59  C   UNL     1      -9.830   8.966  -1.198  1.00  0.00     0.074 A 
ATOM     60  C   UNL     1     -11.171  10.226  -7.278  1.00  0.00     0.029 A 
ATOM     61  N   UNL     1     -10.453   9.295  -5.392  1.00  0.00    -0.354 N 
ATOM     62  N   UNL     1     -10.057   9.142  -2.479  1.00  0.00    -0.248 NA
ATOM     63  C   UNL     1     -10.212  10.107  -0.357  1.00  0.00     0.031 C 
ATOM     64  C   UNL     1     -11.385  11.127  -6.230  1.00  0.00     0.029 A 
ATOM     65  C   UNL     1     -10.974  10.534  -5.048  1.00  0.00     0.049 A 
ATOM     66  H   UNL     1     -10.071   8.648  -4.756  1.00  0.00     0.167 HD
ATOM     67  C   UNL     1     -10.640  10.401  -2.591  1.00  0.00     0.074 A 
ATOM     68  C   UNL     1     -10.741  10.932  -1.248  1.00  0.00     0.031 C 
ATOM     69  C   UNL     1     -11.060  11.056  -3.704  1.00  0.00     0.034 A 
BRANCH  56  70
ATOM     70  C   UNL     1     -10.159   7.913  -8.979  1.00  0.00     0.023 A 
ATOM     71  C   UNL     1     -10.924   6.950  -9.662  1.00  0.00     0.031 A 
ATOM     72  C   UNL     1      -9.450   8.852  -9.749  1.00  0.00     0.131 A 
ATOM     73  C   UNL     1     -10.901   6.900 -11.064  1.00  0.00     0.055 A 
ATOM     74  C   UNL     1      -9.499   8.850 -11.145  1.00  0.00     0.041 A 
ATOM     75  F   UNL     1      -8.685   9.784  -9.158  1.00  0.00    -0.206 F 
ATOM     76  C   UNL     1     -10.215   7.860 -11.811  1.00  0.00     0.022 A 
BRANCH  73  77
ATOM     77  S   UNL     1     -11.659   5.475 -11.892  1.00  0.00     0.124 S 
ATOM     78  O   UNL     1     -10.910   4.364 -11.309  1.00  0.00    -0.237 OA
ATOM     79  O   UNL     1     -13.056   5.584 -11.491  1.00  0.00    -0.237 OA
ATOM     80  O   UNL     1     -11.394   5.720 -13.308  1.00  0.00    -0.744 OA
ENDBRANCH  73  77
ENDBRANCH  56  70
BRANCH  57  81
ATOM     81  C   UNL     1      -9.032   7.781   0.983  1.00  0.00     0.023 A 
ATOM     82  C   UNL     1     -10.115   7.875   1.871  1.00  0.00     0.031 A 
ATOM     83  C   UNL     1      -7.735   7.743   1.527  1.00  0.00     0.131 A 
ATOM     84  C   UNL     1      -9.881   7.980   3.251  1.00  0.00     0.055 A 
ATOM     85  C   UNL     1      -7.511   7.790   2.904  1.00  0.00     0.041 A 
ATOM     86  F   UNL     1      -6.663   7.649   0.723  1.00  0.00    -0.206 F 
ATOM     87  C   UNL     1      -8.588   7.923   3.774  1.00  0.00     0.022 A 
BRANCH  84  88
ATOM     88  S   UNL     1     -11.293   8.284   4.349  1.00  0.00     0.124 S 
ATOM     89  O   UNL     1     -11.835   9.521   3.799  1.00  0.00    -0.237 OA
ATOM     90  O   UNL     1     -12.098   7.084   4.146  1.00  0.00    -0.237 OA
ATOM     91  O   UNL     1     -10.677   8.403   5.668  1.00  0.00    -0.744 OA
ENDBRANCH  84  88
ENDBRANCH  57  81
BRANCH  69  92
ATOM     92  C   UNL     1     -11.715  12.402  -3.501  1.00  0.00     0.023 A 
ATOM     93  C   UNL     1     -10.998  13.512  -3.022  1.00  0.00     0.031 A 
ATOM     94  C   UNL     1     -13.082  12.570  -3.785  1.00  0.00     0.131 A 
ATOM     95  C   UNL     1     -11.664  14.725  -2.787  1.00  0.00     0.055 A 
ATOM     96  C   UNL     1     -13.725  13.796  -3.609  1.00  0.00     0.041 A 
ATOM     97  F   UNL     1     -13.816  11.543  -4.243  1.00  0.00    -0.206 F 
ATOM     98  C   UNL     1     -13.018  14.879  -3.095  1.00  0.00     0.022 A 
BRANCH  95  99
ATOM     99  S   UNL     1     -10.757  16.076  -1.986  1.00  0.00     0.124 S 
ATOM    100  O   UNL     1     -10.344  15.461  -0.729  1.00  0.00    -0.237 OA
ATOM    101  O   UNL     1      -9.691  16.348  -2.943  1.00  0.00    -0.237 OA
ATOM    102  O   UNL     1     -11.759  17.134  -1.858  1.00  0.00    -0.744 OA
ENDBRANCH  95  99
ENDBRANCH  69  92
ENDBRANCH  43  44
ENDBRANCH  35  38
ENDBRANCH  33  34
ENDBRANCH  32  33
ENDBRANCH   1  32
TORSDOF 19
