REMARK SMILES C[N@H+]1CC[N@@H+](Cc2ncc[nH]2)C[C@@]12CCC(=O)N(CC(=O)NCCCNC(=O)c1ccc(-c3c4nc(c(-c5cc(S(=O)(=O)[O-])ccc5F)c5ccc([nH]5)c(-c5cc(S(=O)(=O)[O-])ccc5F)c5nc(c(-c6cc(S(=O)(=O)[O-])ccc6F)c6ccc3[nH]6)C=C5)C=C4)cc1)CC2
REMARK SMILES IDX 20 1 21 2 22 3 19 5 18 6 16 7 17 8 15 9 14 10 13 11 1 12
REMARK SMILES IDX 2 13 3 14 4 16 12 17 5 18 93 20 6 22 7 23 8 24 11 25 9 26
REMARK SMILES IDX 10 27 92 29 23 31 24 32 25 33 26 34 27 35 28 37 29 38 30 39
REMARK SMILES IDX 91 40 31 41 90 42 32 43 33 44 34 45 84 46 35 47 89 48 83 49
REMARK SMILES IDX 85 50 36 51 88 52 82 53 81 54 37 56 69 57 49 58 68 59 50 60
REMARK SMILES IDX 53 61 67 62 86 63 51 64 52 65 66 67 87 68 54 69 38 70 39 71
REMARK SMILES IDX 47 72 40 73 46 74 48 75 45 76 41 77 42 78 43 79 44 80 70 81
REMARK SMILES IDX 71 82 79 83 72 84 78 85 80 86 77 87 73 88 74 89 75 90 76 91
REMARK SMILES IDX 55 92 56 93 64 94 57 95 63 96 65 97 62 98 58 99 59 100
REMARK SMILES IDX 60 101 61 102
REMARK H PARENT 22 4 2 15 5 19 11 28 26 36 85 55 53 66
REMARK Flexibility Score: 80.00
ROOT
ATOM      1  C   UNL     1      -1.401   5.534   5.333  1.00  0.00     0.239 C 
ATOM      2  O   UNL     1      -2.068   6.559   5.524  1.00  0.00    -0.273 OA
ATOM      3  N   UNL     1      -0.201   5.459   5.971  1.00  0.00    -0.354 N 
ATOM      4  H   UNL     1       0.106   6.307   6.366  1.00  0.00     0.163 HD
ENDROOT
BRANCH   1   5
ATOM      5  C   UNL     1      -2.036   4.330   4.617  1.00  0.00     0.219 C 
BRANCH   5   6
ATOM      6  N   UNL     1      -1.292   3.508   3.660  1.00  0.00    -0.333 N 
BRANCH   6   7
ATOM      7  C   UNL     1      -0.478   4.129   2.728  1.00  0.00     0.223 C 
ATOM      8  O   UNL     1      -0.310   5.347   2.708  1.00  0.00    -0.275 OA
BRANCH   7   9
ATOM      9  C   UNL     1       0.223   3.236   1.718  1.00  0.00     0.107 C 
BRANCH   9  10
ATOM     10  C   UNL     1       0.993   2.038   2.308  1.00  0.00     0.084 C 
BRANCH  10  11
ATOM     11  C   UNL     1       0.158   0.736   2.562  1.00  0.00     0.149 C 
ATOM     12  C   UNL     1       0.325   0.380   0.092  1.00  0.00     0.333 C 
ATOM     13  N   UNL     1      -0.502   0.218   1.311  1.00  0.00    -0.323 N 
ATOM     14  C   UNL     1      -0.819  -1.237   1.380  1.00  0.00     0.324 C 
ATOM     15  H   UNL     1      -1.349   0.784   1.253  1.00  0.00     0.348 HD
ATOM     16  C   UNL     1      -0.773  -1.928   2.751  1.00  0.00     0.324 C 
ATOM     17  C   UNL     1       1.106  -0.377   3.154  1.00  0.00     0.332 C 
ATOM     18  N   UNL     1       0.412  -1.623   3.563  1.00  0.00    -0.319 N 
ATOM     19  H   UNL     1       0.042  -1.446   4.497  1.00  0.00     0.348 HD
BRANCH  11  20
ATOM     20  C   UNL     1      -0.877   1.083   3.682  1.00  0.00     0.096 CG0
ATOM     21  G   UNL     1      -1.851   2.196   3.358  1.00  0.00     0.000 G0
ENDBRANCH  11  20
BRANCH  18  22
ATOM     22  C   UNL     1       1.339  -2.757   3.704  1.00  0.00     0.339 C 
BRANCH  22  23
ATOM     23  C   UNL     1       1.889  -3.302   2.417  1.00  0.00     0.161 A 
ATOM     24  N   UNL     1       2.738  -2.712   1.598  1.00  0.00    -0.236 NA
ATOM     25  N   UNL     1       1.546  -4.543   1.933  1.00  0.00    -0.344 N 
ATOM     26  C   UNL     1       2.942  -3.587   0.566  1.00  0.00     0.131 A 
ATOM     27  C   UNL     1       2.205  -4.731   0.751  1.00  0.00     0.104 A 
ATOM     28  H   UNL     1       0.935  -5.183   2.363  1.00  0.00     0.167 HD
ENDBRANCH  22  23
ENDBRANCH  18  22
ENDBRANCH  10  11
ENDBRANCH   9  10
ENDBRANCH   7   9
ENDBRANCH   6   7
BRANCH   6  29
ATOM     29  C   UNL     1      -1.851   2.196   3.358  1.00  0.00     0.127 CG0
ATOM     30  G   UNL     1      -0.877   1.083   3.682  1.00  0.00     0.000 G0
ENDBRANCH   6  29
ENDBRANCH   5   6
ENDBRANCH   1   5
BRANCH   3  31
ATOM     31  C   UNL     1       0.699   4.344   6.166  1.00  0.00     0.117 C 
BRANCH  31  32
ATOM     32  C   UNL     1       1.904   4.362   5.235  1.00  0.00     0.042 C 
BRANCH  32  33
ATOM     33  C   UNL     1       2.720   5.647   5.228  1.00  0.00     0.118 C 
BRANCH  33  34
ATOM     34  N   UNL     1       3.476   5.838   6.452  1.00  0.00    -0.352 N 
ATOM     35  C   UNL     1       4.833   5.939   6.647  1.00  0.00     0.251 C 
ATOM     36  H   UNL     1       2.933   5.905   7.270  1.00  0.00     0.163 HD
ATOM     37  O   UNL     1       5.265   5.904   7.797  1.00  0.00    -0.269 OA
BRANCH  35  38
ATOM     38  C   UNL     1       5.775   6.063   5.505  1.00  0.00     0.039 A 
ATOM     39  C   UNL     1       7.018   5.427   5.593  1.00  0.00     0.014 A 
ATOM     40  C   UNL     1       5.483   6.841   4.381  1.00  0.00     0.014 A 
ATOM     41  C   UNL     1       7.943   5.539   4.549  1.00  0.00     0.010 A 
ATOM     42  C   UNL     1       6.372   6.884   3.304  1.00  0.00     0.010 A 
ATOM     43  C   UNL     1       7.622   6.253   3.384  1.00  0.00    -0.014 A 
BRANCH  43  44
ATOM     44  C   UNL     1       8.603   6.396   2.272  1.00  0.00     0.031 A 
ATOM     45  C   UNL     1       9.133   7.761   1.907  1.00  0.00     0.074 A 
ATOM     46  C   UNL     1       8.992   5.315   1.567  1.00  0.00     0.049 A 
ATOM     47  N   UNL     1       9.944   8.106   0.938  1.00  0.00    -0.248 NA
ATOM     48  C   UNL     1       8.664   8.889   2.725  1.00  0.00     0.031 C 
ATOM     49  C   UNL     1       8.530   3.945   1.797  1.00  0.00     0.029 A 
ATOM     50  N   UNL     1       9.862   5.197   0.510  1.00  0.00    -0.354 N 
ATOM     51  C   UNL     1      10.066   9.491   1.020  1.00  0.00     0.074 A 
ATOM     52  C   UNL     1       9.195   9.923   2.092  1.00  0.00     0.031 C 
ATOM     53  C   UNL     1       9.138   3.123   0.926  1.00  0.00     0.029 A 
ATOM     54  C   UNL     1      10.000   3.909   0.047  1.00  0.00     0.049 A 
ATOM     55  H   UNL     1      10.342   5.963   0.120  1.00  0.00     0.167 HD
ATOM     56  C   UNL     1      10.849  10.323   0.287  1.00  0.00     0.034 A 
ATOM     57  C   UNL     1      10.731   3.416  -0.974  1.00  0.00     0.034 A 
ATOM     58  C   UNL     1      11.725   9.877  -0.771  1.00  0.00     0.049 A 
ATOM     59  C   UNL     1      11.589   4.360  -1.780  1.00  0.00     0.074 A 
ATOM     60  C   UNL     1      12.588  10.628  -1.551  1.00  0.00     0.029 A 
ATOM     61  N   UNL     1      11.849   8.562  -1.200  1.00  0.00    -0.354 N 
ATOM     62  N   UNL     1      11.722   5.662  -1.665  1.00  0.00    -0.248 NA
ATOM     63  C   UNL     1      12.410   3.763  -2.841  1.00  0.00     0.031 C 
ATOM     64  C   UNL     1      13.184   9.779  -2.491  1.00  0.00     0.029 A 
ATOM     65  C   UNL     1      12.757   8.484  -2.246  1.00  0.00     0.049 A 
ATOM     66  H   UNL     1      11.363   7.796  -0.818  1.00  0.00     0.167 HD
ATOM     67  C   UNL     1      12.673   6.031  -2.614  1.00  0.00     0.074 A 
ATOM     68  C   UNL     1      13.088   4.813  -3.278  1.00  0.00     0.031 C 
ATOM     69  C   UNL     1      13.163   7.264  -2.905  1.00  0.00     0.034 A 
BRANCH  56  70
ATOM     70  C   UNL     1      10.766  11.802   0.594  1.00  0.00     0.023 A 
ATOM     71  C   UNL     1      11.123  12.318   1.853  1.00  0.00     0.031 A 
ATOM     72  C   UNL     1      10.290  12.706  -0.373  1.00  0.00     0.131 A 
ATOM     73  C   UNL     1      10.919  13.677   2.139  1.00  0.00     0.055 A 
ATOM     74  C   UNL     1      10.173  14.073  -0.110  1.00  0.00     0.041 A 
ATOM     75  F   UNL     1       9.916  12.274  -1.587  1.00  0.00    -0.206 F 
ATOM     76  C   UNL     1      10.472  14.563   1.157  1.00  0.00     0.022 A 
BRANCH  73  77
ATOM     77  S   UNL     1      11.101  14.238   3.855  1.00  0.00     0.124 S 
ATOM     78  O   UNL     1      10.118  13.404   4.543  1.00  0.00    -0.237 OA
ATOM     79  O   UNL     1      12.500  13.942   4.137  1.00  0.00    -0.237 OA
ATOM     80  O   UNL     1      10.764  15.659   3.788  1.00  0.00    -0.744 OA
ENDBRANCH  73  77
ENDBRANCH  56  70
BRANCH  57  81
ATOM     81  C   UNL     1      10.692   1.961  -1.301  1.00  0.00     0.023 A 
ATOM     82  C   UNL     1      11.838   1.159  -1.177  1.00  0.00     0.031 A 
ATOM     83  C   UNL     1       9.519   1.362  -1.792  1.00  0.00     0.131 A 
ATOM     84  C   UNL     1      11.802  -0.183  -1.590  1.00  0.00     0.055 A 
ATOM     85  C   UNL     1       9.473   0.013  -2.148  1.00  0.00     0.041 A 
ATOM     86  F   UNL     1       8.393   2.081  -1.926  1.00  0.00    -0.206 F 
ATOM     87  C   UNL     1      10.624  -0.764  -2.062  1.00  0.00     0.022 A 
BRANCH  84  88
ATOM     88  S   UNL     1      13.346  -1.135  -1.586  1.00  0.00     0.124 S 
ATOM     89  O   UNL     1      14.192  -0.335  -2.463  1.00  0.00    -0.237 OA
ATOM     90  O   UNL     1      13.702  -1.130  -0.171  1.00  0.00    -0.237 OA
ATOM     91  O   UNL     1      12.945  -2.435  -2.120  1.00  0.00    -0.744 OA
ENDBRANCH  84  88
ENDBRANCH  57  81
BRANCH  69  92
ATOM     92  C   UNL     1      14.254   7.339  -3.948  1.00  0.00     0.023 A 
ATOM     93  C   UNL     1      14.028   6.990  -5.292  1.00  0.00     0.031 A 
ATOM     94  C   UNL     1      15.553   7.735  -3.580  1.00  0.00     0.131 A 
ATOM     95  C   UNL     1      15.098   6.973  -6.200  1.00  0.00     0.055 A 
ATOM     96  C   UNL     1      16.598   7.783  -4.504  1.00  0.00     0.041 A 
ATOM     97  F   UNL     1      15.830   8.078  -2.312  1.00  0.00    -0.206 F 
ATOM     98  C   UNL     1      16.378   7.383  -5.818  1.00  0.00     0.022 A 
BRANCH  95  99
ATOM     99  S   UNL     1      14.823   6.288  -7.857  1.00  0.00     0.124 S 
ATOM    100  O   UNL     1      14.297   4.961  -7.555  1.00  0.00    -0.237 OA
ATOM    101  O   UNL     1      13.873   7.235  -8.432  1.00  0.00    -0.237 OA
ATOM    102  O   UNL     1      16.155   6.303  -8.460  1.00  0.00    -0.744 OA
ENDBRANCH  95  99
ENDBRANCH  69  92
ENDBRANCH  43  44
ENDBRANCH  35  38
ENDBRANCH  33  34
ENDBRANCH  32  33
ENDBRANCH  31  32
ENDBRANCH   3  31
TORSDOF 16
