REMARK SMILES C[C@@H](CC(=O)NCCCNC(=O)c1ccc(-c2c3nc(c(-c4cc(S(=O)(=O)[O-])ccc4F)c4ccc([nH]4)c(-c4cc(S(=O)(=O)[O-])ccc4F)c4nc(c(-c5cc(S(=O)(=O)[O-])ccc5F)c5ccc2[nH]5)C=C4)C=C3)cc1)NC(=O)c1ccc(O)cc1
REMARK SMILES IDX 7 1 6 2 4 3 5 4 3 6 2 7 1 8 76 9 77 10 78 12 79 13 80 14
REMARK SMILES IDX 85 15 81 16 84 17 82 18 83 19 8 21 9 22 10 23 11 24 12 26
REMARK SMILES IDX 13 27 14 28 75 29 15 30 74 31 16 32 17 33 18 34 68 35 19 36
REMARK SMILES IDX 73 37 67 38 69 39 20 40 72 41 66 42 65 43 21 45 53 46 33 47
REMARK SMILES IDX 52 48 34 49 37 50 51 51 70 52 35 53 36 54 50 56 71 57 38 58
REMARK SMILES IDX 22 59 23 60 31 61 24 62 30 63 32 64 29 65 25 66 26 67 27 68
REMARK SMILES IDX 28 69 54 70 55 71 63 72 56 73 62 74 64 75 61 76 57 77 58 78
REMARK SMILES IDX 59 79 60 80 39 81 40 82 48 83 41 84 47 85 49 86 46 87 42 88
REMARK SMILES IDX 43 89 44 90 45 91
REMARK H PARENT 6 5 76 11 83 20 10 25 69 44 37 55
REMARK Flexibility Score: inf
ROOT
ATOM      1  C   UNL     1       2.062  -2.367  -0.009  1.00  0.00     0.117 C 
ENDROOT
BRANCH   1   2
ATOM      2  N   UNL     1       1.019  -2.613  -0.991  1.00  0.00    -0.356 N 
ATOM      3  C   UNL     1       0.512  -1.807  -1.960  1.00  0.00     0.222 C 
ATOM      4  O   UNL     1      -0.489  -2.188  -2.570  1.00  0.00    -0.275 OA
ATOM      5  H   UNL     1       0.614  -3.509  -0.947  1.00  0.00     0.163 HD
BRANCH   3   6
ATOM      6  C   UNL     1       1.175  -0.495  -2.304  1.00  0.00     0.124 C 
BRANCH   6   7
ATOM      7  C   UNL     1       0.501   0.751  -1.722  1.00  0.00     0.088 C 
ATOM      8  C   UNL     1       0.688   0.930  -0.221  1.00  0.00     0.031 C 
BRANCH   7   9
ATOM      9  N   UNL     1      -0.922   0.834  -2.059  1.00  0.00    -0.349 N 
ATOM     10  C   UNL     1      -1.686   1.957  -2.244  1.00  0.00     0.251 C 
ATOM     11  H   UNL     1      -1.389  -0.026  -2.167  1.00  0.00     0.164 HD
ATOM     12  O   UNL     1      -2.916   1.905  -2.209  1.00  0.00    -0.269 OA
BRANCH  10  13
ATOM     13  C   UNL     1      -1.017   3.246  -2.496  1.00  0.00     0.040 A 
ATOM     14  C   UNL     1      -1.301   4.343  -1.680  1.00  0.00     0.017 A 
ATOM     15  C   UNL     1      -0.112   3.362  -3.559  1.00  0.00     0.017 A 
ATOM     16  C   UNL     1      -0.623   5.544  -1.891  1.00  0.00     0.047 A 
ATOM     17  C   UNL     1       0.575   4.558  -3.757  1.00  0.00     0.047 A 
ATOM     18  C   UNL     1       0.320   5.636  -2.912  1.00  0.00     0.115 A 
BRANCH  18  19
ATOM     19  O   UNL     1       0.988   6.815  -3.058  1.00  0.00    -0.508 OA
ATOM     20  H   UNL     1       0.805   7.531  -2.482  1.00  0.00     0.293 HD
ENDBRANCH  18  19
ENDBRANCH  10  13
ENDBRANCH   7   9
ENDBRANCH   6   7
ENDBRANCH   3   6
ENDBRANCH   1   2
BRANCH   1  21
ATOM     21  C   UNL     1       1.472  -2.139   1.378  1.00  0.00     0.042 C 
BRANCH  21  22
ATOM     22  C   UNL     1       0.839  -3.382   1.988  1.00  0.00     0.118 C 
BRANCH  22  23
ATOM     23  N   UNL     1       1.839  -4.314   2.476  1.00  0.00    -0.352 N 
ATOM     24  C   UNL     1       2.138  -4.685   3.764  1.00  0.00     0.251 C 
ATOM     25  H   UNL     1       2.384  -4.746   1.779  1.00  0.00     0.163 HD
ATOM     26  O   UNL     1       3.186  -5.290   3.977  1.00  0.00    -0.269 OA
BRANCH  24  27
ATOM     27  C   UNL     1       1.230  -4.346   4.888  1.00  0.00     0.039 A 
ATOM     28  C   UNL     1       1.788  -3.994   6.120  1.00  0.00     0.014 A 
ATOM     29  C   UNL     1      -0.160  -4.418   4.755  1.00  0.00     0.014 A 
ATOM     30  C   UNL     1       0.957  -3.673   7.198  1.00  0.00     0.010 A 
ATOM     31  C   UNL     1      -0.986  -4.011   5.802  1.00  0.00     0.010 A 
ATOM     32  C   UNL     1      -0.439  -3.653   7.042  1.00  0.00    -0.014 A 
BRANCH  32  33
ATOM     33  C   UNL     1      -1.336  -3.306   8.178  1.00  0.00     0.031 A 
ATOM     34  C   UNL     1      -2.303  -4.330   8.714  1.00  0.00     0.074 A 
ATOM     35  C   UNL     1      -1.313  -2.063   8.699  1.00  0.00     0.049 A 
ATOM     36  N   UNL     1      -3.205  -4.208   9.655  1.00  0.00    -0.248 NA
ATOM     37  C   UNL     1      -2.271  -5.660   8.086  1.00  0.00     0.031 C 
ATOM     38  C   UNL     1      -0.451  -0.971   8.241  1.00  0.00     0.029 A 
ATOM     39  N   UNL     1      -2.034  -1.507   9.725  1.00  0.00    -0.354 N 
ATOM     40  C   UNL     1      -3.857  -5.436   9.720  1.00  0.00     0.074 A 
ATOM     41  C   UNL     1      -3.290  -6.264   8.677  1.00  0.00     0.031 C 
ATOM     42  C   UNL     1      -0.674   0.113   9.002  1.00  0.00     0.029 A 
ATOM     43  C   UNL     1      -1.721  -0.190   9.973  1.00  0.00     0.049 A 
ATOM     44  H   UNL     1      -2.714  -2.003  10.236  1.00  0.00     0.167 HD
ATOM     45  C   UNL     1      -4.819  -5.846  10.584  1.00  0.00     0.034 A 
ATOM     46  C   UNL     1      -2.223   0.676  10.874  1.00  0.00     0.034 A 
ATOM     47  C   UNL     1      -5.361  -5.016  11.633  1.00  0.00     0.049 A 
ATOM     48  C   UNL     1      -3.298   0.203  11.819  1.00  0.00     0.074 A 
ATOM     49  C   UNL     1      -6.300  -5.343  12.595  1.00  0.00     0.029 A 
ATOM     50  N   UNL     1      -5.014  -3.689  11.855  1.00  0.00    -0.354 N 
ATOM     51  N   UNL     1      -3.873  -0.976  11.895  1.00  0.00    -0.248 NA
ATOM     52  C   UNL     1      -3.783   1.174  12.809  1.00  0.00     0.031 C 
ATOM     53  C   UNL     1      -6.564  -4.201  13.360  1.00  0.00     0.029 A 
ATOM     54  C   UNL     1      -5.737  -3.178  12.922  1.00  0.00     0.049 A 
ATOM     55  H   UNL     1      -4.350  -3.184  11.331  1.00  0.00     0.167 HD
ATOM     56  C   UNL     1      -4.766  -0.894  12.960  1.00  0.00     0.074 A 
ATOM     57  C   UNL     1      -4.640   0.442  13.505  1.00  0.00     0.031 C 
ATOM     58  C   UNL     1      -5.610  -1.839  13.447  1.00  0.00     0.034 A 
BRANCH  45  59
ATOM     59  C   UNL     1      -5.354  -7.249  10.411  1.00  0.00     0.023 A 
ATOM     60  C   UNL     1      -4.528  -8.377  10.558  1.00  0.00     0.031 A 
ATOM     61  C   UNL     1      -6.699  -7.462  10.059  1.00  0.00     0.131 A 
ATOM     62  C   UNL     1      -5.029  -9.656  10.272  1.00  0.00     0.055 A 
ATOM     63  C   UNL     1      -7.214  -8.745   9.859  1.00  0.00     0.041 A 
ATOM     64  F   UNL     1      -7.533  -6.424   9.885  1.00  0.00    -0.206 F 
ATOM     65  C   UNL     1      -6.373  -9.851   9.949  1.00  0.00     0.022 A 
BRANCH  62  66
ATOM     66  S   UNL     1      -3.863 -11.043  10.182  1.00  0.00     0.124 S 
ATOM     67  O   UNL     1      -2.955 -10.595   9.128  1.00  0.00    -0.237 OA
ATOM     68  O   UNL     1      -3.308 -11.077  11.530  1.00  0.00    -0.237 OA
ATOM     69  O   UNL     1      -4.708 -12.180   9.825  1.00  0.00    -0.744 OA
ENDBRANCH  62  66
ENDBRANCH  45  59
BRANCH  46  70
ATOM     70  C   UNL     1      -1.723   2.079  10.934  1.00  0.00     0.023 A 
ATOM     71  C   UNL     1      -1.029   2.552  12.059  1.00  0.00     0.031 A 
ATOM     72  C   UNL     1      -1.966   2.980   9.882  1.00  0.00     0.131 A 
ATOM     73  C   UNL     1      -0.641   3.899  12.127  1.00  0.00     0.055 A 
ATOM     74  C   UNL     1      -1.534   4.307   9.933  1.00  0.00     0.041 A 
ATOM     75  F   UNL     1      -2.618   2.577   8.780  1.00  0.00    -0.206 F 
ATOM     76  C   UNL     1      -0.879   4.776  11.067  1.00  0.00     0.022 A 
BRANCH  73  77
ATOM     77  S   UNL     1       0.114   4.509  13.659  1.00  0.00     0.124 S 
ATOM     78  O   UNL     1      -0.921   4.210  14.642  1.00  0.00    -0.237 OA
ATOM     79  O   UNL     1       1.328   3.703  13.740  1.00  0.00    -0.237 OA
ATOM     80  O   UNL     1       0.329   5.929  13.390  1.00  0.00    -0.744 OA
ENDBRANCH  73  77
ENDBRANCH  46  70
BRANCH  58  81
ATOM     81  C   UNL     1      -6.429  -1.464  14.658  1.00  0.00     0.023 A 
ATOM     82  C   UNL     1      -7.438  -0.487  14.595  1.00  0.00     0.031 A 
ATOM     83  C   UNL     1      -6.180  -2.081  15.896  1.00  0.00     0.131 A 
ATOM     84  C   UNL     1      -8.121  -0.113  15.762  1.00  0.00     0.055 A 
ATOM     85  C   UNL     1      -6.904  -1.747  17.042  1.00  0.00     0.041 A 
ATOM     86  F   UNL     1      -5.226  -3.019  16.014  1.00  0.00    -0.206 F 
ATOM     87  C   UNL     1      -7.871  -0.748  16.982  1.00  0.00     0.022 A 
BRANCH  84  88
ATOM     88  S   UNL     1      -9.277   1.283  15.685  1.00  0.00     0.124 S 
ATOM     89  O   UNL     1      -8.417   2.362  15.210  1.00  0.00    -0.237 OA
ATOM     90  O   UNL     1     -10.281   0.805  14.741  1.00  0.00    -0.237 OA
ATOM     91  O   UNL     1      -9.740   1.421  17.065  1.00  0.00    -0.744 OA
ENDBRANCH  84  88
ENDBRANCH  58  81
ENDBRANCH  32  33
ENDBRANCH  24  27
ENDBRANCH  22  23
ENDBRANCH  21  22
ENDBRANCH   1  21
TORSDOF 17
