REMARK SMILES Cc1cc(C)c2c(CCCC(=O)NCCCNC(=O)c3ccc(-c4c5nc(c(-c6cc(S(=O)(=O)[O-])ccc6F)c6ccc([nH]6)c(-c6cc(S(=O)(=O)[O-])ccc6F)c6nc(c(-c7cc(S(=O)(=O)[O-])ccc7F)c7ccc4[nH]7)C=C6)C=C5)cc3)c(-c3ccccn3)[nH]c2c1
REMARK SMILES IDX 14 1 13 2 11 3 12 4 10 6 9 7 8 8 7 9 1 10 2 11 3 12 92 13
REMARK SMILES IDX 4 14 91 15 5 16 6 17 90 18 83 19 84 21 85 22 89 23 86 24
REMARK SMILES IDX 88 25 87 26 15 27 16 28 17 29 18 30 19 32 20 33 21 34 82 35
REMARK SMILES IDX 22 36 81 37 23 38 24 39 25 40 75 41 26 42 80 43 74 44 76 45
REMARK SMILES IDX 27 46 79 47 73 48 72 49 28 51 60 52 40 53 59 54 41 55 44 56
REMARK SMILES IDX 58 57 77 58 42 59 43 60 57 62 78 63 45 64 29 65 30 66 38 67
REMARK SMILES IDX 31 68 37 69 39 70 36 71 32 72 33 73 34 74 35 75 61 76 62 77
REMARK SMILES IDX 70 78 63 79 69 80 71 81 68 82 64 83 65 84 66 85 67 86 46 87
REMARK SMILES IDX 47 88 55 89 48 90 54 91 56 92 53 93 49 94 50 95 51 96 52 97
REMARK H PARENT 13 5 90 20 17 31 76 50 44 61
REMARK Flexibility Score: inf
ROOT
ATOM      1  C   UNL     1      -3.222  -0.890   6.960  1.00  0.00     0.117 C 
ENDROOT
BRANCH   1   2
ATOM      2  N   UNL     1      -3.167  -1.357   8.329  1.00  0.00    -0.356 N 
ATOM      3  C   UNL     1      -2.151  -1.356   9.232  1.00  0.00     0.220 C 
ATOM      4  O   UNL     1      -2.442  -1.652  10.396  1.00  0.00    -0.275 OA
ATOM      5  H   UNL     1      -4.009  -1.741   8.663  1.00  0.00     0.163 HD
BRANCH   3   6
ATOM      6  C   UNL     1      -0.740  -0.891   8.921  1.00  0.00     0.100 C 
BRANCH   6   7
ATOM      7  C   UNL     1       0.178  -1.597   7.949  1.00  0.00     0.015 C 
BRANCH   7   8
ATOM      8  C   UNL     1      -0.049  -1.532   6.452  1.00  0.00     0.039 C 
BRANCH   8   9
ATOM      9  C   UNL     1      -0.055  -0.293   5.570  1.00  0.00    -0.013 A 
ATOM     10  C   UNL     1       0.869   0.167  -0.098  1.00  0.00     0.044 C 
ATOM     11  C   UNL     1       0.541  -0.037   1.351  1.00  0.00    -0.049 A 
ATOM     12  C   UNL     1       0.520  -1.327   1.879  1.00  0.00     0.007 A 
ATOM     13  C   UNL     1       0.310   1.056   2.189  1.00  0.00     0.030 A 
ATOM     14  C   UNL     1       0.282  -1.579   3.247  1.00  0.00    -0.041 A 
ATOM     15  C   UNL     1       0.109   0.812   3.553  1.00  0.00     0.047 A 
ATOM     16  C   UNL     1       0.188  -3.028   3.665  1.00  0.00     0.045 C 
ATOM     17  C   UNL     1       0.130  -0.457   4.121  1.00  0.00     0.006 A 
ATOM     18  N   UNL     1      -0.160   1.699   4.559  1.00  0.00    -0.353 N 
ATOM     19  C   UNL     1      -0.367   1.067   5.764  1.00  0.00     0.068 A 
ATOM     20  H   UNL     1      -0.200   2.675   4.435  1.00  0.00     0.167 HD
BRANCH  19  21
ATOM     21  C   UNL     1      -0.980   1.862   6.837  1.00  0.00     0.087 A 
ATOM     22  C   UNL     1      -2.330   2.218   6.762  1.00  0.00     0.030 A 
ATOM     23  N   UNL     1      -0.210   2.149   7.905  1.00  0.00    -0.255 NA
ATOM     24  C   UNL     1      -2.963   2.718   7.897  1.00  0.00     0.004 A 
ATOM     25  C   UNL     1      -0.856   2.644   8.996  1.00  0.00     0.112 A 
ATOM     26  C   UNL     1      -2.219   2.899   9.053  1.00  0.00     0.020 A 
ENDBRANCH  19  21
ENDBRANCH   8   9
ENDBRANCH   7   8
ENDBRANCH   6   7
ENDBRANCH   3   6
ENDBRANCH   1   2
BRANCH   1  27
ATOM     27  C   UNL     1      -3.342  -2.002   5.920  1.00  0.00     0.042 C 
BRANCH  27  28
ATOM     28  C   UNL     1      -4.774  -2.285   5.531  1.00  0.00     0.118 C 
BRANCH  28  29
ATOM     29  N   UNL     1      -5.326  -1.288   4.608  1.00  0.00    -0.352 N 
ATOM     30  C   UNL     1      -6.641  -1.217   4.154  1.00  0.00     0.251 C 
ATOM     31  H   UNL     1      -4.705  -0.600   4.275  1.00  0.00     0.163 HD
ATOM     32  O   UNL     1      -6.935  -0.629   3.138  1.00  0.00    -0.269 OA
BRANCH  30  33
ATOM     33  C   UNL     1      -7.655  -1.898   4.984  1.00  0.00     0.039 A 
ATOM     34  C   UNL     1      -8.544  -2.831   4.449  1.00  0.00     0.014 A 
ATOM     35  C   UNL     1      -7.542  -1.706   6.356  1.00  0.00     0.014 A 
ATOM     36  C   UNL     1      -9.242  -3.658   5.330  1.00  0.00     0.010 A 
ATOM     37  C   UNL     1      -8.061  -2.654   7.194  1.00  0.00     0.010 A 
ATOM     38  C   UNL     1      -8.963  -3.594   6.705  1.00  0.00    -0.014 A 
BRANCH  38  39
ATOM     39  C   UNL     1      -9.488  -4.585   7.645  1.00  0.00     0.031 A 
ATOM     40  C   UNL     1      -9.288  -6.004   7.233  1.00  0.00     0.074 A 
ATOM     41  C   UNL     1      -9.902  -4.255   8.891  1.00  0.00     0.049 A 
ATOM     42  N   UNL     1     -10.196  -6.862   6.904  1.00  0.00    -0.248 NA
ATOM     43  C   UNL     1      -7.913  -6.493   7.020  1.00  0.00     0.031 C 
ATOM     44  C   UNL     1      -9.891  -2.933   9.535  1.00  0.00     0.029 A 
ATOM     45  N   UNL     1     -10.319  -5.060   9.905  1.00  0.00    -0.354 N 
ATOM     46  C   UNL     1      -9.529  -8.063   6.688  1.00  0.00     0.074 A 
ATOM     47  C   UNL     1      -8.133  -7.731   6.569  1.00  0.00     0.031 C 
ATOM     48  C   UNL     1     -10.033  -3.068  10.871  1.00  0.00     0.029 A 
ATOM     49  C   UNL     1     -10.343  -4.454  11.162  1.00  0.00     0.049 A 
ATOM     50  H   UNL     1     -10.583  -5.998   9.764  1.00  0.00     0.167 HD
ATOM     51  C   UNL     1     -10.148  -9.263   6.876  1.00  0.00     0.034 A 
ATOM     52  C   UNL     1     -10.608  -5.042  12.359  1.00  0.00     0.034 A 
ATOM     53  C   UNL     1     -11.582  -9.110   6.937  1.00  0.00     0.049 A 
ATOM     54  C   UNL     1     -11.389  -6.261  12.046  1.00  0.00     0.074 A 
ATOM     55  C   UNL     1     -12.535  -8.610   6.069  1.00  0.00     0.029 A 
ATOM     56  N   UNL     1     -12.170  -9.086   8.181  1.00  0.00    -0.354 N 
ATOM     57  N   UNL     1     -12.567  -6.233  11.482  1.00  0.00    -0.248 NA
ATOM     58  C   UNL     1     -10.660  -7.510  11.904  1.00  0.00     0.031 C 
ATOM     59  C   UNL     1     -13.416  -7.848   6.894  1.00  0.00     0.029 A 
ATOM     60  C   UNL     1     -13.014  -8.001   8.222  1.00  0.00     0.049 A 
ATOM     61  H   UNL     1     -12.014  -9.730   8.910  1.00  0.00     0.167 HD
ATOM     62  C   UNL     1     -12.540  -7.265  10.557  1.00  0.00     0.074 A 
ATOM     63  C   UNL     1     -11.379  -8.074  10.929  1.00  0.00     0.031 C 
ATOM     64  C   UNL     1     -13.285  -7.213   9.413  1.00  0.00     0.034 A 
BRANCH  51  65
ATOM     65  C   UNL     1      -9.444 -10.512   7.344  1.00  0.00     0.023 A 
ATOM     66  C   UNL     1     -10.123 -11.743   7.280  1.00  0.00     0.031 A 
ATOM     67  C   UNL     1      -8.236 -10.509   8.080  1.00  0.00     0.131 A 
ATOM     68  C   UNL     1      -9.615 -12.879   7.941  1.00  0.00     0.055 A 
ATOM     69  C   UNL     1      -7.704 -11.652   8.680  1.00  0.00     0.041 A 
ATOM     70  F   UNL     1      -7.560  -9.382   8.340  1.00  0.00    -0.206 F 
ATOM     71  C   UNL     1      -8.404 -12.844   8.629  1.00  0.00     0.022 A 
BRANCH  68  72
ATOM     72  S   UNL     1     -10.623 -14.385   7.993  1.00  0.00     0.124 S 
ATOM     73  O   UNL     1     -11.826 -13.915   8.671  1.00  0.00    -0.237 OA
ATOM     74  O   UNL     1     -10.764 -14.705   6.577  1.00  0.00    -0.237 OA
ATOM     75  O   UNL     1      -9.800 -15.318   8.760  1.00  0.00    -0.744 OA
ENDBRANCH  68  72
ENDBRANCH  51  65
BRANCH  52  76
ATOM     76  C   UNL     1      -9.960  -4.799  13.682  1.00  0.00     0.023 A 
ATOM     77  C   UNL     1     -10.471  -5.354  14.877  1.00  0.00     0.031 A 
ATOM     78  C   UNL     1      -8.662  -4.244  13.753  1.00  0.00     0.131 A 
ATOM     79  C   UNL     1      -9.691  -5.359  16.059  1.00  0.00     0.055 A 
ATOM     80  C   UNL     1      -7.897  -4.251  14.923  1.00  0.00     0.041 A 
ATOM     81  F   UNL     1      -8.053  -3.755  12.662  1.00  0.00    -0.206 F 
ATOM     82  C   UNL     1      -8.403  -4.824  16.079  1.00  0.00     0.022 A 
BRANCH  79  83
ATOM     83  S   UNL     1     -10.296  -6.189  17.567  1.00  0.00     0.124 S 
ATOM     84  O   UNL     1     -11.234  -5.207  18.100  1.00  0.00    -0.237 OA
ATOM     85  O   UNL     1     -10.876  -7.420  17.043  1.00  0.00    -0.237 OA
ATOM     86  O   UNL     1      -9.081  -6.376  18.361  1.00  0.00    -0.744 OA
ENDBRANCH  79  83
ENDBRANCH  52  76
BRANCH  64  87
ATOM     87  C   UNL     1     -14.359  -6.144   9.294  1.00  0.00     0.023 A 
ATOM     88  C   UNL     1     -14.132  -4.747   9.266  1.00  0.00     0.031 A 
ATOM     89  C   UNL     1     -15.669  -6.594   9.055  1.00  0.00     0.131 A 
ATOM     90  C   UNL     1     -15.203  -3.863   9.002  1.00  0.00     0.055 A 
ATOM     91  C   UNL     1     -16.718  -5.720   8.775  1.00  0.00     0.041 A 
ATOM     92  F   UNL     1     -15.943  -7.910   9.044  1.00  0.00    -0.206 F 
ATOM     93  C   UNL     1     -16.489  -4.350   8.748  1.00  0.00     0.022 A 
BRANCH  90  94
ATOM     94  S   UNL     1     -14.942  -2.055   8.959  1.00  0.00     0.124 S 
ATOM     95  O   UNL     1     -14.391  -1.764  10.277  1.00  0.00    -0.237 OA
ATOM     96  O   UNL     1     -14.030  -1.886   7.831  1.00  0.00    -0.237 OA
ATOM     97  O   UNL     1     -16.287  -1.520   8.733  1.00  0.00    -0.744 OA
ENDBRANCH  90  94
ENDBRANCH  64  87
ENDBRANCH  38  39
ENDBRANCH  30  33
ENDBRANCH  28  29
ENDBRANCH  27  28
ENDBRANCH   1  27
TORSDOF 17
