REMARK SMILES C=CC[N@@H+](CC(=O)NCCCNC(=O)c1ccc(-c2c3nc(c(-c4cc(S(=O)(=O)[O-])ccc4F)c4ccc([nH]4)c(-c4cc(S(=O)(=O)[O-])ccc4F)c4nc(c(-c5cc(S(=O)(=O)[O-])ccc5F)c5ccc2[nH]5)C=C4)C=C3)cc1)C[C@H]1CCC[C@H](C)C1
REMARK SMILES IDX 10 1 9 2 8 3 6 4 7 5 5 7 4 8 3 10 2 11 1 12 78 13 79 14
REMARK SMILES IDX 80 15 85 16 81 17 83 18 82 19 84 20 11 21 12 22 13 23 14 25
REMARK SMILES IDX 15 26 16 27 77 28 17 29 76 30 18 31 19 32 20 33 70 34 21 35
REMARK SMILES IDX 75 36 69 37 71 38 22 39 74 40 68 41 67 42 23 44 55 45 35 46
REMARK SMILES IDX 54 47 36 48 39 49 53 50 72 51 37 52 38 53 52 55 73 56 40 57
REMARK SMILES IDX 24 58 25 59 33 60 26 61 32 62 34 63 31 64 27 65 28 66 29 67
REMARK SMILES IDX 30 68 56 69 57 70 65 71 58 72 64 73 66 74 63 75 59 76 60 77
REMARK SMILES IDX 61 78 62 79 41 80 42 81 50 82 43 83 49 84 51 85 48 86 44 87
REMARK SMILES IDX 45 88 46 89 47 90
REMARK H PARENT 8 6 4 9 12 24 71 43 39 54
REMARK Flexibility Score: inf
ROOT
ATOM      1  C   UNL     1      -1.910  -2.077   0.749  1.00  0.00     0.042 C 
ENDROOT
BRANCH   1   2
ATOM      2  C   UNL     1      -3.027  -1.678  -0.228  1.00  0.00     0.118 C 
BRANCH   2   3
ATOM      3  N   UNL     1      -3.676  -0.407   0.052  1.00  0.00    -0.351 N 
ATOM      4  C   UNL     1      -3.821   0.732  -0.680  1.00  0.00     0.275 C 
ATOM      5  O   UNL     1      -4.717   1.501  -0.307  1.00  0.00    -0.269 OA
ATOM      6  H   UNL     1      -4.091  -0.362   0.944  1.00  0.00     0.163 HD
BRANCH   4   7
ATOM      7  C   UNL     1      -2.994   1.062  -1.927  1.00  0.00     0.363 C 
BRANCH   7   8
ATOM      8  N   UNL     1      -1.602   1.516  -1.729  1.00  0.00    -0.324 N 
ATOM      9  H   UNL     1      -1.367   1.964  -2.615  1.00  0.00     0.348 HD
BRANCH   8  10
ATOM     10  C   UNL     1      -0.649   0.429  -1.649  1.00  0.00     0.290 C 
BRANCH  10  11
ATOM     11  C   UNL     1       0.803   0.793  -1.679  1.00  0.00     0.025 C 
ATOM     12  C   UNL     1       1.665   0.458  -0.708  1.00  0.00     0.010 C 
ENDBRANCH  10  11
ENDBRANCH   8  10
BRANCH   8  13
ATOM     13  C   UNL     1      -1.369   2.720  -0.920  1.00  0.00     0.266 C 
BRANCH  13  14
ATOM     14  C   UNL     1      -1.844   2.801   0.549  1.00  0.00     0.044 C 
ATOM     15  C   UNL     1      -1.254   1.736   1.475  1.00  0.00     0.009 C 
ATOM     16  C   UNL     1      -1.557   4.191   1.153  1.00  0.00     0.012 C 
ATOM     17  C   UNL     1      -1.870   1.819   2.870  1.00  0.00     0.001 C 
ATOM     18  C   UNL     1      -2.148   4.343   2.569  1.00  0.00    -0.014 C 
ATOM     19  C   UNL     1      -1.686   3.202   3.488  1.00  0.00     0.003 C 
ATOM     20  C   UNL     1      -3.677   4.452   2.536  1.00  0.00     0.007 C 
ENDBRANCH  13  14
ENDBRANCH   8  13
ENDBRANCH   7   8
ENDBRANCH   4   7
ENDBRANCH   2   3
ENDBRANCH   1   2
BRANCH   1  21
ATOM     21  C   UNL     1      -2.218  -1.919   2.236  1.00  0.00     0.118 C 
BRANCH  21  22
ATOM     22  N   UNL     1      -2.686  -3.156   2.826  1.00  0.00    -0.352 N 
ATOM     23  C   UNL     1      -2.018  -4.083   3.591  1.00  0.00     0.251 C 
ATOM     24  H   UNL     1      -3.631  -3.367   2.651  1.00  0.00     0.163 HD
ATOM     25  O   UNL     1      -2.537  -5.187   3.745  1.00  0.00    -0.269 OA
BRANCH  23  26
ATOM     26  C   UNL     1      -0.698  -3.799   4.216  1.00  0.00     0.039 A 
ATOM     27  C   UNL     1       0.232  -4.843   4.296  1.00  0.00     0.014 A 
ATOM     28  C   UNL     1      -0.393  -2.573   4.817  1.00  0.00     0.014 A 
ATOM     29  C   UNL     1       1.458  -4.655   4.945  1.00  0.00     0.010 A 
ATOM     30  C   UNL     1       0.861  -2.365   5.409  1.00  0.00     0.010 A 
ATOM     31  C   UNL     1       1.795  -3.409   5.497  1.00  0.00    -0.014 A 
BRANCH  31  32
ATOM     32  C   UNL     1       3.098  -3.213   6.198  1.00  0.00     0.031 A 
ATOM     33  C   UNL     1       3.137  -2.935   7.680  1.00  0.00     0.074 A 
ATOM     34  C   UNL     1       4.253  -3.275   5.505  1.00  0.00     0.049 A 
ATOM     35  N   UNL     1       4.170  -2.724   8.459  1.00  0.00    -0.248 NA
ATOM     36  C   UNL     1       1.843  -2.866   8.372  1.00  0.00     0.031 C 
ATOM     37  C   UNL     1       4.359  -3.515   4.065  1.00  0.00     0.029 A 
ATOM     38  N   UNL     1       5.558  -3.141   5.915  1.00  0.00    -0.354 N 
ATOM     39  C   UNL     1       3.651  -2.490   9.729  1.00  0.00     0.074 A 
ATOM     40  C   UNL     1       2.209  -2.528   9.600  1.00  0.00     0.031 C 
ATOM     41  C   UNL     1       5.656  -3.535   3.717  1.00  0.00     0.029 A 
ATOM     42  C   UNL     1       6.475  -3.269   4.896  1.00  0.00     0.049 A 
ATOM     43  H   UNL     1       5.813  -2.970   6.850  1.00  0.00     0.167 HD
ATOM     44  C   UNL     1       4.311  -2.285  10.898  1.00  0.00     0.034 A 
ATOM     45  C   UNL     1       7.821  -3.176   4.905  1.00  0.00     0.034 A 
ATOM     46  C   UNL     1       5.750  -2.257  11.020  1.00  0.00     0.049 A 
ATOM     47  C   UNL     1       8.533  -2.913   6.208  1.00  0.00     0.074 A 
ATOM     48  C   UNL     1       6.516  -2.107  12.165  1.00  0.00     0.029 A 
ATOM     49  N   UNL     1       6.644  -2.372   9.963  1.00  0.00    -0.354 N 
ATOM     50  N   UNL     1       8.026  -2.739   7.407  1.00  0.00    -0.248 NA
ATOM     51  C   UNL     1      10.000  -2.846   6.160  1.00  0.00     0.031 C 
ATOM     52  C   UNL     1       7.865  -2.062  11.792  1.00  0.00     0.029 A 
ATOM     53  C   UNL     1       7.948  -2.262  10.424  1.00  0.00     0.049 A 
ATOM     54  H   UNL     1       6.388  -2.511   9.022  1.00  0.00     0.167 HD
ATOM     55  C   UNL     1       9.115  -2.571   8.258  1.00  0.00     0.074 A 
ATOM     56  C   UNL     1      10.304  -2.680   7.439  1.00  0.00     0.031 C 
ATOM     57  C   UNL     1       9.130  -2.354   9.598  1.00  0.00     0.034 A 
BRANCH  44  58
ATOM     58  C   UNL     1       3.476  -2.044  12.135  1.00  0.00     0.023 A 
ATOM     59  C   UNL     1       2.602  -3.023  12.640  1.00  0.00     0.031 A 
ATOM     60  C   UNL     1       3.536  -0.809  12.806  1.00  0.00     0.131 A 
ATOM     61  C   UNL     1       1.768  -2.725  13.729  1.00  0.00     0.055 A 
ATOM     62  C   UNL     1       2.763  -0.548  13.941  1.00  0.00     0.041 A 
ATOM     63  F   UNL     1       4.338   0.172  12.364  1.00  0.00    -0.206 F 
ATOM     64  C   UNL     1       1.860  -1.503  14.399  1.00  0.00     0.022 A 
BRANCH  61  65
ATOM     65  S   UNL     1       0.457  -3.902  14.162  1.00  0.00     0.124 S 
ATOM     66  O   UNL     1      -0.294  -3.980  12.912  1.00  0.00    -0.237 OA
ATOM     67  O   UNL     1       1.212  -5.093  14.532  1.00  0.00    -0.237 OA
ATOM     68  O   UNL     1      -0.246  -3.242  15.261  1.00  0.00    -0.744 OA
ENDBRANCH  61  65
ENDBRANCH  44  58
BRANCH  45  69
ATOM     69  C   UNL     1       8.593  -3.317   3.637  1.00  0.00     0.023 A 
ATOM     70  C   UNL     1       9.479  -4.388   3.441  1.00  0.00     0.031 A 
ATOM     71  C   UNL     1       8.484  -2.356   2.616  1.00  0.00     0.131 A 
ATOM     72  C   UNL     1      10.254  -4.450   2.272  1.00  0.00     0.055 A 
ATOM     73  C   UNL     1       9.219  -2.450   1.433  1.00  0.00     0.041 A 
ATOM     74  F   UNL     1       7.648  -1.314   2.751  1.00  0.00    -0.206 F 
ATOM     75  C   UNL     1      10.120  -3.496   1.261  1.00  0.00     0.022 A 
BRANCH  72  76
ATOM     76  S   UNL     1      11.499  -5.761   2.123  1.00  0.00     0.124 S 
ATOM     77  O   UNL     1      12.341  -5.504   3.286  1.00  0.00    -0.237 OA
ATOM     78  O   UNL     1      10.679  -6.966   2.177  1.00  0.00    -0.237 OA
ATOM     79  O   UNL     1      12.123  -5.491   0.829  1.00  0.00    -0.744 OA
ENDBRANCH  72  76
ENDBRANCH  45  69
BRANCH  57  80
ATOM     80  C   UNL     1      10.482  -2.262  10.265  1.00  0.00     0.023 A 
ATOM     81  C   UNL     1      11.364  -1.197  10.009  1.00  0.00     0.031 A 
ATOM     82  C   UNL     1      10.899  -3.264  11.159  1.00  0.00     0.131 A 
ATOM     83  C   UNL     1      12.639  -1.188  10.597  1.00  0.00     0.055 A 
ATOM     84  C   UNL     1      12.145  -3.219  11.787  1.00  0.00     0.041 A 
ATOM     85  F   UNL     1      10.099  -4.305  11.440  1.00  0.00    -0.206 F 
ATOM     86  C   UNL     1      13.028  -2.184  11.496  1.00  0.00     0.022 A 
BRANCH  83  87
ATOM     87  S   UNL     1      13.820   0.097  10.101  1.00  0.00     0.124 S 
ATOM     88  O   UNL     1      13.916  -0.118   8.661  1.00  0.00    -0.237 OA
ATOM     89  O   UNL     1      13.143   1.321  10.518  1.00  0.00    -0.237 OA
ATOM     90  O   UNL     1      15.025  -0.233  10.859  1.00  0.00    -0.744 OA
ENDBRANCH  83  87
ENDBRANCH  57  80
ENDBRANCH  31  32
ENDBRANCH  23  26
ENDBRANCH  21  22
ENDBRANCH   1  21
TORSDOF 18
