REMARK SMILES O=CN1CC[NH+](C[C@@H](CC(=O)Nc2ccc(C(F)(F)F)nc2)C(=O)NCCCNC(=O)c2ccc(-c3c4nc(c(-c5cc(S(=O)(=O)[O-])ccc5F)c5ccc([nH]5)c(-c5cc(S(=O)(=O)[O-])ccc5F)c5nc(c(-c6cc(S(=O)(=O)[O-])ccc6F)c6ccc3[nH]6)C=C5)C=C4)cc2)CC1
REMARK SMILES IDX 26 1 25 2 23 3 24 4 8 6 7 7 6 8 1 9 2 10 3 11 4 12 96 13
REMARK SMILES IDX 5 14 95 15 9 17 10 18 11 19 12 20 13 22 14 23 22 24 15 25
REMARK SMILES IDX 21 26 16 27 17 28 18 29 19 30 20 31 27 32 28 33 29 34 30 35
REMARK SMILES IDX 31 37 32 38 33 39 94 40 34 41 93 42 35 43 36 44 37 45 87 46
REMARK SMILES IDX 38 47 92 48 86 49 88 50 39 51 91 52 85 53 84 54 40 56 72 57
REMARK SMILES IDX 52 58 71 59 53 60 56 61 70 62 89 63 54 64 55 65 69 67 90 68
REMARK SMILES IDX 57 69 41 70 42 71 50 72 43 73 49 74 51 75 48 76 44 77 45 78
REMARK SMILES IDX 46 79 47 80 73 81 74 82 82 83 75 84 81 85 83 86 80 87 76 88
REMARK SMILES IDX 77 89 78 90 79 91 58 92 59 93 67 94 60 95 66 96 68 97 65 98
REMARK SMILES IDX 61 99 62 100 63 101 64 102
REMARK H PARENT 25 5 6 16 12 21 29 36 88 55 56 66
REMARK Flexibility Score: inf
ROOT
ATOM      1  C   UNL     1       7.959   1.790   3.990  1.00  0.00     0.117 C 
ENDROOT
BRANCH   1   2
ATOM      2  N   UNL     1       7.442   0.512   4.375  1.00  0.00    -0.356 N 
ATOM      3  C   UNL     1       6.413  -0.140   3.761  1.00  0.00     0.229 C 
ATOM      4  O   UNL     1       6.174  -1.297   4.118  1.00  0.00    -0.275 OA
ATOM      5  H   UNL     1       7.864   0.068   5.146  1.00  0.00     0.163 HD
BRANCH   3   6
ATOM      6  C   UNL     1       5.490   0.566   2.732  1.00  0.00     0.142 C 
BRANCH   6   7
ATOM      7  C   UNL     1       4.246   1.052   3.487  1.00  0.00     0.276 C 
BRANCH   7   8
ATOM      8  N   UNL     1       3.094   1.719   2.864  1.00  0.00    -0.331 N 
ATOM      9  O   UNL     1       0.225  -1.458   0.063  1.00  0.00    -0.279 OA
ATOM     10  C   UNL     1       1.079  -0.611  -0.137  1.00  0.00     0.340 C 
ATOM     11  N   UNL     1       1.758   0.098   0.829  1.00  0.00    -0.334 N 
ATOM     12  C   UNL     1       2.901   0.915   0.469  1.00  0.00     0.180 C 
ATOM     13  C   UNL     1       1.570  -0.200   2.249  1.00  0.00     0.180 C 
ATOM     14  C   UNL     1       3.122   2.076   1.444  1.00  0.00     0.284 C 
ATOM     15  C   UNL     1       1.814   1.030   3.147  1.00  0.00     0.284 C 
ATOM     16  H   UNL     1       3.175   2.619   3.336  1.00  0.00     0.348 HD
ENDBRANCH   7   8
ENDBRANCH   6   7
BRANCH   6  17
ATOM     17  C   UNL     1       6.200   1.352   1.616  1.00  0.00     0.119 C 
BRANCH  17  18
ATOM     18  C   UNL     1       6.742   2.792   1.472  1.00  0.00     0.225 C 
ATOM     19  O   UNL     1       7.723   2.913   0.714  1.00  0.00    -0.275 OA
ATOM     20  N   UNL     1       6.266   3.978   1.918  1.00  0.00    -0.325 N 
ATOM     21  H   UNL     1       6.780   4.737   1.559  1.00  0.00     0.169 HD
BRANCH  20  22
ATOM     22  C   UNL     1       5.231   4.404   2.757  1.00  0.00     0.059 A 
ATOM     23  C   UNL     1       5.083   4.050   4.088  1.00  0.00     0.030 A 
ATOM     24  C   UNL     1       4.330   5.342   2.266  1.00  0.00     0.137 A 
ATOM     25  C   UNL     1       3.947   4.449   4.797  1.00  0.00     0.035 A 
ATOM     26  N   UNL     1       3.207   5.736   2.911  1.00  0.00    -0.250 NA
ATOM     27  C   UNL     1       2.984   5.221   4.154  1.00  0.00     0.144 A 
BRANCH  27  28
ATOM     28  C   UNL     1       1.644   5.452   4.838  1.00  0.00     0.433 C 
ATOM     29  F   UNL     1       1.645   6.522   5.681  1.00  0.00    -0.165 F 
ATOM     30  F   UNL     1       0.612   5.653   3.968  1.00  0.00    -0.165 F 
ATOM     31  F   UNL     1       1.258   4.385   5.605  1.00  0.00    -0.165 F 
ENDBRANCH  27  28
ENDBRANCH  20  22
ENDBRANCH  17  18
ENDBRANCH   6  17
ENDBRANCH   3   6
ENDBRANCH   1   2
BRANCH   1  32
ATOM     32  C   UNL     1       8.438   2.706   5.079  1.00  0.00     0.042 C 
BRANCH  32  33
ATOM     33  C   UNL     1       9.862   2.440   5.490  1.00  0.00     0.118 C 
BRANCH  33  34
ATOM     34  N   UNL     1      10.818   2.652   4.408  1.00  0.00    -0.352 N 
ATOM     35  C   UNL     1      11.790   3.609   4.224  1.00  0.00     0.251 C 
ATOM     36  H   UNL     1      10.757   1.993   3.679  1.00  0.00     0.163 HD
ATOM     37  O   UNL     1      12.374   3.664   3.145  1.00  0.00    -0.269 OA
BRANCH  35  38
ATOM     38  C   UNL     1      12.098   4.587   5.290  1.00  0.00     0.039 A 
ATOM     39  C   UNL     1      12.484   5.884   4.946  1.00  0.00     0.014 A 
ATOM     40  C   UNL     1      11.993   4.236   6.633  1.00  0.00     0.014 A 
ATOM     41  C   UNL     1      12.685   6.831   5.952  1.00  0.00     0.010 A 
ATOM     42  C   UNL     1      11.999   5.217   7.609  1.00  0.00     0.010 A 
ATOM     43  C   UNL     1      12.397   6.518   7.291  1.00  0.00    -0.014 A 
BRANCH  43  44
ATOM     44  C   UNL     1      12.581   7.504   8.385  1.00  0.00     0.031 A 
ATOM     45  C   UNL     1      13.509   7.186   9.532  1.00  0.00     0.074 A 
ATOM     46  C   UNL     1      11.889   8.659   8.366  1.00  0.00     0.049 A 
ATOM     47  N   UNL     1      13.789   7.896  10.594  1.00  0.00    -0.248 NA
ATOM     48  C   UNL     1      14.173   5.872   9.506  1.00  0.00     0.031 C 
ATOM     49  C   UNL     1      10.916   9.049   7.341  1.00  0.00     0.029 A 
ATOM     50  N   UNL     1      11.910   9.728   9.223  1.00  0.00    -0.354 N 
ATOM     51  C   UNL     1      14.647   7.111  11.358  1.00  0.00     0.074 A 
ATOM     52  C   UNL     1      14.744   5.830  10.697  1.00  0.00     0.031 C 
ATOM     53  C   UNL     1      10.490  10.296   7.592  1.00  0.00     0.029 A 
ATOM     54  C   UNL     1      11.116  10.775   8.818  1.00  0.00     0.049 A 
ATOM     55  H   UNL     1      12.442   9.744  10.052  1.00  0.00     0.167 HD
ATOM     56  C   UNL     1      15.337   7.440  12.478  1.00  0.00     0.034 A 
ATOM     57  C   UNL     1      10.928  11.989   9.371  1.00  0.00     0.034 A 
ATOM     58  C   UNL     1      15.237   8.729  13.113  1.00  0.00     0.049 A 
ATOM     59  C   UNL     1      11.684  12.329  10.630  1.00  0.00     0.074 A 
ATOM     60  C   UNL     1      15.902   9.196  14.232  1.00  0.00     0.029 A 
ATOM     61  N   UNL     1      14.413   9.763  12.681  1.00  0.00    -0.354 N 
ATOM     62  N   UNL     1      12.532  11.594  11.313  1.00  0.00    -0.248 NA
ATOM     63  C   UNL     1      11.468  13.672  11.178  1.00  0.00     0.031 C 
ATOM     64  C   UNL     1      15.426  10.481  14.519  1.00  0.00     0.029 A 
ATOM     65  C   UNL     1      14.532  10.854  13.527  1.00  0.00     0.049 A 
ATOM     66  H   UNL     1      13.829   9.724  11.890  1.00  0.00     0.167 HD
ATOM     67  C   UNL     1      12.981  12.404  12.353  1.00  0.00     0.074 A 
ATOM     68  C   UNL     1      12.326  13.687  12.186  1.00  0.00     0.031 C 
ATOM     69  C   UNL     1      13.856  12.120  13.354  1.00  0.00     0.034 A 
BRANCH  56  70
ATOM     70  C   UNL     1      16.233   6.376  13.074  1.00  0.00     0.023 A 
ATOM     71  C   UNL     1      17.285   5.800  12.335  1.00  0.00     0.031 A 
ATOM     72  C   UNL     1      15.995   5.877  14.365  1.00  0.00     0.131 A 
ATOM     73  C   UNL     1      17.981   4.695  12.846  1.00  0.00     0.055 A 
ATOM     74  C   UNL     1      16.762   4.844  14.910  1.00  0.00     0.041 A 
ATOM     75  F   UNL     1      14.992   6.363  15.113  1.00  0.00    -0.206 F 
ATOM     76  C   UNL     1      17.748   4.231  14.141  1.00  0.00     0.022 A 
BRANCH  73  77
ATOM     77  S   UNL     1      19.051   3.753  11.722  1.00  0.00     0.124 S 
ATOM     78  O   UNL     1      18.109   3.371  10.672  1.00  0.00    -0.237 OA
ATOM     79  O   UNL     1      20.060   4.737  11.348  1.00  0.00    -0.237 OA
ATOM     80  O   UNL     1      19.530   2.648  12.550  1.00  0.00    -0.744 OA
ENDBRANCH  73  77
ENDBRANCH  56  70
BRANCH  57  81
ATOM     81  C   UNL     1      10.019  12.982   8.729  1.00  0.00     0.023 A 
ATOM     82  C   UNL     1      10.518  14.198   8.232  1.00  0.00     0.031 A 
ATOM     83  C   UNL     1       8.636  12.751   8.634  1.00  0.00     0.131 A 
ATOM     84  C   UNL     1       9.635  15.157   7.713  1.00  0.00     0.055 A 
ATOM     85  C   UNL     1       7.769  13.684   8.063  1.00  0.00     0.041 A 
ATOM     86  F   UNL     1       8.107  11.602   9.085  1.00  0.00    -0.206 F 
ATOM     87  C   UNL     1       8.266  14.903   7.611  1.00  0.00     0.022 A 
BRANCH  84  88
ATOM     88  S   UNL     1      10.294  16.783   7.251  1.00  0.00     0.124 S 
ATOM     89  O   UNL     1      10.878  17.234   8.509  1.00  0.00    -0.237 OA
ATOM     90  O   UNL     1      11.237  16.438   6.192  1.00  0.00    -0.237 OA
ATOM     91  O   UNL     1       9.110  17.517   6.812  1.00  0.00    -0.744 OA
ENDBRANCH  84  88
ENDBRANCH  57  81
BRANCH  69  92
ATOM     92  C   UNL     1      14.182  13.243  14.311  1.00  0.00     0.023 A 
ATOM     93  C   UNL     1      13.198  13.829  15.126  1.00  0.00     0.031 A 
ATOM     94  C   UNL     1      15.485  13.768  14.369  1.00  0.00     0.131 A 
ATOM     95  C   UNL     1      13.508  14.964  15.888  1.00  0.00     0.055 A 
ATOM     96  C   UNL     1      15.808  14.844  15.197  1.00  0.00     0.041 A 
ATOM     97  F   UNL     1      16.467  13.250  13.614  1.00  0.00    -0.206 F 
ATOM     98  C   UNL     1      14.811  15.463  15.945  1.00  0.00     0.022 A 
BRANCH  95  99
ATOM     99  S   UNL     1      12.151  15.871  16.678  1.00  0.00     0.124 S 
ATOM    100  O   UNL     1      11.268  16.139  15.548  1.00  0.00    -0.237 OA
ATOM    101  O   UNL     1      11.659  14.906  17.656  1.00  0.00    -0.237 OA
ATOM    102  O   UNL     1      12.809  17.047  17.244  1.00  0.00    -0.744 OA
ENDBRANCH  95  99
ENDBRANCH  69  92
ENDBRANCH  43  44
ENDBRANCH  35  38
ENDBRANCH  33  34
ENDBRANCH  32  33
ENDBRANCH   1  32
TORSDOF 19
