REMARK SMILES COc1ccc(/C=C/c2cc(OC)cc(OC)c2/C=C/C(=O)NCCCNC(=O)c2ccc(-c3c4nc(c(-c5cc(S(=O)(=O)[O-])ccc5F)c5ccc([nH]5)c(-c5cc(S(=O)(=O)[O-])ccc5F)c5nc(c(-c6cc(S(=O)(=O)[O-])ccc6F)c6ccc3[nH]6)C=C5)C=C4)cc2)cc1
REMARK SMILES IDX 24 1 23 2 21 3 22 4 20 6 19 7 18 8 9 9 10 10 11 11 15 12
REMARK SMILES IDX 14 13 8 14 7 15 6 16 3 17 4 18 94 19 5 20 93 21 2 22 1 23
REMARK SMILES IDX 12 24 13 25 16 26 17 27 25 28 26 29 27 30 28 31 29 33 30 34
REMARK SMILES IDX 31 35 92 36 32 37 91 38 33 39 34 40 35 41 85 42 36 43 90 44
REMARK SMILES IDX 84 45 86 46 37 47 89 48 83 49 82 50 38 52 70 53 50 54 69 55
REMARK SMILES IDX 51 56 54 57 68 58 87 59 52 60 53 61 67 63 88 64 55 65 39 66
REMARK SMILES IDX 40 67 48 68 41 69 47 70 49 71 46 72 42 73 43 74 44 75 45 76
REMARK SMILES IDX 71 77 72 78 80 79 73 80 79 81 81 82 78 83 74 84 75 85 76 86
REMARK SMILES IDX 77 87 56 88 57 89 65 90 58 91 64 92 66 93 63 94 59 95 60 96
REMARK SMILES IDX 61 97 62 98
REMARK H PARENT 23 5 27 32 86 51 54 62
REMARK Flexibility Score: inf
ROOT
ATOM      1  C   UNL     1       4.820   4.093   3.628  1.00  0.00     0.118 C 
ENDROOT
BRANCH   1   2
ATOM      2  N   UNL     1       5.901   5.004   3.953  1.00  0.00    -0.352 N 
ATOM      3  C   UNL     1       6.109   5.681   5.111  1.00  0.00     0.244 C 
ATOM      4  O   UNL     1       7.126   6.345   5.284  1.00  0.00    -0.270 OA
ATOM      5  H   UNL     1       6.568   5.150   3.244  1.00  0.00     0.163 HD
BRANCH   3   6
ATOM      6  C   UNL     1       5.108   5.571   6.188  1.00  0.00     0.072 C 
ATOM      7  C   UNL     1       3.919   6.176   6.056  1.00  0.00     0.018 C 
BRANCH   7   8
ATOM      8  C   UNL     1       2.953   6.261   7.163  1.00  0.00     0.024 A 
ATOM      9  C   UNL     1       1.709   5.585   7.030  1.00  0.00    -0.011 A 
ATOM     10  C   UNL     1       0.760   5.644   8.065  1.00  0.00     0.055 A 
ATOM     11  C   UNL     1       1.000   6.389   9.214  1.00  0.00     0.123 A 
ATOM     12  C   UNL     1       3.197   7.000   8.343  1.00  0.00     0.130 A 
ATOM     13  C   UNL     1       2.220   7.041   9.354  1.00  0.00     0.093 A 
BRANCH   9  14
ATOM     14  C   UNL     1       1.294   4.853   5.816  1.00  0.00     0.009 C 
ATOM     15  C   UNL     1       1.633   3.582   5.541  1.00  0.00     0.009 C 
BRANCH  15  16
ATOM     16  C   UNL     1       1.224   2.864   4.315  1.00  0.00    -0.025 A 
ATOM     17  C   UNL     1       0.567   1.514   1.915  1.00  0.00     0.118 A 
ATOM     18  C   UNL     1      -0.259   2.520   2.414  1.00  0.00     0.047 A 
ATOM     19  C   UNL     1       1.718   1.170   2.619  1.00  0.00     0.047 A 
ATOM     20  C   UNL     1       0.057   3.179   3.608  1.00  0.00     0.012 A 
ATOM     21  C   UNL     1       2.033   1.828   3.819  1.00  0.00     0.012 A 
BRANCH  17  22
ATOM     22  O   UNL     1       0.176   0.980   0.720  1.00  0.00    -0.497 OA
ATOM     23  C   UNL     1       0.574  -0.363   0.472  1.00  0.00     0.278 C 
ENDBRANCH  17  22
ENDBRANCH  15  16
ENDBRANCH   9  14
BRANCH  11  24
ATOM     24  O   UNL     1      -0.013   6.404  10.134  1.00  0.00    -0.497 OA
ATOM     25  C   UNL     1      -0.015   7.510  11.032  1.00  0.00     0.278 C 
ENDBRANCH  11  24
BRANCH  12  26
ATOM     26  O   UNL     1       4.308   7.710   8.720  1.00  0.00    -0.496 OA
ATOM     27  C   UNL     1       5.177   8.278   7.752  1.00  0.00     0.278 C 
ENDBRANCH  12  26
ENDBRANCH   7   8
ENDBRANCH   3   6
ENDBRANCH   1   2
BRANCH   1  28
ATOM     28  C   UNL     1       4.015   4.577   2.431  1.00  0.00     0.042 C 
BRANCH  28  29
ATOM     29  C   UNL     1       4.760   4.437   1.109  1.00  0.00     0.118 C 
BRANCH  29  30
ATOM     30  N   UNL     1       5.107   3.052   0.810  1.00  0.00    -0.352 N 
ATOM     31  C   UNL     1       4.612   2.199  -0.147  1.00  0.00     0.251 C 
ATOM     32  H   UNL     1       5.808   2.667   1.385  1.00  0.00     0.163 HD
ATOM     33  O   UNL     1       4.837   0.998  -0.056  1.00  0.00    -0.269 OA
BRANCH  31  34
ATOM     34  C   UNL     1       3.798   2.729  -1.263  1.00  0.00     0.039 A 
ATOM     35  C   UNL     1       2.681   2.007  -1.688  1.00  0.00     0.014 A 
ATOM     36  C   UNL     1       4.138   3.927  -1.894  1.00  0.00     0.014 A 
ATOM     37  C   UNL     1       1.846   2.534  -2.674  1.00  0.00     0.010 A 
ATOM     38  C   UNL     1       3.269   4.487  -2.823  1.00  0.00     0.010 A 
ATOM     39  C   UNL     1       2.112   3.798  -3.214  1.00  0.00    -0.014 A 
BRANCH  39  40
ATOM     40  C   UNL     1       1.210   4.423  -4.210  1.00  0.00     0.031 A 
ATOM     41  C   UNL     1       1.713   4.670  -5.603  1.00  0.00     0.074 A 
ATOM     42  C   UNL     1      -0.014   4.839  -3.832  1.00  0.00     0.049 A 
ATOM     43  N   UNL     1       1.159   5.340  -6.578  1.00  0.00    -0.248 NA
ATOM     44  C   UNL     1       3.035   4.112  -5.927  1.00  0.00     0.031 C 
ATOM     45  C   UNL     1      -0.595   4.661  -2.499  1.00  0.00     0.029 A 
ATOM     46  N   UNL     1      -0.983   5.517  -4.527  1.00  0.00    -0.354 N 
ATOM     47  C   UNL     1       2.072   5.301  -7.627  1.00  0.00     0.074 A 
ATOM     48  C   UNL     1       3.236   4.588  -7.146  1.00  0.00     0.031 C 
ATOM     49  C   UNL     1      -1.820   5.211  -2.477  1.00  0.00     0.029 A 
ATOM     50  C   UNL     1      -2.091   5.824  -3.772  1.00  0.00     0.049 A 
ATOM     51  H   UNL     1      -0.894   5.761  -5.477  1.00  0.00     0.167 HD
ATOM     52  C   UNL     1       1.939   5.801  -8.880  1.00  0.00     0.034 A 
ATOM     53  C   UNL     1      -3.187   6.545  -4.085  1.00  0.00     0.034 A 
ATOM     54  C   UNL     1       0.763   6.500  -9.335  1.00  0.00     0.049 A 
ATOM     55  C   UNL     1      -3.290   7.135  -5.469  1.00  0.00     0.074 A 
ATOM     56  C   UNL     1       0.493   7.006 -10.594  1.00  0.00     0.029 A 
ATOM     57  N   UNL     1      -0.337   6.800  -8.541  1.00  0.00    -0.354 N 
ATOM     58  N   UNL     1      -2.435   7.061  -6.464  1.00  0.00    -0.248 NA
ATOM     59  C   UNL     1      -4.502   7.905  -5.772  1.00  0.00     0.031 C 
ATOM     60  C   UNL     1      -0.740   7.666 -10.544  1.00  0.00     0.029 A 
ATOM     61  C   UNL     1      -1.272   7.515  -9.272  1.00  0.00     0.049 A 
ATOM     62  H   UNL     1      -0.438   6.543  -7.596  1.00  0.00     0.167 HD
ATOM     63  C   UNL     1      -3.018   7.759  -7.517  1.00  0.00     0.074 A 
ATOM     64  C   UNL     1      -4.303   8.230  -7.041  1.00  0.00     0.031 C 
ATOM     65  C   UNL     1      -2.539   7.989  -8.767  1.00  0.00     0.034 A 
BRANCH  52  66
ATOM     66  C   UNL     1       3.109   5.634  -9.818  1.00  0.00     0.023 A 
ATOM     67  C   UNL     1       3.557   4.362 -10.219  1.00  0.00     0.031 A 
ATOM     68  C   UNL     1       3.817   6.757 -10.281  1.00  0.00     0.131 A 
ATOM     69  C   UNL     1       4.724   4.241 -10.988  1.00  0.00     0.055 A 
ATOM     70  C   UNL     1       4.931   6.633 -11.114  1.00  0.00     0.041 A 
ATOM     71  F   UNL     1       3.450   7.995  -9.914  1.00  0.00    -0.206 F 
ATOM     72  C   UNL     1       5.401   5.369 -11.459  1.00  0.00     0.022 A 
BRANCH  69  73
ATOM     73  S   UNL     1       5.428   2.588 -11.238  1.00  0.00     0.124 S 
ATOM     74  O   UNL     1       5.675   2.162  -9.862  1.00  0.00    -0.237 OA
ATOM     75  O   UNL     1       4.356   1.891 -11.940  1.00  0.00    -0.237 OA
ATOM     76  O   UNL     1       6.630   2.843 -12.029  1.00  0.00    -0.744 OA
ENDBRANCH  69  73
ENDBRANCH  52  66
BRANCH  53  77
ATOM     77  C   UNL     1      -4.254   6.780  -3.072  1.00  0.00     0.023 A 
ATOM     78  C   UNL     1      -5.548   6.267  -3.252  1.00  0.00     0.031 A 
ATOM     79  C   UNL     1      -4.008   7.558  -1.926  1.00  0.00     0.131 A 
ATOM     80  C   UNL     1      -6.558   6.572  -2.326  1.00  0.00     0.055 A 
ATOM     81  C   UNL     1      -5.003   7.817  -0.981  1.00  0.00     0.041 A 
ATOM     82  F   UNL     1      -2.788   8.071  -1.702  1.00  0.00    -0.206 F 
ATOM     83  C   UNL     1      -6.292   7.333  -1.186  1.00  0.00     0.022 A 
BRANCH  80  84
ATOM     84  S   UNL     1      -8.252   6.025  -2.676  1.00  0.00     0.124 S 
ATOM     85  O   UNL     1      -8.506   6.652  -3.969  1.00  0.00    -0.237 OA
ATOM     86  O   UNL     1      -8.105   4.574  -2.684  1.00  0.00    -0.237 OA
ATOM     87  O   UNL     1      -9.022   6.566  -1.558  1.00  0.00    -0.744 OA
ENDBRANCH  80  84
ENDBRANCH  53  77
BRANCH  65  88
ATOM     88  C   UNL     1      -3.430   8.761  -9.705  1.00  0.00     0.023 A 
ATOM     89  C   UNL     1      -3.691  10.128  -9.512  1.00  0.00     0.031 A 
ATOM     90  C   UNL     1      -4.021   8.120 -10.808  1.00  0.00     0.131 A 
ATOM     91  C   UNL     1      -4.557  10.802 -10.385  1.00  0.00     0.055 A 
ATOM     92  C   UNL     1      -4.839   8.808 -11.704  1.00  0.00     0.041 A 
ATOM     93  F   UNL     1      -3.805   6.814 -11.036  1.00  0.00    -0.206 F 
ATOM     94  C   UNL     1      -5.119  10.155 -11.489  1.00  0.00     0.022 A 
BRANCH  91  95
ATOM     95  S   UNL     1      -4.995  12.524 -10.021  1.00  0.00     0.124 S 
ATOM     96  O   UNL     1      -5.654  12.402  -8.725  1.00  0.00    -0.237 OA
ATOM     97  O   UNL     1      -3.693  13.184 -10.014  1.00  0.00    -0.237 OA
ATOM     98  O   UNL     1      -5.871  12.897 -11.130  1.00  0.00    -0.744 OA
ENDBRANCH  91  95
ENDBRANCH  65  88
ENDBRANCH  39  40
ENDBRANCH  31  34
ENDBRANCH  29  30
ENDBRANCH  28  29
ENDBRANCH   1  28
TORSDOF 19
