REMARK SMILES CCOC(=O)c1ccc(NC(=O)[C@H]2CC=CC[C@@]2(C)C(=O)NCCCNC(=O)c2ccc(-c3c4nc(c(-c5cc(S(=O)(=O)[O-])ccc5F)c5ccc([nH]5)c(-c5cc(S(=O)(=O)[O-])ccc5F)c5nc(c(-c6cc(S(=O)(=O)[O-])ccc6F)c6ccc3[nH]6)C=C5)C=C4)cc2)cc1
REMARK SMILES IDX 23 1 22 2 20 3 21 4 18 6 13 7 14 8 15 9 17 10 19 11 16 12
REMARK SMILES IDX 11 13 10 14 12 16 9 17 6 18 7 19 93 20 8 21 92 22 4 23 5 24
REMARK SMILES IDX 3 25 2 26 1 27 24 28 25 29 26 30 27 31 28 33 29 34 30 35
REMARK SMILES IDX 91 36 31 37 90 38 32 39 33 40 34 41 84 42 35 43 89 44 83 45
REMARK SMILES IDX 85 46 36 47 88 48 82 49 81 50 37 52 69 53 49 54 68 55 50 56
REMARK SMILES IDX 53 57 67 58 86 59 51 60 52 61 66 63 87 64 54 65 38 66 39 67
REMARK SMILES IDX 47 68 40 69 46 70 48 71 45 72 41 73 42 74 43 75 44 76 70 77
REMARK SMILES IDX 71 78 79 79 72 80 78 81 80 82 77 83 73 84 74 85 75 86 76 87
REMARK SMILES IDX 55 88 56 89 64 90 57 91 63 92 65 93 62 94 58 95 59 96 60 97
REMARK SMILES IDX 61 98
REMARK H PARENT 22 5 10 15 26 32 85 51 53 62
REMARK Flexibility Score: inf
ROOT
ATOM      1  C   UNL     1       3.591  -7.850   1.696  1.00  0.00     0.117 C 
ENDROOT
BRANCH   1   2
ATOM      2  N   UNL     1       3.662  -6.429   1.397  1.00  0.00    -0.356 N 
ATOM      3  C   UNL     1       4.710  -5.596   1.172  1.00  0.00     0.227 C 
ATOM      4  O   UNL     1       4.445  -4.390   1.165  1.00  0.00    -0.274 OA
ATOM      5  H   UNL     1       2.784  -5.987   1.348  1.00  0.00     0.163 HD
BRANCH   3   6
ATOM      6  C   UNL     1       6.157  -6.091   1.034  1.00  0.00     0.062 C 
ATOM      7  C   UNL     1       6.352  -7.348   0.132  1.00  0.00     0.098 C 
ATOM      8  C   UNL     1       7.859  -7.681  -0.050  1.00  0.00     0.041 C 
ATOM      9  C   UNL     1       8.671  -6.503  -0.468  1.00  0.00    -0.030 C 
ATOM     10  C   UNL     1       7.065  -4.893   0.578  1.00  0.00     0.044 C 
ATOM     11  C   UNL     1       6.617  -6.403   2.495  1.00  0.00     0.023 C 
ATOM     12  C   UNL     1       8.304  -5.248  -0.191  1.00  0.00    -0.030 C 
BRANCH   7  13
ATOM     13  C   UNL     1       5.612  -7.746  -1.179  1.00  0.00     0.228 C 
ATOM     14  N   UNL     1       4.497  -7.242  -1.749  1.00  0.00    -0.326 N 
ATOM     15  H   UNL     1       3.969  -7.951  -2.182  1.00  0.00     0.169 HD
ATOM     16  O   UNL     1       5.935  -8.838  -1.691  1.00  0.00    -0.274 OA
BRANCH  14  17
ATOM     17  C   UNL     1       3.884  -5.999  -1.895  1.00  0.00     0.041 A 
ATOM     18  C   UNL     1       2.504  -3.577  -2.202  1.00  0.00     0.060 A 
ATOM     19  C   UNL     1       3.882  -3.586  -1.962  1.00  0.00     0.018 A 
ATOM     20  C   UNL     1       1.822  -4.781  -2.372  1.00  0.00     0.018 A 
ATOM     21  C   UNL     1       4.570  -4.798  -1.835  1.00  0.00     0.027 A 
ATOM     22  C   UNL     1       2.520  -5.988  -2.235  1.00  0.00     0.027 A 
BRANCH  18  23
ATOM     23  C   UNL     1       1.829  -2.268  -2.308  1.00  0.00     0.338 C 
ATOM     24  O   UNL     1       2.291  -1.329  -2.933  1.00  0.00    -0.246 OA
BRANCH  23  25
ATOM     25  O   UNL     1       0.730  -2.260  -1.511  1.00  0.00    -0.462 OA
BRANCH  25  26
ATOM     26  C   UNL     1       0.131  -0.967  -1.320  1.00  0.00     0.230 C 
ATOM     27  C   UNL     1       0.782  -0.262  -0.141  1.00  0.00     0.049 C 
ENDBRANCH  25  26
ENDBRANCH  23  25
ENDBRANCH  18  23
ENDBRANCH  14  17
ENDBRANCH   7  13
ENDBRANCH   3   6
ENDBRANCH   1   2
BRANCH   1  28
ATOM     28  C   UNL     1       2.225  -8.229   2.245  1.00  0.00     0.042 C 
BRANCH  28  29
ATOM     29  C   UNL     1       1.192  -8.370   1.134  1.00  0.00     0.118 C 
BRANCH  29  30
ATOM     30  N   UNL     1       1.241  -9.687   0.513  1.00  0.00    -0.352 N 
ATOM     31  C   UNL     1       0.413 -10.774   0.680  1.00  0.00     0.251 C 
ATOM     32  H   UNL     1       1.980  -9.821  -0.124  1.00  0.00     0.163 HD
ATOM     33  O   UNL     1       0.767 -11.868   0.248  1.00  0.00    -0.269 OA
BRANCH  31  34
ATOM     34  C   UNL     1      -0.873 -10.639   1.403  1.00  0.00     0.039 A 
ATOM     35  C   UNL     1      -1.262 -11.646   2.289  1.00  0.00     0.014 A 
ATOM     36  C   UNL     1      -1.702  -9.531   1.208  1.00  0.00     0.014 A 
ATOM     37  C   UNL     1      -2.433 -11.498   3.037  1.00  0.00     0.010 A 
ATOM     38  C   UNL     1      -2.811  -9.336   2.027  1.00  0.00     0.010 A 
ATOM     39  C   UNL     1      -3.194 -10.320   2.949  1.00  0.00    -0.014 A 
BRANCH  39  40
ATOM     40  C   UNL     1      -4.376 -10.106   3.826  1.00  0.00     0.031 A 
ATOM     41  C   UNL     1      -5.751  -9.930   3.239  1.00  0.00     0.074 A 
ATOM     42  C   UNL     1      -4.199 -10.018   5.160  1.00  0.00     0.049 A 
ATOM     43  N   UNL     1      -6.895  -9.747   3.848  1.00  0.00    -0.248 NA
ATOM     44  C   UNL     1      -5.846  -9.923   1.772  1.00  0.00     0.031 C 
ATOM     45  C   UNL     1      -2.908 -10.096   5.848  1.00  0.00     0.029 A 
ATOM     46  N   UNL     1      -5.105  -9.851   6.176  1.00  0.00    -0.354 N 
ATOM     47  C   UNL     1      -7.843  -9.591   2.842  1.00  0.00     0.074 A 
ATOM     48  C   UNL     1      -7.122  -9.625   1.586  1.00  0.00     0.031 C 
ATOM     49  C   UNL     1      -3.112 -10.033   7.173  1.00  0.00     0.029 A 
ATOM     50  C   UNL     1      -4.538  -9.871   7.429  1.00  0.00     0.049 A 
ATOM     51  H   UNL     1      -6.070  -9.729   6.023  1.00  0.00     0.167 HD
ATOM     52  C   UNL     1      -9.190  -9.460   2.951  1.00  0.00     0.034 A 
ATOM     53  C   UNL     1      -5.104  -9.781   8.648  1.00  0.00     0.034 A 
ATOM     54  C   UNL     1      -9.893  -9.437   4.212  1.00  0.00     0.049 A 
ATOM     55  C   UNL     1      -6.599  -9.643   8.748  1.00  0.00     0.074 A 
ATOM     56  C   UNL     1     -11.258  -9.388   4.441  1.00  0.00     0.029 A 
ATOM     57  N   UNL     1      -9.286  -9.449   5.463  1.00  0.00    -0.354 N 
ATOM     58  N   UNL     1      -7.492  -9.578   7.787  1.00  0.00    -0.248 NA
ATOM     59  C   UNL     1      -7.161  -9.582  10.102  1.00  0.00     0.031 C 
ATOM     60  C   UNL     1     -11.471  -9.298   5.822  1.00  0.00     0.029 A 
ATOM     61  C   UNL     1     -10.245  -9.369   6.464  1.00  0.00     0.049 A 
ATOM     62  H   UNL     1      -8.315  -9.506   5.617  1.00  0.00     0.167 HD
ATOM     63  C   UNL     1      -8.726  -9.488   8.424  1.00  0.00     0.074 A 
ATOM     64  C   UNL     1      -8.460  -9.537   9.849  1.00  0.00     0.031 C 
ATOM     65  C   UNL     1      -9.967  -9.379   7.882  1.00  0.00     0.034 A 
BRANCH  52  66
ATOM     66  C   UNL     1      -9.974  -9.303   1.666  1.00  0.00     0.023 A 
ATOM     67  C   UNL     1      -9.963 -10.294   0.667  1.00  0.00     0.031 A 
ATOM     68  C   UNL     1     -10.698  -8.125   1.410  1.00  0.00     0.131 A 
ATOM     69  C   UNL     1     -10.572 -10.048  -0.573  1.00  0.00     0.055 A 
ATOM     70  C   UNL     1     -11.382  -7.926   0.208  1.00  0.00     0.041 A 
ATOM     71  F   UNL     1     -10.733  -7.133   2.314  1.00  0.00    -0.206 F 
ATOM     72  C   UNL     1     -11.304  -8.882  -0.801  1.00  0.00     0.022 A 
BRANCH  69  73
ATOM     73  S   UNL     1     -10.238 -11.193  -1.941  1.00  0.00     0.124 S 
ATOM     74  O   UNL     1      -8.778 -11.167  -1.998  1.00  0.00    -0.237 OA
ATOM     75  O   UNL     1     -10.838 -12.434  -1.467  1.00  0.00    -0.237 OA
ATOM     76  O   UNL     1     -10.908 -10.570  -3.081  1.00  0.00    -0.744 OA
ENDBRANCH  69  73
ENDBRANCH  52  66
BRANCH  53  77
ATOM     77  C   UNL     1      -4.260  -9.845   9.873  1.00  0.00     0.023 A 
ATOM     78  C   UNL     1      -4.349 -10.939  10.748  1.00  0.00     0.031 A 
ATOM     79  C   UNL     1      -3.368  -8.809  10.196  1.00  0.00     0.131 A 
ATOM     80  C   UNL     1      -3.585 -10.956  11.925  1.00  0.00     0.055 A 
ATOM     81  C   UNL     1      -2.578  -8.850  11.346  1.00  0.00     0.041 A 
ATOM     82  F   UNL     1      -3.239  -7.747   9.384  1.00  0.00    -0.206 F 
ATOM     83  C   UNL     1      -2.692  -9.924  12.224  1.00  0.00     0.022 A 
BRANCH  80  84
ATOM     84  S   UNL     1      -3.815 -12.326  13.090  1.00  0.00     0.124 S 
ATOM     85  O   UNL     1      -5.223 -12.184  13.444  1.00  0.00    -0.237 OA
ATOM     86  O   UNL     1      -3.473 -13.483  12.269  1.00  0.00    -0.237 OA
ATOM     87  O   UNL     1      -2.868 -12.024  14.161  1.00  0.00    -0.744 OA
ENDBRANCH  80  84
ENDBRANCH  53  77
BRANCH  65  88
ATOM     88  C   UNL     1     -11.123  -9.321   8.853  1.00  0.00     0.023 A 
ATOM     89  C   UNL     1     -11.275  -8.252   9.755  1.00  0.00     0.031 A 
ATOM     90  C   UNL     1     -12.051 -10.376   8.919  1.00  0.00     0.131 A 
ATOM     91  C   UNL     1     -12.276  -8.300  10.736  1.00  0.00     0.055 A 
ATOM     92  C   UNL     1     -13.089 -10.384   9.852  1.00  0.00     0.041 A 
ATOM     93  F   UNL     1     -11.956 -11.424   8.086  1.00  0.00    -0.206 F 
ATOM     94  C   UNL     1     -13.194  -9.352  10.781  1.00  0.00     0.022 A 
BRANCH  91  95
ATOM     95  S   UNL     1     -12.276  -7.038  12.039  1.00  0.00     0.124 S 
ATOM     96  O   UNL     1     -10.925  -7.158  12.579  1.00  0.00    -0.237 OA
ATOM     97  O   UNL     1     -12.557  -5.818  11.290  1.00  0.00    -0.237 OA
ATOM     98  O   UNL     1     -13.343  -7.473  12.939  1.00  0.00    -0.744 OA
ENDBRANCH  91  95
ENDBRANCH  65  88
ENDBRANCH  39  40
ENDBRANCH  31  34
ENDBRANCH  29  30
ENDBRANCH  28  29
ENDBRANCH   1  28
TORSDOF 18
