REMARK SMILES Cc1cccc(-n2c(C)cc(/C=N\c3ccc(O)c(C(=O)NCCCNC(=O)c4ccc(-c5c6nc(c(-c7cc(S(=O)(=O)[O-])ccc7F)c7ccc([nH]7)c(-c7cc(S(=O)(=O)[O-])ccc7F)c7nc(c(-c8cc(S(=O)(=O)[O-])ccc8F)c8ccc5[nH]8)C=C7)C=C6)cc4)c3)c2C)c1
REMARK SMILES IDX 24 1 23 2 22 3 20 4 21 5 19 7 14 8 15 9 92 10 16 11 17 12
REMARK SMILES IDX 13 13 12 14 11 15 7 16 8 17 93 18 9 19 10 20 94 21 6 22 1 23
REMARK SMILES IDX 2 24 3 25 95 26 4 27 5 28 18 29 25 31 26 32 27 33 28 35
REMARK SMILES IDX 29 36 30 37 91 38 31 39 90 40 32 41 33 42 34 43 84 44 35 45
REMARK SMILES IDX 89 46 83 47 85 48 36 49 88 50 82 51 81 52 37 54 69 55 49 56
REMARK SMILES IDX 68 57 50 58 53 59 67 60 86 61 51 62 52 63 66 65 87 66 54 67
REMARK SMILES IDX 38 68 39 69 47 70 40 71 46 72 48 73 45 74 41 75 42 76 43 77
REMARK SMILES IDX 44 78 70 79 71 80 79 81 72 82 78 83 80 84 77 85 73 86 74 87
REMARK SMILES IDX 75 88 76 89 55 90 56 91 64 92 57 93 63 94 65 95 62 96 58 97
REMARK SMILES IDX 59 98 60 99 61 100
REMARK H PARENT 22 6 18 30 26 34 85 53 53 64
REMARK Flexibility Score: inf
ROOT
ATOM      1  C   UNL     1      -3.469  -1.731   6.964  1.00  0.00     0.042 C 
ENDROOT
BRANCH   1   2
ATOM      2  C   UNL     1      -3.697  -1.646   5.475  1.00  0.00     0.118 C 
BRANCH   2   3
ATOM      3  N   UNL     1      -4.918  -0.956   5.095  1.00  0.00    -0.352 N 
ATOM      4  C   UNL     1      -5.237   0.262   4.547  1.00  0.00     0.255 C 
ATOM      5  O   UNL     1      -6.440   0.468   4.357  1.00  0.00    -0.269 OA
ATOM      6  H   UNL     1      -5.720  -1.498   5.276  1.00  0.00     0.163 HD
BRANCH   4   7
ATOM      7  C   UNL     1      -4.279   1.360   4.191  1.00  0.00     0.083 A 
ATOM      8  C   UNL     1      -4.055   3.602   3.230  1.00  0.00     0.064 A 
ATOM      9  C   UNL     1      -2.698   3.614   3.527  1.00  0.00     0.032 A 
ATOM     10  C   UNL     1      -4.854   2.559   3.723  1.00  0.00     0.046 A 
ATOM     11  C   UNL     1      -2.103   2.450   3.976  1.00  0.00     0.049 A 
ATOM     12  C   UNL     1      -2.885   1.304   4.121  1.00  0.00     0.128 A 
BRANCH   8  13
ATOM     13  N   UNL     1      -4.614   4.565   2.386  1.00  0.00    -0.256 NA
ATOM     14  C   UNL     1      -4.252   4.684   1.137  1.00  0.00     0.121 C 
BRANCH  14  15
ATOM     15  C   UNL     1      -3.262   3.946   0.337  1.00  0.00     0.014 A 
ATOM     16  N   UNL     1      -1.873   2.404  -0.583  1.00  0.00    -0.318 N 
ATOM     17  C   UNL     1      -1.607   3.613  -1.207  1.00  0.00     0.021 A 
ATOM     18  C   UNL     1      -3.021   2.577   0.201  1.00  0.00     0.029 A 
ATOM     19  C   UNL     1      -0.675   3.755  -2.361  1.00  0.00     0.065 C 
ATOM     20  C   UNL     1      -2.410   4.571  -0.622  1.00  0.00     0.033 A 
ATOM     21  C   UNL     1      -3.740   1.420   0.795  1.00  0.00     0.065 C 
BRANCH  16  22
ATOM     22  C   UNL     1      -1.072   1.221  -0.676  1.00  0.00     0.046 A 
ATOM     23  C   UNL     1       2.551   0.196  -0.020  1.00  0.00     0.044 C 
ATOM     24  C   UNL     1       1.087   0.140  -0.346  1.00  0.00    -0.049 A 
ATOM     25  C   UNL     1       0.475  -1.107  -0.517  1.00  0.00     0.003 A 
ATOM     26  C   UNL     1       0.309   1.307  -0.433  1.00  0.00     0.030 A 
ATOM     27  C   UNL     1      -0.885  -1.191  -0.807  1.00  0.00     0.002 A 
ATOM     28  C   UNL     1      -1.653  -0.030  -0.900  1.00  0.00     0.026 A 
ENDBRANCH  16  22
ENDBRANCH  14  15
ENDBRANCH   8  13
BRANCH  12  29
ATOM     29  O   UNL     1      -2.178   0.175   3.802  1.00  0.00    -0.507 OA
ATOM     30  H   UNL     1      -1.242   0.202   3.772  1.00  0.00     0.293 HD
ENDBRANCH  12  29
ENDBRANCH   4   7
ENDBRANCH   2   3
ENDBRANCH   1   2
BRANCH   1  31
ATOM     31  C   UNL     1      -3.882  -3.076   7.521  1.00  0.00     0.118 C 
BRANCH  31  32
ATOM     32  N   UNL     1      -2.859  -4.123   7.381  1.00  0.00    -0.352 N 
ATOM     33  C   UNL     1      -2.789  -5.362   8.005  1.00  0.00     0.251 C 
ATOM     34  H   UNL     1      -2.123  -3.918   6.761  1.00  0.00     0.163 HD
ATOM     35  O   UNL     1      -1.870  -6.145   7.774  1.00  0.00    -0.269 OA
BRANCH  33  36
ATOM     36  C   UNL     1      -3.908  -5.772   8.882  1.00  0.00     0.039 A 
ATOM     37  C   UNL     1      -4.623  -6.926   8.549  1.00  0.00     0.014 A 
ATOM     38  C   UNL     1      -4.443  -4.836   9.750  1.00  0.00     0.014 A 
ATOM     39  C   UNL     1      -5.981  -6.981   8.846  1.00  0.00     0.010 A 
ATOM     40  C   UNL     1      -5.815  -4.787   9.844  1.00  0.00     0.010 A 
ATOM     41  C   UNL     1      -6.596  -5.841   9.359  1.00  0.00    -0.014 A 
BRANCH  41  42
ATOM     42  C   UNL     1      -8.037  -5.608   9.339  1.00  0.00     0.031 A 
ATOM     43  C   UNL     1      -8.772  -5.430  10.610  1.00  0.00     0.074 A 
ATOM     44  C   UNL     1      -8.684  -5.426   8.165  1.00  0.00     0.049 A 
ATOM     45  N   UNL     1     -10.046  -5.569  10.744  1.00  0.00    -0.248 NA
ATOM     46  C   UNL     1      -8.104  -5.101  11.862  1.00  0.00     0.031 C 
ATOM     47  C   UNL     1     -10.034  -4.905   7.966  1.00  0.00     0.029 A 
ATOM     48  N   UNL     1      -8.310  -5.902   6.908  1.00  0.00    -0.354 N 
ATOM     49  C   UNL     1     -10.398  -5.063  11.974  1.00  0.00     0.074 A 
ATOM     50  C   UNL     1      -9.146  -4.842  12.653  1.00  0.00     0.031 C 
ATOM     51  C   UNL     1     -10.490  -5.328   6.778  1.00  0.00     0.029 A 
ATOM     52  C   UNL     1      -9.505  -6.243   6.235  1.00  0.00     0.049 A 
ATOM     53  H   UNL     1      -7.394  -5.984   6.558  1.00  0.00     0.167 HD
ATOM     54  C   UNL     1     -11.706  -4.771  12.225  1.00  0.00     0.034 A 
ATOM     55  C   UNL     1      -9.738  -7.540   5.875  1.00  0.00     0.034 A 
ATOM     56  C   UNL     1     -12.570  -5.201  11.120  1.00  0.00     0.049 A 
ATOM     57  C   UNL     1     -10.908  -8.180   6.606  1.00  0.00     0.074 A 
ATOM     58  C   UNL     1     -13.221  -4.557  10.080  1.00  0.00     0.029 A 
ATOM     59  N   UNL     1     -12.642  -6.551  10.828  1.00  0.00    -0.354 N 
ATOM     60  N   UNL     1     -11.667  -7.567   7.475  1.00  0.00    -0.248 NA
ATOM     61  C   UNL     1     -11.256  -9.596   6.474  1.00  0.00     0.031 C 
ATOM     62  C   UNL     1     -13.633  -5.547   9.136  1.00  0.00     0.029 A 
ATOM     63  C   UNL     1     -13.258  -6.789   9.616  1.00  0.00     0.049 A 
ATOM     64  H   UNL     1     -12.294  -7.260  11.416  1.00  0.00     0.167 HD
ATOM     65  C   UNL     1     -12.500  -8.475   8.076  1.00  0.00     0.074 A 
ATOM     66  C   UNL     1     -12.220  -9.730   7.401  1.00  0.00     0.031 C 
ATOM     67  C   UNL     1     -13.321  -8.158   9.121  1.00  0.00     0.034 A 
BRANCH  54  68
ATOM     68  C   UNL     1     -12.188  -3.886  13.355  1.00  0.00     0.023 A 
ATOM     69  C   UNL     1     -13.434  -3.243  13.220  1.00  0.00     0.031 A 
ATOM     70  C   UNL     1     -11.491  -3.587  14.543  1.00  0.00     0.131 A 
ATOM     71  C   UNL     1     -13.880  -2.292  14.158  1.00  0.00     0.055 A 
ATOM     72  C   UNL     1     -11.900  -2.595  15.444  1.00  0.00     0.041 A 
ATOM     73  F   UNL     1     -10.420  -4.283  14.937  1.00  0.00    -0.206 F 
ATOM     74  C   UNL     1     -13.098  -1.931  15.249  1.00  0.00     0.022 A 
BRANCH  71  75
ATOM     75  S   UNL     1     -15.515  -1.546  13.936  1.00  0.00     0.124 S 
ATOM     76  O   UNL     1     -15.378  -0.880  12.646  1.00  0.00    -0.237 OA
ATOM     77  O   UNL     1     -16.392  -2.711  13.975  1.00  0.00    -0.237 OA
ATOM     78  O   UNL     1     -15.634  -0.648  15.085  1.00  0.00    -0.744 OA
ENDBRANCH  71  75
ENDBRANCH  54  68
BRANCH  55  79
ATOM     79  C   UNL     1      -8.484  -8.225   5.437  1.00  0.00     0.023 A 
ATOM     80  C   UNL     1      -7.787  -7.647   4.351  1.00  0.00     0.031 A 
ATOM     81  C   UNL     1      -7.777  -9.093   6.279  1.00  0.00     0.131 A 
ATOM     82  C   UNL     1      -6.396  -7.795   4.244  1.00  0.00     0.055 A 
ATOM     83  C   UNL     1      -6.400  -9.298   6.121  1.00  0.00     0.041 A 
ATOM     84  F   UNL     1      -8.367  -9.637   7.354  1.00  0.00    -0.206 F 
ATOM     85  C   UNL     1      -5.695  -8.610   5.133  1.00  0.00     0.022 A 
BRANCH  82  86
ATOM     86  S   UNL     1      -5.494  -6.692   3.113  1.00  0.00     0.124 S 
ATOM     87  O   UNL     1      -5.667  -7.363   1.829  1.00  0.00    -0.237 OA
ATOM     88  O   UNL     1      -6.200  -5.423   3.272  1.00  0.00    -0.237 OA
ATOM     89  O   UNL     1      -4.133  -6.691   3.643  1.00  0.00    -0.744 OA
ENDBRANCH  82  86
ENDBRANCH  55  79
BRANCH  67  90
ATOM     90  C   UNL     1     -14.239  -9.159   9.775  1.00  0.00     0.023 A 
ATOM     91  C   UNL     1     -14.984 -10.075   9.016  1.00  0.00     0.031 A 
ATOM     92  C   UNL     1     -14.460  -9.176  11.171  1.00  0.00     0.131 A 
ATOM     93  C   UNL     1     -15.844 -10.994   9.643  1.00  0.00     0.055 A 
ATOM     94  C   UNL     1     -15.388 -10.023  11.780  1.00  0.00     0.041 A 
ATOM     95  F   UNL     1     -13.750  -8.405  12.008  1.00  0.00    -0.206 F 
ATOM     96  C   UNL     1     -16.080 -10.950  11.017  1.00  0.00     0.022 A 
BRANCH  93  97
ATOM     97  S   UNL     1     -16.582 -12.310   8.643  1.00  0.00     0.124 S 
ATOM     98  O   UNL     1     -17.226 -11.571   7.563  1.00  0.00    -0.237 OA
ATOM     99  O   UNL     1     -15.403 -13.087   8.267  1.00  0.00    -0.237 OA
ATOM    100  O   UNL     1     -17.492 -12.980   9.570  1.00  0.00    -0.744 OA
ENDBRANCH  93  97
ENDBRANCH  67  90
ENDBRANCH  41  42
ENDBRANCH  33  36
ENDBRANCH  31  32
ENDBRANCH   1  31
TORSDOF 17
