REMARK SMILES Cc1cc2nc(NC(=O)[C@H]3[C@@H](C(=O)NCCCNC(=O)c4ccc(-c5c6nc(c(-c7cc(S(=O)(=O)[O-])ccc7F)c7ccc([nH]7)c(-c7cc(S(=O)(=O)[O-])ccc7F)c7nc(c(-c8cc(S(=O)(=O)[O-])ccc8F)c8ccc5[nH]8)C=C7)C=C6)cc4)[C@@H]4C=C[C@H]3C4)sc2cc1C
REMARK SMILES IDX 16 1 15 2 14 3 12 4 13 5 11 7 10 8 87 9 84 10 86 11 88 12
REMARK SMILES IDX 85 13 8 14 7 15 9 17 6 18 1 19 2 20 3 21 92 22 4 23 91 24
REMARK SMILES IDX 93 25 5 26 90 27 89 28 17 29 18 30 19 31 20 33 21 34 22 35
REMARK SMILES IDX 83 36 23 37 82 38 24 39 25 40 26 41 76 42 27 43 81 44 75 45
REMARK SMILES IDX 77 46 28 47 80 48 74 49 73 50 29 52 61 53 41 54 60 55 42 56
REMARK SMILES IDX 45 57 59 58 78 59 43 60 44 61 58 63 79 64 46 65 30 66 31 67
REMARK SMILES IDX 39 68 32 69 38 70 40 71 37 72 33 73 34 74 35 75 36 76 62 77
REMARK SMILES IDX 63 78 71 79 64 80 70 81 72 82 69 83 65 84 66 85 67 86 68 87
REMARK SMILES IDX 47 88 48 89 56 90 49 91 55 92 57 93 54 94 50 95 51 96 52 97
REMARK SMILES IDX 53 98
REMARK H PARENT 14 6 7 16 18 32 77 51 45 62
REMARK Flexibility Score: inf
ROOT
ATOM      1  C   UNL     1       6.051   2.132  -1.116  1.00  0.00     0.042 C 
ENDROOT
BRANCH   1   2
ATOM      2  C   UNL     1       6.128   3.656  -1.152  1.00  0.00     0.117 C 
BRANCH   2   3
ATOM      3  N   UNL     1       5.138   4.226  -2.059  1.00  0.00    -0.356 N 
ATOM      4  C   UNL     1       3.817   4.507  -1.896  1.00  0.00     0.224 C 
ATOM      5  O   UNL     1       3.076   4.207  -2.842  1.00  0.00    -0.275 OA
ATOM      6  H   UNL     1       5.490   4.447  -2.952  1.00  0.00     0.163 HD
BRANCH   4   7
ATOM      7  C   UNL     1       3.227   5.255  -0.695  1.00  0.00     0.098 C 
ATOM      8  C   UNL     1       3.256   6.854  -0.714  1.00  0.00     0.099 C 
ATOM      9  C   UNL     1       3.983   7.153   0.630  1.00  0.00     0.025 C 
ATOM     10  C   UNL     1       3.858   4.922   0.668  1.00  0.00     0.025 C 
ATOM     11  C   UNL     1       3.038   6.777   1.753  1.00  0.00    -0.027 C 
ATOM     12  C   UNL     1       4.949   5.989   0.760  1.00  0.00     0.017 C 
ATOM     13  C   UNL     1       2.952   5.439   1.765  1.00  0.00    -0.027 C 
BRANCH   8  14
ATOM     14  C   UNL     1       3.777   7.513  -2.000  1.00  0.00     0.230 C 
ATOM     15  N   UNL     1       4.000   8.840  -2.160  1.00  0.00    -0.302 N 
ATOM     16  H   UNL     1       4.252   9.106  -3.074  1.00  0.00     0.172 HD
ATOM     17  O   UNL     1       3.918   6.875  -3.049  1.00  0.00    -0.274 OA
BRANCH  15  18
ATOM     18  C   UNL     1       3.935   9.862  -1.272  1.00  0.00     0.190 A 
ATOM     19  C   UNL     1       4.304  12.825   3.906  1.00  0.00     0.044 C 
ATOM     20  C   UNL     1       4.330  12.597   2.419  1.00  0.00    -0.046 A 
ATOM     21  C   UNL     1       3.910  11.343   1.937  1.00  0.00     0.033 A 
ATOM     22  C   UNL     1       4.730  13.591   1.507  1.00  0.00    -0.047 A 
ATOM     23  C   UNL     1       3.948  11.053   0.562  1.00  0.00     0.084 A 
ATOM     24  C   UNL     1       4.801  13.299   0.129  1.00  0.00     0.025 A 
ATOM     25  C   UNL     1       5.098  14.989   1.931  1.00  0.00     0.044 C 
ATOM     26  N   UNL     1       3.568   9.861  -0.024  1.00  0.00    -0.220 NA
ATOM     27  C   UNL     1       4.429  12.023  -0.316  1.00  0.00     0.057 A 
ATOM     28  S   UNL     1       4.479  11.352  -1.902  1.00  0.00    -0.097 S 
ENDBRANCH  15  18
ENDBRANCH   8  14
ENDBRANCH   4   7
ENDBRANCH   2   3
ENDBRANCH   1   2
BRANCH   1  29
ATOM     29  C   UNL     1       6.568   1.478  -2.394  1.00  0.00     0.118 C 
BRANCH  29  30
ATOM     30  N   UNL     1       7.935   1.838  -2.719  1.00  0.00    -0.352 N 
ATOM     31  C   UNL     1       9.171   1.442  -2.291  1.00  0.00     0.251 C 
ATOM     32  H   UNL     1       7.984   2.534  -3.413  1.00  0.00     0.163 HD
ATOM     33  O   UNL     1      10.126   1.978  -2.861  1.00  0.00    -0.269 OA
BRANCH  31  34
ATOM     34  C   UNL     1       9.437   0.494  -1.175  1.00  0.00     0.039 A 
ATOM     35  C   UNL     1       8.475  -0.232  -0.472  1.00  0.00     0.014 A 
ATOM     36  C   UNL     1      10.785   0.376  -0.784  1.00  0.00     0.014 A 
ATOM     37  C   UNL     1       8.832  -0.954   0.664  1.00  0.00     0.010 A 
ATOM     38  C   UNL     1      11.152  -0.369   0.330  1.00  0.00     0.010 A 
ATOM     39  C   UNL     1      10.164  -0.987   1.086  1.00  0.00    -0.014 A 
BRANCH  39  40
ATOM     40  C   UNL     1      10.496  -1.790   2.260  1.00  0.00     0.031 A 
ATOM     41  C   UNL     1      10.216  -3.241   2.087  1.00  0.00     0.074 A 
ATOM     42  C   UNL     1      11.100  -1.292   3.361  1.00  0.00     0.049 A 
ATOM     43  N   UNL     1       9.296  -3.943   2.661  1.00  0.00    -0.248 NA
ATOM     44  C   UNL     1      10.930  -3.959   1.020  1.00  0.00     0.031 C 
ATOM     45  C   UNL     1      11.703   0.037   3.512  1.00  0.00     0.029 A 
ATOM     46  N   UNL     1      11.401  -1.897   4.548  1.00  0.00    -0.354 N 
ATOM     47  C   UNL     1       9.478  -5.252   2.208  1.00  0.00     0.074 A 
ATOM     48  C   UNL     1      10.350  -5.160   1.068  1.00  0.00     0.031 C 
ATOM     49  C   UNL     1      12.506   0.044   4.601  1.00  0.00     0.029 A 
ATOM     50  C   UNL     1      12.338  -1.210   5.313  1.00  0.00     0.049 A 
ATOM     51  H   UNL     1      10.991  -2.744   4.837  1.00  0.00     0.167 HD
ATOM     52  C   UNL     1       9.115  -6.317   2.981  1.00  0.00     0.034 A 
ATOM     53  C   UNL     1      12.966  -1.652   6.430  1.00  0.00     0.034 A 
ATOM     54  C   UNL     1       8.331  -5.879   4.102  1.00  0.00     0.049 A 
ATOM     55  C   UNL     1      12.181  -2.763   7.003  1.00  0.00     0.074 A 
ATOM     56  C   UNL     1       7.022  -5.543   4.351  1.00  0.00     0.029 A 
ATOM     57  N   UNL     1       9.088  -5.415   5.145  1.00  0.00    -0.354 N 
ATOM     58  N   UNL     1      11.009  -2.607   7.551  1.00  0.00    -0.248 NA
ATOM     59  C   UNL     1      12.541  -4.136   6.667  1.00  0.00     0.031 C 
ATOM     60  C   UNL     1       7.041  -4.725   5.516  1.00  0.00     0.029 A 
ATOM     61  C   UNL     1       8.354  -4.617   5.975  1.00  0.00     0.049 A 
ATOM     62  H   UNL     1      10.039  -5.630   5.279  1.00  0.00     0.167 HD
ATOM     63  C   UNL     1      10.329  -3.755   7.202  1.00  0.00     0.074 A 
ATOM     64  C   UNL     1      11.356  -4.725   6.844  1.00  0.00     0.031 C 
ATOM     65  C   UNL     1       9.001  -3.714   6.905  1.00  0.00     0.034 A 
BRANCH  52  66
ATOM     66  C   UNL     1       9.843  -7.649   3.034  1.00  0.00     0.023 A 
ATOM     67  C   UNL     1      11.057  -7.897   2.370  1.00  0.00     0.031 A 
ATOM     68  C   UNL     1       9.460  -8.622   3.987  1.00  0.00     0.131 A 
ATOM     69  C   UNL     1      11.842  -9.022   2.667  1.00  0.00     0.055 A 
ATOM     70  C   UNL     1      10.271  -9.714   4.325  1.00  0.00     0.041 A 
ATOM     71  F   UNL     1       8.309  -8.510   4.668  1.00  0.00    -0.206 F 
ATOM     72  C   UNL     1      11.476  -9.914   3.669  1.00  0.00     0.022 A 
BRANCH  69  73
ATOM     73  S   UNL     1      13.386  -9.319   1.761  1.00  0.00     0.124 S 
ATOM     74  O   UNL     1      14.371  -9.339   2.843  1.00  0.00    -0.237 OA
ATOM     75  O   UNL     1      13.113 -10.613   1.135  1.00  0.00    -0.237 OA
ATOM     76  O   UNL     1      13.469  -8.194   0.845  1.00  0.00    -0.744 OA
ENDBRANCH  69  73
ENDBRANCH  52  66
BRANCH  53  77
ATOM     77  C   UNL     1      14.377  -1.442   6.823  1.00  0.00     0.023 A 
ATOM     78  C   UNL     1      15.361  -1.392   5.820  1.00  0.00     0.031 A 
ATOM     79  C   UNL     1      14.807  -1.650   8.146  1.00  0.00     0.131 A 
ATOM     80  C   UNL     1      16.706  -1.625   6.137  1.00  0.00     0.055 A 
ATOM     81  C   UNL     1      16.155  -1.855   8.464  1.00  0.00     0.041 A 
ATOM     82  F   UNL     1      13.915  -1.739   9.145  1.00  0.00    -0.206 F 
ATOM     83  C   UNL     1      17.110  -1.864   7.452  1.00  0.00     0.022 A 
BRANCH  80  84
ATOM     84  S   UNL     1      17.949  -1.745   4.822  1.00  0.00     0.124 S 
ATOM     85  O   UNL     1      18.997  -0.850   5.307  1.00  0.00    -0.237 OA
ATOM     86  O   UNL     1      18.273  -3.168   4.853  1.00  0.00    -0.237 OA
ATOM     87  O   UNL     1      17.238  -1.279   3.636  1.00  0.00    -0.744 OA
ENDBRANCH  80  84
ENDBRANCH  53  77
BRANCH  65  88
ATOM     88  C   UNL     1       8.182  -2.576   7.437  1.00  0.00     0.023 A 
ATOM     89  C   UNL     1       7.071  -2.930   8.218  1.00  0.00     0.031 A 
ATOM     90  C   UNL     1       8.333  -1.226   7.076  1.00  0.00     0.131 A 
ATOM     91  C   UNL     1       6.115  -1.973   8.558  1.00  0.00     0.055 A 
ATOM     92  C   UNL     1       7.415  -0.255   7.487  1.00  0.00     0.041 A 
ATOM     93  F   UNL     1       9.319  -0.824   6.262  1.00  0.00    -0.206 F 
ATOM     94  C   UNL     1       6.287  -0.630   8.214  1.00  0.00     0.022 A 
BRANCH  91  95
ATOM     95  S   UNL     1       4.549  -2.494   9.299  1.00  0.00     0.124 S 
ATOM     96  O   UNL     1       4.609  -1.870  10.617  1.00  0.00    -0.237 OA
ATOM     97  O   UNL     1       3.568  -1.924   8.377  1.00  0.00    -0.237 OA
ATOM     98  O   UNL     1       4.622  -3.952   9.293  1.00  0.00    -0.744 OA
ENDBRANCH  91  95
ENDBRANCH  65  88
ENDBRANCH  39  40
ENDBRANCH  31  34
ENDBRANCH  29  30
ENDBRANCH   1  29
TORSDOF 15
