REMARK SMILES Cc1ccc(NC(=O)N[C@@H](C(=O)NCCCNC(=O)c2ccc(-c3c4nc(c(-c5cc(S(=O)(=O)[O-])ccc5F)c5ccc([nH]5)c(-c5cc(S(=O)(=O)[O-])ccc5F)c5nc(c(-c6cc(S(=O)(=O)[O-])ccc6F)c6ccc3[nH]6)C=C5)C=C4)cc2)C(C)C)cc1
REMARK SMILES IDX 15 1 14 2 13 3 11 4 12 5 10 7 9 8 6 9 7 10 8 12 5 14 1 15
REMARK SMILES IDX 2 16 3 17 87 18 4 19 86 20 83 21 84 22 85 23 16 24 17 25
REMARK SMILES IDX 18 26 19 28 20 29 21 30 82 31 22 32 81 33 23 34 24 35 25 36
REMARK SMILES IDX 75 37 26 38 80 39 74 40 76 41 27 42 79 43 73 44 72 45 28 47
REMARK SMILES IDX 60 48 40 49 59 50 41 51 44 52 58 53 77 54 42 55 43 56 57 58
REMARK SMILES IDX 78 59 45 60 29 61 30 62 38 63 31 64 37 65 39 66 36 67 32 68
REMARK SMILES IDX 33 69 34 70 35 71 61 72 62 73 70 74 63 75 69 76 71 77 68 78
REMARK SMILES IDX 64 79 65 80 66 81 67 82 46 83 47 84 55 85 48 86 54 87 56 88
REMARK SMILES IDX 53 89 49 90 50 91 51 92 52 93
REMARK H PARENT 13 6 6 11 9 13 17 27 76 46 44 57
REMARK Flexibility Score: inf
ROOT
ATOM      1  C   UNL     1      -4.077  -1.542   2.916  1.00  0.00     0.042 C 
ENDROOT
BRANCH   1   2
ATOM      2  C   UNL     1      -2.603  -1.830   2.672  1.00  0.00     0.117 C 
BRANCH   2   3
ATOM      3  N   UNL     1      -2.339  -3.211   2.267  1.00  0.00    -0.354 N 
ATOM      4  C   UNL     1      -2.049  -3.763   1.045  1.00  0.00     0.242 C 
ATOM      5  O   UNL     1      -1.775  -4.967   1.023  1.00  0.00    -0.273 OA
ATOM      6  H   UNL     1      -2.375  -3.862   3.004  1.00  0.00     0.163 HD
BRANCH   4   7
ATOM      7  C   UNL     1      -1.959  -2.891  -0.242  1.00  0.00     0.175 C 
BRANCH   7   8
ATOM      8  N   UNL     1      -3.152  -2.066  -0.329  1.00  0.00    -0.326 N 
ATOM      9  N   UNL     1      -2.478   0.230  -0.441  1.00  0.00    -0.308 N 
ATOM     10  C   UNL     1      -3.384  -0.757  -0.406  1.00  0.00     0.319 C 
ATOM     11  H   UNL     1      -2.918   1.072  -0.702  1.00  0.00     0.171 HD
ATOM     12  O   UNL     1      -4.571  -0.428  -0.539  1.00  0.00    -0.248 OA
ATOM     13  H   UNL     1      -3.980  -2.598  -0.330  1.00  0.00     0.166 HD
BRANCH   9  14
ATOM     14  C   UNL     1      -1.104   0.462  -0.227  1.00  0.00     0.042 A 
ATOM     15  C   UNL     1       3.140   1.306  -0.121  1.00  0.00     0.044 C 
ATOM     16  C   UNL     1       1.662   1.084  -0.093  1.00  0.00    -0.051 A 
ATOM     17  C   UNL     1       1.141   0.001   0.604  1.00  0.00     0.005 A 
ATOM     18  C   UNL     1       0.781   1.911  -0.791  1.00  0.00     0.005 A 
ATOM     19  C   UNL     1      -0.226  -0.278   0.559  1.00  0.00     0.026 A 
ATOM     20  C   UNL     1      -0.586   1.610  -0.841  1.00  0.00     0.026 A 
ENDBRANCH   9  14
ENDBRANCH   7   8
BRANCH   7  21
ATOM     21  C   UNL     1      -1.704  -3.730  -1.528  1.00  0.00     0.015 C 
ATOM     22  C   UNL     1      -2.123  -3.008  -2.815  1.00  0.00     0.010 C 
ATOM     23  C   UNL     1      -0.205  -4.064  -1.635  1.00  0.00     0.010 C 
ENDBRANCH   7  21
ENDBRANCH   4   7
ENDBRANCH   2   3
ENDBRANCH   1   2
BRANCH   1  24
ATOM     24  C   UNL     1      -4.457  -1.784   4.365  1.00  0.00     0.118 C 
BRANCH  24  25
ATOM     25  N   UNL     1      -4.610  -0.580   5.176  1.00  0.00    -0.352 N 
ATOM     26  C   UNL     1      -4.906  -0.483   6.525  1.00  0.00     0.251 C 
ATOM     27  H   UNL     1      -4.487   0.275   4.703  1.00  0.00     0.163 HD
ATOM     28  O   UNL     1      -5.139   0.599   7.059  1.00  0.00    -0.269 OA
BRANCH  26  29
ATOM     29  C   UNL     1      -4.780  -1.701   7.362  1.00  0.00     0.039 A 
ATOM     30  C   UNL     1      -3.899  -1.632   8.448  1.00  0.00     0.014 A 
ATOM     31  C   UNL     1      -5.236  -2.931   6.901  1.00  0.00     0.014 A 
ATOM     32  C   UNL     1      -3.272  -2.793   8.888  1.00  0.00     0.010 A 
ATOM     33  C   UNL     1      -4.525  -4.062   7.247  1.00  0.00     0.010 A 
ATOM     34  C   UNL     1      -3.501  -3.982   8.196  1.00  0.00    -0.014 A 
BRANCH  34  35
ATOM     35  C   UNL     1      -2.628  -5.143   8.313  1.00  0.00     0.031 A 
ATOM     36  C   UNL     1      -3.087  -6.357   9.010  1.00  0.00     0.074 A 
ATOM     37  C   UNL     1      -1.391  -5.127   7.769  1.00  0.00     0.049 A 
ATOM     38  N   UNL     1      -2.315  -7.145   9.680  1.00  0.00    -0.248 NA
ATOM     39  C   UNL     1      -4.486  -6.762   9.030  1.00  0.00     0.031 C 
ATOM     40  C   UNL     1      -0.469  -6.250   7.628  1.00  0.00     0.029 A 
ATOM     41  N   UNL     1      -0.627  -4.011   7.445  1.00  0.00    -0.354 N 
ATOM     42  C   UNL     1      -3.030  -8.290   9.945  1.00  0.00     0.074 A 
ATOM     43  C   UNL     1      -4.395  -7.969   9.594  1.00  0.00     0.031 C 
ATOM     44  C   UNL     1       0.779  -5.773   7.505  1.00  0.00     0.029 A 
ATOM     45  C   UNL     1       0.719  -4.334   7.683  1.00  0.00     0.049 A 
ATOM     46  H   UNL     1      -0.968  -3.150   7.110  1.00  0.00     0.167 HD
ATOM     47  C   UNL     1      -2.374  -9.440  10.274  1.00  0.00     0.034 A 
ATOM     48  C   UNL     1       1.465  -3.610   8.567  1.00  0.00     0.034 A 
ATOM     49  C   UNL     1      -0.924  -9.245  10.314  1.00  0.00     0.049 A 
ATOM     50  C   UNL     1       1.957  -4.425   9.743  1.00  0.00     0.074 A 
ATOM     51  C   UNL     1       0.083  -9.555   9.414  1.00  0.00     0.029 A 
ATOM     52  N   UNL     1      -0.356  -8.398  11.260  1.00  0.00    -0.354 N 
ATOM     53  N   UNL     1       1.510  -5.612  10.049  1.00  0.00    -0.248 NA
ATOM     54  C   UNL     1       2.974  -3.959  10.680  1.00  0.00     0.031 C 
ATOM     55  C   UNL     1       1.248  -8.843   9.794  1.00  0.00     0.029 A 
ATOM     56  C   UNL     1       0.961  -8.122  10.939  1.00  0.00     0.049 A 
ATOM     57  H   UNL     1      -0.827  -8.043  12.049  1.00  0.00     0.167 HD
ATOM     58  C   UNL     1       2.113  -6.054  11.201  1.00  0.00     0.074 A 
ATOM     59  C   UNL     1       3.048  -4.994  11.536  1.00  0.00     0.031 C 
ATOM     60  C   UNL     1       1.772  -7.247  11.779  1.00  0.00     0.034 A 
BRANCH  47  61
ATOM     61  C   UNL     1      -3.028 -10.804  10.207  1.00  0.00     0.023 A 
ATOM     62  C   UNL     1      -2.255 -11.927   9.847  1.00  0.00     0.031 A 
ATOM     63  C   UNL     1      -4.394 -11.062  10.431  1.00  0.00     0.131 A 
ATOM     64  C   UNL     1      -2.847 -13.178   9.597  1.00  0.00     0.055 A 
ATOM     65  C   UNL     1      -4.998 -12.287  10.117  1.00  0.00     0.041 A 
ATOM     66  F   UNL     1      -5.192 -10.154  11.012  1.00  0.00    -0.206 F 
ATOM     67  C   UNL     1      -4.225 -13.351   9.678  1.00  0.00     0.022 A 
BRANCH  64  68
ATOM     68  S   UNL     1      -1.783 -14.585   9.179  1.00  0.00     0.124 S 
ATOM     69  O   UNL     1      -1.125 -14.127   7.960  1.00  0.00    -0.237 OA
ATOM     70  O   UNL     1      -0.941 -14.697  10.366  1.00  0.00    -0.237 OA
ATOM     71  O   UNL     1      -2.731 -15.684   8.994  1.00  0.00    -0.744 OA
ENDBRANCH  64  68
ENDBRANCH  47  61
BRANCH  48  72
ATOM     72  C   UNL     1       1.084  -2.167   8.595  1.00  0.00     0.023 A 
ATOM     73  C   UNL     1       1.152  -1.468   7.367  1.00  0.00     0.031 A 
ATOM     74  C   UNL     1       0.299  -1.621   9.617  1.00  0.00     0.131 A 
ATOM     75  C   UNL     1       0.304  -0.379   7.124  1.00  0.00     0.055 A 
ATOM     76  C   UNL     1      -0.485  -0.480   9.397  1.00  0.00     0.041 A 
ATOM     77  F   UNL     1       0.172  -2.251  10.794  1.00  0.00    -0.206 F 
ATOM     78  C   UNL     1      -0.525   0.114   8.132  1.00  0.00     0.022 A 
BRANCH  75  79
ATOM     79  S   UNL     1       0.083   0.194   5.409  1.00  0.00     0.124 S 
ATOM     80  O   UNL     1       1.023   1.306   5.337  1.00  0.00    -0.237 OA
ATOM     81  O   UNL     1       0.432  -0.984   4.616  1.00  0.00    -0.237 OA
ATOM     82  O   UNL     1      -1.333   0.549   5.348  1.00  0.00    -0.744 OA
ENDBRANCH  75  79
ENDBRANCH  48  72
BRANCH  60  83
ATOM     83  C   UNL     1       2.232  -7.751  13.135  1.00  0.00     0.023 A 
ATOM     84  C   UNL     1       2.817  -6.932  14.112  1.00  0.00     0.031 A 
ATOM     85  C   UNL     1       2.030  -9.101  13.518  1.00  0.00     0.131 A 
ATOM     86  C   UNL     1       3.250  -7.458  15.345  1.00  0.00     0.055 A 
ATOM     87  C   UNL     1       2.386  -9.604  14.773  1.00  0.00     0.041 A 
ATOM     88  F   UNL     1       1.468  -9.996  12.691  1.00  0.00    -0.206 F 
ATOM     89  C   UNL     1       3.019  -8.785  15.692  1.00  0.00     0.022 A 
BRANCH  86  90
ATOM     90  S   UNL     1       4.190  -6.378  16.456  1.00  0.00     0.124 S 
ATOM     91  O   UNL     1       5.358  -6.052  15.642  1.00  0.00    -0.237 OA
ATOM     92  O   UNL     1       3.256  -5.281  16.691  1.00  0.00    -0.237 OA
ATOM     93  O   UNL     1       4.459  -7.224  17.616  1.00  0.00    -0.744 OA
ENDBRANCH  86  90
ENDBRANCH  60  83
ENDBRANCH  34  35
ENDBRANCH  26  29
ENDBRANCH  24  25
ENDBRANCH   1  24
TORSDOF 16
