REMARK SMILES CC1=C[C@@H]([C@@H]2N=N[C@H](S)N2/N=C/c2ccc(C(=O)NCCCNC(=O)c3ccc(-c4c5nc(c(-c6cc(S(=O)(=O)[O-])ccc6F)c6ccc([nH]6)c(-c6cc(S(=O)(=O)[O-])ccc6F)c6nc(c(-c7cc(S(=O)(=O)[O-])ccc7F)c7ccc4[nH]7)C=C6)C=C5)cc3)cc2)N=N1
REMARK SMILES IDX 21 1 20 2 19 3 17 4 18 5 16 7 13 8 14 9 90 10 15 11 89 12
REMARK SMILES IDX 12 13 11 14 10 15 5 16 6 17 7 18 8 19 4 20 1 21 2 22 3 23
REMARK SMILES IDX 92 24 91 25 9 26 22 28 23 29 24 30 25 32 26 33 27 34 88 35
REMARK SMILES IDX 28 36 87 37 29 38 30 39 31 40 81 41 32 42 86 43 80 44 82 45
REMARK SMILES IDX 33 46 85 47 79 48 78 49 34 51 66 52 46 53 65 54 47 55 50 56
REMARK SMILES IDX 64 57 83 58 48 59 49 60 63 62 84 63 51 64 35 65 36 66 44 67
REMARK SMILES IDX 37 68 43 69 45 70 42 71 38 72 39 73 40 74 41 75 67 76 68 77
REMARK SMILES IDX 76 78 69 79 75 80 77 81 74 82 70 83 71 84 72 85 73 86 52 87
REMARK SMILES IDX 53 88 61 89 54 90 60 91 62 92 59 93 55 94 56 95 57 96 58 97
REMARK H PARENT 19 6 9 27 23 31 82 50 50 61
REMARK Flexibility Score: inf
ROOT
ATOM      1  C   UNL     1      -4.894  -2.263   3.390  1.00  0.00     0.042 C 
ENDROOT
BRANCH   1   2
ATOM      2  C   UNL     1      -5.375  -3.308   2.376  1.00  0.00     0.118 C 
BRANCH   2   3
ATOM      3  N   UNL     1      -6.798  -3.189   2.118  1.00  0.00    -0.352 N 
ATOM      4  C   UNL     1      -7.498  -2.530   1.140  1.00  0.00     0.251 C 
ATOM      5  O   UNL     1      -8.719  -2.675   1.105  1.00  0.00    -0.269 OA
ATOM      6  H   UNL     1      -7.366  -3.670   2.763  1.00  0.00     0.163 HD
BRANCH   4   7
ATOM      7  C   UNL     1      -6.851  -1.682   0.099  1.00  0.00     0.039 A 
ATOM      8  C   UNL     1      -5.799  -0.090  -1.945  1.00  0.00    -0.005 A 
ATOM      9  C   UNL     1      -7.051  -0.684  -2.110  1.00  0.00     0.010 A 
ATOM     10  C   UNL     1      -5.073  -0.265  -0.775  1.00  0.00     0.010 A 
ATOM     11  C   UNL     1      -7.566  -1.489  -1.094  1.00  0.00     0.014 A 
ATOM     12  C   UNL     1      -5.622  -1.030   0.254  1.00  0.00     0.014 A 
BRANCH   8  13
ATOM     13  C   UNL     1      -5.304   0.802  -2.995  1.00  0.00     0.141 C 
ATOM     14  N   UNL     1      -4.043   0.983  -3.230  1.00  0.00    -0.180 NA
BRANCH  14  15
ATOM     15  N   UNL     1      -3.715   1.850  -4.236  1.00  0.00    -0.233 NA
ATOM     16  C   UNL     1      -2.422   1.674  -4.930  1.00  0.00     0.274 C 
ATOM     17  N   UNL     1      -2.681   1.753  -6.396  1.00  0.00    -0.161 NA
ATOM     18  N   UNL     1      -3.844   2.161  -6.616  1.00  0.00    -0.153 NA
ATOM     19  C   UNL     1      -4.601   2.220  -5.354  1.00  0.00     0.298 C 
BRANCH  16  20
ATOM     20  C   UNL     1      -1.354   2.752  -4.533  1.00  0.00     0.201 C 
ATOM     21  C   UNL     1      -2.096   5.902  -6.262  1.00  0.00     0.068 C 
ATOM     22  C   UNL     1      -1.500   4.701  -5.626  1.00  0.00     0.058 C 
ATOM     23  C   UNL     1      -1.912   4.135  -4.494  1.00  0.00     0.031 C 
ATOM     24  N   UNL     1      -0.535   3.959  -6.261  1.00  0.00    -0.160 NA
ATOM     25  N   UNL     1      -0.341   2.876  -5.631  1.00  0.00    -0.177 NA
ENDBRANCH  16  20
BRANCH  19  26
ATOM     26  S   UNL     1      -5.415   3.813  -4.974  1.00  0.00    -0.128 SA
ATOM     27  H   UNL     1      -4.468   4.772  -4.788  1.00  0.00     0.106 HD
ENDBRANCH  19  26
ENDBRANCH  14  15
ENDBRANCH   8  13
ENDBRANCH   4   7
ENDBRANCH   2   3
ENDBRANCH   1   2
BRANCH   1  28
ATOM     28  C   UNL     1      -5.044  -2.738   4.824  1.00  0.00     0.118 C 
BRANCH  28  29
ATOM     29  N   UNL     1      -4.088  -3.797   5.137  1.00  0.00    -0.352 N 
ATOM     30  C   UNL     1      -4.005  -4.580   6.273  1.00  0.00     0.251 C 
ATOM     31  H   UNL     1      -3.411  -3.978   4.446  1.00  0.00     0.163 HD
ATOM     32  O   UNL     1      -2.969  -5.160   6.543  1.00  0.00    -0.269 OA
BRANCH  30  33
ATOM     33  C   UNL     1      -5.185  -4.678   7.152  1.00  0.00     0.039 A 
ATOM     34  C   UNL     1      -5.045  -4.615   8.541  1.00  0.00     0.014 A 
ATOM     35  C   UNL     1      -6.441  -4.793   6.564  1.00  0.00     0.014 A 
ATOM     36  C   UNL     1      -6.190  -4.572   9.334  1.00  0.00     0.010 A 
ATOM     37  C   UNL     1      -7.564  -4.614   7.334  1.00  0.00     0.010 A 
ATOM     38  C   UNL     1      -7.452  -4.544   8.724  1.00  0.00    -0.014 A 
BRANCH  38  39
ATOM     39  C   UNL     1      -8.664  -4.269   9.501  1.00  0.00     0.031 A 
ATOM     40  C   UNL     1      -8.636  -2.994  10.278  1.00  0.00     0.074 A 
ATOM     41  C   UNL     1      -9.811  -4.955   9.293  1.00  0.00     0.049 A 
ATOM     42  N   UNL     1      -8.812  -2.831  11.547  1.00  0.00    -0.248 NA
ATOM     43  C   UNL     1      -8.239  -1.757   9.581  1.00  0.00     0.031 C 
ATOM     44  C   UNL     1     -10.028  -6.052   8.342  1.00  0.00     0.029 A 
ATOM     45  N   UNL     1     -11.071  -4.709   9.751  1.00  0.00    -0.354 N 
ATOM     46  C   UNL     1      -8.786  -1.455  11.772  1.00  0.00     0.074 A 
ATOM     47  C   UNL     1      -8.229  -0.875  10.582  1.00  0.00     0.031 C 
ATOM     48  C   UNL     1     -11.349  -6.180   8.095  1.00  0.00     0.029 A 
ATOM     49  C   UNL     1     -12.079  -5.290   8.980  1.00  0.00     0.049 A 
ATOM     50  H   UNL     1     -11.254  -4.170  10.555  1.00  0.00     0.167 HD
ATOM     51  C   UNL     1      -9.448  -0.895  12.824  1.00  0.00     0.034 A 
ATOM     52  C   UNL     1     -13.415  -5.033   9.017  1.00  0.00     0.034 A 
ATOM     53  C   UNL     1      -9.792  -1.899  13.807  1.00  0.00     0.049 A 
ATOM     54  C   UNL     1     -13.693  -4.421  10.340  1.00  0.00     0.074 A 
ATOM     55  C   UNL     1      -9.063  -2.815  14.543  1.00  0.00     0.029 A 
ATOM     56  N   UNL     1     -11.097  -2.338  13.864  1.00  0.00    -0.354 N 
ATOM     57  N   UNL     1     -13.544  -5.064  11.466  1.00  0.00    -0.248 NA
ATOM     58  C   UNL     1     -13.649  -2.970  10.450  1.00  0.00     0.031 C 
ATOM     59  C   UNL     1      -9.857  -3.999  14.537  1.00  0.00     0.029 A 
ATOM     60  C   UNL     1     -11.063  -3.711  13.893  1.00  0.00     0.049 A 
ATOM     61  H   UNL     1     -11.903  -1.774  13.880  1.00  0.00     0.167 HD
ATOM     62  C   UNL     1     -12.936  -4.154  12.316  1.00  0.00     0.074 A 
ATOM     63  C   UNL     1     -13.136  -2.852  11.679  1.00  0.00     0.031 C 
ATOM     64  C   UNL     1     -12.073  -4.565  13.294  1.00  0.00     0.034 A 
BRANCH  51  65
ATOM     65  C   UNL     1     -10.113   0.468  12.815  1.00  0.00     0.023 A 
ATOM     66  C   UNL     1     -10.792   0.859  13.988  1.00  0.00     0.031 A 
ATOM     67  C   UNL     1     -10.377   1.255  11.671  1.00  0.00     0.131 A 
ATOM     68  C   UNL     1     -11.761   1.876  13.962  1.00  0.00     0.055 A 
ATOM     69  C   UNL     1     -11.289   2.315  11.669  1.00  0.00     0.041 A 
ATOM     70  F   UNL     1      -9.846   0.995  10.472  1.00  0.00    -0.206 F 
ATOM     71  C   UNL     1     -12.017   2.607  12.808  1.00  0.00     0.022 A 
BRANCH  68  72
ATOM     72  S   UNL     1     -12.825   2.083  15.414  1.00  0.00     0.124 S 
ATOM     73  O   UNL     1     -13.314   0.723  15.613  1.00  0.00    -0.237 OA
ATOM     74  O   UNL     1     -11.881   2.582  16.408  1.00  0.00    -0.237 OA
ATOM     75  O   UNL     1     -13.826   3.047  14.965  1.00  0.00    -0.744 OA
ENDBRANCH  68  72
ENDBRANCH  51  65
BRANCH  52  76
ATOM     76  C   UNL     1     -14.386  -5.062   7.884  1.00  0.00     0.023 A 
ATOM     77  C   UNL     1     -15.784  -5.145   8.064  1.00  0.00     0.031 A 
ATOM     78  C   UNL     1     -13.939  -4.782   6.570  1.00  0.00     0.131 A 
ATOM     79  C   UNL     1     -16.660  -4.961   6.965  1.00  0.00     0.055 A 
ATOM     80  C   UNL     1     -14.807  -4.611   5.489  1.00  0.00     0.041 A 
ATOM     81  F   UNL     1     -12.639  -4.578   6.306  1.00  0.00    -0.206 F 
ATOM     82  C   UNL     1     -16.175  -4.692   5.684  1.00  0.00     0.022 A 
BRANCH  79  83
ATOM     83  S   UNL     1     -18.469  -4.966   7.205  1.00  0.00     0.124 S 
ATOM     84  O   UNL     1     -18.744  -6.373   7.472  1.00  0.00    -0.237 OA
ATOM     85  O   UNL     1     -18.642  -4.047   8.324  1.00  0.00    -0.237 OA
ATOM     86  O   UNL     1     -18.985  -4.472   5.927  1.00  0.00    -0.744 OA
ENDBRANCH  79  83
ENDBRANCH  52  76
BRANCH  64  87
ATOM     87  C   UNL     1     -11.993  -6.045  13.620  1.00  0.00     0.023 A 
ATOM     88  C   UNL     1     -11.686  -7.063  12.688  1.00  0.00     0.031 A 
ATOM     89  C   UNL     1     -12.098  -6.415  14.973  1.00  0.00     0.131 A 
ATOM     90  C   UNL     1     -11.509  -8.392  13.123  1.00  0.00     0.055 A 
ATOM     91  C   UNL     1     -11.898  -7.726  15.404  1.00  0.00     0.041 A 
ATOM     92  F   UNL     1     -12.357  -5.491  15.914  1.00  0.00    -0.206 F 
ATOM     93  C   UNL     1     -11.608  -8.721  14.479  1.00  0.00     0.022 A 
BRANCH  90  94
ATOM     94  S   UNL     1     -11.160  -9.725  11.930  1.00  0.00     0.124 S 
ATOM     95  O   UNL     1     -12.151  -9.514  10.881  1.00  0.00    -0.237 OA
ATOM     96  O   UNL     1      -9.771  -9.465  11.561  1.00  0.00    -0.237 OA
ATOM     97  O   UNL     1     -11.359 -10.944  12.716  1.00  0.00    -0.744 OA
ENDBRANCH  90  94
ENDBRANCH  64  87
ENDBRANCH  38  39
ENDBRANCH  30  33
ENDBRANCH  28  29
ENDBRANCH   1  28
TORSDOF 17
