REMARK SMILES Cc1cc(/C=C2\C(=O)N(Cc3ccco3)C(=O)[NH+]=C2NCCCNC(=O)c2ccc(-c3c4nc(c(-c5cc(S(=O)(=O)[O-])ccc5F)c5ccc([nH]5)c(-c5cc(S(=O)(=O)[O-])ccc5F)c5nc(c(-c6cc(S(=O)(=O)[O-])ccc6F)c6ccc3[nH]6)C=C5)C=C4)cc2)c(C)n1-c1ccc(Cl)c(C(=O)[O-])c1
REMARK SMILES IDX 22 1 21 2 20 3 5 4 6 5 7 6 19 7 8 8 9 9 18 10 16 11 17 14
REMARK SMILES IDX 4 15 1 16 2 17 3 18 92 19 90 20 91 21 93 22 94 23 102 24
REMARK SMILES IDX 95 25 98 26 96 27 97 28 99 29 100 30 101 31 10 32 11 33
REMARK SMILES IDX 12 34 15 35 13 36 14 37 23 38 24 39 25 40 26 42 27 43 28 44
REMARK SMILES IDX 89 45 29 46 88 47 30 48 31 49 32 50 82 51 33 52 87 53 81 54
REMARK SMILES IDX 83 55 34 56 86 57 80 58 79 59 35 61 67 62 47 63 66 64 48 65
REMARK SMILES IDX 51 66 65 67 84 68 49 69 50 70 64 72 85 73 52 74 36 75 37 76
REMARK SMILES IDX 45 77 38 78 44 79 46 80 43 81 39 82 40 83 41 84 42 85 68 86
REMARK SMILES IDX 69 87 77 88 70 89 76 90 78 91 75 92 71 93 72 94 73 95 74 96
REMARK SMILES IDX 53 97 54 98 62 99 55 100 61 101 63 102 60 103 56 104 57 105
REMARK SMILES IDX 58 106 59 107
REMARK H PARENT 18 12 20 13 24 41 83 60 51 71
REMARK Flexibility Score: inf
ROOT
ATOM      1  C   UNL     1       0.349  -7.802  -0.369  1.00  0.00     0.059 C 
ENDROOT
BRANCH   1   2
ATOM      2  C   UNL     1       1.258  -7.527  -1.580  1.00  0.00     0.195 C 
BRANCH   2   3
ATOM      3  N   UNL     1       0.507  -7.499  -2.805  1.00  0.00    -0.305 N 
ATOM      4  C   UNL     1       0.176  -4.343  -2.335  1.00  0.00     0.032 C 
ATOM      5  C   UNL     1       0.121  -5.024  -3.498  1.00  0.00     0.129 C 
ATOM      6  C   UNL     1       0.029  -4.379  -4.830  1.00  0.00     0.323 C 
ATOM      7  C   UNL     1      -0.038  -6.508  -3.579  1.00  0.00     0.236 C 
ATOM      8  O   UNL     1       0.800  -3.499  -5.191  1.00  0.00    -0.250 OA
ATOM      9  N   UNL     1      -1.015  -4.889  -5.573  1.00  0.00    -0.182 N 
ATOM     10  N   UNL     1      -0.771  -7.004  -4.543  1.00  0.00    -0.210 N 
ATOM     11  C   UNL     1      -1.450  -6.188  -5.405  1.00  0.00     0.444 C 
ATOM     12  H   UNL     1      -0.835  -7.981  -4.649  1.00  0.00     0.270 HD
ATOM     13  H   UNL     1       0.349  -8.398  -3.174  1.00  0.00     0.256 HD
ATOM     14  O   UNL     1      -2.423  -6.618  -6.030  1.00  0.00    -0.212 OA
BRANCH   4  15
ATOM     15  C   UNL     1       0.171  -2.928  -2.035  1.00  0.00    -0.003 A 
ATOM     16  C   UNL     1       1.108  -0.016   0.113  1.00  0.00     0.065 C 
ATOM     17  C   UNL     1       0.626  -1.000  -0.899  1.00  0.00     0.020 A 
ATOM     18  C   UNL     1       0.848  -2.366  -0.920  1.00  0.00     0.031 A 
ATOM     19  N   UNL     1      -0.217  -0.699  -1.954  1.00  0.00    -0.318 N 
ATOM     20  C   UNL     1      -0.508  -1.878  -2.646  1.00  0.00     0.027 A 
ATOM     21  C   UNL     1      -1.334  -1.859  -3.884  1.00  0.00     0.065 C 
BRANCH  19  22
ATOM     22  C   UNL     1      -0.688   0.593  -2.327  1.00  0.00     0.046 A 
ATOM     23  C   UNL     1      -2.061   0.809  -2.465  1.00  0.00     0.028 A 
ATOM     24  C   UNL     1       0.225   1.580  -2.718  1.00  0.00     0.038 A 
ATOM     25  C   UNL     1      -2.519   1.966  -3.089  1.00  0.00     0.023 A 
ATOM     26  C   UNL     1      -0.234   2.764  -3.336  1.00  0.00     0.018 A 
ATOM     27  C   UNL     1      -1.615   2.935  -3.543  1.00  0.00     0.050 A 
ATOM     28  Cl  UNL     1      -2.316   4.279  -4.376  1.00  0.00    -0.084 Cl
BRANCH  26  29
ATOM     29  C   UNL     1       0.754   3.783  -3.795  1.00  0.00     0.073 C 
ATOM     30  O   UNL     1       0.549   4.823  -4.388  1.00  0.00    -0.545 OA
ATOM     31  O   UNL     1       2.018   3.449  -3.467  1.00  0.00    -0.545 OA
ENDBRANCH  26  29
ENDBRANCH  19  22
ENDBRANCH   4  15
BRANCH   9  32
ATOM     32  C   UNL     1      -1.710  -4.047  -6.530  1.00  0.00     0.285 C 
BRANCH  32  33
ATOM     33  C   UNL     1      -1.110  -4.100  -7.880  1.00  0.00     0.138 A 
ATOM     34  C   UNL     1      -1.115  -5.039  -8.889  1.00  0.00     0.049 A 
ATOM     35  O   UNL     1      -0.479  -2.966  -8.300  1.00  0.00    -0.466 OA
ATOM     36  C   UNL     1      -0.437  -4.448  -9.982  1.00  0.00     0.042 A 
ATOM     37  C   UNL     1      -0.067  -3.189  -9.571  1.00  0.00     0.195 A 
ENDBRANCH  32  33
ENDBRANCH   9  32
ENDBRANCH   2   3
ENDBRANCH   1   2
BRANCH   1  38
ATOM     38  C   UNL     1      -0.631  -8.996  -0.476  1.00  0.00     0.119 C 
BRANCH  38  39
ATOM     39  N   UNL     1      -0.138 -10.235   0.084  1.00  0.00    -0.352 N 
ATOM     40  C   UNL     1      -0.848 -11.343   0.521  1.00  0.00     0.251 C 
ATOM     41  H   UNL     1       0.841 -10.301   0.168  1.00  0.00     0.163 HD
ATOM     42  O   UNL     1      -0.188 -12.267   0.994  1.00  0.00    -0.269 OA
BRANCH  40  43
ATOM     43  C   UNL     1      -2.357 -11.409   0.551  1.00  0.00     0.039 A 
ATOM     44  C   UNL     1      -2.980 -11.184   1.768  1.00  0.00     0.014 A 
ATOM     45  C   UNL     1      -3.170 -11.941  -0.469  1.00  0.00     0.014 A 
ATOM     46  C   UNL     1      -4.375 -11.435   1.933  1.00  0.00     0.010 A 
ATOM     47  C   UNL     1      -4.581 -12.283  -0.263  1.00  0.00     0.010 A 
ATOM     48  C   UNL     1      -5.239 -12.064   0.962  1.00  0.00    -0.014 A 
BRANCH  48  49
ATOM     49  C   UNL     1      -6.530 -12.842   1.569  1.00  0.00     0.031 A 
ATOM     50  C   UNL     1      -5.954 -13.511   2.775  1.00  0.00     0.074 A 
ATOM     51  C   UNL     1      -7.868 -13.181   1.341  1.00  0.00     0.049 A 
ATOM     52  N   UNL     1      -4.908 -14.280   2.654  1.00  0.00    -0.248 NA
ATOM     53  C   UNL     1      -6.206 -13.036   4.138  1.00  0.00     0.031 C 
ATOM     54  C   UNL     1      -8.689 -12.908   0.150  1.00  0.00     0.029 A 
ATOM     55  N   UNL     1      -8.846 -13.868   2.145  1.00  0.00    -0.354 N 
ATOM     56  C   UNL     1      -4.556 -14.652   3.925  1.00  0.00     0.074 A 
ATOM     57  C   UNL     1      -5.217 -13.671   4.778  1.00  0.00     0.031 C 
ATOM     58  C   UNL     1      -9.999 -13.257   0.341  1.00  0.00     0.029 A 
ATOM     59  C   UNL     1     -10.210 -13.862   1.658  1.00  0.00     0.049 A 
ATOM     60  H   UNL     1      -8.599 -14.320   2.984  1.00  0.00     0.167 HD
ATOM     61  C   UNL     1      -4.421 -15.993   4.137  1.00  0.00     0.034 A 
ATOM     62  C   UNL     1     -11.399 -14.357   2.208  1.00  0.00     0.034 A 
ATOM     63  C   UNL     1      -5.579 -16.542   4.793  1.00  0.00     0.049 A 
ATOM     64  C   UNL     1     -11.026 -15.457   3.098  1.00  0.00     0.074 A 
ATOM     65  C   UNL     1      -6.331 -16.133   5.876  1.00  0.00     0.029 A 
ATOM     66  N   UNL     1      -6.385 -17.375   4.044  1.00  0.00    -0.354 N 
ATOM     67  N   UNL     1     -10.690 -16.619   2.635  1.00  0.00    -0.248 NA
ATOM     68  C   UNL     1     -11.097 -15.352   4.550  1.00  0.00     0.031 C 
ATOM     69  C   UNL     1      -7.672 -16.302   5.460  1.00  0.00     0.029 A 
ATOM     70  C   UNL     1      -7.709 -17.131   4.343  1.00  0.00     0.049 A 
ATOM     71  H   UNL     1      -6.063 -18.042   3.395  1.00  0.00     0.167 HD
ATOM     72  C   UNL     1     -10.001 -17.165   3.671  1.00  0.00     0.074 A 
ATOM     73  C   UNL     1     -10.530 -16.520   4.859  1.00  0.00     0.031 C 
ATOM     74  C   UNL     1      -8.732 -17.569   3.409  1.00  0.00     0.034 A 
BRANCH  61  75
ATOM     75  C   UNL     1      -3.640 -16.706   3.065  1.00  0.00     0.023 A 
ATOM     76  C   UNL     1      -2.345 -17.157   3.348  1.00  0.00     0.031 A 
ATOM     77  C   UNL     1      -4.108 -16.839   1.739  1.00  0.00     0.131 A 
ATOM     78  C   UNL     1      -1.541 -17.660   2.311  1.00  0.00     0.055 A 
ATOM     79  C   UNL     1      -3.288 -17.279   0.703  1.00  0.00     0.041 A 
ATOM     80  F   UNL     1      -5.382 -16.545   1.430  1.00  0.00    -0.206 F 
ATOM     81  C   UNL     1      -1.989 -17.683   0.985  1.00  0.00     0.022 A 
BRANCH  78  82
ATOM     82  S   UNL     1       0.093 -18.326   2.724  1.00  0.00     0.124 S 
ATOM     83  O   UNL     1       0.796 -17.155   3.237  1.00  0.00    -0.237 OA
ATOM     84  O   UNL     1      -0.232 -19.348   3.717  1.00  0.00    -0.237 OA
ATOM     85  O   UNL     1       0.593 -18.844   1.452  1.00  0.00    -0.744 OA
ENDBRANCH  78  82
ENDBRANCH  61  75
BRANCH  62  86
ATOM     86  C   UNL     1     -12.954 -14.308   2.100  1.00  0.00     0.023 A 
ATOM     87  C   UNL     1     -13.800 -15.383   2.598  1.00  0.00     0.031 A 
ATOM     88  C   UNL     1     -13.631 -13.103   1.882  1.00  0.00     0.131 A 
ATOM     89  C   UNL     1     -15.183 -15.210   2.898  1.00  0.00     0.055 A 
ATOM     90  C   UNL     1     -15.012 -12.941   2.164  1.00  0.00     0.041 A 
ATOM     91  F   UNL     1     -12.959 -12.011   1.492  1.00  0.00    -0.206 F 
ATOM     92  C   UNL     1     -15.784 -13.978   2.688  1.00  0.00     0.022 A 
BRANCH  89  93
ATOM     93  S   UNL     1     -16.179 -16.510   3.756  1.00  0.00     0.124 S 
ATOM     94  O   UNL     1     -16.491 -17.446   2.683  1.00  0.00    -0.237 OA
ATOM     95  O   UNL     1     -15.271 -16.985   4.794  1.00  0.00    -0.237 OA
ATOM     96  O   UNL     1     -17.335 -15.770   4.269  1.00  0.00    -0.744 OA
ENDBRANCH  89  93
ENDBRANCH  62  86
BRANCH  74  97
ATOM     97  C   UNL     1      -8.480 -18.271   2.067  1.00  0.00     0.023 A 
ATOM     98  C   UNL     1      -9.021 -17.902   0.803  1.00  0.00     0.031 A 
ATOM     99  C   UNL     1      -7.709 -19.444   2.083  1.00  0.00     0.131 A 
ATOM    100  C   UNL     1      -8.825 -18.703  -0.342  1.00  0.00     0.055 A 
ATOM    101  C   UNL     1      -7.470 -20.211   0.939  1.00  0.00     0.041 A 
ATOM    102  F   UNL     1      -7.170 -19.883   3.232  1.00  0.00    -0.206 F 
ATOM    103  C   UNL     1      -8.043 -19.853  -0.276  1.00  0.00     0.022 A 
BRANCH 100 104
ATOM    104  S   UNL     1      -9.666 -18.302  -1.914  1.00  0.00     0.124 S 
ATOM    105  O   UNL     1     -11.054 -18.100  -1.514  1.00  0.00    -0.237 OA
ATOM    106  O   UNL     1      -8.954 -17.110  -2.366  1.00  0.00    -0.237 OA
ATOM    107  O   UNL     1      -9.442 -19.494  -2.734  1.00  0.00    -0.744 OA
ENDBRANCH 100 104
ENDBRANCH  74  97
ENDBRANCH  48  49
ENDBRANCH  40  43
ENDBRANCH  38  39
ENDBRANCH   1  38
TORSDOF 17
