REMARK SMILES Cc1cc(C(=O)N[C@@H]2CC2(C)C)sc1/C=C/C(=O)NCCCNC(=O)c1ccc(-c2c3nc(c(-c4cc(S(=O)(=O)[O-])ccc4F)c4ccc([nH]4)c(-c4cc(S(=O)(=O)[O-])ccc4F)c4nc(c(-c5cc(S(=O)(=O)[O-])ccc5F)c5ccc2[nH]5)C=C4)C=C3)cc1
REMARK SMILES IDX 21 1 20 2 19 3 17 4 18 5 16 7 15 8 14 9 1 10 2 11 3 12 4 13
REMARK SMILES IDX 13 14 5 15 6 16 7 17 8 19 9 20 10 21 11 22 12 23 22 24 23 25
REMARK SMILES IDX 24 26 25 28 26 29 27 30 88 31 28 32 87 33 29 34 30 35 31 36
REMARK SMILES IDX 81 37 32 38 86 39 80 40 82 41 33 42 85 43 79 44 78 45 34 47
REMARK SMILES IDX 66 48 46 49 65 50 47 51 50 52 64 53 83 54 48 55 49 56 63 58
REMARK SMILES IDX 84 59 51 60 35 61 36 62 44 63 37 64 43 65 45 66 42 67 38 68
REMARK SMILES IDX 39 69 40 70 41 71 67 72 68 73 76 74 69 75 75 76 77 77 74 78
REMARK SMILES IDX 70 79 71 80 72 81 73 82 52 83 53 84 61 85 54 86 60 87 62 88
REMARK SMILES IDX 59 89 55 90 56 91 57 92 58 93
REMARK H PARENT 19 6 7 18 23 27 82 46 50 57
REMARK Flexibility Score: inf
ROOT
ATOM      1  C   UNL     1     -11.026  -4.225   1.040  1.00  0.00     0.042 C 
ENDROOT
BRANCH   1   2
ATOM      2  C   UNL     1     -10.762  -3.333  -0.168  1.00  0.00     0.118 C 
BRANCH   2   3
ATOM      3  N   UNL     1     -10.901  -1.928   0.168  1.00  0.00    -0.352 N 
ATOM      4  C   UNL     1      -9.956  -0.998   0.464  1.00  0.00     0.244 C 
ATOM      5  O   UNL     1     -10.284   0.178   0.601  1.00  0.00    -0.270 OA
ATOM      6  H   UNL     1     -11.828  -1.596   0.185  1.00  0.00     0.163 HD
BRANCH   4   7
ATOM      7  C   UNL     1      -8.522  -1.353   0.493  1.00  0.00     0.072 C 
ATOM      8  C   UNL     1      -7.960  -2.418   1.091  1.00  0.00     0.025 C 
BRANCH   8   9
ATOM      9  C   UNL     1      -6.564  -2.633   0.939  1.00  0.00     0.031 A 
ATOM     10  C   UNL     1      -6.467  -4.964  -0.147  1.00  0.00     0.046 C 
ATOM     11  C   UNL     1      -5.882  -3.670   0.318  1.00  0.00    -0.032 A 
ATOM     12  C   UNL     1      -4.522  -3.276   0.071  1.00  0.00     0.029 A 
ATOM     13  C   UNL     1      -4.239  -1.997   0.528  1.00  0.00     0.093 A 
ATOM     14  S   UNL     1      -5.431  -1.550   1.652  1.00  0.00    -0.130 S 
BRANCH  13  15
ATOM     15  C   UNL     1      -3.029  -1.249   0.284  1.00  0.00     0.261 C 
ATOM     16  O   UNL     1      -1.943  -1.831   0.161  1.00  0.00    -0.268 OA
ATOM     17  N   UNL     1      -2.962   0.112   0.069  1.00  0.00    -0.348 N 
ATOM     18  H   UNL     1      -2.026   0.371  -0.088  1.00  0.00     0.164 HD
BRANCH  17  19
ATOM     19  C   UNL     1      -3.792   1.275  -0.005  1.00  0.00     0.088 C 
ATOM     20  C   UNL     1      -5.162   1.546   0.518  1.00  0.00     0.034 C 
ATOM     21  C   UNL     1      -4.939   1.508  -0.977  1.00  0.00    -0.013 C 
ATOM     22  C   UNL     1      -5.040   2.834  -1.689  1.00  0.00     0.013 C 
ATOM     23  C   UNL     1      -5.518   0.368  -1.771  1.00  0.00     0.013 C 
ENDBRANCH  17  19
ENDBRANCH  13  15
ENDBRANCH   8   9
ENDBRANCH   4   7
ENDBRANCH   2   3
ENDBRANCH   1   2
BRANCH   1  24
ATOM     24  C   UNL     1     -12.504  -4.356   1.387  1.00  0.00     0.118 C 
BRANCH  24  25
ATOM     25  N   UNL     1     -13.223  -5.149   0.404  1.00  0.00    -0.352 N 
ATOM     26  C   UNL     1     -13.838  -6.371   0.531  1.00  0.00     0.251 C 
ATOM     27  H   UNL     1     -13.277  -4.748  -0.494  1.00  0.00     0.163 HD
ATOM     28  O   UNL     1     -14.155  -6.981  -0.486  1.00  0.00    -0.269 OA
BRANCH  26  29
ATOM     29  C   UNL     1     -14.104  -6.957   1.866  1.00  0.00     0.039 A 
ATOM     30  C   UNL     1     -13.978  -8.340   2.030  1.00  0.00     0.014 A 
ATOM     31  C   UNL     1     -14.527  -6.168   2.940  1.00  0.00     0.014 A 
ATOM     32  C   UNL     1     -14.226  -8.920   3.278  1.00  0.00     0.010 A 
ATOM     33  C   UNL     1     -14.695  -6.736   4.202  1.00  0.00     0.010 A 
ATOM     34  C   UNL     1     -14.557  -8.120   4.382  1.00  0.00    -0.014 A 
BRANCH  34  35
ATOM     35  C   UNL     1     -14.781  -8.715   5.727  1.00  0.00     0.031 A 
ATOM     36  C   UNL     1     -16.133  -8.618   6.381  1.00  0.00     0.074 A 
ATOM     37  C   UNL     1     -13.752  -9.291   6.380  1.00  0.00     0.049 A 
ATOM     38  N   UNL     1     -16.506  -8.999   7.576  1.00  0.00    -0.248 NA
ATOM     39  C   UNL     1     -17.200  -7.978   5.597  1.00  0.00     0.031 C 
ATOM     40  C   UNL     1     -12.387  -9.411   5.865  1.00  0.00     0.029 A 
ATOM     41  N   UNL     1     -13.690  -9.874   7.621  1.00  0.00    -0.354 N 
ATOM     42  C   UNL     1     -17.844  -8.635   7.692  1.00  0.00     0.074 A 
ATOM     43  C   UNL     1     -18.195  -7.945   6.469  1.00  0.00     0.031 C 
ATOM     44  C   UNL     1     -11.629 -10.049   6.771  1.00  0.00     0.029 A 
ATOM     45  C   UNL     1     -12.438 -10.341   7.950  1.00  0.00     0.049 A 
ATOM     46  H   UNL     1     -14.468  -9.952   8.219  1.00  0.00     0.167 HD
ATOM     47  C   UNL     1     -18.705  -8.874   8.714  1.00  0.00     0.034 A 
ATOM     48  C   UNL     1     -11.989 -10.925   9.078  1.00  0.00     0.034 A 
ATOM     49  C   UNL     1     -18.338  -9.573   9.922  1.00  0.00     0.049 A 
ATOM     50  C   UNL     1     -12.957 -11.163  10.209  1.00  0.00     0.074 A 
ATOM     51  C   UNL     1     -19.138  -9.911  11.000  1.00  0.00     0.029 A 
ATOM     52  N   UNL     1     -17.062 -10.036  10.218  1.00  0.00    -0.354 N 
ATOM     53  N   UNL     1     -14.230 -10.850  10.285  1.00  0.00    -0.248 NA
ATOM     54  C   UNL     1     -12.431 -11.845  11.398  1.00  0.00     0.031 C 
ATOM     55  C   UNL     1     -18.334 -10.518  11.972  1.00  0.00     0.029 A 
ATOM     56  C   UNL     1     -17.047 -10.631  11.471  1.00  0.00     0.049 A 
ATOM     57  H   UNL     1     -16.281  -9.954   9.624  1.00  0.00     0.167 HD
ATOM     58  C   UNL     1     -14.663 -11.324  11.521  1.00  0.00     0.074 A 
ATOM     59  C   UNL     1     -13.519 -11.958  12.145  1.00  0.00     0.031 C 
ATOM     60  C   UNL     1     -15.895 -11.247  12.087  1.00  0.00     0.034 A 
BRANCH  47  61
ATOM     61  C   UNL     1     -20.116  -8.351   8.570  1.00  0.00     0.023 A 
ATOM     62  C   UNL     1     -20.968  -8.795   7.543  1.00  0.00     0.031 A 
ATOM     63  C   UNL     1     -20.608  -7.372   9.452  1.00  0.00     0.131 A 
ATOM     64  C   UNL     1     -22.230  -8.206   7.373  1.00  0.00     0.055 A 
ATOM     65  C   UNL     1     -21.899  -6.851   9.330  1.00  0.00     0.041 A 
ATOM     66  F   UNL     1     -19.838  -6.893  10.441  1.00  0.00    -0.206 F 
ATOM     67  C   UNL     1     -22.712  -7.255   8.275  1.00  0.00     0.022 A 
BRANCH  64  68
ATOM     68  S   UNL     1     -23.168  -8.589   5.869  1.00  0.00     0.124 S 
ATOM     69  O   UNL     1     -22.240  -8.158   4.825  1.00  0.00    -0.237 OA
ATOM     70  O   UNL     1     -23.375 -10.028   5.984  1.00  0.00    -0.237 OA
ATOM     71  O   UNL     1     -24.372  -7.771   5.998  1.00  0.00    -0.744 OA
ENDBRANCH  64  68
ENDBRANCH  47  61
BRANCH  48  72
ATOM     72  C   UNL     1     -10.556 -11.318   9.204  1.00  0.00     0.023 A 
ATOM     73  C   UNL     1     -10.182 -12.666   9.323  1.00  0.00     0.031 A 
ATOM     74  C   UNL     1      -9.539 -10.346   9.241  1.00  0.00     0.131 A 
ATOM     75  C   UNL     1      -8.834 -13.004   9.516  1.00  0.00     0.055 A 
ATOM     76  C   UNL     1      -8.194 -10.691   9.380  1.00  0.00     0.041 A 
ATOM     77  F   UNL     1      -9.841  -9.043   9.124  1.00  0.00    -0.206 F 
ATOM     78  C   UNL     1      -7.836 -12.027   9.533  1.00  0.00     0.022 A 
BRANCH  75  79
ATOM     79  S   UNL     1      -8.410 -14.740   9.827  1.00  0.00     0.124 S 
ATOM     80  O   UNL     1      -9.203 -15.032  11.015  1.00  0.00    -0.237 OA
ATOM     81  O   UNL     1      -8.844 -15.382   8.591  1.00  0.00    -0.237 OA
ATOM     82  O   UNL     1      -6.964 -14.705  10.033  1.00  0.00    -0.744 OA
ENDBRANCH  75  79
ENDBRANCH  48  72
BRANCH  60  83
ATOM     83  C   UNL     1     -16.071 -11.906  13.433  1.00  0.00     0.023 A 
ATOM     84  C   UNL     1     -15.421 -11.427  14.584  1.00  0.00     0.031 A 
ATOM     85  C   UNL     1     -16.891 -13.042  13.562  1.00  0.00     0.131 A 
ATOM     86  C   UNL     1     -15.554 -12.115  15.799  1.00  0.00     0.055 A 
ATOM     87  C   UNL     1     -17.069 -13.685  14.787  1.00  0.00     0.041 A 
ATOM     88  F   UNL     1     -17.534 -13.544  12.495  1.00  0.00    -0.206 F 
ATOM     89  C   UNL     1     -16.387 -13.231  15.912  1.00  0.00     0.022 A 
BRANCH  86  90
ATOM     90  S   UNL     1     -14.544 -11.591  17.212  1.00  0.00     0.124 S 
ATOM     91  O   UNL     1     -13.191 -11.718  16.682  1.00  0.00    -0.237 OA
ATOM     92  O   UNL     1     -15.014 -10.228  17.442  1.00  0.00    -0.237 OA
ATOM     93  O   UNL     1     -14.893 -12.550  18.258  1.00  0.00    -0.744 OA
ENDBRANCH  86  90
ENDBRANCH  60  83
ENDBRANCH  34  35
ENDBRANCH  26  29
ENDBRANCH  24  25
ENDBRANCH   1  24
TORSDOF 16
