REMARK SMILES Nc1c(CC(=O)NCCCNC(=O)c2ccc(-c3c4nc(c(-c5cc(S(=O)(=O)[O-])ccc5F)c5ccc([nH]5)c(-c5cc(S(=O)(=O)[O-])ccc5F)c5nc(c(-c6cc(S(=O)(=O)[O-])ccc6F)c6ccc3[nH]6)C=C5)C=C4)cc2)cccc1C(=O)c1ccc(Br)cc1
REMARK SMILES IDX 9 1 8 2 7 3 5 4 6 5 4 7 3 8 2 9 80 10 77 11 79 12 78 13 1 14
REMARK SMILES IDX 81 17 82 18 83 19 84 20 89 21 85 22 88 23 86 24 87 25 10 26
REMARK SMILES IDX 11 27 12 28 13 30 14 31 15 32 76 33 16 34 75 35 17 36 18 37
REMARK SMILES IDX 19 38 69 39 20 40 74 41 68 42 70 43 21 44 73 45 67 46 66 47
REMARK SMILES IDX 22 49 54 50 34 51 53 52 35 53 38 54 52 55 71 56 36 57 37 58
REMARK SMILES IDX 51 60 72 61 39 62 23 63 24 64 32 65 25 66 31 67 33 68 30 69
REMARK SMILES IDX 26 70 27 71 28 72 29 73 55 74 56 75 64 76 57 77 63 78 65 79
REMARK SMILES IDX 62 80 58 81 59 82 60 83 61 84 40 85 41 86 49 87 42 88 48 89
REMARK SMILES IDX 50 90 47 91 43 92 44 93 45 94 46 95
REMARK H PARENT 7 6 1 15 1 16 11 29 70 48 38 59
REMARK Flexibility Score: inf
ROOT
ATOM      1  C   UNL     1       0.884  -0.776   3.426  1.00  0.00     0.042 C 
ENDROOT
BRANCH   1   2
ATOM      2  C   UNL     1       1.718  -1.908   2.831  1.00  0.00     0.117 C 
BRANCH   2   3
ATOM      3  N   UNL     1       0.909  -3.052   2.456  1.00  0.00    -0.356 N 
ATOM      4  C   UNL     1       0.443  -3.409   1.224  1.00  0.00     0.224 C 
ATOM      5  O   UNL     1      -0.266  -4.414   1.135  1.00  0.00    -0.275 OA
ATOM      6  H   UNL     1       0.662  -3.655   3.193  1.00  0.00     0.163 HD
BRANCH   4   7
ATOM      7  C   UNL     1       0.849  -2.624  -0.013  1.00  0.00     0.137 C 
BRANCH   7   8
ATOM      8  C   UNL     1       0.243  -1.234  -0.108  1.00  0.00    -0.015 A 
ATOM      9  C   UNL     1       1.028  -0.048  -0.135  1.00  0.00     0.046 A 
ATOM     10  C   UNL     1       0.367   1.209  -0.158  1.00  0.00     0.046 A 
ATOM     11  C   UNL     1      -1.162  -1.149  -0.128  1.00  0.00     0.006 A 
ATOM     12  C   UNL     1      -1.042   1.249  -0.156  1.00  0.00     0.014 A 
ATOM     13  C   UNL     1      -1.800   0.083  -0.145  1.00  0.00     0.001 A 
BRANCH   9  14
ATOM     14  N   UNL     1       2.413  -0.167  -0.094  1.00  0.00    -0.398 N 
ATOM     15  H   UNL     1       2.830  -1.058  -0.079  1.00  0.00     0.156 HD
ATOM     16  H   UNL     1       2.975   0.641  -0.080  1.00  0.00     0.156 HD
ENDBRANCH   9  14
BRANCH  10  17
ATOM     17  C   UNL     1       1.028   2.561  -0.160  1.00  0.00     0.195 C 
ATOM     18  O   UNL     1       0.363   3.583  -0.003  1.00  0.00    -0.289 OA
BRANCH  17  19
ATOM     19  C   UNL     1       2.481   2.753  -0.299  1.00  0.00     0.023 A 
ATOM     20  C   UNL     1       3.176   3.329   0.771  1.00  0.00     0.013 A 
ATOM     21  C   UNL     1       3.159   2.346  -1.452  1.00  0.00     0.013 A 
ATOM     22  C   UNL     1       4.566   3.431   0.718  1.00  0.00     0.016 A 
ATOM     23  C   UNL     1       4.552   2.439  -1.497  1.00  0.00     0.016 A 
ATOM     24  C   UNL     1       5.248   2.970  -0.408  1.00  0.00     0.018 A 
ATOM     25  Br  UNL     1       7.137   3.043  -0.454  1.00  0.00    -0.051 Br
ENDBRANCH  17  19
ENDBRANCH  10  17
ENDBRANCH   7   8
ENDBRANCH   4   7
ENDBRANCH   2   3
ENDBRANCH   1   2
BRANCH   1  26
ATOM     26  C   UNL     1       0.351  -1.080   4.824  1.00  0.00     0.118 C 
BRANCH  26  27
ATOM     27  N   UNL     1       1.423  -1.255   5.795  1.00  0.00    -0.352 N 
ATOM     28  C   UNL     1       1.643  -0.636   6.996  1.00  0.00     0.251 C 
ATOM     29  H   UNL     1       2.097  -1.928   5.548  1.00  0.00     0.163 HD
ATOM     30  O   UNL     1       2.737  -0.791   7.547  1.00  0.00    -0.269 OA
BRANCH  28  31
ATOM     31  C   UNL     1       0.611   0.217   7.624  1.00  0.00     0.039 A 
ATOM     32  C   UNL     1       1.018   1.369   8.303  1.00  0.00     0.014 A 
ATOM     33  C   UNL     1      -0.743  -0.127   7.588  1.00  0.00     0.014 A 
ATOM     34  C   UNL     1       0.066   2.202   8.894  1.00  0.00     0.010 A 
ATOM     35  C   UNL     1      -1.698   0.744   8.111  1.00  0.00     0.010 A 
ATOM     36  C   UNL     1      -1.303   1.916   8.773  1.00  0.00    -0.014 A 
BRANCH  36  37
ATOM     37  C   UNL     1      -2.325   2.847   9.317  1.00  0.00     0.031 A 
ATOM     38  C   UNL     1      -3.255   2.410  10.416  1.00  0.00     0.074 A 
ATOM     39  C   UNL     1      -2.454   4.072   8.772  1.00  0.00     0.049 A 
ATOM     40  N   UNL     1      -4.227   3.072  10.990  1.00  0.00    -0.248 NA
ATOM     41  C   UNL     1      -3.089   1.036  10.907  1.00  0.00     0.031 C 
ATOM     42  C   UNL     1      -1.656   4.583   7.655  1.00  0.00     0.029 A 
ATOM     43  N   UNL     1      -3.308   5.103   9.070  1.00  0.00    -0.354 N 
ATOM     44  C   UNL     1      -4.798   2.192  11.904  1.00  0.00     0.074 A 
ATOM     45  C   UNL     1      -4.104   0.929  11.751  1.00  0.00     0.031 C 
ATOM     46  C   UNL     1      -2.046   5.836   7.375  1.00  0.00     0.029 A 
ATOM     47  C   UNL     1      -3.146   6.203   8.260  1.00  0.00     0.049 A 
ATOM     48  H   UNL     1      -3.973   5.060   9.795  1.00  0.00     0.167 HD
ATOM     49  C   UNL     1      -5.790   2.422  12.802  1.00  0.00     0.034 A 
ATOM     50  C   UNL     1      -3.817   7.370   8.221  1.00  0.00     0.034 A 
ATOM     51  C   UNL     1      -6.472   3.690  12.931  1.00  0.00     0.049 A 
ATOM     52  C   UNL     1      -4.919   7.609   9.217  1.00  0.00     0.074 A 
ATOM     53  C   UNL     1      -7.437   4.063  13.851  1.00  0.00     0.029 A 
ATOM     54  N   UNL     1      -6.277   4.789  12.100  1.00  0.00    -0.354 N 
ATOM     55  N   UNL     1      -5.392   6.798  10.136  1.00  0.00    -0.248 NA
ATOM     56  C   UNL     1      -5.565   8.925   9.182  1.00  0.00     0.031 C 
ATOM     57  C   UNL     1      -7.881   5.351  13.527  1.00  0.00     0.029 A 
ATOM     58  C   UNL     1      -7.134   5.821  12.458  1.00  0.00     0.049 A 
ATOM     59  H   UNL     1      -5.625   4.829  11.364  1.00  0.00     0.167 HD
ATOM     60  C   UNL     1      -6.386   7.513  10.798  1.00  0.00     0.074 A 
ATOM     61  C   UNL     1      -6.422   8.828  10.188  1.00  0.00     0.031 C 
ATOM     62  C   UNL     1      -7.192   7.118  11.818  1.00  0.00     0.034 A 
BRANCH  49  63
ATOM     63  C   UNL     1      -6.212   1.262  13.678  1.00  0.00     0.023 A 
ATOM     64  C   UNL     1      -5.304   0.616  14.537  1.00  0.00     0.031 A 
ATOM     65  C   UNL     1      -7.520   0.751  13.610  1.00  0.00     0.131 A 
ATOM     66  C   UNL     1      -5.680  -0.562  15.202  1.00  0.00     0.055 A 
ATOM     67  C   UNL     1      -7.917  -0.364  14.353  1.00  0.00     0.041 A 
ATOM     68  F   UNL     1      -8.432   1.309  12.798  1.00  0.00    -0.206 F 
ATOM     69  C   UNL     1      -6.989  -1.042  15.137  1.00  0.00     0.022 A 
BRANCH  66  70
ATOM     70  S   UNL     1      -4.384  -1.560  15.989  1.00  0.00     0.124 S 
ATOM     71  O   UNL     1      -3.458  -1.771  14.878  1.00  0.00    -0.237 OA
ATOM     72  O   UNL     1      -3.915  -0.684  17.055  1.00  0.00    -0.237 OA
ATOM     73  O   UNL     1      -5.095  -2.758  16.430  1.00  0.00    -0.744 OA
ENDBRANCH  66  70
ENDBRANCH  49  63
BRANCH  50  74
ATOM     74  C   UNL     1      -3.470   8.386   7.188  1.00  0.00     0.023 A 
ATOM     75  C   UNL     1      -2.875   9.608   7.535  1.00  0.00     0.031 A 
ATOM     76  C   UNL     1      -3.717   8.133   5.827  1.00  0.00     0.131 A 
ATOM     77  C   UNL     1      -2.567  10.543   6.534  1.00  0.00     0.055 A 
ATOM     78  C   UNL     1      -3.367   9.046   4.831  1.00  0.00     0.041 A 
ATOM     79  F   UNL     1      -4.276   6.973   5.443  1.00  0.00    -0.206 F 
ATOM     80  C   UNL     1      -2.795  10.263   5.184  1.00  0.00     0.022 A 
BRANCH  77  81
ATOM     81  S   UNL     1      -1.895  12.155   7.024  1.00  0.00     0.124 S 
ATOM     82  O   UNL     1      -2.974  12.690   7.848  1.00  0.00    -0.237 OA
ATOM     83  O   UNL     1      -0.677  11.775   7.731  1.00  0.00    -0.237 OA
ATOM     84  O   UNL     1      -1.685  12.839   5.750  1.00  0.00    -0.744 OA
ENDBRANCH  77  81
ENDBRANCH  50  74
BRANCH  62  85
ATOM     85  C   UNL     1      -8.174   8.139  12.344  1.00  0.00     0.023 A 
ATOM     86  C   UNL     1      -9.223   8.633  11.547  1.00  0.00     0.031 A 
ATOM     87  C   UNL     1      -8.041   8.649  13.648  1.00  0.00     0.131 A 
ATOM     88  C   UNL     1     -10.055   9.651  12.038  1.00  0.00     0.055 A 
ATOM     89  C   UNL     1      -8.915   9.611  14.155  1.00  0.00     0.041 A 
ATOM     90  F   UNL     1      -7.055   8.220  14.452  1.00  0.00    -0.206 F 
ATOM     91  C   UNL     1      -9.920  10.130  13.343  1.00  0.00     0.022 A 
BRANCH  88  92
ATOM     92  S   UNL     1     -11.245  10.425  10.908  1.00  0.00     0.124 S 
ATOM     93  O   UNL     1     -10.377  10.902   9.836  1.00  0.00    -0.237 OA
ATOM     94  O   UNL     1     -12.124   9.310  10.569  1.00  0.00    -0.237 OA
ATOM     95  O   UNL     1     -11.859  11.473  11.721  1.00  0.00    -0.744 OA
ENDBRANCH  88  92
ENDBRANCH  62  85
ENDBRANCH  36  37
ENDBRANCH  28  31
ENDBRANCH  26  27
ENDBRANCH   1  26
TORSDOF 17
