REMARK SMILES CCc1ccsc1CNS(=O)(=O)N1CCC(C(=O)NCCCNC(=O)c2ccc(-c3c4nc(c(-c5cc(S(=O)(=O)[O-])ccc5F)c5ccc([nH]5)c(-c5cc(S(=O)(=O)[O-])ccc5F)c5nc(c(-c6cc(S(=O)(=O)[O-])ccc6F)c6ccc3[nH]6)C=C5)C=C4)cc2)CC1
REMARK SMILES IDX 20 1 19 2 17 3 18 4 16 6 13 7 14 8 90 9 15 10 89 11 10 12
REMARK SMILES IDX 11 13 12 14 9 15 8 17 7 18 3 19 4 20 5 21 6 22 2 23 1 24
REMARK SMILES IDX 21 25 22 26 23 27 24 28 25 30 26 31 27 32 88 33 28 34 87 35
REMARK SMILES IDX 29 36 30 37 31 38 81 39 32 40 86 41 80 42 82 43 33 44 85 45
REMARK SMILES IDX 79 46 78 47 34 49 66 50 46 51 65 52 47 53 50 54 64 55 83 56
REMARK SMILES IDX 48 57 49 58 63 60 84 61 51 62 35 63 36 64 44 65 37 66 43 67
REMARK SMILES IDX 45 68 42 69 38 70 39 71 40 72 41 73 67 74 68 75 76 76 69 77
REMARK SMILES IDX 75 78 77 79 74 80 70 81 71 82 72 83 73 84 52 85 53 86 61 87
REMARK SMILES IDX 54 88 60 89 62 90 59 91 55 92 56 93 57 94 58 95
REMARK H PARENT 19 5 9 16 23 29 82 48 50 59
REMARK Flexibility Score: inf
ROOT
ATOM      1  C   UNL     1      -5.579   7.966   2.969  1.00  0.00     0.117 C 
ENDROOT
BRANCH   1   2
ATOM      2  N   UNL     1      -5.777   8.482   1.621  1.00  0.00    -0.356 N 
ATOM      3  C   UNL     1      -4.929   8.558   0.561  1.00  0.00     0.223 C 
ATOM      4  O   UNL     1      -5.335   9.082  -0.478  1.00  0.00    -0.275 OA
ATOM      5  H   UNL     1      -6.679   8.837   1.448  1.00  0.00     0.163 HD
BRANCH   3   6
ATOM      6  C   UNL     1      -3.534   7.972   0.631  1.00  0.00     0.081 C 
ATOM      7  N   UNL     1      -1.568   6.633   2.251  1.00  0.00    -0.189 NA
ATOM      8  C   UNL     1      -1.298   8.021   1.819  1.00  0.00     0.104 C 
ATOM      9  C   UNL     1      -2.293   5.849   1.229  1.00  0.00     0.104 C 
ATOM     10  C   UNL     1      -2.626   8.735   1.598  1.00  0.00     0.030 C 
ATOM     11  C   UNL     1      -3.622   6.465   0.869  1.00  0.00     0.030 C 
BRANCH   7  12
ATOM     12  S   UNL     1      -0.285   5.835   3.011  1.00  0.00     0.279 S 
ATOM     13  O   UNL     1      -0.799   4.658   3.668  1.00  0.00    -0.195 OA
ATOM     14  O   UNL     1       0.539   6.795   3.705  1.00  0.00    -0.195 OA
BRANCH  12  15
ATOM     15  N   UNL     1       0.605   5.326   1.677  1.00  0.00    -0.197 NA
ATOM     16  H   UNL     1       0.418   5.963   0.902  1.00  0.00     0.142 HD
BRANCH  15  17
ATOM     17  C   UNL     1       0.282   3.959   1.242  1.00  0.00     0.146 C 
BRANCH  17  18
ATOM     18  C   UNL     1       0.968   3.550  -0.031  1.00  0.00     0.023 A 
ATOM     19  C   UNL     1       1.148   2.232  -0.444  1.00  0.00    -0.033 A 
ATOM     20  C   UNL     1       1.766   2.183  -1.735  1.00  0.00     0.015 A 
ATOM     21  C   UNL     1       2.006   3.434  -2.257  1.00  0.00     0.065 A 
ATOM     22  S   UNL     1       1.497   4.675  -1.204  1.00  0.00    -0.147 S 
BRANCH  19  23
ATOM     23  C   UNL     1       0.687   1.056   0.385  1.00  0.00     0.033 C 
ATOM     24  C   UNL     1       1.109  -0.314  -0.104  1.00  0.00     0.009 C 
ENDBRANCH  19  23
ENDBRANCH  17  18
ENDBRANCH  15  17
ENDBRANCH  12  15
ENDBRANCH   7  12
ENDBRANCH   3   6
ENDBRANCH   1   2
BRANCH   1  25
ATOM     25  C   UNL     1      -5.679   9.061   4.015  1.00  0.00     0.042 C 
BRANCH  25  26
ATOM     26  C   UNL     1      -7.050   9.711   4.066  1.00  0.00     0.118 C 
BRANCH  26  27
ATOM     27  N   UNL     1      -8.098   8.765   4.423  1.00  0.00    -0.352 N 
ATOM     28  C   UNL     1      -8.894   8.716   5.540  1.00  0.00     0.251 C 
ATOM     29  H   UNL     1      -8.259   8.052   3.764  1.00  0.00     0.163 HD
ATOM     30  O   UNL     1      -9.553   7.705   5.766  1.00  0.00    -0.269 OA
BRANCH  28  31
ATOM     31  C   UNL     1      -8.935   9.865   6.469  1.00  0.00     0.039 A 
ATOM     32  C   UNL     1      -8.987   9.625   7.843  1.00  0.00     0.014 A 
ATOM     33  C   UNL     1      -8.925  11.177   5.989  1.00  0.00     0.014 A 
ATOM     34  C   UNL     1      -8.963  10.701   8.732  1.00  0.00     0.010 A 
ATOM     35  C   UNL     1      -8.786  12.240   6.873  1.00  0.00     0.010 A 
ATOM     36  C   UNL     1      -8.821  12.015   8.256  1.00  0.00    -0.014 A 
BRANCH  36  37
ATOM     37  C   UNL     1      -8.734  13.167   9.191  1.00  0.00     0.031 A 
ATOM     38  C   UNL     1      -9.778  14.251   9.149  1.00  0.00     0.074 A 
ATOM     39  C   UNL     1      -7.695  13.254  10.045  1.00  0.00     0.049 A 
ATOM     40  N   UNL     1      -9.856  15.351   9.852  1.00  0.00    -0.248 NA
ATOM     41  C   UNL     1     -10.862  14.091   8.167  1.00  0.00     0.031 C 
ATOM     42  C   UNL     1      -6.600  12.286  10.146  1.00  0.00     0.029 A 
ATOM     43  N   UNL     1      -7.389  14.197  10.994  1.00  0.00    -0.354 N 
ATOM     44  C   UNL     1     -10.990  16.014   9.394  1.00  0.00     0.074 A 
ATOM     45  C   UNL     1     -11.522  15.230   8.301  1.00  0.00     0.031 C 
ATOM     46  C   UNL     1      -5.769  12.662  11.130  1.00  0.00     0.029 A 
ATOM     47  C   UNL     1      -6.236  13.924  11.694  1.00  0.00     0.049 A 
ATOM     48  H   UNL     1      -7.943  14.994  11.158  1.00  0.00     0.167 HD
ATOM     49  C   UNL     1     -11.554  17.155   9.862  1.00  0.00     0.034 A 
ATOM     50  C   UNL     1      -5.620  14.618  12.671  1.00  0.00     0.034 A 
ATOM     51  C   UNL     1     -11.013  17.919  10.959  1.00  0.00     0.049 A 
ATOM     52  C   UNL     1      -6.242  15.909  13.144  1.00  0.00     0.074 A 
ATOM     53  C   UNL     1     -11.524  19.063  11.545  1.00  0.00     0.029 A 
ATOM     54  N   UNL     1      -9.832  17.624  11.630  1.00  0.00    -0.354 N 
ATOM     55  N   UNL     1      -7.346  16.493  12.736  1.00  0.00    -0.248 NA
ATOM     56  C   UNL     1      -5.542  16.626  14.217  1.00  0.00     0.031 C 
ATOM     57  C   UNL     1     -10.615  19.504  12.513  1.00  0.00     0.029 A 
ATOM     58  C   UNL     1      -9.582  18.585  12.597  1.00  0.00     0.049 A 
ATOM     59  H   UNL     1      -9.258  16.846  11.445  1.00  0.00     0.167 HD
ATOM     60  C   UNL     1      -7.487  17.630  13.529  1.00  0.00     0.074 A 
ATOM     61  C   UNL     1      -6.369  17.634  14.449  1.00  0.00     0.031 C 
ATOM     62  C   UNL     1      -8.455  18.582  13.502  1.00  0.00     0.034 A 
BRANCH  49  63
ATOM     63  C   UNL     1     -12.804  17.649   9.174  1.00  0.00     0.023 A 
ATOM     64  C   UNL     1     -13.987  16.887   9.152  1.00  0.00     0.031 A 
ATOM     65  C   UNL     1     -12.812  18.889   8.511  1.00  0.00     0.131 A 
ATOM     66  C   UNL     1     -15.098  17.336   8.423  1.00  0.00     0.055 A 
ATOM     67  C   UNL     1     -13.950  19.371   7.862  1.00  0.00     0.041 A 
ATOM     68  F   UNL     1     -11.707  19.651   8.475  1.00  0.00    -0.206 F 
ATOM     69  C   UNL     1     -15.098  18.586   7.802  1.00  0.00     0.022 A 
BRANCH  66  70
ATOM     70  S   UNL     1     -16.487  16.197   8.174  1.00  0.00     0.124 S 
ATOM     71  O   UNL     1     -15.831  15.075   7.506  1.00  0.00    -0.237 OA
ATOM     72  O   UNL     1     -16.944  15.952   9.536  1.00  0.00    -0.237 OA
ATOM     73  O   UNL     1     -17.408  16.959   7.333  1.00  0.00    -0.744 OA
ENDBRANCH  66  70
ENDBRANCH  49  63
BRANCH  50  74
ATOM     74  C   UNL     1      -4.343  14.125  13.266  1.00  0.00     0.023 A 
ATOM     75  C   UNL     1      -4.257  13.802  14.630  1.00  0.00     0.031 A 
ATOM     76  C   UNL     1      -3.173  14.023  12.492  1.00  0.00     0.131 A 
ATOM     77  C   UNL     1      -3.019  13.451  15.190  1.00  0.00     0.055 A 
ATOM     78  C   UNL     1      -1.958  13.609  13.041  1.00  0.00     0.041 A 
ATOM     79  F   UNL     1      -3.196  14.319  11.182  1.00  0.00    -0.206 F 
ATOM     80  C   UNL     1      -1.873  13.337  14.402  1.00  0.00     0.022 A 
BRANCH  77  81
ATOM     81  S   UNL     1      -2.907  13.255  16.990  1.00  0.00     0.124 S 
ATOM     82  O   UNL     1      -3.378  14.554  17.459  1.00  0.00    -0.237 OA
ATOM     83  O   UNL     1      -3.798  12.125  17.228  1.00  0.00    -0.237 OA
ATOM     84  O   UNL     1      -1.488  12.987  17.215  1.00  0.00    -0.744 OA
ENDBRANCH  77  81
ENDBRANCH  50  74
BRANCH  62  85
ATOM     85  C   UNL     1      -8.367  19.682  14.533  1.00  0.00     0.023 A 
ATOM     86  C   UNL     1      -7.308  20.607  14.542  1.00  0.00     0.031 A 
ATOM     87  C   UNL     1      -9.353  19.797  15.529  1.00  0.00     0.131 A 
ATOM     88  C   UNL     1      -7.227  21.565  15.563  1.00  0.00     0.055 A 
ATOM     89  C   UNL     1      -9.305  20.799  16.499  1.00  0.00     0.041 A 
ATOM     90  F   UNL     1     -10.385  18.939  15.573  1.00  0.00    -0.206 F 
ATOM     91  C   UNL     1      -8.230  21.680  16.529  1.00  0.00     0.022 A 
BRANCH  88  92
ATOM     92  S   UNL     1      -5.736  22.593  15.676  1.00  0.00     0.124 S 
ATOM     93  O   UNL     1      -4.686  21.588  15.805  1.00  0.00    -0.237 OA
ATOM     94  O   UNL     1      -5.766  23.325  14.414  1.00  0.00    -0.237 OA
ATOM     95  O   UNL     1      -5.968  23.405  16.869  1.00  0.00    -0.744 OA
ENDBRANCH  88  92
ENDBRANCH  62  85
ENDBRANCH  36  37
ENDBRANCH  28  31
ENDBRANCH  26  27
ENDBRANCH  25  26
ENDBRANCH   1  25
TORSDOF 18
