REMARK SMILES C[C@H](NC(=O)N[C@](C)(C(=O)NCCCNC(=O)c1ccc(-c2c3nc(c(-c4cc(S(=O)(=O)[O-])ccc4F)c4ccc([nH]4)c(-c4cc(S(=O)(=O)[O-])ccc4F)c4nc(c(-c5cc(S(=O)(=O)[O-])ccc5F)c5ccc2[nH]5)C=C4)C=C3)cc1)C(F)(F)F)C(N)=O
REMARK SMILES IDX 13 1 12 2 11 3 9 4 10 5 7 7 8 8 6 9 3 10 4 11 5 13 2 15 1 16
REMARK SMILES IDX 85 17 86 18 87 19 81 22 82 23 83 24 84 25 14 26 15 27 16 28
REMARK SMILES IDX 17 30 18 31 19 32 80 33 20 34 79 35 21 36 22 37 23 38 73 39
REMARK SMILES IDX 24 40 78 41 72 42 74 43 25 44 77 45 71 46 70 47 26 49 58 50
REMARK SMILES IDX 38 51 57 52 39 53 42 54 56 55 75 56 40 57 41 58 55 60 76 61
REMARK SMILES IDX 43 62 27 63 28 64 36 65 29 66 35 67 37 68 34 69 30 70 31 71
REMARK SMILES IDX 32 72 33 73 59 74 60 75 68 76 61 77 67 78 69 79 66 80 62 81
REMARK SMILES IDX 63 82 64 83 65 84 44 85 45 86 53 87 46 88 52 89 54 90 51 91
REMARK SMILES IDX 47 92 48 93 49 94 50 95
REMARK H PARENT 11 6 3 12 6 14 86 20 86 21 15 29 74 48 42 59
REMARK Flexibility Score: inf
ROOT
ATOM      1  C   UNL     1       0.971   6.145  -1.083  1.00  0.00     0.042 C 
ENDROOT
BRANCH   1   2
ATOM      2  C   UNL     1       1.020   5.658   0.366  1.00  0.00     0.117 C 
BRANCH   2   3
ATOM      3  N   UNL     1      -0.079   4.745   0.645  1.00  0.00    -0.354 N 
ATOM      4  C   UNL     1      -0.147   3.378   0.633  1.00  0.00     0.255 C 
ATOM      5  O   UNL     1      -1.283   2.904   0.542  1.00  0.00    -0.272 OA
ATOM      6  H   UNL     1      -0.924   5.190   0.885  1.00  0.00     0.163 HD
BRANCH   4   7
ATOM      7  C   UNL     1       1.113   2.495   0.639  1.00  0.00     0.213 C 
ATOM      8  C   UNL     1       1.870   2.727  -0.701  1.00  0.00     0.056 C 
BRANCH   7   9
ATOM      9  N   UNL     1       2.016   2.908   1.756  1.00  0.00    -0.316 N 
ATOM     10  N   UNL     1       1.276   2.461   3.987  1.00  0.00    -0.327 N 
ATOM     11  C   UNL     1       2.108   2.905   3.070  1.00  0.00     0.316 C 
ATOM     12  H   UNL     1       1.643   2.706   4.867  1.00  0.00     0.166 HD
ATOM     13  O   UNL     1       3.140   3.431   3.510  1.00  0.00    -0.249 OA
ATOM     14  H   UNL     1       2.823   3.327   1.379  1.00  0.00     0.166 HD
BRANCH  10  15
ATOM     15  C   UNL     1       0.015   1.744   4.212  1.00  0.00     0.169 C 
ATOM     16  C   UNL     1      -1.213   2.353   3.560  1.00  0.00     0.041 C 
BRANCH  15  17
ATOM     17  C   UNL     1       0.199   0.209   4.154  1.00  0.00     0.239 C 
ATOM     18  N   UNL     1      -0.930  -0.555   4.077  1.00  0.00    -0.368 N 
ATOM     19  O   UNL     1       1.287  -0.344   4.308  1.00  0.00    -0.273 OA
ATOM     20  H   UNL     1      -1.807  -0.126   3.953  1.00  0.00     0.159 HD
ATOM     21  H   UNL     1      -0.866  -1.536   4.144  1.00  0.00     0.159 HD
ENDBRANCH  15  17
ENDBRANCH  10  15
ENDBRANCH   7   9
BRANCH   7  22
ATOM     22  C   UNL     1       0.710   1.011   0.607  1.00  0.00     0.420 C 
ATOM     23  F   UNL     1       0.060   0.689  -0.539  1.00  0.00    -0.168 F 
ATOM     24  F   UNL     1       1.816   0.221   0.645  1.00  0.00    -0.168 F 
ATOM     25  F   UNL     1      -0.072   0.624   1.625  1.00  0.00    -0.168 F 
ENDBRANCH   7  22
ENDBRANCH   4   7
ENDBRANCH   2   3
ENDBRANCH   1   2
BRANCH   1  26
ATOM     26  C   UNL     1      -0.214   7.062  -1.378  1.00  0.00     0.118 C 
BRANCH  26  27
ATOM     27  N   UNL     1      -0.060   8.369  -0.757  1.00  0.00    -0.352 N 
ATOM     28  C   UNL     1       0.068   9.604  -1.342  1.00  0.00     0.251 C 
ATOM     29  H   UNL     1      -0.044   8.367   0.228  1.00  0.00     0.163 HD
ATOM     30  O   UNL     1       0.431  10.559  -0.653  1.00  0.00    -0.269 OA
BRANCH  28  31
ATOM     31  C   UNL     1      -0.206   9.788  -2.784  1.00  0.00     0.039 A 
ATOM     32  C   UNL     1       0.640  10.605  -3.538  1.00  0.00     0.014 A 
ATOM     33  C   UNL     1      -1.307   9.178  -3.391  1.00  0.00     0.014 A 
ATOM     34  C   UNL     1       0.416  10.761  -4.909  1.00  0.00     0.010 A 
ATOM     35  C   UNL     1      -1.480   9.268  -4.770  1.00  0.00     0.010 A 
ATOM     36  C   UNL     1      -0.625  10.067  -5.545  1.00  0.00    -0.014 A 
BRANCH  36  37
ATOM     37  C   UNL     1      -0.854  10.182  -7.011  1.00  0.00     0.031 A 
ATOM     38  C   UNL     1      -2.145  10.759  -7.528  1.00  0.00     0.074 A 
ATOM     39  C   UNL     1       0.070   9.714  -7.874  1.00  0.00     0.049 A 
ATOM     40  N   UNL     1      -2.576  10.858  -8.759  1.00  0.00    -0.248 NA
ATOM     41  C   UNL     1      -3.090  11.265  -6.520  1.00  0.00     0.031 C 
ATOM     42  C   UNL     1       1.348   9.107  -7.496  1.00  0.00     0.029 A 
ATOM     43  N   UNL     1       0.075   9.665  -9.246  1.00  0.00    -0.354 N 
ATOM     44  C   UNL     1      -3.845  11.422  -8.674  1.00  0.00     0.074 A 
ATOM     45  C   UNL     1      -4.137  11.582  -7.266  1.00  0.00     0.031 C 
ATOM     46  C   UNL     1       2.022   8.771  -8.608  1.00  0.00     0.029 A 
ATOM     47  C   UNL     1       1.206   9.085  -9.777  1.00  0.00     0.049 A 
ATOM     48  H   UNL     1      -0.661  10.012  -9.800  1.00  0.00     0.167 HD
ATOM     49  C   UNL     1      -4.678  11.794  -9.678  1.00  0.00     0.034 A 
ATOM     50  C   UNL     1       1.539   8.820 -11.056  1.00  0.00     0.034 A 
ATOM     51  C   UNL     1      -4.366  11.638 -11.078  1.00  0.00     0.049 A 
ATOM     52  C   UNL     1       0.578   9.206 -12.154  1.00  0.00     0.074 A 
ATOM     53  C   UNL     1      -5.116  12.023 -12.176  1.00  0.00     0.029 A 
ATOM     54  N   UNL     1      -3.214  11.041 -11.575  1.00  0.00    -0.354 N 
ATOM     55  N   UNL     1      -0.601   9.777 -12.058  1.00  0.00    -0.248 NA
ATOM     56  C   UNL     1       0.998   8.922 -13.532  1.00  0.00     0.031 C 
ATOM     57  C   UNL     1      -4.456  11.591 -13.331  1.00  0.00     0.029 A 
ATOM     58  C   UNL     1      -3.250  11.017 -12.961  1.00  0.00     0.049 A 
ATOM     59  H   UNL     1      -2.479  10.686 -11.024  1.00  0.00     0.167 HD
ATOM     60  C   UNL     1      -1.044   9.953 -13.366  1.00  0.00     0.074 A 
ATOM     61  C   UNL     1      -0.002   9.440 -14.230  1.00  0.00     0.031 C 
ATOM     62  C   UNL     1      -2.206  10.497 -13.813  1.00  0.00     0.034 A 
BRANCH  49  63
ATOM     63  C   UNL     1      -6.018  12.379  -9.290  1.00  0.00     0.023 A 
ATOM     64  C   UNL     1      -6.119  13.572  -8.552  1.00  0.00     0.031 A 
ATOM     65  C   UNL     1      -7.211  11.723  -9.642  1.00  0.00     0.131 A 
ATOM     66  C   UNL     1      -7.375  14.027  -8.122  1.00  0.00     0.055 A 
ATOM     67  C   UNL     1      -8.463  12.230  -9.287  1.00  0.00     0.041 A 
ATOM     68  F   UNL     1      -7.181  10.569 -10.327  1.00  0.00    -0.206 F 
ATOM     69  C   UNL     1      -8.550  13.379  -8.508  1.00  0.00     0.022 A 
BRANCH  66  70
ATOM     70  S   UNL     1      -7.438  15.385  -6.921  1.00  0.00     0.124 S 
ATOM     71  O   UNL     1      -6.657  14.835  -5.815  1.00  0.00    -0.237 OA
ATOM     72  O   UNL     1      -6.821  16.484  -7.655  1.00  0.00    -0.237 OA
ATOM     73  O   UNL     1      -8.866  15.537  -6.650  1.00  0.00    -0.744 OA
ENDBRANCH  66  70
ENDBRANCH  49  63
BRANCH  50  74
ATOM     74  C   UNL     1       2.829   8.143 -11.378  1.00  0.00     0.023 A 
ATOM     75  C   UNL     1       3.815   8.788 -12.142  1.00  0.00     0.031 A 
ATOM     76  C   UNL     1       3.077   6.820 -10.967  1.00  0.00     0.131 A 
ATOM     77  C   UNL     1       4.977   8.095 -12.517  1.00  0.00     0.055 A 
ATOM     78  C   UNL     1       4.261   6.155 -11.291  1.00  0.00     0.041 A 
ATOM     79  F   UNL     1       2.171   6.156 -10.233  1.00  0.00    -0.206 F 
ATOM     80  C   UNL     1       5.213   6.788 -12.084  1.00  0.00     0.022 A 
BRANCH  77  81
ATOM     81  S   UNL     1       6.133   8.894 -13.663  1.00  0.00     0.124 S 
ATOM     82  O   UNL     1       5.273   9.162 -14.810  1.00  0.00    -0.237 OA
ATOM     83  O   UNL     1       6.563  10.058 -12.896  1.00  0.00    -0.237 OA
ATOM     84  O   UNL     1       7.159   7.876 -13.876  1.00  0.00    -0.744 OA
ENDBRANCH  77  81
ENDBRANCH  50  74
BRANCH  62  85
ATOM     85  C   UNL     1      -2.381  10.617 -15.309  1.00  0.00     0.023 A 
ATOM     86  C   UNL     1      -2.490   9.488 -16.139  1.00  0.00     0.031 A 
ATOM     87  C   UNL     1      -2.437  11.887 -15.910  1.00  0.00     0.131 A 
ATOM     88  C   UNL     1      -2.592   9.651 -17.530  1.00  0.00     0.055 A 
ATOM     89  C   UNL     1      -2.606  12.044 -17.286  1.00  0.00     0.041 A 
ATOM     90  F   UNL     1      -2.334  13.001 -15.167  1.00  0.00    -0.206 F 
ATOM     91  C   UNL     1      -2.671  10.921 -18.106  1.00  0.00     0.022 A 
BRANCH  88  92
ATOM     92  S   UNL     1      -2.523   8.179 -18.587  1.00  0.00     0.124 S 
ATOM     93  O   UNL     1      -1.235   7.601 -18.218  1.00  0.00    -0.237 OA
ATOM     94  O   UNL     1      -3.702   7.433 -18.161  1.00  0.00    -0.237 OA
ATOM     95  O   UNL     1      -2.592   8.725 -19.941  1.00  0.00    -0.744 OA
ENDBRANCH  88  92
ENDBRANCH  62  85
ENDBRANCH  36  37
ENDBRANCH  28  31
ENDBRANCH  26  27
ENDBRANCH   1  26
TORSDOF 17
