REMARK SMILES O=C(NCCCNC(=O)[C@H](CO)NC(=O)[C@H](Cc1ccc(O)cc1)NC(=O)c1ccc(F)cc1)c1ccc(-c2c3nc(c(-c4cc(S(=O)(=O)[O-])ccc4F)c4ccc([nH]4)c(-c4cc(S(=O)(=O)[O-])ccc4F)c4nc(c(-c5cc(S(=O)(=O)[O-])ccc5F)c5ccc2[nH]5)C=C4)C=C3)cc1
REMARK SMILES IDX 6 1 5 2 4 3 3 4 1 5 2 6 35 8 36 9 97 10 37 11 96 12 38 13
REMARK SMILES IDX 39 14 40 15 90 16 41 17 95 18 89 19 91 20 42 21 94 22 88 23
REMARK SMILES IDX 87 24 43 26 75 27 55 28 74 29 56 30 59 31 73 32 92 33 57 34
REMARK SMILES IDX 58 35 72 37 93 38 60 39 44 40 45 41 53 42 46 43 52 44 54 45
REMARK SMILES IDX 51 46 47 47 48 48 49 49 50 50 76 51 77 52 85 53 78 54 84 55
REMARK SMILES IDX 86 56 83 57 79 58 80 59 81 60 82 61 61 62 62 63 70 64 63 65
REMARK SMILES IDX 69 66 71 67 68 68 64 69 65 70 66 71 67 72 7 73 8 74 9 76
REMARK SMILES IDX 10 77 13 78 14 79 15 81 16 82 25 83 26 84 27 86 28 87 29 88
REMARK SMILES IDX 34 89 30 90 33 91 31 92 32 93 17 94 18 95 19 96 24 97 20 98
REMARK SMILES IDX 23 99 21 100 22 101 11 103 12 104
REMARK H PARENT 3 7 91 25 59 36 7 75 13 80 25 85 22 102 12 105
REMARK Flexibility Score: inf
ROOT
ATOM      1  C   UNL     1       2.000  -9.204  -8.290  1.00  0.00     0.117 C 
ENDROOT
BRANCH   1   2
ATOM      2  C   UNL     1       0.818  -8.658  -9.084  1.00  0.00     0.042 C 
BRANCH   2   3
ATOM      3  C   UNL     1       0.702  -9.208 -10.501  1.00  0.00     0.118 C 
BRANCH   3   4
ATOM      4  N   UNL     1       0.216 -10.578 -10.537  1.00  0.00    -0.352 N 
ATOM      5  O   UNL     1      -1.268 -12.252 -10.756  1.00  0.00    -0.269 OA
ATOM      6  C   UNL     1      -0.986 -11.078 -10.984  1.00  0.00     0.251 C 
ATOM      7  H   UNL     1       0.844 -11.252 -10.189  1.00  0.00     0.163 HD
BRANCH   6   8
ATOM      8  C   UNL     1      -1.947 -10.211 -11.708  1.00  0.00     0.039 A 
ATOM      9  C   UNL     1      -1.515  -9.316 -12.687  1.00  0.00     0.014 A 
ATOM     10  C   UNL     1      -3.312 -10.318 -11.422  1.00  0.00     0.014 A 
ATOM     11  C   UNL     1      -2.415  -8.418 -13.253  1.00  0.00     0.010 A 
ATOM     12  C   UNL     1      -4.231  -9.478 -12.065  1.00  0.00     0.010 A 
ATOM     13  C   UNL     1      -3.787  -8.493 -12.959  1.00  0.00    -0.014 A 
BRANCH  13  14
ATOM     14  C   UNL     1      -4.726  -7.553 -13.629  1.00  0.00     0.031 A 
ATOM     15  C   UNL     1      -5.513  -6.542 -12.836  1.00  0.00     0.074 A 
ATOM     16  C   UNL     1      -4.820  -7.573 -14.975  1.00  0.00     0.049 A 
ATOM     17  N   UNL     1      -6.348  -5.631 -13.266  1.00  0.00    -0.248 NA
ATOM     18  C   UNL     1      -5.347  -6.557 -11.374  1.00  0.00     0.031 C 
ATOM     19  C   UNL     1      -4.106  -8.505 -15.853  1.00  0.00     0.029 A 
ATOM     20  N   UNL     1      -5.519  -6.774 -15.844  1.00  0.00    -0.354 N 
ATOM     21  C   UNL     1      -6.819  -4.975 -12.134  1.00  0.00     0.074 A 
ATOM     22  C   UNL     1      -6.195  -5.610 -10.993  1.00  0.00     0.031 C 
ATOM     23  C   UNL     1      -4.350  -8.181 -17.131  1.00  0.00     0.029 A 
ATOM     24  C   UNL     1      -5.291  -7.067 -17.169  1.00  0.00     0.049 A 
ATOM     25  H   UNL     1      -6.127  -6.059 -15.547  1.00  0.00     0.167 HD
ATOM     26  C   UNL     1      -7.683  -3.934 -12.056  1.00  0.00     0.034 A 
ATOM     27  C   UNL     1      -5.790  -6.515 -18.292  1.00  0.00     0.034 A 
ATOM     28  C   UNL     1      -8.280  -3.290 -13.198  1.00  0.00     0.049 A 
ATOM     29  C   UNL     1      -6.775  -5.386 -18.174  1.00  0.00     0.074 A 
ATOM     30  C   UNL     1      -9.142  -2.206 -13.221  1.00  0.00     0.029 A 
ATOM     31  N   UNL     1      -8.081  -3.667 -14.519  1.00  0.00    -0.354 N 
ATOM     32  N   UNL     1      -7.221  -4.797 -17.090  1.00  0.00    -0.248 NA
ATOM     33  C   UNL     1      -7.337  -4.859 -19.424  1.00  0.00     0.031 C 
ATOM     34  C   UNL     1      -9.505  -1.962 -14.549  1.00  0.00     0.029 A 
ATOM     35  C   UNL     1      -8.825  -2.856 -15.360  1.00  0.00     0.049 A 
ATOM     36  H   UNL     1      -7.498  -4.403 -14.814  1.00  0.00     0.167 HD
ATOM     37  C   UNL     1      -8.116  -3.828 -17.528  1.00  0.00     0.074 A 
ATOM     38  C   UNL     1      -8.136  -3.901 -18.975  1.00  0.00     0.031 C 
ATOM     39  C   UNL     1      -8.854  -2.958 -16.797  1.00  0.00     0.034 A 
BRANCH  26  40
ATOM     40  C   UNL     1      -8.061  -3.433 -10.687  1.00  0.00     0.023 A 
ATOM     41  C   UNL     1      -7.151  -2.726  -9.884  1.00  0.00     0.031 A 
ATOM     42  C   UNL     1      -9.365  -3.630 -10.198  1.00  0.00     0.131 A 
ATOM     43  C   UNL     1      -7.548  -2.269  -8.618  1.00  0.00     0.055 A 
ATOM     44  C   UNL     1      -9.771  -3.123  -8.963  1.00  0.00     0.041 A 
ATOM     45  F   UNL     1     -10.267  -4.313 -10.921  1.00  0.00    -0.206 F 
ATOM     46  C   UNL     1      -8.858  -2.441  -8.163  1.00  0.00     0.022 A 
BRANCH  43  47
ATOM     47  S   UNL     1      -6.309  -1.495  -7.544  1.00  0.00     0.124 S 
ATOM     48  O   UNL     1      -5.416  -2.619  -7.269  1.00  0.00    -0.237 OA
ATOM     49  O   UNL     1      -5.764  -0.442  -8.392  1.00  0.00    -0.237 OA
ATOM     50  O   UNL     1      -7.090  -1.032  -6.398  1.00  0.00    -0.744 OA
ENDBRANCH  43  47
ENDBRANCH  26  40
BRANCH  27  51
ATOM     51  C   UNL     1      -5.394  -7.055 -19.621  1.00  0.00     0.023 A 
ATOM     52  C   UNL     1      -4.606  -6.303 -20.504  1.00  0.00     0.031 A 
ATOM     53  C   UNL     1      -5.794  -8.343 -20.020  1.00  0.00     0.131 A 
ATOM     54  C   UNL     1      -4.253  -6.840 -21.751  1.00  0.00     0.055 A 
ATOM     55  C   UNL     1      -5.408  -8.888 -21.244  1.00  0.00     0.041 A 
ATOM     56  F   UNL     1      -6.543  -9.103 -19.204  1.00  0.00    -0.206 F 
ATOM     57  C   UNL     1      -4.636  -8.133 -22.121  1.00  0.00     0.022 A 
BRANCH  54  58
ATOM     58  S   UNL     1      -3.299  -5.816 -22.904  1.00  0.00     0.124 S 
ATOM     59  O   UNL     1      -4.232  -4.728 -23.175  1.00  0.00    -0.237 OA
ATOM     60  O   UNL     1      -2.125  -5.473 -22.108  1.00  0.00    -0.237 OA
ATOM     61  O   UNL     1      -3.044  -6.715 -24.028  1.00  0.00    -0.744 OA
ENDBRANCH  54  58
ENDBRANCH  27  51
BRANCH  39  62
ATOM     62  C   UNL     1      -9.741  -2.007 -17.550  1.00  0.00     0.023 A 
ATOM     63  C   UNL     1     -10.941  -2.442 -18.136  1.00  0.00     0.031 A 
ATOM     64  C   UNL     1      -9.406  -0.645 -17.639  1.00  0.00     0.131 A 
ATOM     65  C   UNL     1     -11.758  -1.522 -18.809  1.00  0.00     0.055 A 
ATOM     66  C   UNL     1     -10.242   0.272 -18.275  1.00  0.00     0.041 A 
ATOM     67  F   UNL     1      -8.271  -0.185 -17.089  1.00  0.00    -0.206 F 
ATOM     68  C   UNL     1     -11.424  -0.165 -18.868  1.00  0.00     0.022 A 
BRANCH  65  69
ATOM     69  S   UNL     1     -13.265  -2.121 -19.619  1.00  0.00     0.124 S 
ATOM     70  O   UNL     1     -12.721  -2.922 -20.711  1.00  0.00    -0.237 OA
ATOM     71  O   UNL     1     -13.927  -2.864 -18.552  1.00  0.00    -0.237 OA
ATOM     72  O   UNL     1     -13.944  -0.893 -20.029  1.00  0.00    -0.744 OA
ENDBRANCH  65  69
ENDBRANCH  39  62
ENDBRANCH  13  14
ENDBRANCH   6   8
ENDBRANCH   3   4
ENDBRANCH   2   3
ENDBRANCH   1   2
BRANCH   1  73
ATOM     73  N   UNL     1       3.273  -8.882  -8.907  1.00  0.00    -0.354 N 
ATOM     74  C   UNL     1       4.198  -7.928  -8.604  1.00  0.00     0.244 C 
ATOM     75  H   UNL     1       3.510  -9.449  -9.677  1.00  0.00     0.163 HD
ATOM     76  O   UNL     1       5.222  -7.915  -9.293  1.00  0.00    -0.273 OA
BRANCH  74  77
ATOM     77  C   UNL     1       3.978  -6.942  -7.435  1.00  0.00     0.197 C 
BRANCH  77  78
ATOM     78  N   UNL     1       5.246  -6.238  -7.180  1.00  0.00    -0.340 N 
ATOM     79  C   UNL     1       6.189  -6.433  -6.216  1.00  0.00     0.243 C 
ATOM     80  H   UNL     1       5.444  -5.506  -7.808  1.00  0.00     0.164 HD
ATOM     81  O   UNL     1       7.231  -5.777  -6.262  1.00  0.00    -0.273 OA
BRANCH  79  82
ATOM     82  C   UNL     1       5.890  -7.412  -5.066  1.00  0.00     0.176 C 
BRANCH  82  83
ATOM     83  N   UNL     1       7.141  -7.925  -4.501  1.00  0.00    -0.340 N 
ATOM     84  C   UNL     1       7.729  -9.151  -4.640  1.00  0.00     0.251 C 
ATOM     85  H   UNL     1       7.633  -7.289  -3.933  1.00  0.00     0.164 HD
ATOM     86  O   UNL     1       8.787  -9.418  -4.079  1.00  0.00    -0.269 OA
BRANCH  84  87
ATOM     87  C   UNL     1       7.048 -10.197  -5.424  1.00  0.00     0.040 A 
ATOM     88  C   UNL     1       6.794 -10.029  -6.790  1.00  0.00     0.017 A 
ATOM     89  C   UNL     1       6.670 -11.374  -4.766  1.00  0.00     0.017 A 
ATOM     90  C   UNL     1       6.106 -11.023  -7.486  1.00  0.00     0.040 A 
ATOM     91  C   UNL     1       5.988 -12.366  -5.469  1.00  0.00     0.040 A 
ATOM     92  C   UNL     1       5.703 -12.177  -6.819  1.00  0.00     0.123 A 
ATOM     93  F   UNL     1       5.030 -13.122  -7.487  1.00  0.00    -0.207 F 
ENDBRANCH  84  87
ENDBRANCH  82  83
BRANCH  82  94
ATOM     94  C   UNL     1       4.941  -6.771  -4.029  1.00  0.00     0.070 C 
BRANCH  94  95
ATOM     95  C   UNL     1       5.560  -6.084  -2.832  1.00  0.00    -0.045 A 
ATOM     96  C   UNL     1       6.531  -5.082  -2.969  1.00  0.00     0.007 A 
ATOM     97  C   UNL     1       5.128  -6.432  -1.542  1.00  0.00     0.007 A 
ATOM     98  C   UNL     1       7.102  -4.487  -1.840  1.00  0.00     0.046 A 
ATOM     99  C   UNL     1       5.687  -5.828  -0.415  1.00  0.00     0.046 A 
ATOM    100  C   UNL     1       6.680  -4.872  -0.572  1.00  0.00     0.115 A 
BRANCH 100 101
ATOM    101  O   UNL     1       7.222  -4.327   0.554  1.00  0.00    -0.508 OA
ATOM    102  H   UNL     1       7.894  -3.679   0.484  1.00  0.00     0.293 HD
ENDBRANCH 100 101
ENDBRANCH  94  95
ENDBRANCH  82  94
ENDBRANCH  79  82
ENDBRANCH  77  78
BRANCH  77 103
ATOM    103  C   UNL     1       2.884  -5.908  -7.715  1.00  0.00     0.191 C 
BRANCH 103 104
ATOM    104  O   UNL     1       3.164  -5.145  -8.884  1.00  0.00    -0.394 OA
ATOM    105  H   UNL     1       3.996  -4.661  -8.762  1.00  0.00     0.210 HD
ENDBRANCH 103 104
ENDBRANCH  77 103
ENDBRANCH  74  77
ENDBRANCH   1  73
TORSDOF 22
