REMARK SMILES CCC(CC)(NC(=O)c1ccc(N)c(F)c1)C(=O)NCCCNC(=O)c1ccc(-c2c3nc(c(-c4cc(S(=O)(=O)[O-])ccc4F)c4ccc([nH]4)c(-c4cc(S(=O)(=O)[O-])ccc4F)c4nc(c(-c5cc(S(=O)(=O)[O-])ccc5F)c5ccc2[nH]5)C=C4)C=C3)cc1
REMARK SMILES IDX 21 1 20 2 19 3 17 4 18 5 3 7 2 8 1 9 4 10 5 11 6 12 7 13
REMARK SMILES IDX 8 15 9 16 10 17 16 18 11 19 14 20 12 21 15 22 13 23 22 26
REMARK SMILES IDX 23 27 24 28 25 30 26 31 27 32 88 33 28 34 87 35 29 36 30 37
REMARK SMILES IDX 31 38 81 39 32 40 86 41 80 42 82 43 33 44 85 45 79 46 78 47
REMARK SMILES IDX 34 49 66 50 46 51 65 52 47 53 50 54 64 55 83 56 48 57 49 58
REMARK SMILES IDX 63 60 84 61 51 62 35 63 36 64 44 65 37 66 43 67 45 68 42 69
REMARK SMILES IDX 38 70 39 71 40 72 41 73 67 74 68 75 76 76 69 77 75 78 77 79
REMARK SMILES IDX 74 80 70 81 71 82 72 83 73 84 52 85 53 86 61 87 54 88 60 89
REMARK SMILES IDX 62 90 59 91 55 92 56 93 57 94 58 95
REMARK H PARENT 19 6 6 14 13 24 13 25 23 29 82 48 50 59
REMARK Flexibility Score: inf
ROOT
ATOM      1  C   UNL     1       2.562   4.296   4.487  1.00  0.00     0.042 C 
ENDROOT
BRANCH   1   2
ATOM      2  C   UNL     1       2.151   4.542   3.033  1.00  0.00     0.117 C 
BRANCH   2   3
ATOM      3  N   UNL     1       2.668   3.662   1.985  1.00  0.00    -0.354 N 
ATOM      4  C   UNL     1       2.274   2.455   1.450  1.00  0.00     0.245 C 
ATOM      5  O   UNL     1       2.918   2.078   0.466  1.00  0.00    -0.272 OA
ATOM      6  H   UNL     1       3.487   4.013   1.565  1.00  0.00     0.163 HD
BRANCH   4   7
ATOM      7  C   UNL     1       1.040   1.651   1.978  1.00  0.00     0.118 C 
BRANCH   7   8
ATOM      8  C   UNL     1       0.924   0.198   1.416  1.00  0.00     0.035 C 
ATOM      9  C   UNL     1       0.933  -0.005  -0.095  1.00  0.00     0.007 C 
ENDBRANCH   7   8
BRANCH   7  10
ATOM     10  C   UNL     1      -0.146   2.530   1.438  1.00  0.00     0.035 C 
ATOM     11  C   UNL     1      -1.571   2.061   1.665  1.00  0.00     0.007 C 
ENDBRANCH   7  10
BRANCH   7  12
ATOM     12  N   UNL     1       1.000   1.516   3.475  1.00  0.00    -0.338 N 
ATOM     13  C   UNL     1       1.729   0.721   4.365  1.00  0.00     0.252 C 
ATOM     14  H   UNL     1       0.335   2.096   3.911  1.00  0.00     0.164 HD
ATOM     15  O   UNL     1       1.108   0.279   5.335  1.00  0.00    -0.269 OA
BRANCH  13  16
ATOM     16  C   UNL     1       3.206   0.439   4.297  1.00  0.00     0.042 A 
ATOM     17  C   UNL     1       4.064   1.202   3.526  1.00  0.00     0.016 A 
ATOM     18  C   UNL     1       3.823  -0.467   5.167  1.00  0.00     0.055 A 
ATOM     19  C   UNL     1       5.453   1.091   3.532  1.00  0.00     0.029 A 
ATOM     20  C   UNL     1       5.231  -0.562   5.215  1.00  0.00     0.146 A 
ATOM     21  C   UNL     1       6.065   0.209   4.393  1.00  0.00     0.068 A 
ATOM     22  F   UNL     1       5.791  -1.396   6.105  1.00  0.00    -0.205 F 
BRANCH  21  23
ATOM     23  N   UNL     1       7.444   0.227   4.493  1.00  0.00    -0.396 N 
ATOM     24  H   UNL     1       7.975   0.791   3.885  1.00  0.00     0.156 HD
ATOM     25  H   UNL     1       7.896  -0.325   5.172  1.00  0.00     0.156 HD
ENDBRANCH  21  23
ENDBRANCH  13  16
ENDBRANCH   7  12
ENDBRANCH   4   7
ENDBRANCH   2   3
ENDBRANCH   1   2
BRANCH   1  26
ATOM     26  C   UNL     1       4.037   4.372   4.872  1.00  0.00     0.118 C 
BRANCH  26  27
ATOM     27  N   UNL     1       4.704   5.588   4.466  1.00  0.00    -0.352 N 
ATOM     28  C   UNL     1       5.518   6.427   5.189  1.00  0.00     0.251 C 
ATOM     29  H   UNL     1       4.553   5.855   3.531  1.00  0.00     0.163 HD
ATOM     30  O   UNL     1       5.946   7.440   4.647  1.00  0.00    -0.269 OA
BRANCH  28  31
ATOM     31  C   UNL     1       5.844   6.153   6.611  1.00  0.00     0.039 A 
ATOM     32  C   UNL     1       5.749   7.216   7.514  1.00  0.00     0.014 A 
ATOM     33  C   UNL     1       6.281   4.902   7.061  1.00  0.00     0.014 A 
ATOM     34  C   UNL     1       6.049   7.019   8.865  1.00  0.00     0.010 A 
ATOM     35  C   UNL     1       6.527   4.693   8.424  1.00  0.00     0.010 A 
ATOM     36  C   UNL     1       6.417   5.751   9.342  1.00  0.00    -0.014 A 
BRANCH  36  37
ATOM     37  C   UNL     1       6.685   5.546  10.795  1.00  0.00     0.031 A 
ATOM     38  C   UNL     1       8.069   5.204  11.282  1.00  0.00     0.074 A 
ATOM     39  C   UNL     1       5.678   5.675  11.683  1.00  0.00     0.049 A 
ATOM     40  N   UNL     1       8.492   5.013  12.507  1.00  0.00    -0.248 NA
ATOM     41  C   UNL     1       9.109   5.039  10.257  1.00  0.00     0.031 C 
ATOM     42  C   UNL     1       4.288   5.981  11.339  1.00  0.00     0.029 A 
ATOM     43  N   UNL     1       5.663   5.573  13.053  1.00  0.00    -0.354 N 
ATOM     44  C   UNL     1       9.845   4.707  12.402  1.00  0.00     0.074 A 
ATOM     45  C   UNL     1      10.154   4.679  10.987  1.00  0.00     0.031 C 
ATOM     46  C   UNL     1       3.566   6.074  12.467  1.00  0.00     0.029 A 
ATOM     47  C   UNL     1       4.424   5.787  13.613  1.00  0.00     0.049 A 
ATOM     48  H   UNL     1       6.465   5.365  13.586  1.00  0.00     0.167 HD
ATOM     49  C   UNL     1      10.750   4.490  13.391  1.00  0.00     0.034 A 
ATOM     50  C   UNL     1       4.018   5.749  14.899  1.00  0.00     0.034 A 
ATOM     51  C   UNL     1      10.427   4.515  14.799  1.00  0.00     0.049 A 
ATOM     52  C   UNL     1       5.032   5.455  15.977  1.00  0.00     0.074 A 
ATOM     53  C   UNL     1      11.277   4.350  15.880  1.00  0.00     0.029 A 
ATOM     54  N   UNL     1       9.155   4.701  15.325  1.00  0.00    -0.354 N 
ATOM     55  N   UNL     1       6.319   5.219  15.861  1.00  0.00    -0.248 NA
ATOM     56  C   UNL     1       4.540   5.434  17.361  1.00  0.00     0.031 C 
ATOM     57  C   UNL     1      10.509   4.353  17.049  1.00  0.00     0.029 A 
ATOM     58  C   UNL     1       9.192   4.615  16.710  1.00  0.00     0.049 A 
ATOM     59  H   UNL     1       8.344   4.869  14.792  1.00  0.00     0.167 HD
ATOM     60  C   UNL     1       6.793   5.056  17.160  1.00  0.00     0.074 A 
ATOM     61  C   UNL     1       5.659   5.239  18.042  1.00  0.00     0.031 C 
ATOM     62  C   UNL     1       8.055   4.785  17.585  1.00  0.00     0.034 A 
BRANCH  49  63
ATOM     63  C   UNL     1      12.171   4.173  12.980  1.00  0.00     0.023 A 
ATOM     64  C   UNL     1      12.956   5.092  12.261  1.00  0.00     0.031 A 
ATOM     65  C   UNL     1      12.745   2.930  13.299  1.00  0.00     0.131 A 
ATOM     66  C   UNL     1      14.238   4.728  11.822  1.00  0.00     0.055 A 
ATOM     67  C   UNL     1      14.054   2.605  12.934  1.00  0.00     0.041 A 
ATOM     68  F   UNL     1      12.041   2.001  13.966  1.00  0.00    -0.206 F 
ATOM     69  C   UNL     1      14.803   3.501  12.177  1.00  0.00     0.022 A 
BRANCH  66  70
ATOM     70  S   UNL     1      15.098   5.819  10.655  1.00  0.00     0.124 S 
ATOM     71  O   UNL     1      14.142   5.882   9.552  1.00  0.00    -0.237 OA
ATOM     72  O   UNL     1      15.262   7.043  11.430  1.00  0.00    -0.237 OA
ATOM     73  O   UNL     1      16.333   5.097  10.357  1.00  0.00    -0.744 OA
ENDBRANCH  66  70
ENDBRANCH  49  63
BRANCH  50  74
ATOM     74  C   UNL     1       2.584   5.977  15.248  1.00  0.00     0.023 A 
ATOM     75  C   UNL     1       2.193   7.058  16.055  1.00  0.00     0.031 A 
ATOM     76  C   UNL     1       1.587   5.080  14.822  1.00  0.00     0.131 A 
ATOM     77  C   UNL     1       0.853   7.186  16.453  1.00  0.00     0.055 A 
ATOM     78  C   UNL     1       0.245   5.247  15.169  1.00  0.00     0.041 A 
ATOM     79  F   UNL     1       1.903   4.028  14.051  1.00  0.00    -0.206 F 
ATOM     80  C   UNL     1      -0.126   6.298  16.002  1.00  0.00     0.022 A 
BRANCH  77  81
ATOM     81  S   UNL     1       0.421   8.477  17.652  1.00  0.00     0.124 S 
ATOM     82  O   UNL     1       1.284   8.137  18.777  1.00  0.00    -0.237 OA
ATOM     83  O   UNL     1       0.764   9.694  16.924  1.00  0.00    -0.237 OA
ATOM     84  O   UNL     1      -1.008   8.269  17.876  1.00  0.00    -0.744 OA
ENDBRANCH  77  81
ENDBRANCH  50  74
BRANCH  62  85
ATOM     85  C   UNL     1       8.280   4.719  19.079  1.00  0.00     0.023 A 
ATOM     86  C   UNL     1       7.682   3.731  19.880  1.00  0.00     0.031 A 
ATOM     87  C   UNL     1       9.096   5.675  19.712  1.00  0.00     0.131 A 
ATOM     88  C   UNL     1       7.856   3.758  21.273  1.00  0.00     0.055 A 
ATOM     89  C   UNL     1       9.323   5.654  21.089  1.00  0.00     0.041 A 
ATOM     90  F   UNL     1       9.691   6.646  19.001  1.00  0.00    -0.206 F 
ATOM     91  C   UNL     1       8.688   4.701  21.880  1.00  0.00     0.022 A 
BRANCH  88  92
ATOM     92  S   UNL     1       6.892   2.610  22.295  1.00  0.00     0.124 S 
ATOM     93  O   UNL     1       5.522   2.945  21.917  1.00  0.00    -0.237 OA
ATOM     94  O   UNL     1       7.376   1.309  21.846  1.00  0.00    -0.237 OA
ATOM     95  O   UNL     1       7.264   2.971  23.662  1.00  0.00    -0.744 OA
ENDBRANCH  88  92
ENDBRANCH  62  85
ENDBRANCH  36  37
ENDBRANCH  28  31
ENDBRANCH  26  27
ENDBRANCH   1  26
TORSDOF 18
