REMARK SMILES O=C(C[C@@H]1C[N@@H+]([C@H]2CCCc3sccc32)CCO1)NCCCNC(=O)c1ccc(-c2c3nc(c(-c4cc(S(=O)(=O)[O-])ccc4F)c4ccc([nH]4)c(-c4cc(S(=O)(=O)[O-])ccc4F)c4nc(c(-c5cc(S(=O)(=O)[O-])ccc5F)c5ccc2[nH]5)C=C4)C=C3)cc1
REMARK SMILES IDX 21 1 20 2 19 3 1 4 2 5 3 7 4 8 5 9 18 10 6 11 17 12 16 13
REMARK SMILES IDX 7 15 8 16 15 17 9 18 11 19 14 20 10 21 12 22 13 23 22 24
REMARK SMILES IDX 23 25 24 26 25 28 26 29 27 30 88 31 28 32 87 33 29 34 30 35
REMARK SMILES IDX 31 36 81 37 32 38 86 39 80 40 82 41 33 42 85 43 79 44 78 45
REMARK SMILES IDX 34 47 66 48 46 49 65 50 47 51 50 52 64 53 83 54 48 55 49 56
REMARK SMILES IDX 63 58 84 59 51 60 35 61 36 62 44 63 37 64 43 65 45 66 42 67
REMARK SMILES IDX 38 68 39 69 40 70 41 71 67 72 68 73 76 74 69 75 75 76 77 77
REMARK SMILES IDX 74 78 70 79 71 80 72 81 73 82 52 83 53 84 61 85 54 86 60 87
REMARK SMILES IDX 62 88 59 89 55 90 56 91 57 92 58 93
REMARK H PARENT 19 6 6 14 23 27 82 46 50 57
REMARK Flexibility Score: inf
ROOT
ATOM      1  C   UNL     1       9.178  -0.895   3.854  1.00  0.00     0.042 C 
ENDROOT
BRANCH   1   2
ATOM      2  C   UNL     1       8.340  -2.147   3.610  1.00  0.00     0.117 C 
BRANCH   2   3
ATOM      3  N   UNL     1       8.450  -2.619   2.241  1.00  0.00    -0.356 N 
ATOM      4  O   UNL     1       8.733  -4.837   2.772  1.00  0.00    -0.275 OA
ATOM      5  C   UNL     1       8.669  -3.943   1.934  1.00  0.00     0.222 C 
ATOM      6  H   UNL     1       8.364  -1.970   1.507  1.00  0.00     0.163 HD
BRANCH   5   7
ATOM      7  C   UNL     1       8.881  -4.218   0.465  1.00  0.00     0.138 C 
BRANCH   7   8
ATOM      8  C   UNL     1       7.655  -3.939  -0.398  1.00  0.00     0.182 C 
ATOM      9  C   UNL     1       6.511  -4.956  -0.178  1.00  0.00     0.295 C 
ATOM     10  O   UNL     1       8.114  -3.997  -1.763  1.00  0.00    -0.366 OA
ATOM     11  N   UNL     1       5.373  -4.805  -1.113  1.00  0.00    -0.325 N 
ATOM     12  C   UNL     1       7.047  -3.709  -2.669  1.00  0.00     0.222 C 
ATOM     13  C   UNL     1       5.873  -4.689  -2.490  1.00  0.00     0.291 C 
ATOM     14  H   UNL     1       4.821  -5.662  -1.107  1.00  0.00     0.348 HD
BRANCH  11  15
ATOM     15  C   UNL     1       4.314  -3.884  -0.670  1.00  0.00     0.216 C 
ATOM     16  C   UNL     1       4.422  -2.366  -0.966  1.00  0.00     0.071 C 
ATOM     17  C   UNL     1       2.980  -4.387  -1.195  1.00  0.00     0.023 A 
ATOM     18  C   UNL     1       4.034  -1.941  -2.392  1.00  0.00     0.012 C 
ATOM     19  C   UNL     1       2.277  -3.733  -2.192  1.00  0.00     0.014 A 
ATOM     20  C   UNL     1       2.228  -5.496  -0.687  1.00  0.00     0.022 A 
ATOM     21  C   UNL     1       2.678  -2.467  -2.877  1.00  0.00     0.047 C 
ATOM     22  S   UNL     1       0.782  -4.474  -2.545  1.00  0.00    -0.148 S 
ATOM     23  C   UNL     1       1.011  -5.641  -1.318  1.00  0.00     0.065 A 
ENDBRANCH  11  15
ENDBRANCH   7   8
ENDBRANCH   5   7
ENDBRANCH   2   3
ENDBRANCH   1   2
BRANCH   1  24
ATOM     24  C   UNL     1       8.703   0.347   3.102  1.00  0.00     0.118 C 
BRANCH  24  25
ATOM     25  N   UNL     1       7.386   0.799   3.525  1.00  0.00    -0.352 N 
ATOM     26  C   UNL     1       6.985   2.007   4.041  1.00  0.00     0.251 C 
ATOM     27  H   UNL     1       6.668   0.133   3.425  1.00  0.00     0.163 HD
ATOM     28  O   UNL     1       5.841   2.111   4.487  1.00  0.00    -0.269 OA
BRANCH  26  29
ATOM     29  C   UNL     1       7.909   3.163   4.096  1.00  0.00     0.039 A 
ATOM     30  C   UNL     1       7.917   3.962   5.243  1.00  0.00     0.014 A 
ATOM     31  C   UNL     1       8.748   3.482   3.025  1.00  0.00     0.014 A 
ATOM     32  C   UNL     1       8.814   5.030   5.345  1.00  0.00     0.010 A 
ATOM     33  C   UNL     1       9.694   4.499   3.158  1.00  0.00     0.010 A 
ATOM     34  C   UNL     1       9.742   5.283   4.322  1.00  0.00    -0.014 A 
BRANCH  34  35
ATOM     35  C   UNL     1      10.773   6.348   4.463  1.00  0.00     0.031 A 
ATOM     36  C   UNL     1      10.794   7.521   3.519  1.00  0.00     0.074 A 
ATOM     37  C   UNL     1      11.726   6.232   5.410  1.00  0.00     0.049 A 
ATOM     38  N   UNL     1      11.652   8.507   3.442  1.00  0.00    -0.248 NA
ATOM     39  C   UNL     1       9.723   7.577   2.513  1.00  0.00     0.031 C 
ATOM     40  C   UNL     1      11.834   5.128   6.367  1.00  0.00     0.029 A 
ATOM     41  N   UNL     1      12.789   7.044   5.724  1.00  0.00    -0.354 N 
ATOM     42  C   UNL     1      11.231   9.297   2.376  1.00  0.00     0.074 A 
ATOM     43  C   UNL     1      10.078   8.637   1.801  1.00  0.00     0.031 C 
ATOM     44  C   UNL     1      12.884   5.346   7.174  1.00  0.00     0.029 A 
ATOM     45  C   UNL     1      13.559   6.572   6.763  1.00  0.00     0.049 A 
ATOM     46  H   UNL     1      12.982   7.885   5.249  1.00  0.00     0.167 HD
ATOM     47  C   UNL     1      11.745  10.472   1.934  1.00  0.00     0.034 A 
ATOM     48  C   UNL     1      14.691   7.059   7.311  1.00  0.00     0.034 A 
ATOM     49  C   UNL     1      12.893  11.120   2.522  1.00  0.00     0.049 A 
ATOM     50  C   UNL     1      15.272   8.341   6.768  1.00  0.00     0.074 A 
ATOM     51  C   UNL     1      13.462  12.336   2.184  1.00  0.00     0.029 A 
ATOM     52  N   UNL     1      13.660  10.602   3.558  1.00  0.00    -0.354 N 
ATOM     53  N   UNL     1      14.830   9.101   5.793  1.00  0.00    -0.248 NA
ATOM     54  C   UNL     1      16.500   8.833   7.406  1.00  0.00     0.031 C 
ATOM     55  C   UNL     1      14.614  12.514   2.957  1.00  0.00     0.029 A 
ATOM     56  C   UNL     1      14.718  11.453   3.842  1.00  0.00     0.049 A 
ATOM     57  H   UNL     1      13.478   9.754   4.024  1.00  0.00     0.167 HD
ATOM     58  C   UNL     1      15.712  10.177   5.723  1.00  0.00     0.074 A 
ATOM     59  C   UNL     1      16.696   9.976   6.766  1.00  0.00     0.031 C 
ATOM     60  C   UNL     1      15.706  11.237   4.874  1.00  0.00     0.034 A 
BRANCH  47  61
ATOM     61  C   UNL     1      11.083  11.116   0.737  1.00  0.00     0.023 A 
ATOM     62  C   UNL     1       9.743  11.541   0.772  1.00  0.00     0.031 A 
ATOM     63  C   UNL     1      11.795  11.295  -0.462  1.00  0.00     0.131 A 
ATOM     64  C   UNL     1       9.136  12.047  -0.387  1.00  0.00     0.055 A 
ATOM     65  C   UNL     1      11.211  11.881  -1.587  1.00  0.00     0.041 A 
ATOM     66  F   UNL     1      13.071  10.891  -0.567  1.00  0.00    -0.206 F 
ATOM     67  C   UNL     1       9.869  12.247  -1.559  1.00  0.00     0.022 A 
BRANCH  64  68
ATOM     68  S   UNL     1       7.340  12.296  -0.385  1.00  0.00     0.124 S 
ATOM     69  O   UNL     1       6.857  10.955  -0.059  1.00  0.00    -0.237 OA
ATOM     70  O   UNL     1       7.162  13.308   0.649  1.00  0.00    -0.237 OA
ATOM     71  O   UNL     1       7.053  12.737  -1.749  1.00  0.00    -0.744 OA
ENDBRANCH  64  68
ENDBRANCH  47  61
BRANCH  48  72
ATOM     72  C   UNL     1      15.369   6.329   8.422  1.00  0.00     0.023 A 
ATOM     73  C   UNL     1      15.515   6.913   9.690  1.00  0.00     0.031 A 
ATOM     74  C   UNL     1      15.929   5.054   8.217  1.00  0.00     0.131 A 
ATOM     75  C   UNL     1      16.246   6.248  10.688  1.00  0.00     0.055 A 
ATOM     76  C   UNL     1      16.602   4.370   9.231  1.00  0.00     0.041 A 
ATOM     77  F   UNL     1      15.819   4.448   7.024  1.00  0.00    -0.206 F 
ATOM     78  C   UNL     1      16.776   4.974  10.472  1.00  0.00     0.022 A 
BRANCH  75  79
ATOM     79  S   UNL     1      16.581   7.118  12.244  1.00  0.00     0.124 S 
ATOM     80  O   UNL     1      17.279   8.309  11.773  1.00  0.00    -0.237 OA
ATOM     81  O   UNL     1      15.236   7.327  12.769  1.00  0.00    -0.237 OA
ATOM     82  O   UNL     1      17.401   6.169  12.994  1.00  0.00    -0.744 OA
ENDBRANCH  75  79
ENDBRANCH  48  72
BRANCH  60  83
ATOM     83  C   UNL     1      16.779  12.282   5.070  1.00  0.00     0.023 A 
ATOM     84  C   UNL     1      18.140  11.995   4.863  1.00  0.00     0.031 A 
ATOM     85  C   UNL     1      16.435  13.583   5.481  1.00  0.00     0.131 A 
ATOM     86  C   UNL     1      19.110  12.975   5.125  1.00  0.00     0.055 A 
ATOM     87  C   UNL     1      17.399  14.573   5.674  1.00  0.00     0.041 A 
ATOM     88  F   UNL     1      15.153  13.914   5.700  1.00  0.00    -0.206 F 
ATOM     89  C   UNL     1      18.747  14.268   5.510  1.00  0.00     0.022 A 
BRANCH  86  90
ATOM     90  S   UNL     1      20.862  12.508   5.055  1.00  0.00     0.124 S 
ATOM     91  O   UNL     1      20.928  11.432   6.038  1.00  0.00    -0.237 OA
ATOM     92  O   UNL     1      21.023  12.110   3.660  1.00  0.00    -0.237 OA
ATOM     93  O   UNL     1      21.560  13.736   5.432  1.00  0.00    -0.744 OA
ENDBRANCH  86  90
ENDBRANCH  60  83
ENDBRANCH  34  35
ENDBRANCH  26  29
ENDBRANCH  24  25
ENDBRANCH   1  24
TORSDOF 15
