REMARK SMILES CC1=C2C(=O)CC(C)(C)CC2=N[C@@H]1C(=O)NCCCNC(=O)c1ccc(-c2c3nc(c(-c4cc(S(=O)(=O)[O-])ccc4F)c4ccc([nH]4)c(-c4cc(S(=O)(=O)[O-])ccc4F)c4nc(c(-c5cc(S(=O)(=O)[O-])ccc5F)c5ccc2[nH]5)C=C4)C=C3)cc1
REMARK SMILES IDX 20 1 21 2 22 3 19 5 18 6 17 7 16 8 14 9 15 10 13 12 1 13
REMARK SMILES IDX 2 14 3 15 4 16 11 17 12 18 5 19 6 20 10 21 7 22 8 23 9 24
REMARK SMILES IDX 23 25 24 26 85 27 25 28 84 29 26 30 27 31 28 32 78 33 29 34
REMARK SMILES IDX 83 35 77 36 79 37 30 38 82 39 76 40 75 41 31 43 63 44 43 45
REMARK SMILES IDX 62 46 44 47 47 48 61 49 80 50 45 51 46 52 60 54 81 55 48 56
REMARK SMILES IDX 32 57 33 58 41 59 34 60 40 61 42 62 39 63 35 64 36 65 37 66
REMARK SMILES IDX 38 67 64 68 65 69 73 70 66 71 72 72 74 73 71 74 67 75 68 76
REMARK SMILES IDX 69 77 70 78 49 79 50 80 58 81 51 82 57 83 59 84 56 85 52 86
REMARK SMILES IDX 53 87 54 88 55 89
REMARK H PARENT 20 4 16 11 79 42 47 53
REMARK Flexibility Score: inf
ROOT
ATOM      1  N   UNL     1      -1.073   6.952   3.501  1.00  0.00    -0.352 N 
ATOM      2  C   UNL     1      -1.709   8.167   3.326  1.00  0.00     0.251 C 
ATOM      3  O   UNL     1      -2.207   8.733   4.284  1.00  0.00    -0.269 OA
ATOM      4  H   UNL     1      -1.300   6.464   4.326  1.00  0.00     0.163 HD
ENDROOT
BRANCH   1   5
ATOM      5  C   UNL     1      -0.110   6.299   2.622  1.00  0.00     0.118 C 
BRANCH   5   6
ATOM      6  C   UNL     1       0.439   5.009   3.219  1.00  0.00     0.042 C 
BRANCH   6   7
ATOM      7  C   UNL     1      -0.610   3.894   3.224  1.00  0.00     0.117 C 
BRANCH   7   8
ATOM      8  N   UNL     1      -0.872   3.415   1.874  1.00  0.00    -0.354 N 
ATOM      9  C   UNL     1      -0.396   2.283   1.262  1.00  0.00     0.249 C 
ATOM     10  O   UNL     1      -0.676   2.072   0.081  1.00  0.00    -0.272 OA
ATOM     11  H   UNL     1      -1.469   3.978   1.329  1.00  0.00     0.163 HD
BRANCH   9  12
ATOM     12  C   UNL     1       0.373   1.262   2.137  1.00  0.00     0.221 C 
ATOM     13  C   UNL     1       2.160   0.588   0.322  1.00  0.00     0.043 C 
ATOM     14  C   UNL     1       1.215   0.241   1.415  1.00  0.00    -0.027 C 
ATOM     15  C   UNL     1       0.859  -0.990   1.788  1.00  0.00     0.040 C 
ATOM     16  C   UNL     1       1.284  -2.361   1.477  1.00  0.00     0.165 C 
ATOM     17  C   UNL     1      -0.492  -0.707   2.246  1.00  0.00     0.048 C 
ATOM     18  N   UNL     1      -0.732   0.461   2.760  1.00  0.00    -0.271 NA
ATOM     19  O   UNL     1       2.448  -2.714   1.652  1.00  0.00    -0.294 OA
ATOM     20  C   UNL     1       0.189  -3.335   1.072  1.00  0.00     0.088 C 
ATOM     21  C   UNL     1      -1.565  -1.702   1.923  1.00  0.00     0.063 C 
ATOM     22  C   UNL     1      -1.141  -2.617   0.731  1.00  0.00    -0.023 C 
ATOM     23  C   UNL     1      -0.957  -1.853  -0.609  1.00  0.00     0.012 C 
ATOM     24  C   UNL     1      -2.266  -3.639   0.507  1.00  0.00     0.012 C 
ENDBRANCH   9  12
ENDBRANCH   7   8
ENDBRANCH   6   7
ENDBRANCH   5   6
ENDBRANCH   1   5
BRANCH   2  25
ATOM     25  C   UNL     1      -1.756   8.773   1.977  1.00  0.00     0.039 A 
ATOM     26  C   UNL     1      -1.591  10.151   1.825  1.00  0.00     0.014 A 
ATOM     27  C   UNL     1      -1.968   7.961   0.862  1.00  0.00     0.014 A 
ATOM     28  C   UNL     1      -1.552  10.691   0.541  1.00  0.00     0.010 A 
ATOM     29  C   UNL     1      -1.828   8.477  -0.409  1.00  0.00     0.010 A 
ATOM     30  C   UNL     1      -1.639   9.845  -0.579  1.00  0.00    -0.014 A 
BRANCH  30  31
ATOM     31  C   UNL     1      -1.352  10.371  -1.914  1.00  0.00     0.031 A 
ATOM     32  C   UNL     1      -0.042  11.071  -2.020  1.00  0.00     0.074 A 
ATOM     33  C   UNL     1      -2.070  10.092  -3.024  1.00  0.00     0.049 A 
ATOM     34  N   UNL     1       0.158  12.330  -2.220  1.00  0.00    -0.248 NA
ATOM     35  C   UNL     1       1.188  10.324  -1.710  1.00  0.00     0.031 C 
ATOM     36  C   UNL     1      -3.214   9.189  -3.159  1.00  0.00     0.029 A 
ATOM     37  N   UNL     1      -1.846  10.483  -4.312  1.00  0.00    -0.354 N 
ATOM     38  C   UNL     1       1.536  12.501  -2.304  1.00  0.00     0.074 A 
ATOM     39  C   UNL     1       2.108  11.287  -1.785  1.00  0.00     0.031 C 
ATOM     40  C   UNL     1      -3.421   8.916  -4.468  1.00  0.00     0.029 A 
ATOM     41  C   UNL     1      -2.526   9.733  -5.271  1.00  0.00     0.049 A 
ATOM     42  H   UNL     1      -1.252  11.232  -4.546  1.00  0.00     0.167 HD
ATOM     43  C   UNL     1       2.072  13.541  -3.004  1.00  0.00     0.034 A 
ATOM     44  C   UNL     1      -2.343   9.749  -6.621  1.00  0.00     0.034 A 
ATOM     45  C   UNL     1       1.063  14.547  -3.274  1.00  0.00     0.049 A 
ATOM     46  C   UNL     1      -1.730  11.064  -6.947  1.00  0.00     0.074 A 
ATOM     47  C   UNL     1       0.202  15.280  -2.477  1.00  0.00     0.029 A 
ATOM     48  N   UNL     1       0.536  14.624  -4.546  1.00  0.00    -0.354 N 
ATOM     49  N   UNL     1      -2.351  12.201  -6.777  1.00  0.00    -0.248 NA
ATOM     50  C   UNL     1      -0.277  11.153  -6.968  1.00  0.00     0.031 C 
ATOM     51  C   UNL     1      -1.036  15.271  -3.184  1.00  0.00     0.029 A 
ATOM     52  C   UNL     1      -0.831  14.643  -4.414  1.00  0.00     0.049 A 
ATOM     53  H   UNL     1       1.043  14.658  -5.390  1.00  0.00     0.167 HD
ATOM     54  C   UNL     1      -1.401  13.048  -6.225  1.00  0.00     0.074 A 
ATOM     55  C   UNL     1      -0.121  12.377  -6.453  1.00  0.00     0.031 C 
ATOM     56  C   UNL     1      -1.750  14.066  -5.380  1.00  0.00     0.034 A 
BRANCH  43  57
ATOM     57  C   UNL     1       3.380  13.505  -3.768  1.00  0.00     0.023 A 
ATOM     58  C   UNL     1       3.715  14.657  -4.507  1.00  0.00     0.031 A 
ATOM     59  C   UNL     1       4.143  12.353  -4.060  1.00  0.00     0.131 A 
ATOM     60  C   UNL     1       4.636  14.599  -5.566  1.00  0.00     0.055 A 
ATOM     61  C   UNL     1       5.115  12.320  -5.066  1.00  0.00     0.041 A 
ATOM     62  F   UNL     1       3.943  11.175  -3.460  1.00  0.00    -0.206 F 
ATOM     63  C   UNL     1       5.338  13.435  -5.855  1.00  0.00     0.022 A 
BRANCH  60  64
ATOM     64  S   UNL     1       4.737  16.021  -6.682  1.00  0.00     0.124 S 
ATOM     65  O   UNL     1       3.345  16.157  -7.100  1.00  0.00    -0.237 OA
ATOM     66  O   UNL     1       5.249  17.062  -5.797  1.00  0.00    -0.237 OA
ATOM     67  O   UNL     1       5.662  15.572  -7.719  1.00  0.00    -0.744 OA
ENDBRANCH  60  64
ENDBRANCH  43  57
BRANCH  44  68
ATOM     68  C   UNL     1      -2.396   8.589  -7.565  1.00  0.00     0.023 A 
ATOM     69  C   UNL     1      -2.456   8.730  -8.972  1.00  0.00     0.031 A 
ATOM     70  C   UNL     1      -2.150   7.282  -7.082  1.00  0.00     0.131 A 
ATOM     71  C   UNL     1      -2.279   7.602  -9.816  1.00  0.00     0.055 A 
ATOM     72  C   UNL     1      -1.982   6.175  -7.918  1.00  0.00     0.041 A 
ATOM     73  F   UNL     1      -1.976   7.043  -5.773  1.00  0.00    -0.206 F 
ATOM     74  C   UNL     1      -2.037   6.332  -9.291  1.00  0.00     0.022 A 
BRANCH  71  75
ATOM     75  S   UNL     1      -2.264   7.778 -11.634  1.00  0.00     0.124 S 
ATOM     76  O   UNL     1      -3.663   8.057 -11.932  1.00  0.00    -0.237 OA
ATOM     77  O   UNL     1      -1.324   8.874 -11.838  1.00  0.00    -0.237 OA
ATOM     78  O   UNL     1      -1.787   6.474 -12.100  1.00  0.00    -0.744 OA
ENDBRANCH  71  75
ENDBRANCH  44  68
BRANCH  56  79
ATOM     79  C   UNL     1      -3.203  14.487  -5.265  1.00  0.00     0.023 A 
ATOM     80  C   UNL     1      -4.285  13.628  -4.964  1.00  0.00     0.031 A 
ATOM     81  C   UNL     1      -3.472  15.869  -5.325  1.00  0.00     0.131 A 
ATOM     82  C   UNL     1      -5.570  14.165  -4.738  1.00  0.00     0.055 A 
ATOM     83  C   UNL     1      -4.736  16.397  -5.073  1.00  0.00     0.041 A 
ATOM     84  F   UNL     1      -2.487  16.744  -5.589  1.00  0.00    -0.206 F 
ATOM     85  C   UNL     1      -5.793  15.546  -4.783  1.00  0.00     0.022 A 
BRANCH  82  86
ATOM     86  S   UNL     1      -6.994  13.078  -4.401  1.00  0.00     0.124 S 
ATOM     87  O   UNL     1      -6.869  12.028  -5.405  1.00  0.00    -0.237 OA
ATOM     88  O   UNL     1      -6.763  12.673  -3.017  1.00  0.00    -0.237 OA
ATOM     89  O   UNL     1      -8.147  13.962  -4.589  1.00  0.00    -0.744 OA
ENDBRANCH  82  86
ENDBRANCH  56  79
ENDBRANCH  30  31
ENDBRANCH   2  25
TORSDOF 13
