REMARK SMILES C[C@@H]1[C@H](C(=O)NCCCNC(=O)c2ccc(-c3c4nc(c(-c5cc(S(=O)(=O)[O-])ccc5F)c5ccc([nH]5)c(-c5cc(S(=O)(=O)[O-])ccc5F)c5nc(c(-c6cc(S(=O)(=O)[O-])ccc6F)c6ccc3[nH]6)C=C5)C=C4)cc2)CC[N@@H+]1Cc1ccc2c(c1)CCN2C
REMARK SMILES IDX 8 1 7 2 6 3 4 4 5 5 3 7 1 8 2 9 78 10 76 11 77 12 79 14
REMARK SMILES IDX 80 15 81 16 85 17 82 18 84 19 83 20 86 21 88 22 87 23 89 24
REMARK SMILES IDX 9 25 10 26 11 27 12 29 13 30 14 31 75 32 15 33 74 34 16 35
REMARK SMILES IDX 17 36 18 37 68 38 19 39 73 40 67 41 69 42 20 43 72 44 66 45
REMARK SMILES IDX 65 46 21 48 53 49 33 50 52 51 34 52 37 53 51 54 70 55 35 56
REMARK SMILES IDX 36 57 50 59 71 60 38 61 22 62 23 63 31 64 24 65 30 66 32 67
REMARK SMILES IDX 29 68 25 69 26 70 27 71 28 72 54 73 55 74 63 75 56 76 62 77
REMARK SMILES IDX 64 78 61 79 57 80 58 81 59 82 60 83 39 84 40 85 48 86 41 87
REMARK SMILES IDX 47 88 49 89 46 90 42 91 43 92 44 93 45 94
REMARK H PARENT 6 6 78 13 10 28 69 47 37 58
REMARK Flexibility Score: inf
ROOT
ATOM      1  C   UNL     1       2.738   1.595   2.525  1.00  0.00     0.042 C 
ENDROOT
BRANCH   1   2
ATOM      2  C   UNL     1       1.293   1.871   2.116  1.00  0.00     0.117 C 
BRANCH   2   3
ATOM      3  N   UNL     1       1.220   2.667   0.906  1.00  0.00    -0.356 N 
ATOM      4  C   UNL     1       0.777   2.384  -0.340  1.00  0.00     0.229 C 
ATOM      5  O   UNL     1       0.932   3.276  -1.185  1.00  0.00    -0.275 OA
ATOM      6  H   UNL     1       1.558   3.586   1.011  1.00  0.00     0.163 HD
BRANCH   4   7
ATOM      7  C   UNL     1       0.073   1.097  -0.744  1.00  0.00     0.142 C 
ATOM      8  C   UNL     1       2.256  -0.331  -0.357  1.00  0.00     0.076 C 
ATOM      9  C   UNL     1       0.817  -0.250  -0.827  1.00  0.00     0.193 C 
ATOM     10  N   UNL     1      -0.141  -1.259  -0.342  1.00  0.00    -0.328 N 
ATOM     11  C   UNL     1      -1.240   0.795  -0.032  1.00  0.00     0.081 C 
ATOM     12  C   UNL     1      -1.469  -0.666  -0.384  1.00  0.00     0.263 C 
ATOM     13  H   UNL     1      -0.065  -2.038  -0.995  1.00  0.00     0.348 HD
BRANCH  10  14
ATOM     14  C   UNL     1       0.176  -2.182   0.747  1.00  0.00     0.299 C 
BRANCH  14  15
ATOM     15  C   UNL     1       0.149  -1.696   2.188  1.00  0.00     0.007 A 
ATOM     16  C   UNL     1       1.315  -1.773   2.989  1.00  0.00     0.012 A 
ATOM     17  C   UNL     1      -1.037  -1.259   2.797  1.00  0.00     0.015 A 
ATOM     18  C   UNL     1       1.315  -1.376   4.338  1.00  0.00     0.026 A 
ATOM     19  C   UNL     1      -1.018  -0.865   4.125  1.00  0.00    -0.022 A 
ATOM     20  C   UNL     1       0.141  -0.916   4.899  1.00  0.00     0.040 A 
ATOM     21  C   UNL     1      -2.118  -0.256   4.929  1.00  0.00     0.059 C 
ATOM     22  N   UNL     1      -0.081  -0.481   6.210  1.00  0.00    -0.374 N 
ATOM     23  C   UNL     1      -1.542  -0.422   6.345  1.00  0.00     0.121 C 
ATOM     24  C   UNL     1       0.746   0.594   6.728  1.00  0.00     0.143 C 
ENDBRANCH  14  15
ENDBRANCH  10  14
ENDBRANCH   4   7
ENDBRANCH   2   3
ENDBRANCH   1   2
BRANCH   1  25
ATOM     25  C   UNL     1       3.507   2.817   3.002  1.00  0.00     0.118 C 
BRANCH  25  26
ATOM     26  N   UNL     1       3.183   3.175   4.372  1.00  0.00    -0.352 N 
ATOM     27  C   UNL     1       3.845   2.926   5.551  1.00  0.00     0.251 C 
ATOM     28  H   UNL     1       2.346   3.684   4.474  1.00  0.00     0.163 HD
ATOM     29  O   UNL     1       3.239   3.110   6.605  1.00  0.00    -0.269 OA
BRANCH  27  30
ATOM     30  C   UNL     1       5.242   2.413   5.581  1.00  0.00     0.039 A 
ATOM     31  C   UNL     1       5.619   1.560   6.624  1.00  0.00     0.014 A 
ATOM     32  C   UNL     1       6.204   2.799   4.646  1.00  0.00     0.014 A 
ATOM     33  C   UNL     1       6.924   1.054   6.690  1.00  0.00     0.010 A 
ATOM     34  C   UNL     1       7.471   2.212   4.649  1.00  0.00     0.010 A 
ATOM     35  C   UNL     1       7.855   1.343   5.680  1.00  0.00    -0.014 A 
BRANCH  35  36
ATOM     36  C   UNL     1       9.238   0.782   5.703  1.00  0.00     0.031 A 
ATOM     37  C   UNL     1      10.431   1.705   5.750  1.00  0.00     0.074 A 
ATOM     38  C   UNL     1       9.428  -0.551   5.623  1.00  0.00     0.049 A 
ATOM     39  N   UNL     1      11.707   1.420   5.674  1.00  0.00    -0.248 NA
ATOM     40  C   UNL     1      10.147   3.144   5.864  1.00  0.00     0.031 C 
ATOM     41  C   UNL     1       8.365  -1.554   5.537  1.00  0.00     0.029 A 
ATOM     42  N   UNL     1      10.584  -1.294   5.594  1.00  0.00    -0.354 N 
ATOM     43  C   UNL     1      12.374   2.642   5.705  1.00  0.00     0.074 A 
ATOM     44  C   UNL     1      11.355   3.670   5.742  1.00  0.00     0.031 C 
ATOM     45  C   UNL     1       8.916  -2.778   5.494  1.00  0.00     0.029 A 
ATOM     46  C   UNL     1      10.370  -2.650   5.498  1.00  0.00     0.049 A 
ATOM     47  H   UNL     1      11.482  -0.893   5.637  1.00  0.00     0.167 HD
ATOM     48  C   UNL     1      13.709   2.886   5.728  1.00  0.00     0.034 A 
ATOM     49  C   UNL     1      11.242  -3.675   5.409  1.00  0.00     0.034 A 
ATOM     50  C   UNL     1      14.715   1.852   5.720  1.00  0.00     0.049 A 
ATOM     51  C   UNL     1      12.721  -3.380   5.422  1.00  0.00     0.074 A 
ATOM     52  C   UNL     1      16.091   1.986   5.796  1.00  0.00     0.029 A 
ATOM     53  N   UNL     1      14.456   0.490   5.628  1.00  0.00    -0.354 N 
ATOM     54  N   UNL     1      13.332  -2.220   5.488  1.00  0.00    -0.248 NA
ATOM     55  C   UNL     1      13.626  -4.535   5.356  1.00  0.00     0.031 C 
ATOM     56  C   UNL     1      16.665   0.714   5.689  1.00  0.00     0.029 A 
ATOM     57  C   UNL     1      15.646  -0.222   5.620  1.00  0.00     0.049 A 
ATOM     58  H   UNL     1      13.558   0.089   5.576  1.00  0.00     0.167 HD
ATOM     59  C   UNL     1      14.694  -2.510   5.505  1.00  0.00     0.074 A 
ATOM     60  C   UNL     1      14.812  -3.953   5.456  1.00  0.00     0.031 C 
ATOM     61  C   UNL     1      15.751  -1.661   5.562  1.00  0.00     0.034 A 
BRANCH  48  62
ATOM     62  C   UNL     1      14.151   4.332   5.743  1.00  0.00     0.023 A 
ATOM     63  C   UNL     1      13.822   5.194   6.805  1.00  0.00     0.031 A 
ATOM     64  C   UNL     1      14.886   4.865   4.670  1.00  0.00     0.131 A 
ATOM     65  C   UNL     1      14.152   6.556   6.731  1.00  0.00     0.055 A 
ATOM     66  C   UNL     1      15.287   6.203   4.643  1.00  0.00     0.041 A 
ATOM     67  F   UNL     1      15.216   4.099   3.619  1.00  0.00    -0.206 F 
ATOM     68  C   UNL     1      14.905   7.062   5.670  1.00  0.00     0.022 A 
BRANCH  65  69
ATOM     69  S   UNL     1      13.449   7.683   7.967  1.00  0.00     0.124 S 
ATOM     70  O   UNL     1      12.016   7.482   7.767  1.00  0.00    -0.237 OA
ATOM     71  O   UNL     1      13.999   7.168   9.214  1.00  0.00    -0.237 OA
ATOM     72  O   UNL     1      13.949   8.995   7.557  1.00  0.00    -0.744 OA
ENDBRANCH  65  69
ENDBRANCH  48  62
BRANCH  49  73
ATOM     73  C   UNL     1      10.750  -5.078   5.293  1.00  0.00     0.023 A 
ATOM     74  C   UNL     1      11.001  -6.017   6.307  1.00  0.00     0.031 A 
ATOM     75  C   UNL     1      10.059  -5.513   4.149  1.00  0.00     0.131 A 
ATOM     76  C   UNL     1      10.606  -7.353   6.137  1.00  0.00     0.055 A 
ATOM     77  C   UNL     1       9.622  -6.832   4.007  1.00  0.00     0.041 A 
ATOM     78  F   UNL     1       9.789  -4.656   3.151  1.00  0.00    -0.206 F 
ATOM     79  C   UNL     1       9.907  -7.764   5.000  1.00  0.00     0.022 A 
BRANCH  76  80
ATOM     80  S   UNL     1      11.096  -8.569   7.391  1.00  0.00     0.124 S 
ATOM     81  O   UNL     1      12.549  -8.441   7.378  1.00  0.00    -0.237 OA
ATOM     82  O   UNL     1      10.418  -8.065   8.582  1.00  0.00    -0.237 OA
ATOM     83  O   UNL     1      10.574  -9.828   6.866  1.00  0.00    -0.744 OA
ENDBRANCH  76  80
ENDBRANCH  49  73
BRANCH  61  84
ATOM     84  C   UNL     1      17.126  -2.280   5.625  1.00  0.00     0.023 A 
ATOM     85  C   UNL     1      17.670  -2.991   4.540  1.00  0.00     0.031 A 
ATOM     86  C   UNL     1      17.898  -2.166   6.795  1.00  0.00     0.131 A 
ATOM     87  C   UNL     1      18.924  -3.607   4.667  1.00  0.00     0.055 A 
ATOM     88  C   UNL     1      19.170  -2.731   6.894  1.00  0.00     0.041 A 
ATOM     89  F   UNL     1      17.427  -1.500   7.861  1.00  0.00    -0.206 F 
ATOM     90  C   UNL     1      19.684  -3.468   5.831  1.00  0.00     0.022 A 
BRANCH  87  91
ATOM     91  S   UNL     1      19.514  -4.669   3.320  1.00  0.00     0.124 S 
ATOM     92  O   UNL     1      18.456  -5.670   3.237  1.00  0.00    -0.237 OA
ATOM     93  O   UNL     1      19.598  -3.736   2.201  1.00  0.00    -0.237 OA
ATOM     94  O   UNL     1      20.799  -5.164   3.811  1.00  0.00    -0.744 OA
ENDBRANCH  87  91
ENDBRANCH  61  84
ENDBRANCH  35  36
ENDBRANCH  27  30
ENDBRANCH  25  26
ENDBRANCH   1  25
TORSDOF 15
