REMARK SMILES COc1cc(/C=C/c2nc3sc4c(c3c(=O)[nH]2)CCCC4)ccc1OCC(=O)NCCCNC(=O)c1ccc(-c2c3nc(c(-c4cc(S(=O)(=O)[O-])ccc4F)c4ccc([nH]4)c(-c4cc(S(=O)(=O)[O-])ccc4F)c4nc(c(-c5cc(S(=O)(=O)[O-])ccc5F)c5ccc2[nH]5)C=C4)C=C3)cc1
REMARK SMILES IDX 30 1 29 2 27 3 28 4 26 6 25 7 24 8 3 9 4 10 5 11 23 12 22 13
REMARK SMILES IDX 2 14 1 15 6 16 7 17 8 18 9 19 17 20 10 21 15 22 11 24 14 25
REMARK SMILES IDX 16 26 12 27 13 28 21 29 18 30 20 31 19 32 31 33 32 34 33 35
REMARK SMILES IDX 34 36 35 38 36 39 37 40 98 41 38 42 97 43 39 44 40 45 41 46
REMARK SMILES IDX 91 47 42 48 96 49 90 50 92 51 43 52 95 53 89 54 88 55 44 57
REMARK SMILES IDX 76 58 56 59 75 60 57 61 60 62 74 63 93 64 58 65 59 66 73 68
REMARK SMILES IDX 94 69 61 70 45 71 46 72 54 73 47 74 53 75 55 76 52 77 48 78
REMARK SMILES IDX 49 79 50 80 51 81 77 82 78 83 86 84 79 85 85 86 87 87 84 88
REMARK SMILES IDX 80 89 81 90 82 91 83 92 62 93 63 94 71 95 64 96 70 97 72 98
REMARK SMILES IDX 69 99 65 100 66 101 67 102 68 103
REMARK H PARENT 29 5 17 23 33 37 92 56 60 67
REMARK Flexibility Score: inf
ROOT
ATOM      1  C   UNL     1       3.859   0.604  -2.771  1.00  0.00     0.117 C 
ENDROOT
BRANCH   1   2
ATOM      2  N   UNL     1       2.851   1.112  -1.862  1.00  0.00    -0.353 N 
ATOM      3  C   UNL     1       2.600   0.734  -0.575  1.00  0.00     0.257 C 
ATOM      4  O   UNL     1       1.878   1.465   0.107  1.00  0.00    -0.271 OA
ATOM      5  H   UNL     1       2.272   1.823  -2.219  1.00  0.00     0.163 HD
BRANCH   3   6
ATOM      6  C   UNL     1       3.280  -0.513   0.003  1.00  0.00     0.329 C 
BRANCH   6   7
ATOM      7  O   UNL     1       3.278  -1.682  -0.797  1.00  0.00    -0.480 OA
BRANCH   7   8
ATOM      8  C   UNL     1       2.146  -2.431  -0.952  1.00  0.00     0.161 A 
ATOM      9  C   UNL     1       0.924  -2.331  -0.284  1.00  0.00     0.161 A 
ATOM     10  C   UNL     1      -0.109  -3.247  -0.562  1.00  0.00     0.058 A 
ATOM     11  C   UNL     1       0.042  -4.261  -1.522  1.00  0.00    -0.022 A 
ATOM     12  C   UNL     1       2.296  -3.439  -1.913  1.00  0.00     0.051 A 
ATOM     13  C   UNL     1       1.262  -4.340  -2.199  1.00  0.00     0.012 A 
BRANCH   9  14
ATOM     14  O   UNL     1       0.759  -1.448   0.749  1.00  0.00    -0.493 OA
ATOM     15  C   UNL     1      -0.311  -0.527   0.527  1.00  0.00     0.278 C 
ENDBRANCH   9  14
BRANCH  11  16
ATOM     16  C   UNL     1      -0.976  -5.305  -1.765  1.00  0.00     0.012 C 
ATOM     17  C   UNL     1      -2.262  -5.215  -1.391  1.00  0.00     0.048 C 
BRANCH  17  18
ATOM     18  C   UNL     1      -3.276  -6.285  -1.569  1.00  0.00     0.134 A 
ATOM     19  N   UNL     1      -4.512  -5.969  -1.805  1.00  0.00    -0.220 NA
ATOM     20  N   UNL     1      -2.837  -7.576  -1.369  1.00  0.00    -0.306 N 
ATOM     21  C   UNL     1      -5.364  -7.023  -1.889  1.00  0.00     0.131 A 
ATOM     22  C   UNL     1      -3.677  -8.669  -1.369  1.00  0.00     0.260 A 
ATOM     23  H   UNL     1      -1.876  -7.725  -1.218  1.00  0.00     0.171 HD
ATOM     24  S   UNL     1      -7.010  -6.805  -2.278  1.00  0.00    -0.120 S 
ATOM     25  C   UNL     1      -5.056  -8.353  -1.678  1.00  0.00     0.080 A 
ATOM     26  O   UNL     1      -3.270  -9.797  -1.096  1.00  0.00    -0.269 OA
ATOM     27  C   UNL     1      -7.318  -8.475  -2.169  1.00  0.00     0.011 A 
ATOM     28  C   UNL     1      -6.201  -9.205  -1.803  1.00  0.00    -0.019 A 
ATOM     29  C   UNL     1      -8.678  -9.044  -2.424  1.00  0.00     0.047 C 
ATOM     30  C   UNL     1      -6.248 -10.696  -1.634  1.00  0.00     0.037 C 
ATOM     31  C   UNL     1      -8.589 -10.563  -2.629  1.00  0.00     0.006 C 
ATOM     32  C   UNL     1      -7.694 -11.222  -1.571  1.00  0.00     0.005 C 
ENDBRANCH  17  18
ENDBRANCH  11  16
ENDBRANCH   7   8
ENDBRANCH   6   7
ENDBRANCH   3   6
ENDBRANCH   1   2
BRANCH   1  33
ATOM     33  C   UNL     1       3.271  -0.091  -3.991  1.00  0.00     0.042 C 
BRANCH  33  34
ATOM     34  C   UNL     1       2.290   0.760  -4.790  1.00  0.00     0.118 C 
BRANCH  34  35
ATOM     35  N   UNL     1       2.869   2.017  -5.254  1.00  0.00    -0.352 N 
ATOM     36  C   UNL     1       3.165   2.434  -6.531  1.00  0.00     0.251 C 
ATOM     37  H   UNL     1       3.080   2.665  -4.545  1.00  0.00     0.163 HD
ATOM     38  O   UNL     1       3.823   3.456  -6.703  1.00  0.00    -0.269 OA
BRANCH  36  39
ATOM     39  C   UNL     1       2.713   1.629  -7.683  1.00  0.00     0.039 A 
ATOM     40  C   UNL     1       3.620   1.308  -8.696  1.00  0.00     0.014 A 
ATOM     41  C   UNL     1       1.399   1.162  -7.738  1.00  0.00     0.014 A 
ATOM     42  C   UNL     1       3.234   0.431  -9.714  1.00  0.00     0.010 A 
ATOM     43  C   UNL     1       1.046   0.224  -8.699  1.00  0.00     0.010 A 
ATOM     44  C   UNL     1       1.961  -0.159  -9.694  1.00  0.00    -0.014 A 
BRANCH  44  45
ATOM     45  C   UNL     1       1.533  -1.169 -10.697  1.00  0.00     0.031 A 
ATOM     46  C   UNL     1       0.344  -0.879 -11.570  1.00  0.00     0.074 A 
ATOM     47  C   UNL     1       2.134  -2.376 -10.746  1.00  0.00     0.049 A 
ATOM     48  N   UNL     1      -0.329  -1.683 -12.350  1.00  0.00    -0.248 NA
ATOM     49  C   UNL     1      -0.178   0.496 -11.525  1.00  0.00     0.031 C 
ATOM     50  C   UNL     1       3.293  -2.780  -9.948  1.00  0.00     0.029 A 
ATOM     51  N   UNL     1       1.836  -3.495 -11.485  1.00  0.00    -0.354 N 
ATOM     52  C   UNL     1      -1.367  -0.918 -12.873  1.00  0.00     0.074 A 
ATOM     53  C   UNL     1      -1.268   0.394 -12.268  1.00  0.00     0.031 C 
ATOM     54  C   UNL     1       3.615  -4.048 -10.251  1.00  0.00     0.029 A 
ATOM     55  C   UNL     1       2.648  -4.573 -11.211  1.00  0.00     0.049 A 
ATOM     56  H   UNL     1       1.110  -3.524 -12.149  1.00  0.00     0.167 HD
ATOM     57  C   UNL     1      -2.302  -1.272 -13.788  1.00  0.00     0.034 A 
ATOM     58  C   UNL     1       2.600  -5.845 -11.658  1.00  0.00     0.034 A 
ATOM     59  C   UNL     1      -2.379  -2.582 -14.384  1.00  0.00     0.049 A 
ATOM     60  C   UNL     1       1.507  -6.238 -12.625  1.00  0.00     0.074 A 
ATOM     61  C   UNL     1      -3.268  -3.042 -15.339  1.00  0.00     0.029 A 
ATOM     62  N   UNL     1      -1.538  -3.645 -14.078  1.00  0.00    -0.354 N 
ATOM     63  N   UNL     1       0.536  -5.502 -13.117  1.00  0.00    -0.248 NA
ATOM     64  C   UNL     1       1.502  -7.629 -13.100  1.00  0.00     0.031 C 
ATOM     65  C   UNL     1      -3.014  -4.399 -15.556  1.00  0.00     0.029 A 
ATOM     66  C   UNL     1      -1.905  -4.764 -14.808  1.00  0.00     0.049 A 
ATOM     67  H   UNL     1      -0.792  -3.609 -13.437  1.00  0.00     0.167 HD
ATOM     68  C   UNL     1      -0.157  -6.328 -13.999  1.00  0.00     0.074 A 
ATOM     69  C   UNL     1       0.498  -7.617 -13.965  1.00  0.00     0.031 C 
ATOM     70  C   UNL     1      -1.229  -6.039 -14.778  1.00  0.00     0.034 A 
BRANCH  57  71
ATOM     71  C   UNL     1      -3.328  -0.233 -14.172  1.00  0.00     0.023 A 
ATOM     72  C   UNL     1      -2.956   0.977 -14.783  1.00  0.00     0.031 A 
ATOM     73  C   UNL     1      -4.692  -0.442 -13.903  1.00  0.00     0.131 A 
ATOM     74  C   UNL     1      -3.922   1.963 -15.028  1.00  0.00     0.055 A 
ATOM     75  C   UNL     1      -5.661   0.507 -14.235  1.00  0.00     0.041 A 
ATOM     76  F   UNL     1      -5.106  -1.567 -13.300  1.00  0.00    -0.206 F 
ATOM     77  C   UNL     1      -5.277   1.726 -14.786  1.00  0.00     0.022 A 
BRANCH  74  78
ATOM     78  S   UNL     1      -3.361   3.616 -15.519  1.00  0.00     0.124 S 
ATOM     79  O   UNL     1      -2.503   3.981 -14.394  1.00  0.00    -0.237 OA
ATOM     80  O   UNL     1      -2.681   3.356 -16.783  1.00  0.00    -0.237 OA
ATOM     81  O   UNL     1      -4.601   4.383 -15.622  1.00  0.00    -0.744 OA
ENDBRANCH  74  78
ENDBRANCH  57  71
BRANCH  58  82
ATOM     82  C   UNL     1       3.596  -6.855 -11.191  1.00  0.00     0.023 A 
ATOM     83  C   UNL     1       4.467  -7.477 -12.100  1.00  0.00     0.031 A 
ATOM     84  C   UNL     1       3.654  -7.258  -9.845  1.00  0.00     0.131 A 
ATOM     85  C   UNL     1       5.314  -8.509 -11.665  1.00  0.00     0.055 A 
ATOM     86  C   UNL     1       4.545  -8.239  -9.405  1.00  0.00     0.041 A 
ATOM     87  F   UNL     1       2.846  -6.698  -8.931  1.00  0.00    -0.206 F 
ATOM     88  C   UNL     1       5.371  -8.883 -10.322  1.00  0.00     0.022 A 
BRANCH  85  89
ATOM     89  S   UNL     1       6.257  -9.435 -12.907  1.00  0.00     0.124 S 
ATOM     90  O   UNL     1       5.194  -9.927 -13.777  1.00  0.00    -0.237 OA
ATOM     91  O   UNL     1       7.119  -8.400 -13.467  1.00  0.00    -0.237 OA
ATOM     92  O   UNL     1       6.943 -10.457 -12.119  1.00  0.00    -0.744 OA
ENDBRANCH  85  89
ENDBRANCH  58  82
BRANCH  70  93
ATOM     93  C   UNL     1      -1.710  -7.103 -15.734  1.00  0.00     0.023 A 
ATOM     94  C   UNL     1      -2.332  -8.284 -15.297  1.00  0.00     0.031 A 
ATOM     95  C   UNL     1      -1.582  -6.895 -17.121  1.00  0.00     0.131 A 
ATOM     96  C   UNL     1      -2.778  -9.226 -16.239  1.00  0.00     0.055 A 
ATOM     97  C   UNL     1      -2.079  -7.806 -18.051  1.00  0.00     0.041 A 
ATOM     98  F   UNL     1      -0.991  -5.784 -17.592  1.00  0.00    -0.206 F 
ATOM     99  C   UNL     1      -2.675  -8.983 -17.612  1.00  0.00     0.022 A 
BRANCH  96 100
ATOM    100  S   UNL     1      -3.450 -10.804 -15.649  1.00  0.00     0.124 S 
ATOM    101  O   UNL     1      -2.317 -11.362 -14.918  1.00  0.00    -0.237 OA
ATOM    102  O   UNL     1      -4.585 -10.378 -14.837  1.00  0.00    -0.237 OA
ATOM    103  O   UNL     1      -3.801 -11.509 -16.880  1.00  0.00    -0.744 OA
ENDBRANCH  96 100
ENDBRANCH  70  93
ENDBRANCH  44  45
ENDBRANCH  36  39
ENDBRANCH  34  35
ENDBRANCH  33  34
ENDBRANCH   1  33
TORSDOF 18
