REMARK SMILES C#CCN(CC(=O)NCCCNC(=O)c1ccc(-c2c3nc(c(-c4cc(S(=O)(=O)[O-])ccc4F)c4ccc([nH]4)c(-c4cc(S(=O)(=O)[O-])ccc4F)c4nc(c(-c5cc(S(=O)(=O)[O-])ccc5F)c5ccc2[nH]5)C=C4)C=C3)cc1)C(=O)Nc1cccc(C#N)c1
REMARK SMILES IDX 9 1 8 2 6 3 7 4 5 6 4 7 3 8 2 9 1 10 78 11 79 12 80 13 81 15
REMARK SMILES IDX 82 16 88 17 83 18 85 19 84 20 86 21 87 22 10 23 11 24 12 25
REMARK SMILES IDX 13 26 14 28 15 29 16 30 77 31 17 32 76 33 18 34 19 35 20 36
REMARK SMILES IDX 70 37 21 38 75 39 69 40 71 41 22 42 74 43 68 44 67 45 23 47
REMARK SMILES IDX 55 48 35 49 54 50 36 51 39 52 53 53 72 54 37 55 38 56 52 58
REMARK SMILES IDX 73 59 40 60 24 61 25 62 33 63 26 64 32 65 34 66 31 67 27 68
REMARK SMILES IDX 28 69 29 70 30 71 56 72 57 73 65 74 58 75 64 76 66 77 63 78
REMARK SMILES IDX 59 79 60 80 61 81 62 82 41 83 42 84 50 85 43 86 49 87 51 88
REMARK SMILES IDX 48 89 44 90 45 91 46 92 47 93
REMARK H PARENT 8 5 80 14 12 27 71 46 39 57
REMARK Flexibility Score: inf
ROOT
ATOM      1  C   UNL     1      -4.783  -0.801  -1.023  1.00  0.00     0.117 C 
ENDROOT
BRANCH   1   2
ATOM      2  N   UNL     1      -5.362   0.391  -0.457  1.00  0.00    -0.354 N 
ATOM      3  C   UNL     1      -4.919   1.220   0.512  1.00  0.00     0.239 C 
ATOM      4  O   UNL     1      -5.828   1.677   1.208  1.00  0.00    -0.273 OA
ATOM      5  H   UNL     1      -6.231   0.645  -0.844  1.00  0.00     0.163 HD
BRANCH   3   6
ATOM      6  C   UNL     1      -3.456   1.708   0.660  1.00  0.00     0.222 C 
BRANCH   6   7
ATOM      7  N   UNL     1      -2.412   0.778   1.096  1.00  0.00    -0.304 N 
BRANCH   7   8
ATOM      8  C   UNL     1      -1.753   0.070  -0.005  1.00  0.00     0.211 C 
BRANCH   8   9
ATOM      9  C   UNL     1      -0.233   0.070  -0.005  1.00  0.00    -0.085 C 
ATOM     10  C   UNL     1       1.071   0.070  -0.005  1.00  0.00     0.006 C 
ENDBRANCH   8   9
ENDBRANCH   7   8
BRANCH   7  11
ATOM     11  C   UNL     1      -2.042   0.423   2.375  1.00  0.00     0.323 C 
ATOM     12  O   UNL     1      -1.354  -0.589   2.570  1.00  0.00    -0.248 OA
ATOM     13  N   UNL     1      -2.197   1.206   3.476  1.00  0.00    -0.308 N 
ATOM     14  H   UNL     1      -1.546   0.968   4.175  1.00  0.00     0.171 HD
BRANCH  13  15
ATOM     15  C   UNL     1      -3.023   2.255   3.895  1.00  0.00     0.044 A 
ATOM     16  C   UNL     1      -2.489   3.244   4.728  1.00  0.00     0.026 A 
ATOM     17  C   UNL     1      -4.369   2.322   3.576  1.00  0.00     0.045 A 
ATOM     18  C   UNL     1      -3.241   4.379   5.051  1.00  0.00     0.004 A 
ATOM     19  C   UNL     1      -5.099   3.496   3.796  1.00  0.00     0.054 A 
ATOM     20  C   UNL     1      -4.526   4.531   4.534  1.00  0.00     0.019 A 
BRANCH  19  21
ATOM     21  C   UNL     1      -6.388   3.700   3.187  1.00  0.00     0.099 C 
ATOM     22  N   UNL     1      -7.392   3.959   2.673  1.00  0.00    -0.192 NA
ENDBRANCH  19  21
ENDBRANCH  13  15
ENDBRANCH   7  11
ENDBRANCH   6   7
ENDBRANCH   3   6
ENDBRANCH   1   2
BRANCH   1  23
ATOM     23  C   UNL     1      -4.723  -1.939  -0.006  1.00  0.00     0.042 C 
BRANCH  23  24
ATOM     24  C   UNL     1      -6.025  -2.208   0.751  1.00  0.00     0.118 C 
BRANCH  24  25
ATOM     25  N   UNL     1      -7.196  -2.226  -0.110  1.00  0.00    -0.352 N 
ATOM     26  C   UNL     1      -7.931  -3.265  -0.611  1.00  0.00     0.251 C 
ATOM     27  H   UNL     1      -7.516  -1.335  -0.379  1.00  0.00     0.163 HD
ATOM     28  O   UNL     1      -8.695  -3.052  -1.548  1.00  0.00    -0.269 OA
BRANCH  26  29
ATOM     29  C   UNL     1      -7.802  -4.623  -0.047  1.00  0.00     0.039 A 
ATOM     30  C   UNL     1      -7.864  -5.715  -0.915  1.00  0.00     0.014 A 
ATOM     31  C   UNL     1      -7.686  -4.831   1.330  1.00  0.00     0.014 A 
ATOM     32  C   UNL     1      -7.761  -7.009  -0.405  1.00  0.00     0.010 A 
ATOM     33  C   UNL     1      -7.487  -6.116   1.827  1.00  0.00     0.010 A 
ATOM     34  C   UNL     1      -7.536  -7.221   0.966  1.00  0.00    -0.014 A 
BRANCH  34  35
ATOM     35  C   UNL     1      -7.362  -8.597   1.498  1.00  0.00     0.031 A 
ATOM     36  C   UNL     1      -8.340  -9.160   2.494  1.00  0.00     0.074 A 
ATOM     37  C   UNL     1      -6.309  -9.332   1.089  1.00  0.00     0.049 A 
ATOM     38  N   UNL     1      -8.353 -10.340   3.060  1.00  0.00    -0.248 NA
ATOM     39  C   UNL     1      -9.429  -8.274   2.931  1.00  0.00     0.031 C 
ATOM     40  C   UNL     1      -5.275  -8.874   0.157  1.00  0.00     0.029 A 
ATOM     41  N   UNL     1      -5.935 -10.617   1.391  1.00  0.00    -0.354 N 
ATOM     42  C   UNL     1      -9.447 -10.338   3.919  1.00  0.00     0.074 A 
ATOM     43  C   UNL     1     -10.027  -9.014   3.853  1.00  0.00     0.031 C 
ATOM     44  C   UNL     1      -4.415  -9.878  -0.073  1.00  0.00     0.029 A 
ATOM     45  C   UNL     1      -4.797 -11.030   0.736  1.00  0.00     0.049 A 
ATOM     46  H   UNL     1      -6.434 -11.190   2.017  1.00  0.00     0.167 HD
ATOM     47  C   UNL     1      -9.937 -11.354   4.673  1.00  0.00     0.034 A 
ATOM     48  C   UNL     1      -4.131 -12.200   0.787  1.00  0.00     0.034 A 
ATOM     49  C   UNL     1      -9.340 -12.667   4.727  1.00  0.00     0.049 A 
ATOM     50  C   UNL     1      -4.671 -13.301   1.667  1.00  0.00     0.074 A 
ATOM     51  C   UNL     1      -9.774 -13.781   5.422  1.00  0.00     0.029 A 
ATOM     52  N   UNL     1      -8.172 -13.040   4.072  1.00  0.00    -0.354 N 
ATOM     53  N   UNL     1      -5.737 -13.298   2.433  1.00  0.00    -0.248 NA
ATOM     54  C   UNL     1      -3.925 -14.565   1.676  1.00  0.00     0.031 C 
ATOM     55  C   UNL     1      -8.826 -14.796   5.262  1.00  0.00     0.029 A 
ATOM     56  C   UNL     1      -7.853 -14.354   4.380  1.00  0.00     0.049 A 
ATOM     57  H   UNL     1      -7.648 -12.457   3.477  1.00  0.00     0.167 HD
ATOM     58  C   UNL     1      -5.810 -14.575   2.985  1.00  0.00     0.074 A 
ATOM     59  C   UNL     1      -4.689 -15.320   2.450  1.00  0.00     0.031 C 
ATOM     60  C   UNL     1      -6.726 -15.087   3.847  1.00  0.00     0.034 A 
BRANCH  47  61
ATOM     61  C   UNL     1     -11.156 -11.072   5.520  1.00  0.00     0.023 A 
ATOM     62  C   UNL     1     -12.383 -10.688   4.949  1.00  0.00     0.031 A 
ATOM     63  C   UNL     1     -11.089 -11.170   6.921  1.00  0.00     0.131 A 
ATOM     64  C   UNL     1     -13.465 -10.343   5.775  1.00  0.00     0.055 A 
ATOM     65  C   UNL     1     -12.196 -10.914   7.733  1.00  0.00     0.041 A 
ATOM     66  F   UNL     1      -9.941 -11.507   7.529  1.00  0.00    -0.206 F 
ATOM     67  C   UNL     1     -13.389 -10.482   7.162  1.00  0.00     0.022 A 
BRANCH  64  68
ATOM     68  S   UNL     1     -14.916  -9.560   5.019  1.00  0.00     0.124 S 
ATOM     69  O   UNL     1     -14.319  -8.390   4.379  1.00  0.00    -0.237 OA
ATOM     70  O   UNL     1     -15.405 -10.600   4.122  1.00  0.00    -0.237 OA
ATOM     71  O   UNL     1     -15.779  -9.263   6.161  1.00  0.00    -0.744 OA
ENDBRANCH  64  68
ENDBRANCH  47  61
BRANCH  48  72
ATOM     72  C   UNL     1      -2.882 -12.395  -0.004  1.00  0.00     0.023 A 
ATOM     73  C   UNL     1      -2.797 -13.380  -1.001  1.00  0.00     0.031 A 
ATOM     74  C   UNL     1      -1.733 -11.625   0.257  1.00  0.00     0.131 A 
ATOM     75  C   UNL     1      -1.579 -13.607  -1.660  1.00  0.00     0.055 A 
ATOM     76  C   UNL     1      -0.543 -11.809  -0.448  1.00  0.00     0.041 A 
ATOM     77  F   UNL     1      -1.756 -10.668   1.199  1.00  0.00    -0.206 F 
ATOM     78  C   UNL     1      -0.457 -12.816  -1.403  1.00  0.00     0.022 A 
BRANCH  75  79
ATOM     79  S   UNL     1      -1.450 -15.026  -2.782  1.00  0.00     0.124 S 
ATOM     80  O   UNL     1      -1.811 -16.132  -1.903  1.00  0.00    -0.237 OA
ATOM     81  O   UNL     1      -2.420 -14.684  -3.816  1.00  0.00    -0.237 OA
ATOM     82  O   UNL     1      -0.052 -14.996  -3.207  1.00  0.00    -0.744 OA
ENDBRANCH  75  79
ENDBRANCH  48  72
BRANCH  60  83
ATOM     83  C   UNL     1      -6.586 -16.545   4.217  1.00  0.00     0.023 A 
ATOM     84  C   UNL     1      -5.474 -17.034   4.925  1.00  0.00     0.031 A 
ATOM     85  C   UNL     1      -7.582 -17.465   3.839  1.00  0.00     0.131 A 
ATOM     86  C   UNL     1      -5.353 -18.410   5.173  1.00  0.00     0.055 A 
ATOM     87  C   UNL     1      -7.493 -18.820   4.157  1.00  0.00     0.041 A 
ATOM     88  F   UNL     1      -8.664 -17.059   3.155  1.00  0.00    -0.206 F 
ATOM     89  C   UNL     1      -6.365 -19.303   4.813  1.00  0.00     0.022 A 
BRANCH  86  90
ATOM     90  S   UNL     1      -3.796 -19.036   5.862  1.00  0.00     0.124 S 
ATOM     91  O   UNL     1      -2.820 -18.562   4.886  1.00  0.00    -0.237 OA
ATOM     92  O   UNL     1      -3.752 -18.392   7.171  1.00  0.00    -0.237 OA
ATOM     93  O   UNL     1      -3.992 -20.485   5.891  1.00  0.00    -0.744 OA
ENDBRANCH  86  90
ENDBRANCH  60  83
ENDBRANCH  34  35
ENDBRANCH  26  29
ENDBRANCH  24  25
ENDBRANCH  23  24
ENDBRANCH   1  23
TORSDOF 19
