REMARK SMILES CS(=O)(=O)c1ccc(/C=C(/C(=O)NCCCNC(=O)c2ccc(-c3c4nc(c(-c5cc(S(=O)(=O)[O-])ccc5F)c5ccc([nH]5)c(-c5cc(S(=O)(=O)[O-])ccc5F)c5nc(c(-c6cc(S(=O)(=O)[O-])ccc6F)c6ccc3[nH]6)C=C5)C=C4)cc2)c2ccc(O)cc2)cc1
REMARK SMILES IDX 15 1 14 2 13 3 11 4 12 5 10 7 9 8 8 9 5 10 6 11 91 12 7 13
REMARK SMILES IDX 90 14 2 15 1 16 3 17 4 18 83 19 84 20 89 21 85 22 88 23
REMARK SMILES IDX 86 24 87 25 16 27 17 28 18 29 19 31 20 32 21 33 82 34 22 35
REMARK SMILES IDX 81 36 23 37 24 38 25 39 75 40 26 41 80 42 74 43 76 44 27 45
REMARK SMILES IDX 79 46 73 47 72 48 28 50 60 51 40 52 59 53 41 54 44 55 58 56
REMARK SMILES IDX 77 57 42 58 43 59 57 61 78 62 45 63 29 64 30 65 38 66 31 67
REMARK SMILES IDX 37 68 39 69 36 70 32 71 33 72 34 73 35 74 61 75 62 76 70 77
REMARK SMILES IDX 63 78 69 79 71 80 68 81 64 82 65 83 66 84 67 85 46 86 47 87
REMARK SMILES IDX 55 88 48 89 54 90 56 91 53 92 49 93 50 94 51 95 52 96
REMARK H PARENT 13 6 87 26 17 30 76 49 44 60
REMARK Flexibility Score: inf
ROOT
ATOM      1  C   UNL     1       1.541   7.924  -4.998  1.00  0.00     0.042 C 
ENDROOT
BRANCH   1   2
ATOM      2  C   UNL     1       1.200   6.936  -6.114  1.00  0.00     0.118 C 
BRANCH   2   3
ATOM      3  N   UNL     1       2.386   6.604  -6.880  1.00  0.00    -0.352 N 
ATOM      4  C   UNL     1       3.233   5.542  -6.901  1.00  0.00     0.251 C 
ATOM      5  O   UNL     1       4.178   5.624  -7.690  1.00  0.00    -0.269 OA
ATOM      6  H   UNL     1       2.632   7.303  -7.528  1.00  0.00     0.163 HD
BRANCH   4   7
ATOM      7  C   UNL     1       3.014   4.280  -6.096  1.00  0.00     0.047 C 
ATOM      8  C   UNL     1       2.439   4.299  -4.871  1.00  0.00     0.022 C 
BRANCH   8   9
ATOM      9  C   UNL     1       2.007   3.181  -4.000  1.00  0.00    -0.025 A 
ATOM     10  C   UNL     1       0.933   1.069  -2.495  1.00  0.00     0.067 A 
ATOM     11  C   UNL     1       2.186   0.930  -3.092  1.00  0.00     0.021 A 
ATOM     12  C   UNL     1       0.224   2.263  -2.605  1.00  0.00     0.021 A 
ATOM     13  C   UNL     1       2.733   2.000  -3.804  1.00  0.00     0.009 A 
ATOM     14  C   UNL     1       0.764   3.312  -3.354  1.00  0.00     0.009 A 
BRANCH  10  15
ATOM     15  S   UNL     1       0.225  -0.308  -1.626  1.00  0.00     0.175 S 
ATOM     16  C   UNL     1       0.866  -0.113   0.015  1.00  0.00     0.163 C 
ATOM     17  O   UNL     1       0.783  -1.519  -2.193  1.00  0.00    -0.224 OA
ATOM     18  O   UNL     1      -1.213  -0.108  -1.578  1.00  0.00    -0.224 OA
ENDBRANCH  10  15
ENDBRANCH   8   9
BRANCH   7  19
ATOM     19  C   UNL     1       3.633   3.038  -6.626  1.00  0.00    -0.013 A 
ATOM     20  C   UNL     1       5.037   2.962  -6.664  1.00  0.00     0.013 A 
ATOM     21  C   UNL     1       2.884   1.905  -6.972  1.00  0.00     0.013 A 
ATOM     22  C   UNL     1       5.680   1.766  -6.975  1.00  0.00     0.047 A 
ATOM     23  C   UNL     1       3.530   0.696  -7.258  1.00  0.00     0.047 A 
ATOM     24  C   UNL     1       4.922   0.635  -7.236  1.00  0.00     0.115 A 
BRANCH  24  25
ATOM     25  O   UNL     1       5.588  -0.537  -7.439  1.00  0.00    -0.508 OA
ATOM     26  H   UNL     1       6.524  -0.553  -7.419  1.00  0.00     0.293 HD
ENDBRANCH  24  25
ENDBRANCH   7  19
ENDBRANCH   4   7
ENDBRANCH   2   3
ENDBRANCH   1   2
BRANCH   1  27
ATOM     27  C   UNL     1       1.883   9.322  -5.513  1.00  0.00     0.118 C 
BRANCH  27  28
ATOM     28  N   UNL     1       0.738   9.956  -6.147  1.00  0.00    -0.352 N 
ATOM     29  C   UNL     1       0.087  11.121  -5.835  1.00  0.00     0.251 C 
ATOM     30  H   UNL     1       0.374   9.473  -6.923  1.00  0.00     0.163 HD
ATOM     31  O   UNL     1      -1.025  11.322  -6.317  1.00  0.00    -0.269 OA
BRANCH  29  32
ATOM     32  C   UNL     1       0.703  12.125  -4.939  1.00  0.00     0.039 A 
ATOM     33  C   UNL     1      -0.128  12.879  -4.105  1.00  0.00     0.014 A 
ATOM     34  C   UNL     1       2.076  12.390  -4.971  1.00  0.00     0.014 A 
ATOM     35  C   UNL     1       0.416  13.881  -3.300  1.00  0.00     0.010 A 
ATOM     36  C   UNL     1       2.629  13.329  -4.103  1.00  0.00     0.010 A 
ATOM     37  C   UNL     1       1.802  14.109  -3.282  1.00  0.00    -0.014 A 
BRANCH  37  38
ATOM     38  C   UNL     1       2.386  15.203  -2.461  1.00  0.00     0.031 A 
ATOM     39  C   UNL     1       3.093  16.351  -3.138  1.00  0.00     0.074 A 
ATOM     40  C   UNL     1       2.299  15.153  -1.116  1.00  0.00     0.049 A 
ATOM     41  N   UNL     1       3.700  17.380  -2.603  1.00  0.00    -0.248 NA
ATOM     42  C   UNL     1       3.151  16.325  -4.609  1.00  0.00     0.031 C 
ATOM     43  C   UNL     1       1.667  14.075  -0.350  1.00  0.00     0.029 A 
ATOM     44  N   UNL     1       2.741  16.025  -0.153  1.00  0.00    -0.354 N 
ATOM     45  C   UNL     1       4.224  18.109  -3.666  1.00  0.00     0.074 A 
ATOM     46  C   UNL     1       3.915  17.375  -4.873  1.00  0.00     0.031 C 
ATOM     47  C   UNL     1       1.737  14.366   0.959  1.00  0.00     0.029 A 
ATOM     48  C   UNL     1       2.458  15.623   1.133  1.00  0.00     0.049 A 
ATOM     49  H   UNL     1       3.216  16.862  -0.362  1.00  0.00     0.167 HD
ATOM     50  C   UNL     1       4.883  19.294  -3.640  1.00  0.00     0.034 A 
ATOM     51  C   UNL     1       2.757  16.196   2.316  1.00  0.00     0.034 A 
ATOM     52  C   UNL     1       5.157  20.027  -2.429  1.00  0.00     0.049 A 
ATOM     53  C   UNL     1       3.494  17.516   2.313  1.00  0.00     0.074 A 
ATOM     54  C   UNL     1       5.768  21.262  -2.291  1.00  0.00     0.029 A 
ATOM     55  N   UNL     1       4.843  19.595  -1.147  1.00  0.00    -0.354 N 
ATOM     56  N   UNL     1       3.933  18.217   1.292  1.00  0.00    -0.248 NA
ATOM     57  C   UNL     1       3.752  18.132   3.619  1.00  0.00     0.031 C 
ATOM     58  C   UNL     1       5.892  21.539  -0.927  1.00  0.00     0.029 A 
ATOM     59  C   UNL     1       5.271  20.527  -0.214  1.00  0.00     0.049 A 
ATOM     60  H   UNL     1       4.383  18.752  -0.933  1.00  0.00     0.167 HD
ATOM     61  C   UNL     1       4.473  19.380   1.836  1.00  0.00     0.074 A 
ATOM     62  C   UNL     1       4.285  19.292   3.269  1.00  0.00     0.031 C 
ATOM     63  C   UNL     1       5.067  20.429   1.212  1.00  0.00     0.034 A 
BRANCH  50  64
ATOM     64  C   UNL     1       5.376  19.860  -4.950  1.00  0.00     0.023 A 
ATOM     65  C   UNL     1       4.494  20.258  -5.970  1.00  0.00     0.031 A 
ATOM     66  C   UNL     1       6.755  20.023  -5.174  1.00  0.00     0.131 A 
ATOM     67  C   UNL     1       5.002  20.750  -7.183  1.00  0.00     0.055 A 
ATOM     68  C   UNL     1       7.251  20.585  -6.351  1.00  0.00     0.041 A 
ATOM     69  F   UNL     1       7.647  19.638  -4.247  1.00  0.00    -0.206 F 
ATOM     70  C   UNL     1       6.372  20.944  -7.369  1.00  0.00     0.022 A 
BRANCH  67  71
ATOM     71  S   UNL     1       3.853  21.029  -8.558  1.00  0.00     0.124 S 
ATOM     72  O   UNL     1       3.313  19.687  -8.768  1.00  0.00    -0.237 OA
ATOM     73  O   UNL     1       2.928  22.010  -8.004  1.00  0.00    -0.237 OA
ATOM     74  O   UNL     1       4.715  21.521  -9.631  1.00  0.00    -0.744 OA
ENDBRANCH  67  71
ENDBRANCH  50  64
BRANCH  51  75
ATOM     75  C   UNL     1       2.381  15.542   3.606  1.00  0.00     0.023 A 
ATOM     76  C   UNL     1       1.542  16.185   4.530  1.00  0.00     0.031 A 
ATOM     77  C   UNL     1       2.933  14.302   3.977  1.00  0.00     0.131 A 
ATOM     78  C   UNL     1       1.347  15.632   5.805  1.00  0.00     0.055 A 
ATOM     79  C   UNL     1       2.675  13.719   5.219  1.00  0.00     0.041 A 
ATOM     80  F   UNL     1       3.740  13.637   3.134  1.00  0.00    -0.206 F 
ATOM     81  C   UNL     1       1.896  14.396   6.151  1.00  0.00     0.022 A 
BRANCH  78  82
ATOM     82  S   UNL     1       0.486  16.625   7.058  1.00  0.00     0.124 S 
ATOM     83  O   UNL     1       1.271  17.853   7.050  1.00  0.00    -0.237 OA
ATOM     84  O   UNL     1      -0.858  16.717   6.497  1.00  0.00    -0.237 OA
ATOM     85  O   UNL     1       0.601  15.815   8.269  1.00  0.00    -0.744 OA
ENDBRANCH  78  82
ENDBRANCH  51  75
BRANCH  63  86
ATOM     86  C   UNL     1       5.479  21.600   2.073  1.00  0.00     0.023 A 
ATOM     87  C   UNL     1       6.451  21.481   3.082  1.00  0.00     0.031 A 
ATOM     88  C   UNL     1       4.859  22.852   1.901  1.00  0.00     0.131 A 
ATOM     89  C   UNL     1       6.711  22.565   3.933  1.00  0.00     0.055 A 
ATOM     90  C   UNL     1       5.182  23.950   2.698  1.00  0.00     0.041 A 
ATOM     91  F   UNL     1       3.922  23.026   0.955  1.00  0.00    -0.206 F 
ATOM     92  C   UNL     1       6.098  23.804   3.735  1.00  0.00     0.022 A 
BRANCH  89  93
ATOM     93  S   UNL     1       7.756  22.292   5.390  1.00  0.00     0.124 S 
ATOM     94  O   UNL     1       7.078  21.178   6.045  1.00  0.00    -0.237 OA
ATOM     95  O   UNL     1       9.051  21.986   4.792  1.00  0.00    -0.237 OA
ATOM     96  O   UNL     1       7.688  23.566   6.104  1.00  0.00    -0.744 OA
ENDBRANCH  89  93
ENDBRANCH  63  86
ENDBRANCH  37  38
ENDBRANCH  29  32
ENDBRANCH  27  28
ENDBRANCH   1  27
TORSDOF 17
