REMARK SMILES O=C(COc1ccc(Br)cc1/C=C1\C(=O)Nc2ccc(Br)cc21)NCCCNC(=O)c1ccc(-c2c3nc(c(-c4cc(S(=O)(=O)[O-])ccc4F)c4ccc([nH]4)c(-c4cc(S(=O)(=O)[O-])ccc4F)c4nc(c(-c5cc(S(=O)(=O)[O-])ccc5F)c5ccc2[nH]5)C=C4)C=C3)cc1
REMARK SMILES IDX 26 1 25 2 24 3 1 4 2 5 3 7 4 8 5 9 6 10 11 11 7 12 10 13
REMARK SMILES IDX 8 14 9 15 12 16 13 17 14 18 23 19 15 20 16 21 17 22 22 23
REMARK SMILES IDX 18 25 20 26 19 27 21 28 27 29 28 30 29 31 30 33 31 34 32 35
REMARK SMILES IDX 93 36 33 37 92 38 34 39 35 40 36 41 86 42 37 43 91 44 85 45
REMARK SMILES IDX 87 46 38 47 90 48 84 49 83 50 39 52 71 53 51 54 70 55 52 56
REMARK SMILES IDX 55 57 69 58 88 59 53 60 54 61 68 63 89 64 56 65 40 66 41 67
REMARK SMILES IDX 49 68 42 69 48 70 50 71 47 72 43 73 44 74 45 75 46 76 72 77
REMARK SMILES IDX 73 78 81 79 74 80 80 81 82 82 79 83 75 84 76 85 77 86 78 87
REMARK SMILES IDX 57 88 58 89 66 90 59 91 65 92 67 93 64 94 60 95 61 96 62 97
REMARK SMILES IDX 63 98
REMARK H PARENT 24 6 16 24 28 32 87 51 55 62
REMARK Flexibility Score: inf
ROOT
ATOM      1  C   UNL     1       2.599   0.490  -3.022  1.00  0.00     0.042 C 
ENDROOT
BRANCH   1   2
ATOM      2  C   UNL     1       2.413  -0.547  -1.932  1.00  0.00     0.117 C 
BRANCH   2   3
ATOM      3  N   UNL     1       3.241  -0.354  -0.750  1.00  0.00    -0.353 N 
ATOM      4  O   UNL     1       1.606   0.616   0.538  1.00  0.00    -0.271 OA
ATOM      5  C   UNL     1       2.699   0.062   0.452  1.00  0.00     0.257 C 
ATOM      6  H   UNL     1       4.209  -0.523  -0.808  1.00  0.00     0.163 HD
BRANCH   5   7
ATOM      7  C   UNL     1       3.525  -0.311   1.707  1.00  0.00     0.329 C 
BRANCH   7   8
ATOM      8  O   UNL     1       4.204  -1.571   1.808  1.00  0.00    -0.483 OA
BRANCH   8   9
ATOM      9  C   UNL     1       3.414  -2.697   1.927  1.00  0.00     0.127 A 
ATOM     10  C   UNL     1       2.308  -2.878   1.068  1.00  0.00     0.048 A 
ATOM     11  C   UNL     1       3.772  -3.732   2.833  1.00  0.00     0.018 A 
ATOM     12  C   UNL     1       1.513  -4.016   1.098  1.00  0.00     0.019 A 
ATOM     13  C   UNL     1       2.968  -4.888   2.785  1.00  0.00     0.027 A 
ATOM     14  C   UNL     1       1.847  -5.022   1.967  1.00  0.00     0.018 A 
ATOM     15  Br  UNL     1       0.788  -6.584   2.057  1.00  0.00    -0.051 Br
BRANCH  11  16
ATOM     16  C   UNL     1       4.883  -3.604   3.851  1.00  0.00     0.026 C 
ATOM     17  C   UNL     1       5.111  -4.330   4.977  1.00  0.00     0.050 C 
ATOM     18  C   UNL     1       4.283  -5.477   5.509  1.00  0.00     0.256 C 
ATOM     19  C   UNL     1       5.807  -3.828   6.184  1.00  0.00     0.012 A 
ATOM     20  O   UNL     1       4.065  -6.562   5.018  1.00  0.00    -0.269 OA
ATOM     21  N   UNL     1       4.024  -5.131   6.821  1.00  0.00    -0.321 N 
ATOM     22  C   UNL     1       4.967  -4.205   7.251  1.00  0.00     0.049 A 
ATOM     23  C   UNL     1       7.053  -3.303   6.470  1.00  0.00     0.026 A 
ATOM     24  H   UNL     1       3.286  -5.486   7.367  1.00  0.00     0.170 HD
ATOM     25  C   UNL     1       5.209  -3.901   8.572  1.00  0.00     0.028 A 
ATOM     26  C   UNL     1       7.370  -3.090   7.825  1.00  0.00     0.018 A 
ATOM     27  C   UNL     1       6.440  -3.327   8.860  1.00  0.00     0.018 A 
ATOM     28  Br  UNL     1       9.130  -2.585   8.312  1.00  0.00    -0.051 Br
ENDBRANCH  11  16
ENDBRANCH   8   9
ENDBRANCH   7   8
ENDBRANCH   5   7
ENDBRANCH   2   3
ENDBRANCH   1   2
BRANCH   1  29
ATOM     29  C   UNL     1       4.021   0.602  -3.550  1.00  0.00     0.118 C 
BRANCH  29  30
ATOM     30  N   UNL     1       4.511  -0.602  -4.213  1.00  0.00    -0.352 N 
ATOM     31  C   UNL     1       5.105  -0.745  -5.449  1.00  0.00     0.251 C 
ATOM     32  H   UNL     1       4.401  -1.436  -3.702  1.00  0.00     0.163 HD
ATOM     33  O   UNL     1       5.390  -1.866  -5.860  1.00  0.00    -0.269 OA
BRANCH  31  34
ATOM     34  C   UNL     1       5.339   0.446  -6.295  1.00  0.00     0.039 A 
ATOM     35  C   UNL     1       5.872   1.615  -5.751  1.00  0.00     0.014 A 
ATOM     36  C   UNL     1       4.949   0.413  -7.637  1.00  0.00     0.014 A 
ATOM     37  C   UNL     1       5.805   2.801  -6.474  1.00  0.00     0.010 A 
ATOM     38  C   UNL     1       4.978   1.587  -8.395  1.00  0.00     0.010 A 
ATOM     39  C   UNL     1       5.339   2.805  -7.799  1.00  0.00    -0.014 A 
BRANCH  39  40
ATOM     40  C   UNL     1       5.214   4.092  -8.535  1.00  0.00     0.031 A 
ATOM     41  C   UNL     1       3.866   4.585  -8.995  1.00  0.00     0.074 A 
ATOM     42  C   UNL     1       6.314   4.839  -8.753  1.00  0.00     0.049 A 
ATOM     43  N   UNL     1       3.571   5.669  -9.666  1.00  0.00    -0.248 NA
ATOM     44  C   UNL     1       2.696   3.756  -8.662  1.00  0.00     0.031 C 
ATOM     45  C   UNL     1       7.666   4.474  -8.330  1.00  0.00     0.029 A 
ATOM     46  N   UNL     1       6.474   6.057  -9.365  1.00  0.00    -0.354 N 
ATOM     47  C   UNL     1       2.193   5.643  -9.853  1.00  0.00     0.074 A 
ATOM     48  C   UNL     1       1.711   4.419  -9.254  1.00  0.00     0.031 C 
ATOM     49  C   UNL     1       8.509   5.462  -8.656  1.00  0.00     0.029 A 
ATOM     50  C   UNL     1       7.778   6.494  -9.387  1.00  0.00     0.049 A 
ATOM     51  H   UNL     1       5.727   6.569  -9.752  1.00  0.00     0.167 HD
ATOM     52  C   UNL     1       1.405   6.565 -10.457  1.00  0.00     0.034 A 
ATOM     53  C   UNL     1       8.335   7.587  -9.950  1.00  0.00     0.034 A 
ATOM     54  C   UNL     1       1.901   7.793 -11.025  1.00  0.00     0.049 A 
ATOM     55  C   UNL     1       7.444   8.573 -10.659  1.00  0.00     0.074 A 
ATOM     56  C   UNL     1       1.176   8.804 -11.632  1.00  0.00     0.029 A 
ATOM     57  N   UNL     1       3.232   8.183 -11.055  1.00  0.00    -0.354 N 
ATOM     58  N   UNL     1       6.139   8.548 -10.798  1.00  0.00    -0.248 NA
ATOM     59  C   UNL     1       8.089   9.734 -11.286  1.00  0.00     0.031 C 
ATOM     60  C   UNL     1       2.072   9.767 -12.092  1.00  0.00     0.029 A 
ATOM     61  C   UNL     1       3.351   9.405 -11.697  1.00  0.00     0.049 A 
ATOM     62  H   UNL     1       3.981   7.668 -10.677  1.00  0.00     0.167 HD
ATOM     63  C   UNL     1       5.806   9.700 -11.503  1.00  0.00     0.074 A 
ATOM     64  C   UNL     1       7.044  10.410 -11.746  1.00  0.00     0.031 C 
ATOM     65  C   UNL     1       4.584  10.124 -11.914  1.00  0.00     0.034 A 
BRANCH  52  66
ATOM     66  C   UNL     1      -0.083   6.316 -10.541  1.00  0.00     0.023 A 
ATOM     67  C   UNL     1      -0.706   6.211 -11.800  1.00  0.00     0.031 A 
ATOM     68  C   UNL     1      -0.900   6.340  -9.397  1.00  0.00     0.131 A 
ATOM     69  C   UNL     1      -2.104   6.179 -11.886  1.00  0.00     0.055 A 
ATOM     70  C   UNL     1      -2.291   6.262  -9.486  1.00  0.00     0.041 A 
ATOM     71  F   UNL     1      -0.356   6.441  -8.173  1.00  0.00    -0.206 F 
ATOM     72  C   UNL     1      -2.899   6.197 -10.736  1.00  0.00     0.022 A 
BRANCH  69  73
ATOM     73  S   UNL     1      -2.946   6.194 -13.494  1.00  0.00     0.124 S 
ATOM     74  O   UNL     1      -3.716   4.953 -13.439  1.00  0.00    -0.237 OA
ATOM     75  O   UNL     1      -3.733   7.421 -13.415  1.00  0.00    -0.237 OA
ATOM     76  O   UNL     1      -1.855   6.205 -14.462  1.00  0.00    -0.744 OA
ENDBRANCH  69  73
ENDBRANCH  52  66
BRANCH  53  77
ATOM     77  C   UNL     1       9.808   7.794  -9.821  1.00  0.00     0.023 A 
ATOM     78  C   UNL     1      10.716   6.844 -10.326  1.00  0.00     0.031 A 
ATOM     79  C   UNL     1      10.324   8.870  -9.082  1.00  0.00     0.131 A 
ATOM     80  C   UNL     1      12.076   6.940 -10.009  1.00  0.00     0.055 A 
ATOM     81  C   UNL     1      11.692   9.007  -8.838  1.00  0.00     0.041 A 
ATOM     82  F   UNL     1       9.498   9.796  -8.569  1.00  0.00    -0.206 F 
ATOM     83  C   UNL     1      12.573   8.026  -9.283  1.00  0.00     0.022 A 
BRANCH  80  84
ATOM     84  S   UNL     1      13.216   5.580 -10.390  1.00  0.00     0.124 S 
ATOM     85  O   UNL     1      14.190   6.234 -11.259  1.00  0.00    -0.237 OA
ATOM     86  O   UNL     1      13.700   5.217  -9.060  1.00  0.00    -0.237 OA
ATOM     87  O   UNL     1      12.364   4.585 -11.032  1.00  0.00    -0.744 OA
ENDBRANCH  80  84
ENDBRANCH  53  77
BRANCH  65  88
ATOM     88  C   UNL     1       4.477  11.433 -12.659  1.00  0.00     0.023 A 
ATOM     89  C   UNL     1       3.718  12.487 -12.111  1.00  0.00     0.031 A 
ATOM     90  C   UNL     1       4.955  11.571 -13.972  1.00  0.00     0.131 A 
ATOM     91  C   UNL     1       3.409  13.604 -12.895  1.00  0.00     0.055 A 
ATOM     92  C   UNL     1       4.689  12.711 -14.731  1.00  0.00     0.041 A 
ATOM     93  F   UNL     1       5.673  10.590 -14.542  1.00  0.00    -0.206 F 
ATOM     94  C   UNL     1       3.897  13.726 -14.200  1.00  0.00     0.022 A 
BRANCH  91  95
ATOM     95  S   UNL     1       2.278  14.887 -12.289  1.00  0.00     0.124 S 
ATOM     96  O   UNL     1       3.111  16.085 -12.363  1.00  0.00    -0.237 OA
ATOM     97  O   UNL     1       1.191  14.822 -13.263  1.00  0.00    -0.237 OA
ATOM     98  O   UNL     1       1.939  14.450 -10.939  1.00  0.00    -0.744 OA
ENDBRANCH  91  95
ENDBRANCH  65  88
ENDBRANCH  39  40
ENDBRANCH  31  34
ENDBRANCH  29  30
ENDBRANCH   1  29
TORSDOF 16
