REMARK SMILES CCCc1cc(OCC(=O)NCCCNC(=O)c2ccc(-c3c4nc(c(-c5cc(S(=O)(=O)[O-])ccc5F)c5ccc([nH]5)c(-c5cc(S(=O)(=O)[O-])ccc5F)c5nc(c(-c6cc(S(=O)(=O)[O-])ccc6F)c6ccc3[nH]6)C=C5)C=C4)cc2)nc(Nc2ccc(C#N)cc2)n1
REMARK SMILES IDX 12 1 11 2 9 3 10 4 8 6 7 7 6 8 4 9 5 10 92 11 82 12 81 13
REMARK SMILES IDX 3 14 2 15 1 16 83 17 84 19 85 20 91 21 86 22 90 23 87 24
REMARK SMILES IDX 88 25 89 26 13 27 14 28 15 29 16 30 17 32 18 33 19 34 80 35
REMARK SMILES IDX 20 36 79 37 21 38 22 39 23 40 73 41 24 42 78 43 72 44 74 45
REMARK SMILES IDX 25 46 77 47 71 48 70 49 26 51 58 52 38 53 57 54 39 55 42 56
REMARK SMILES IDX 56 57 75 58 40 59 41 60 55 62 76 63 43 64 27 65 28 66 36 67
REMARK SMILES IDX 29 68 35 69 37 70 34 71 30 72 31 73 32 74 33 75 59 76 60 77
REMARK SMILES IDX 68 78 61 79 67 80 69 81 66 82 62 83 63 84 64 85 65 86 44 87
REMARK SMILES IDX 45 88 53 89 46 90 52 91 54 92 51 93 47 94 48 95 49 96 50 97
REMARK H PARENT 11 5 83 18 15 31 74 50 42 61
REMARK Flexibility Score: inf
ROOT
ATOM      1  C   UNL     1       1.843  -1.166  -5.646  1.00  0.00     0.117 C 
ENDROOT
BRANCH   1   2
ATOM      2  N   UNL     1       2.021  -1.466  -4.240  1.00  0.00    -0.353 N 
ATOM      3  C   UNL     1       1.068  -1.490  -3.268  1.00  0.00     0.258 C 
ATOM      4  O   UNL     1       1.380  -1.863  -2.136  1.00  0.00    -0.271 OA
ATOM      5  H   UNL     1       2.939  -1.677  -3.953  1.00  0.00     0.163 HD
BRANCH   3   6
ATOM      6  C   UNL     1      -0.369  -1.063  -3.605  1.00  0.00     0.331 C 
BRANCH   6   7
ATOM      7  O   UNL     1      -0.537   0.231  -4.166  1.00  0.00    -0.467 OA
BRANCH   7   8
ATOM      8  C   UNL     1      -0.311   1.313  -3.357  1.00  0.00     0.218 A 
ATOM      9  C   UNL     1       0.364   2.400  -1.390  1.00  0.00     0.050 A 
ATOM     10  C   UNL     1       0.152   1.229  -2.068  1.00  0.00     0.092 A 
ATOM     11  N   UNL     1       0.153   3.587  -1.985  1.00  0.00    -0.218 NA
ATOM     12  C   UNL     1      -0.313   3.600  -3.247  1.00  0.00     0.230 A 
ATOM     13  N   UNL     1      -0.568   2.488  -3.952  1.00  0.00    -0.177 NA
BRANCH   9  14
ATOM     14  C   UNL     1       0.913   2.425   0.016  1.00  0.00     0.056 C 
BRANCH  14  15
ATOM     15  C   UNL     1       0.384   1.371   1.005  1.00  0.00     0.003 C 
ATOM     16  C   UNL     1       0.996  -0.022   0.865  1.00  0.00     0.004 C 
ENDBRANCH  14  15
ENDBRANCH   9  14
BRANCH  12  17
ATOM     17  N   UNL     1      -0.625   4.814  -3.854  1.00  0.00    -0.324 N 
ATOM     18  H   UNL     1      -1.146   4.745  -4.686  1.00  0.00     0.170 HD
BRANCH  17  19
ATOM     19  C   UNL     1      -0.309   6.115  -3.455  1.00  0.00     0.041 A 
ATOM     20  C   UNL     1      -1.285   7.117  -3.517  1.00  0.00     0.027 A 
ATOM     21  C   UNL     1       0.941   6.439  -2.910  1.00  0.00     0.027 A 
ATOM     22  C   UNL     1      -1.025   8.404  -3.030  1.00  0.00     0.021 A 
ATOM     23  C   UNL     1       1.218   7.729  -2.449  1.00  0.00     0.021 A 
ATOM     24  C   UNL     1       0.228   8.712  -2.492  1.00  0.00     0.052 A 
BRANCH  24  25
ATOM     25  C   UNL     1       0.481  10.018  -1.952  1.00  0.00     0.099 C 
ATOM     26  N   UNL     1       0.658  11.062  -1.483  1.00  0.00    -0.192 NA
ENDBRANCH  24  25
ENDBRANCH  17  19
ENDBRANCH  12  17
ENDBRANCH   7   8
ENDBRANCH   6   7
ENDBRANCH   3   6
ENDBRANCH   1   2
BRANCH   1  27
ATOM     27  C   UNL     1       2.424   0.184  -6.037  1.00  0.00     0.042 C 
BRANCH  27  28
ATOM     28  C   UNL     1       3.930   0.295  -5.830  1.00  0.00     0.118 C 
BRANCH  28  29
ATOM     29  N   UNL     1       4.677  -0.707  -6.580  1.00  0.00    -0.352 N 
ATOM     30  C   UNL     1       5.586  -0.552  -7.598  1.00  0.00     0.251 C 
ATOM     31  H   UNL     1       4.503  -1.639  -6.316  1.00  0.00     0.163 HD
ATOM     32  O   UNL     1       5.939  -1.534  -8.246  1.00  0.00    -0.269 OA
BRANCH  30  33
ATOM     33  C   UNL     1       6.115   0.789  -7.920  1.00  0.00     0.039 A 
ATOM     34  C   UNL     1       6.248   1.168  -9.258  1.00  0.00     0.014 A 
ATOM     35  C   UNL     1       6.481   1.673  -6.903  1.00  0.00     0.014 A 
ATOM     36  C   UNL     1       6.678   2.460  -9.571  1.00  0.00     0.010 A 
ATOM     37  C   UNL     1       6.816   2.986  -7.214  1.00  0.00     0.010 A 
ATOM     38  C   UNL     1       6.925   3.394  -8.552  1.00  0.00    -0.014 A 
BRANCH  38  39
ATOM     39  C   UNL     1       7.316   4.796  -8.856  1.00  0.00     0.031 A 
ATOM     40  C   UNL     1       8.641   5.323  -8.376  1.00  0.00     0.074 A 
ATOM     41  C   UNL     1       6.457   5.609  -9.502  1.00  0.00     0.049 A 
ATOM     42  N   UNL     1       9.123   6.538  -8.445  1.00  0.00    -0.248 NA
ATOM     43  C   UNL     1       9.529   4.363  -7.704  1.00  0.00     0.031 C 
ATOM     44  C   UNL     1       5.134   5.221  -9.996  1.00  0.00     0.029 A 
ATOM     45  N   UNL     1       6.561   6.934  -9.847  1.00  0.00    -0.354 N 
ATOM     46  C   UNL     1      10.362   6.490  -7.814  1.00  0.00     0.074 A 
ATOM     47  C   UNL     1      10.523   5.143  -7.310  1.00  0.00     0.031 C 
ATOM     48  C   UNL     1       4.566   6.273 -10.605  1.00  0.00     0.029 A 
ATOM     49  C   UNL     1       5.449   7.429 -10.490  1.00  0.00     0.049 A 
ATOM     50  H   UNL     1       7.357   7.480  -9.652  1.00  0.00     0.167 HD
ATOM     51  C   UNL     1      11.288   7.471  -7.689  1.00  0.00     0.034 A 
ATOM     52  C   UNL     1       5.164   8.675 -10.918  1.00  0.00     0.034 A 
ATOM     53  C   UNL     1      11.110   8.809  -8.199  1.00  0.00     0.049 A 
ATOM     54  C   UNL     1       6.184   9.768 -10.708  1.00  0.00     0.074 A 
ATOM     55  C   UNL     1      12.000   9.868  -8.163  1.00  0.00     0.029 A 
ATOM     56  N   UNL     1       9.961   9.278  -8.824  1.00  0.00    -0.354 N 
ATOM     57  N   UNL     1       7.367   9.697 -10.143  1.00  0.00    -0.248 NA
ATOM     58  C   UNL     1       5.832  11.106 -11.200  1.00  0.00     0.031 C 
ATOM     59  C   UNL     1      11.357  10.997  -8.678  1.00  0.00     0.029 A 
ATOM     60  C   UNL     1      10.106  10.621  -9.139  1.00  0.00     0.049 A 
ATOM     61  H   UNL     1       9.162   8.736  -9.016  1.00  0.00     0.167 HD
ATOM     62  C   UNL     1       7.917  10.973 -10.252  1.00  0.00     0.074 A 
ATOM     63  C   UNL     1       6.939  11.787 -10.943  1.00  0.00     0.031 C 
ATOM     64  C   UNL     1       9.123  11.427  -9.826  1.00  0.00     0.034 A 
BRANCH  51  65
ATOM     65  C   UNL     1      12.559   7.140  -6.942  1.00  0.00     0.023 A 
ATOM     66  C   UNL     1      13.440   6.138  -7.386  1.00  0.00     0.031 A 
ATOM     67  C   UNL     1      12.886   7.820  -5.755  1.00  0.00     0.131 A 
ATOM     68  C   UNL     1      14.553   5.788  -6.609  1.00  0.00     0.055 A 
ATOM     69  C   UNL     1      14.048   7.534  -5.037  1.00  0.00     0.041 A 
ATOM     70  F   UNL     1      12.072   8.769  -5.264  1.00  0.00    -0.206 F 
ATOM     71  C   UNL     1      14.882   6.501  -5.453  1.00  0.00     0.022 A 
BRANCH  68  72
ATOM     72  S   UNL     1      15.469   4.284  -7.040  1.00  0.00     0.124 S 
ATOM     73  O   UNL     1      14.416   3.272  -6.982  1.00  0.00    -0.237 OA
ATOM     74  O   UNL     1      15.984   4.596  -8.368  1.00  0.00    -0.237 OA
ATOM     75  O   UNL     1      16.477   4.182  -5.986  1.00  0.00    -0.744 OA
ENDBRANCH  68  72
ENDBRANCH  51  65
BRANCH  52  76
ATOM     76  C   UNL     1       3.853   8.973 -11.567  1.00  0.00     0.023 A 
ATOM     77  C   UNL     1       3.788   9.441 -12.889  1.00  0.00     0.031 A 
ATOM     78  C   UNL     1       2.645   8.848 -10.855  1.00  0.00     0.131 A 
ATOM     79  C   UNL     1       2.553   9.819 -13.439  1.00  0.00     0.055 A 
ATOM     80  C   UNL     1       1.412   9.160 -11.430  1.00  0.00     0.041 A 
ATOM     81  F   UNL     1       2.646   8.409  -9.586  1.00  0.00    -0.206 F 
ATOM     82  C   UNL     1       1.363   9.664 -12.725  1.00  0.00     0.022 A 
BRANCH  79  83
ATOM     83  S   UNL     1       2.537  10.626 -15.064  1.00  0.00     0.124 S 
ATOM     84  O   UNL     1       3.398  11.779 -14.829  1.00  0.00    -0.237 OA
ATOM     85  O   UNL     1       3.081   9.582 -15.926  1.00  0.00    -0.237 OA
ATOM     86  O   UNL     1       1.124  10.933 -15.276  1.00  0.00    -0.744 OA
ENDBRANCH  79  83
ENDBRANCH  52  76
BRANCH  64  87
ATOM     87  C   UNL     1       9.485  12.857 -10.156  1.00  0.00     0.023 A 
ATOM     88  C   UNL     1       8.774  13.950  -9.630  1.00  0.00     0.031 A 
ATOM     89  C   UNL     1      10.567  13.127 -11.014  1.00  0.00     0.131 A 
ATOM     90  C   UNL     1       9.115  15.256 -10.016  1.00  0.00     0.055 A 
ATOM     91  C   UNL     1      10.950  14.430 -11.332  1.00  0.00     0.041 A 
ATOM     92  F   UNL     1      11.278  12.124 -11.555  1.00  0.00    -0.206 F 
ATOM     93  C   UNL     1      10.213  15.504 -10.843  1.00  0.00     0.022 A 
BRANCH  90  94
ATOM     94  S   UNL     1       8.034  16.623  -9.513  1.00  0.00     0.124 S 
ATOM     95  O   UNL     1       6.749  16.212 -10.069  1.00  0.00    -0.237 OA
ATOM     96  O   UNL     1       8.141  16.587  -8.058  1.00  0.00    -0.237 OA
ATOM     97  O   UNL     1       8.640  17.791 -10.150  1.00  0.00    -0.744 OA
ENDBRANCH  90  94
ENDBRANCH  64  87
ENDBRANCH  38  39
ENDBRANCH  30  33
ENDBRANCH  28  29
ENDBRANCH  27  28
ENDBRANCH   1  27
TORSDOF 20
