REMARK SMILES N#CCC[NH+]1CC[NH+]([C@@H](C(=O)NCCCNC(=O)c2ccc(-c3c4nc(c(-c5cc(S(=O)(=O)[O-])ccc5F)c5ccc([nH]5)c(-c5cc(S(=O)(=O)[O-])ccc5F)c5nc(c(-c6cc(S(=O)(=O)[O-])ccc6F)c6ccc3[nH]6)C=C5)C=C4)cc2)c2c[nH]c3cc(Cl)ccc23)CC1
REMARK SMILES IDX 13 1 12 2 10 3 11 4 9 6 8 7 5 8 6 9 93 10 7 12 92 13 4 15
REMARK SMILES IDX 3 16 2 17 1 18 82 19 83 20 91 21 84 22 85 23 90 24 86 26
REMARK SMILES IDX 89 27 87 28 88 29 14 30 15 31 16 32 17 33 18 35 19 36 20 37
REMARK SMILES IDX 81 38 21 39 80 40 22 41 23 42 24 43 74 44 25 45 79 46 73 47
REMARK SMILES IDX 75 48 26 49 78 50 72 51 71 52 27 54 59 55 39 56 58 57 40 58
REMARK SMILES IDX 43 59 57 60 76 61 41 62 42 63 56 65 77 66 44 67 28 68 29 69
REMARK SMILES IDX 37 70 30 71 36 72 38 73 35 74 31 75 32 76 33 77 34 78 60 79
REMARK SMILES IDX 61 80 69 81 62 82 68 83 70 84 67 85 63 86 64 87 65 88 66 89
REMARK SMILES IDX 45 90 46 91 54 92 47 93 53 94 55 95 52 96 48 97 49 98 50 99
REMARK SMILES IDX 51 100
REMARK H PARENT 12 5 5 11 8 14 84 25 16 34 75 53 43 64
REMARK Flexibility Score: inf
ROOT
ATOM      1  C   UNL     1       3.905   3.120  -4.966  1.00  0.00     0.118 C 
ENDROOT
BRANCH   1   2
ATOM      2  N   UNL     1       3.295   1.882  -5.527  1.00  0.00    -0.351 N 
ATOM      3  C   UNL     1       2.051   1.230  -5.423  1.00  0.00     0.283 C 
ATOM      4  O   UNL     1       1.708   0.576  -6.415  1.00  0.00    -0.268 OA
ATOM      5  H   UNL     1       3.918   1.398  -6.117  1.00  0.00     0.163 HD
BRANCH   3   6
ATOM      6  C   UNL     1       1.203   1.223  -4.112  1.00  0.00     0.308 C 
BRANCH   6   7
ATOM      7  N   UNL     1       1.946   0.518  -3.057  1.00  0.00    -0.312 N 
ATOM      8  N   UNL     1       4.509  -0.812  -2.366  1.00  0.00    -0.325 N 
ATOM      9  C   UNL     1       3.573  -1.509  -3.241  1.00  0.00     0.324 C 
ATOM     10  C   UNL     1       4.395   0.611  -2.640  1.00  0.00     0.324 C 
ATOM     11  H   UNL     1       5.457  -1.124  -2.578  1.00  0.00     0.348 HD
ATOM     12  C   UNL     1       2.155  -0.930  -3.235  1.00  0.00     0.325 C 
ATOM     13  C   UNL     1       3.027   1.290  -2.505  1.00  0.00     0.325 C 
ATOM     14  H   UNL     1       1.286   0.460  -2.281  1.00  0.00     0.349 HD
BRANCH   8  15
ATOM     15  C   UNL     1       4.385  -1.155  -0.956  1.00  0.00     0.278 C 
BRANCH  15  16
ATOM     16  C   UNL     1       3.804  -0.087  -0.043  1.00  0.00     0.181 C 
BRANCH  16  17
ATOM     17  C   UNL     1       2.284  -0.087  -0.043  1.00  0.00     0.068 C 
ATOM     18  N   UNL     1       1.023  -0.087  -0.043  1.00  0.00    -0.198 NA
ENDBRANCH  16  17
ENDBRANCH  15  16
ENDBRANCH   8  15
ENDBRANCH   6   7
BRANCH   6  19
ATOM     19  C   UNL     1      -0.295   0.677  -4.059  1.00  0.00     0.044 A 
ATOM     20  C   UNL     1      -1.203   1.264  -3.156  1.00  0.00     0.094 A 
ATOM     21  C   UNL     1      -0.744  -0.719  -3.973  1.00  0.00     0.009 A 
ATOM     22  N   UNL     1      -1.117   0.372  -2.088  1.00  0.00    -0.361 N 
ATOM     23  C   UNL     1      -1.077  -0.897  -2.619  1.00  0.00     0.047 A 
ATOM     24  C   UNL     1      -0.643  -1.888  -4.764  1.00  0.00     0.012 A 
ATOM     25  H   UNL     1      -1.089   0.607  -1.132  1.00  0.00     0.166 HD
ATOM     26  C   UNL     1      -1.180  -2.147  -1.990  1.00  0.00     0.047 A 
ATOM     27  C   UNL     1      -0.809  -3.155  -4.165  1.00  0.00     0.021 A 
ATOM     28  C   UNL     1      -1.023  -3.274  -2.793  1.00  0.00     0.043 A 
ATOM     29  Cl  UNL     1      -1.032  -4.835  -2.059  1.00  0.00    -0.084 Cl
ENDBRANCH   6  19
ENDBRANCH   3   6
ENDBRANCH   1   2
BRANCH   1  30
ATOM     30  C   UNL     1       5.289   3.103  -4.192  1.00  0.00     0.042 C 
BRANCH  30  31
ATOM     31  C   UNL     1       6.385   2.027  -4.467  1.00  0.00     0.118 C 
BRANCH  31  32
ATOM     32  N   UNL     1       7.622   2.571  -4.979  1.00  0.00    -0.352 N 
ATOM     33  C   UNL     1       8.948   2.307  -4.712  1.00  0.00     0.251 C 
ATOM     34  H   UNL     1       7.491   3.273  -5.657  1.00  0.00     0.163 HD
ATOM     35  O   UNL     1       9.755   3.082  -5.234  1.00  0.00    -0.269 OA
BRANCH  33  36
ATOM     36  C   UNL     1       9.494   1.194  -3.861  1.00  0.00     0.039 A 
ATOM     37  C   UNL     1      10.724   1.447  -3.225  1.00  0.00     0.014 A 
ATOM     38  C   UNL     1       8.994  -0.112  -3.796  1.00  0.00     0.014 A 
ATOM     39  C   UNL     1      11.446   0.433  -2.570  1.00  0.00     0.010 A 
ATOM     40  C   UNL     1       9.715  -1.132  -3.111  1.00  0.00     0.010 A 
ATOM     41  C   UNL     1      10.960  -0.880  -2.502  1.00  0.00    -0.014 A 
BRANCH  41  42
ATOM     42  C   UNL     1      11.777  -1.931  -1.794  1.00  0.00     0.031 A 
ATOM     43  C   UNL     1      12.473  -3.047  -2.548  1.00  0.00     0.074 A 
ATOM     44  C   UNL     1      11.971  -1.848  -0.459  1.00  0.00     0.049 A 
ATOM     45  N   UNL     1      13.284  -3.977  -2.098  1.00  0.00    -0.248 NA
ATOM     46  C   UNL     1      12.222  -3.129  -3.993  1.00  0.00     0.031 C 
ATOM     47  C   UNL     1      11.375  -0.831   0.410  1.00  0.00     0.029 A 
ATOM     48  N   UNL     1      12.729  -2.610   0.404  1.00  0.00    -0.354 N 
ATOM     49  C   UNL     1      13.652  -4.745  -3.200  1.00  0.00     0.074 A 
ATOM     50  C   UNL     1      12.931  -4.199  -4.334  1.00  0.00     0.031 C 
ATOM     51  C   UNL     1      11.807  -1.016   1.668  1.00  0.00     0.029 A 
ATOM     52  C   UNL     1      12.681  -2.186   1.715  1.00  0.00     0.049 A 
ATOM     53  H   UNL     1      13.257  -3.388   0.110  1.00  0.00     0.167 HD
ATOM     54  C   UNL     1      14.519  -5.792  -3.273  1.00  0.00     0.034 A 
ATOM     55  C   UNL     1      13.261  -2.674   2.834  1.00  0.00     0.034 A 
ATOM     56  C   UNL     1      15.236  -6.347  -2.145  1.00  0.00     0.049 A 
ATOM     57  C   UNL     1      14.178  -3.871   2.733  1.00  0.00     0.074 A 
ATOM     58  C   UNL     1      16.147  -7.393  -2.131  1.00  0.00     0.029 A 
ATOM     59  N   UNL     1      15.123  -5.915  -0.831  1.00  0.00    -0.354 N 
ATOM     60  N   UNL     1      14.537  -4.552   1.669  1.00  0.00    -0.248 NA
ATOM     61  C   UNL     1      14.782  -4.354   3.983  1.00  0.00     0.031 C 
ATOM     62  C   UNL     1      16.529  -7.636  -0.807  1.00  0.00     0.029 A 
ATOM     63  C   UNL     1      15.921  -6.691   0.001  1.00  0.00     0.049 A 
ATOM     64  H   UNL     1      14.559  -5.165  -0.531  1.00  0.00     0.167 HD
ATOM     65  C   UNL     1      15.429  -5.522   2.123  1.00  0.00     0.074 A 
ATOM     66  C   UNL     1      15.580  -5.316   3.547  1.00  0.00     0.031 C 
ATOM     67  C   UNL     1      16.063  -6.498   1.425  1.00  0.00     0.034 A 
BRANCH  54  68
ATOM     68  C   UNL     1      14.738  -6.434  -4.628  1.00  0.00     0.023 A 
ATOM     69  C   UNL     1      15.352  -5.737  -5.683  1.00  0.00     0.031 A 
ATOM     70  C   UNL     1      14.361  -7.770  -4.857  1.00  0.00     0.131 A 
ATOM     71  C   UNL     1      15.523  -6.359  -6.931  1.00  0.00     0.055 A 
ATOM     72  C   UNL     1      14.598  -8.406  -6.078  1.00  0.00     0.041 A 
ATOM     73  F   UNL     1      13.761  -8.486  -3.893  1.00  0.00    -0.206 F 
ATOM     74  C   UNL     1      15.174  -7.697  -7.128  1.00  0.00     0.022 A 
BRANCH  71  75
ATOM     75  S   UNL     1      16.113  -5.360  -8.325  1.00  0.00     0.124 S 
ATOM     76  O   UNL     1      15.076  -4.336  -8.414  1.00  0.00    -0.237 OA
ATOM     77  O   UNL     1      17.419  -4.912  -7.864  1.00  0.00    -0.237 OA
ATOM     78  O   UNL     1      16.136  -6.309  -9.440  1.00  0.00    -0.744 OA
ENDBRANCH  71  75
ENDBRANCH  54  68
BRANCH  55  79
ATOM     79  C   UNL     1      12.977  -2.064   4.171  1.00  0.00     0.023 A 
ATOM     80  C   UNL     1      14.003  -1.524   4.964  1.00  0.00     0.031 A 
ATOM     81  C   UNL     1      11.680  -2.100   4.715  1.00  0.00     0.131 A 
ATOM     82  C   UNL     1      13.729  -1.104   6.276  1.00  0.00     0.055 A 
ATOM     83  C   UNL     1      11.400  -1.618   5.995  1.00  0.00     0.041 A 
ATOM     84  F   UNL     1      10.659  -2.610   4.006  1.00  0.00    -0.206 F 
ATOM     85  C   UNL     1      12.432  -1.133   6.791  1.00  0.00     0.022 A 
BRANCH  82  86
ATOM     86  S   UNL     1      15.117  -0.639   7.351  1.00  0.00     0.124 S 
ATOM     87  O   UNL     1      15.959  -1.827   7.278  1.00  0.00    -0.237 OA
ATOM     88  O   UNL     1      15.628   0.553   6.683  1.00  0.00    -0.237 OA
ATOM     89  O   UNL     1      14.480  -0.402   8.644  1.00  0.00    -0.744 OA
ENDBRANCH  82  86
ENDBRANCH  55  79
BRANCH  67  90
ATOM     90  C   UNL     1      17.006  -7.395   2.197  1.00  0.00     0.023 A 
ATOM     91  C   UNL     1      16.547  -8.243   3.222  1.00  0.00     0.031 A 
ATOM     92  C   UNL     1      18.388  -7.368   1.938  1.00  0.00     0.131 A 
ATOM     93  C   UNL     1      17.466  -8.967   3.998  1.00  0.00     0.055 A 
ATOM     94  C   UNL     1      19.291  -8.145   2.668  1.00  0.00     0.041 A 
ATOM     95  F   UNL     1      18.889  -6.577   0.975  1.00  0.00    -0.206 F 
ATOM     96  C   UNL     1      18.833  -8.936   3.717  1.00  0.00     0.022 A 
BRANCH  93  97
ATOM     97  S   UNL     1      16.860  -9.855   5.461  1.00  0.00     0.124 S 
ATOM     98  O   UNL     1      16.215  -8.787   6.218  1.00  0.00    -0.237 OA
ATOM     99  O   UNL     1      15.966 -10.848   4.875  1.00  0.00    -0.237 OA
ATOM    100  O   UNL     1      18.077 -10.395   6.064  1.00  0.00    -0.744 OA
ENDBRANCH  93  97
ENDBRANCH  67  90
ENDBRANCH  41  42
ENDBRANCH  33  36
ENDBRANCH  31  32
ENDBRANCH  30  31
ENDBRANCH   1  30
TORSDOF 18
