REMARK SMILES CC(C)Cc1ccc([C@H](C)C(=O)NCCCNC(=O)c2ccc(-c3c4nc(c(-c5cc(S(=O)(=O)[O-])ccc5F)c5ccc([nH]5)c(-c5cc(S(=O)(=O)[O-])ccc5F)c5nc(c(-c6cc(S(=O)(=O)[O-])ccc6F)c6ccc3[nH]6)C=C5)C=C4)cc2)cc1
REMARK SMILES IDX 15 1 14 2 13 3 11 4 12 5 9 7 10 8 8 9 5 10 6 11 84 12 7 13
REMARK SMILES IDX 83 14 4 15 2 16 1 17 3 18 16 19 17 20 18 21 19 23 20 24
REMARK SMILES IDX 21 25 82 26 22 27 81 28 23 29 24 30 25 31 75 32 26 33 80 34
REMARK SMILES IDX 74 35 76 36 27 37 79 38 73 39 72 40 28 42 60 43 40 44 59 45
REMARK SMILES IDX 41 46 44 47 58 48 77 49 42 50 43 51 57 53 78 54 45 55 29 56
REMARK SMILES IDX 30 57 38 58 31 59 37 60 39 61 36 62 32 63 33 64 34 65 35 66
REMARK SMILES IDX 61 67 62 68 70 69 63 70 69 71 71 72 68 73 64 74 65 75 66 76
REMARK SMILES IDX 67 77 46 78 47 79 55 80 48 81 54 82 56 83 53 84 49 85 50 86
REMARK SMILES IDX 51 87 52 88
REMARK H PARENT 13 6 17 22 76 41 44 52
REMARK Flexibility Score: inf
ROOT
ATOM      1  C   UNL     1      -2.341   5.694  -0.009  1.00  0.00     0.042 C 
ENDROOT
BRANCH   1   2
ATOM      2  C   UNL     1      -2.027   5.965   1.456  1.00  0.00     0.117 C 
BRANCH   2   3
ATOM      3  N   UNL     1      -3.126   5.627   2.344  1.00  0.00    -0.356 N 
ATOM      4  C   UNL     1      -3.237   4.656   3.294  1.00  0.00     0.227 C 
ATOM      5  O   UNL     1      -4.256   4.666   3.994  1.00  0.00    -0.274 OA
ATOM      6  H   UNL     1      -3.925   6.194   2.242  1.00  0.00     0.163 HD
BRANCH   4   7
ATOM      7  C   UNL     1      -2.175   3.564   3.491  1.00  0.00     0.105 C 
ATOM      8  C   UNL     1      -2.191   2.602   2.303  1.00  0.00     0.023 C 
BRANCH   7   9
ATOM      9  C   UNL     1      -0.822   4.122   3.914  1.00  0.00    -0.036 A 
ATOM     10  C   UNL     1       1.560   5.468   4.615  1.00  0.00    -0.048 A 
ATOM     11  C   UNL     1       1.516   4.641   3.488  1.00  0.00     0.004 A 
ATOM     12  C   UNL     1       0.431   5.552   5.435  1.00  0.00     0.004 A 
ATOM     13  C   UNL     1       0.346   3.956   3.155  1.00  0.00     0.005 A 
ATOM     14  C   UNL     1      -0.748   4.892   5.086  1.00  0.00     0.005 A 
BRANCH  10  15
ATOM     15  C   UNL     1       2.778   6.313   4.895  1.00  0.00     0.038 C 
BRANCH  15  16
ATOM     16  C   UNL     1       2.777   7.645   4.113  1.00  0.00    -0.013 C 
ATOM     17  C   UNL     1       1.661   8.591   4.569  1.00  0.00     0.008 C 
ATOM     18  C   UNL     1       4.130   8.341   4.269  1.00  0.00     0.008 C 
ENDBRANCH  15  16
ENDBRANCH  10  15
ENDBRANCH   7   9
ENDBRANCH   4   7
ENDBRANCH   2   3
ENDBRANCH   1   2
BRANCH   1  19
ATOM     19  C   UNL     1      -3.395   6.623  -0.595  1.00  0.00     0.118 C 
BRANCH  19  20
ATOM     20  N   UNL     1      -2.939   8.004  -0.687  1.00  0.00    -0.352 N 
ATOM     21  C   UNL     1      -2.689   8.785  -1.791  1.00  0.00     0.251 C 
ATOM     22  H   UNL     1      -2.785   8.448   0.178  1.00  0.00     0.163 HD
ATOM     23  O   UNL     1      -2.119   9.865  -1.648  1.00  0.00    -0.269 OA
BRANCH  21  24
ATOM     24  C   UNL     1      -3.075   8.321  -3.142  1.00  0.00     0.039 A 
ATOM     25  C   UNL     1      -2.184   8.499  -4.205  1.00  0.00     0.014 A 
ATOM     26  C   UNL     1      -4.314   7.719  -3.365  1.00  0.00     0.014 A 
ATOM     27  C   UNL     1      -2.501   7.995  -5.471  1.00  0.00     0.010 A 
ATOM     28  C   UNL     1      -4.593   7.147  -4.602  1.00  0.00     0.010 A 
ATOM     29  C   UNL     1      -3.688   7.273  -5.668  1.00  0.00    -0.014 A 
BRANCH  29  30
ATOM     30  C   UNL     1      -4.027   6.642  -6.972  1.00  0.00     0.031 A 
ATOM     31  C   UNL     1      -5.270   7.073  -7.703  1.00  0.00     0.074 A 
ATOM     32  C   UNL     1      -3.289   5.615  -7.437  1.00  0.00     0.049 A 
ATOM     33  N   UNL     1      -5.860   6.524  -8.733  1.00  0.00    -0.248 NA
ATOM     34  C   UNL     1      -5.958   8.261  -7.176  1.00  0.00     0.031 C 
ATOM     35  C   UNL     1      -2.074   5.093  -6.808  1.00  0.00     0.029 A 
ATOM     36  N   UNL     1      -3.467   4.806  -8.532  1.00  0.00    -0.354 N 
ATOM     37  C   UNL     1      -7.006   7.279  -8.959  1.00  0.00     0.074 A 
ATOM     38  C   UNL     1      -7.048   8.294  -7.927  1.00  0.00     0.031 C 
ATOM     39  C   UNL     1      -1.615   4.057  -7.530  1.00  0.00     0.029 A 
ATOM     40  C   UNL     1      -2.531   3.803  -8.637  1.00  0.00     0.049 A 
ATOM     41  H   UNL     1      -4.197   4.933  -9.182  1.00  0.00     0.167 HD
ATOM     42  C   UNL     1      -7.928   7.146  -9.944  1.00  0.00     0.034 A 
ATOM     43  C   UNL     1      -2.439   2.775  -9.505  1.00  0.00     0.034 A 
ATOM     44  C   UNL     1      -7.855   6.143 -10.978  1.00  0.00     0.049 A 
ATOM     45  C   UNL     1      -3.489   2.629 -10.578  1.00  0.00     0.074 A 
ATOM     46  C   UNL     1      -8.702   5.952 -12.056  1.00  0.00     0.029 A 
ATOM     47  N   UNL     1      -6.878   5.159 -11.062  1.00  0.00    -0.354 N 
ATOM     48  N   UNL     1      -4.555   3.365 -10.793  1.00  0.00    -0.248 NA
ATOM     49  C   UNL     1      -3.325   1.518 -11.525  1.00  0.00     0.031 C 
ATOM     50  C   UNL     1      -8.274   4.818 -12.755  1.00  0.00     0.029 A 
ATOM     51  C   UNL     1      -7.117   4.344 -12.157  1.00  0.00     0.049 A 
ATOM     52  H   UNL     1      -6.126   5.055 -10.434  1.00  0.00     0.167 HD
ATOM     53  C   UNL     1      -5.165   2.828 -11.924  1.00  0.00     0.074 A 
ATOM     54  C   UNL     1      -4.351   1.706 -12.343  1.00  0.00     0.031 C 
ATOM     55  C   UNL     1      -6.290   3.233 -12.564  1.00  0.00     0.034 A 
BRANCH  42  56
ATOM     56  C   UNL     1      -9.105   8.091  -9.928  1.00  0.00     0.023 A 
ATOM     57  C   UNL     1      -8.941   9.479 -10.075  1.00  0.00     0.031 A 
ATOM     58  C   UNL     1     -10.409   7.601  -9.731  1.00  0.00     0.131 A 
ATOM     59  C   UNL     1     -10.045  10.334  -9.941  1.00  0.00     0.055 A 
ATOM     60  C   UNL     1     -11.516   8.450  -9.684  1.00  0.00     0.041 A 
ATOM     61  F   UNL     1     -10.627   6.287  -9.564  1.00  0.00    -0.206 F 
ATOM     62  C   UNL     1     -11.336   9.828  -9.773  1.00  0.00     0.022 A 
BRANCH  59  63
ATOM     63  S   UNL     1      -9.748  12.120  -9.842  1.00  0.00     0.124 S 
ATOM     64  O   UNL     1      -8.875  12.208  -8.673  1.00  0.00    -0.237 OA
ATOM     65  O   UNL     1      -9.124  12.409 -11.128  1.00  0.00    -0.237 OA
ATOM     66  O   UNL     1     -11.085  12.680  -9.655  1.00  0.00    -0.744 OA
ENDBRANCH  59  63
ENDBRANCH  42  56
BRANCH  43  67
ATOM     67  C   UNL     1      -1.329   1.786  -9.389  1.00  0.00     0.023 A 
ATOM     68  C   UNL     1      -0.356   1.673 -10.393  1.00  0.00     0.031 A 
ATOM     69  C   UNL     1      -1.244   0.917  -8.287  1.00  0.00     0.131 A 
ATOM     70  C   UNL     1       0.636   0.684 -10.298  1.00  0.00     0.055 A 
ATOM     71  C   UNL     1      -0.226  -0.032  -8.172  1.00  0.00     0.041 A 
ATOM     72  F   UNL     1      -2.146   0.987  -7.295  1.00  0.00    -0.206 F 
ATOM     73  C   UNL     1       0.715  -0.160  -9.188  1.00  0.00     0.022 A 
BRANCH  70  74
ATOM     74  S   UNL     1       1.778   0.465 -11.690  1.00  0.00     0.124 S 
ATOM     75  O   UNL     1       0.859   0.185 -12.787  1.00  0.00    -0.237 OA
ATOM     76  O   UNL     1       2.456   1.756 -11.731  1.00  0.00    -0.237 OA
ATOM     77  O   UNL     1       2.611  -0.661 -11.271  1.00  0.00    -0.744 OA
ENDBRANCH  70  74
ENDBRANCH  43  67
BRANCH  55  78
ATOM     78  C   UNL     1      -6.669   2.503 -13.827  1.00  0.00     0.023 A 
ATOM     79  C   UNL     1      -7.163   1.189 -13.808  1.00  0.00     0.031 A 
ATOM     80  C   UNL     1      -6.557   3.155 -15.069  1.00  0.00     0.131 A 
ATOM     81  C   UNL     1      -7.500   0.555 -15.014  1.00  0.00     0.055 A 
ATOM     82  C   UNL     1      -6.938   2.537 -16.259  1.00  0.00     0.041 A 
ATOM     83  F   UNL     1      -6.089   4.412 -15.140  1.00  0.00    -0.206 F 
ATOM     84  C   UNL     1      -7.406   1.226 -16.237  1.00  0.00     0.022 A 
BRANCH  81  85
ATOM     85  S   UNL     1      -8.023  -1.182 -14.974  1.00  0.00     0.124 S 
ATOM     86  O   UNL     1      -6.833  -1.845 -14.451  1.00  0.00    -0.237 OA
ATOM     87  O   UNL     1      -9.175  -1.142 -14.079  1.00  0.00    -0.237 OA
ATOM     88  O   UNL     1      -8.335  -1.479 -16.370  1.00  0.00    -0.744 OA
ENDBRANCH  81  85
ENDBRANCH  55  78
ENDBRANCH  29  30
ENDBRANCH  21  24
ENDBRANCH  19  20
ENDBRANCH   1  19
TORSDOF 16
