REMARK SMILES CC(C)N1C(=O)C[C@@H]([N@@H+]2CC[C@H](C(=O)NCCCNC(=O)c3ccc(-c4c5nc(c(-c6cc(S(=O)(=O)[O-])ccc6F)c6ccc([nH]6)c(-c6cc(S(=O)(=O)[O-])ccc6F)c6nc(c(-c7cc(S(=O)(=O)[O-])ccc7F)c7ccc4[nH]7)C=C6)C=C5)cc3)[C@@H]2C)C1=O
REMARK SMILES IDX 17 1 16 2 15 3 13 4 14 5 12 7 9 8 10 9 85 10 11 12 86 13
REMARK SMILES IDX 8 14 4 15 5 16 87 17 6 18 7 19 88 20 2 21 1 22 3 23 18 24
REMARK SMILES IDX 19 25 20 26 21 28 22 29 23 30 84 31 24 32 83 33 25 34 26 35
REMARK SMILES IDX 27 36 77 37 28 38 82 39 76 40 78 41 29 42 81 43 75 44 74 45
REMARK SMILES IDX 30 47 62 48 42 49 61 50 43 51 46 52 60 53 79 54 44 55 45 56
REMARK SMILES IDX 59 58 80 59 47 60 31 61 32 62 40 63 33 64 39 65 41 66 38 67
REMARK SMILES IDX 34 68 35 69 36 70 37 71 63 72 64 73 72 74 65 75 71 76 73 77
REMARK SMILES IDX 70 78 66 79 67 80 68 81 69 82 48 83 49 84 57 85 50 86 56 87
REMARK SMILES IDX 58 88 55 89 51 90 52 91 53 92 54 93
REMARK H PARENT 15 6 9 11 19 27 78 46 46 57
REMARK Flexibility Score: inf
ROOT
ATOM      1  C   UNL     1      -4.923   2.688   1.638  1.00  0.00     0.042 C 
ENDROOT
BRANCH   1   2
ATOM      2  C   UNL     1      -5.831   1.616   1.035  1.00  0.00     0.117 C 
BRANCH   2   3
ATOM      3  N   UNL     1      -5.896   1.721  -0.404  1.00  0.00    -0.356 N 
ATOM      4  C   UNL     1      -5.693   0.893  -1.441  1.00  0.00     0.229 C 
ATOM      5  O   UNL     1      -5.871   1.446  -2.541  1.00  0.00    -0.275 OA
ATOM      6  H   UNL     1      -6.155   2.625  -0.697  1.00  0.00     0.163 HD
BRANCH   4   7
ATOM      7  C   UNL     1      -5.343  -0.602  -1.460  1.00  0.00     0.142 C 
ATOM      8  N   UNL     1      -3.548  -1.691  -0.220  1.00  0.00    -0.321 N 
ATOM      9  C   UNL     1      -2.955  -1.072  -1.412  1.00  0.00     0.264 C 
ATOM     10  C   UNL     1      -5.013  -1.606  -0.350  1.00  0.00     0.194 C 
ATOM     11  H   UNL     1      -3.328  -2.686  -0.179  1.00  0.00     0.349 HD
ATOM     12  C   UNL     1      -4.109  -0.793  -2.367  1.00  0.00     0.081 C 
ATOM     13  C   UNL     1      -5.936  -1.761   0.852  1.00  0.00     0.076 C 
BRANCH   8  14
ATOM     14  C   UNL     1      -2.908  -1.353   1.062  1.00  0.00     0.284 C 
ATOM     15  N   UNL     1      -0.705  -0.529   1.335  1.00  0.00    -0.275 N 
ATOM     16  C   UNL     1      -1.514   0.563   1.403  1.00  0.00     0.236 C 
ATOM     17  C   UNL     1      -1.412  -1.681   1.085  1.00  0.00     0.288 C 
ATOM     18  O   UNL     1      -1.197   1.740   1.414  1.00  0.00    -0.274 OA
ATOM     19  C   UNL     1      -2.931   0.119   1.410  1.00  0.00     0.176 C 
ATOM     20  O   UNL     1      -0.932  -2.789   0.881  1.00  0.00    -0.267 OA
BRANCH  15  21
ATOM     21  C   UNL     1       0.755  -0.456   1.307  1.00  0.00     0.087 C 
ATOM     22  C   UNL     1       1.240  -0.041  -0.083  1.00  0.00     0.031 C 
ATOM     23  C   UNL     1       1.322   0.476   2.382  1.00  0.00     0.031 C 
ENDBRANCH  15  21
ENDBRANCH   8  14
ENDBRANCH   4   7
ENDBRANCH   2   3
ENDBRANCH   1   2
BRANCH   1  24
ATOM     24  C   UNL     1      -5.652   3.991   1.912  1.00  0.00     0.118 C 
BRANCH  24  25
ATOM     25  N   UNL     1      -6.565   3.857   3.043  1.00  0.00    -0.352 N 
ATOM     26  C   UNL     1      -6.366   4.084   4.387  1.00  0.00     0.251 C 
ATOM     27  H   UNL     1      -7.471   3.554   2.807  1.00  0.00     0.163 HD
ATOM     28  O   UNL     1      -7.142   3.578   5.193  1.00  0.00    -0.269 OA
BRANCH  26  29
ATOM     29  C   UNL     1      -5.228   4.907   4.860  1.00  0.00     0.039 A 
ATOM     30  C   UNL     1      -4.626   4.623   6.091  1.00  0.00     0.014 A 
ATOM     31  C   UNL     1      -4.777   5.993   4.114  1.00  0.00     0.014 A 
ATOM     32  C   UNL     1      -3.533   5.384   6.525  1.00  0.00     0.010 A 
ATOM     33  C   UNL     1      -3.611   6.652   4.474  1.00  0.00     0.010 A 
ATOM     34  C   UNL     1      -2.987   6.378   5.698  1.00  0.00    -0.014 A 
BRANCH  34  35
ATOM     35  C   UNL     1      -1.805   7.194   6.088  1.00  0.00     0.031 A 
ATOM     36  C   UNL     1      -1.923   8.698   6.114  1.00  0.00     0.074 A 
ATOM     37  C   UNL     1      -0.615   6.601   6.310  1.00  0.00     0.049 A 
ATOM     38  N   UNL     1      -0.987   9.604   6.230  1.00  0.00    -0.248 NA
ATOM     39  C   UNL     1      -3.273   9.257   5.929  1.00  0.00     0.031 C 
ATOM     40  C   UNL     1      -0.367   5.158   6.275  1.00  0.00     0.029 A 
ATOM     41  N   UNL     1       0.616   7.139   6.592  1.00  0.00    -0.354 N 
ATOM     42  C   UNL     1      -1.630  10.832   6.092  1.00  0.00     0.074 A 
ATOM     43  C   UNL     1      -3.019  10.549   5.807  1.00  0.00     0.031 C 
ATOM     44  C   UNL     1       0.925   4.926   6.554  1.00  0.00     0.029 A 
ATOM     45  C   UNL     1       1.615   6.200   6.722  1.00  0.00     0.049 A 
ATOM     46  H   UNL     1       0.771   8.106   6.691  1.00  0.00     0.167 HD
ATOM     47  C   UNL     1      -1.115  12.079   6.221  1.00  0.00     0.034 A 
ATOM     48  C   UNL     1       2.938   6.351   6.928  1.00  0.00     0.034 A 
ATOM     49  C   UNL     1       0.266  12.335   6.544  1.00  0.00     0.049 A 
ATOM     50  C   UNL     1       3.495   7.749   7.051  1.00  0.00     0.074 A 
ATOM     51  C   UNL     1       0.888  13.550   6.767  1.00  0.00     0.029 A 
ATOM     52  N   UNL     1       1.241  11.356   6.688  1.00  0.00    -0.354 N 
ATOM     53  N   UNL     1       2.867   8.899   6.960  1.00  0.00    -0.248 NA
ATOM     54  C   UNL     1       4.935   7.870   7.312  1.00  0.00     0.031 C 
ATOM     55  C   UNL     1       2.250  13.312   6.970  1.00  0.00     0.029 A 
ATOM     56  C   UNL     1       2.465  11.942   6.965  1.00  0.00     0.049 A 
ATOM     57  H   UNL     1       1.085  10.387   6.605  1.00  0.00     0.167 HD
ATOM     58  C   UNL     1       3.830   9.878   7.189  1.00  0.00     0.074 A 
ATOM     59  C   UNL     1       5.077   9.182   7.432  1.00  0.00     0.031 C 
ATOM     60  C   UNL     1       3.697  11.228   7.205  1.00  0.00     0.034 A 
BRANCH  47  61
ATOM     61  C   UNL     1      -2.046  13.249   5.997  1.00  0.00     0.023 A 
ATOM     62  C   UNL     1      -3.189  13.450   6.792  1.00  0.00     0.031 A 
ATOM     63  C   UNL     1      -1.807  14.162   4.955  1.00  0.00     0.131 A 
ATOM     64  C   UNL     1      -4.091  14.478   6.479  1.00  0.00     0.055 A 
ATOM     65  C   UNL     1      -2.660  15.241   4.707  1.00  0.00     0.041 A 
ATOM     66  F   UNL     1      -0.746  14.014   4.146  1.00  0.00    -0.206 F 
ATOM     67  C   UNL     1      -3.820  15.393   5.460  1.00  0.00     0.022 A 
BRANCH  64  68
ATOM     68  S   UNL     1      -5.700  14.499   7.317  1.00  0.00     0.124 S 
ATOM     69  O   UNL     1      -6.239  13.191   6.952  1.00  0.00    -0.237 OA
ATOM     70  O   UNL     1      -5.325  14.668   8.716  1.00  0.00    -0.237 OA
ATOM     71  O   UNL     1      -6.387  15.639   6.712  1.00  0.00    -0.744 OA
ENDBRANCH  64  68
ENDBRANCH  47  61
BRANCH  48  72
ATOM     72  C   UNL     1       3.832   5.160   7.023  1.00  0.00     0.023 A 
ATOM     73  C   UNL     1       4.529   4.875   8.208  1.00  0.00     0.031 A 
ATOM     74  C   UNL     1       4.034   4.308   5.922  1.00  0.00     0.131 A 
ATOM     75  C   UNL     1       5.431   3.800   8.251  1.00  0.00     0.055 A 
ATOM     76  C   UNL     1       4.886   3.203   5.989  1.00  0.00     0.041 A 
ATOM     77  F   UNL     1       3.392   4.530   4.764  1.00  0.00    -0.206 F 
ATOM     78  C   UNL     1       5.602   2.952   7.154  1.00  0.00     0.022 A 
BRANCH  75  79
ATOM     79  S   UNL     1       6.453   3.584   9.733  1.00  0.00     0.124 S 
ATOM     80  O   UNL     1       7.135   4.871   9.813  1.00  0.00    -0.237 OA
ATOM     81  O   UNL     1       5.449   3.325  10.759  1.00  0.00    -0.237 OA
ATOM     82  O   UNL     1       7.305   2.446   9.396  1.00  0.00    -0.744 OA
ENDBRANCH  75  79
ENDBRANCH  48  72
BRANCH  60  83
ATOM     83  C   UNL     1       4.919  12.040   7.556  1.00  0.00     0.023 A 
ATOM     84  C   UNL     1       6.038  12.104   6.710  1.00  0.00     0.031 A 
ATOM     85  C   UNL     1       4.948  12.781   8.752  1.00  0.00     0.131 A 
ATOM     86  C   UNL     1       7.158  12.857   7.092  1.00  0.00     0.055 A 
ATOM     87  C   UNL     1       6.038  13.580   9.095  1.00  0.00     0.041 A 
ATOM     88  F   UNL     1       3.906  12.753   9.599  1.00  0.00    -0.206 F 
ATOM     89  C   UNL     1       7.157  13.613   8.268  1.00  0.00     0.022 A 
BRANCH  86  90
ATOM     90  S   UNL     1       8.653  12.776   6.069  1.00  0.00     0.124 S 
ATOM     91  O   UNL     1       8.971  11.352   6.111  1.00  0.00    -0.237 OA
ATOM     92  O   UNL     1       8.183  13.287   4.786  1.00  0.00    -0.237 OA
ATOM     93  O   UNL     1       9.598  13.642   6.772  1.00  0.00    -0.744 OA
ENDBRANCH  86  90
ENDBRANCH  60  83
ENDBRANCH  34  35
ENDBRANCH  26  29
ENDBRANCH  24  25
ENDBRANCH   1  24
TORSDOF 15
