REMARK SMILES O=C(NCCCNC(=O)c1ccc2nc(C3CCCCC3)[nH]c2c1)c1ccc(-c2c3nc(c(-c4cc(S(=O)(=O)[O-])ccc4F)c4ccc([nH]4)c(-c4cc(S(=O)(=O)[O-])ccc4F)c4nc(c(-c5cc(S(=O)(=O)[O-])ccc5F)c5ccc2[nH]5)C=C4)C=C3)cc1
REMARK SMILES IDX 4 1 3 2 1 3 2 4 25 6 26 7 87 8 27 9 86 10 28 11 29 12 30 13
REMARK SMILES IDX 80 14 31 15 85 16 79 17 81 18 32 19 84 20 78 21 77 22 33 24
REMARK SMILES IDX 65 25 45 26 64 27 46 28 49 29 63 30 82 31 47 32 48 33 62 35
REMARK SMILES IDX 83 36 50 37 34 38 35 39 43 40 36 41 42 42 44 43 41 44 37 45
REMARK SMILES IDX 38 46 39 47 40 48 66 49 67 50 75 51 68 52 74 53 76 54 73 55
REMARK SMILES IDX 69 56 70 57 71 58 72 59 51 60 52 61 60 62 53 63 59 64 61 65
REMARK SMILES IDX 58 66 54 67 55 68 56 69 57 70 5 71 6 72 7 73 8 74 9 76 10 77
REMARK SMILES IDX 11 78 24 79 12 80 23 81 13 82 22 83 14 84 15 85 16 87 17 88
REMARK SMILES IDX 21 89 18 90 20 91 19 92
REMARK H PARENT 3 5 81 23 49 34 7 75 22 86
REMARK Flexibility Score: inf
ROOT
ATOM      1  C   UNL     1       4.512  -1.061  -0.761  1.00  0.00     0.118 C 
ENDROOT
BRANCH   1   2
ATOM      2  N   UNL     1       3.091  -0.730  -0.775  1.00  0.00    -0.352 N 
ATOM      3  O   UNL     1       1.149   0.189  -0.115  1.00  0.00    -0.269 OA
ATOM      4  C   UNL     1       2.377   0.202  -0.060  1.00  0.00     0.251 C 
ATOM      5  H   UNL     1       2.553  -1.264  -1.403  1.00  0.00     0.163 HD
BRANCH   4   6
ATOM      6  C   UNL     1       3.068   1.200   0.788  1.00  0.00     0.039 A 
ATOM      7  C   UNL     1       4.234   1.828   0.353  1.00  0.00     0.014 A 
ATOM      8  C   UNL     1       2.529   1.529   2.036  1.00  0.00     0.014 A 
ATOM      9  C   UNL     1       4.960   2.625   1.231  1.00  0.00     0.010 A 
ATOM     10  C   UNL     1       3.206   2.419   2.878  1.00  0.00     0.010 A 
ATOM     11  C   UNL     1       4.456   2.935   2.504  1.00  0.00    -0.014 A 
BRANCH  11  12
ATOM     12  C   UNL     1       5.258   3.805   3.407  1.00  0.00     0.031 A 
ATOM     13  C   UNL     1       5.779   3.286   4.722  1.00  0.00     0.074 A 
ATOM     14  C   UNL     1       5.566   5.055   3.006  1.00  0.00     0.049 A 
ATOM     15  N   UNL     1       6.538   3.887   5.605  1.00  0.00    -0.248 NA
ATOM     16  C   UNL     1       5.387   1.921   5.103  1.00  0.00     0.031 C 
ATOM     17  C   UNL     1       5.111   5.673   1.758  1.00  0.00     0.029 A 
ATOM     18  N   UNL     1       6.357   6.017   3.581  1.00  0.00    -0.354 N 
ATOM     19  C   UNL     1       6.692   2.987   6.656  1.00  0.00     0.074 A 
ATOM     20  C   UNL     1       5.918   1.812   6.312  1.00  0.00     0.031 C 
ATOM     21  C   UNL     1       5.682   6.879   1.630  1.00  0.00     0.029 A 
ATOM     22  C   UNL     1       6.488   7.152   2.814  1.00  0.00     0.049 A 
ATOM     23  H   UNL     1       6.789   5.906   4.459  1.00  0.00     0.167 HD
ATOM     24  C   UNL     1       7.419   3.124   7.794  1.00  0.00     0.034 A 
ATOM     25  C   UNL     1       7.174   8.289   3.038  1.00  0.00     0.034 A 
ATOM     26  C   UNL     1       8.202   4.295   8.114  1.00  0.00     0.049 A 
ATOM     27  C   UNL     1       7.968   8.417   4.310  1.00  0.00     0.074 A 
ATOM     28  C   UNL     1       9.000   4.524   9.222  1.00  0.00     0.029 A 
ATOM     29  N   UNL     1       8.283   5.438   7.327  1.00  0.00    -0.354 N 
ATOM     30  N   UNL     1       8.115   7.548   5.283  1.00  0.00    -0.248 NA
ATOM     31  C   UNL     1       8.693   9.677   4.508  1.00  0.00     0.031 C 
ATOM     32  C   UNL     1       9.514   5.824   9.135  1.00  0.00     0.029 A 
ATOM     33  C   UNL     1       9.097   6.382   7.938  1.00  0.00     0.049 A 
ATOM     34  H   UNL     1       7.829   5.561   6.462  1.00  0.00     0.167 HD
ATOM     35  C   UNL     1       8.970   8.151   6.200  1.00  0.00     0.074 A 
ATOM     36  C   UNL     1       9.320   9.446   5.651  1.00  0.00     0.031 C 
ATOM     37  C   UNL     1       9.428   7.676   7.387  1.00  0.00     0.034 A 
BRANCH  24  38
ATOM     38  C   UNL     1       7.358   1.995   8.798  1.00  0.00     0.023 A 
ATOM     39  C   UNL     1       7.850   0.711   8.505  1.00  0.00     0.031 A 
ATOM     40  C   UNL     1       6.772   2.201  10.060  1.00  0.00     0.131 A 
ATOM     41  C   UNL     1       7.680  -0.333   9.430  1.00  0.00     0.055 A 
ATOM     42  C   UNL     1       6.677   1.179  11.006  1.00  0.00     0.041 A 
ATOM     43  F   UNL     1       6.268   3.401  10.391  1.00  0.00    -0.206 F 
ATOM     44  C   UNL     1       7.119  -0.102  10.687  1.00  0.00     0.022 A 
BRANCH  41  45
ATOM     45  S   UNL     1       8.072  -2.026   8.908  1.00  0.00     0.124 S 
ATOM     46  O   UNL     1       7.212  -2.181   7.737  1.00  0.00    -0.237 OA
ATOM     47  O   UNL     1       9.504  -1.951   8.642  1.00  0.00    -0.237 OA
ATOM     48  O   UNL     1       7.692  -2.838  10.062  1.00  0.00    -0.744 OA
ENDBRANCH  41  45
ENDBRANCH  24  38
BRANCH  25  49
ATOM     49  C   UNL     1       7.131   9.399   2.046  1.00  0.00     0.023 A 
ATOM     50  C   UNL     1       8.286   9.802   1.359  1.00  0.00     0.031 A 
ATOM     51  C   UNL     1       5.934  10.091   1.790  1.00  0.00     0.131 A 
ATOM     52  C   UNL     1       8.229  10.891   0.476  1.00  0.00     0.055 A 
ATOM     53  C   UNL     1       5.871  11.140   0.872  1.00  0.00     0.041 A 
ATOM     54  F   UNL     1       4.800   9.741   2.416  1.00  0.00    -0.206 F 
ATOM     55  C   UNL     1       7.027  11.554   0.218  1.00  0.00     0.022 A 
BRANCH  52  56
ATOM     56  S   UNL     1       9.770  11.479  -0.279  1.00  0.00     0.124 S 
ATOM     57  O   UNL     1      10.576  11.793   0.895  1.00  0.00    -0.237 OA
ATOM     58  O   UNL     1      10.190  10.316  -1.053  1.00  0.00    -0.237 OA
ATOM     59  O   UNL     1       9.343  12.631  -1.070  1.00  0.00    -0.744 OA
ENDBRANCH  52  56
ENDBRANCH  25  49
BRANCH  37  60
ATOM     60  C   UNL     1      10.395   8.554   8.140  1.00  0.00     0.023 A 
ATOM     61  C   UNL     1      10.002   9.788   8.689  1.00  0.00     0.031 A 
ATOM     62  C   UNL     1      11.740   8.168   8.275  1.00  0.00     0.131 A 
ATOM     63  C   UNL     1      10.957  10.621   9.289  1.00  0.00     0.055 A 
ATOM     64  C   UNL     1      12.674   8.974   8.927  1.00  0.00     0.041 A 
ATOM     65  F   UNL     1      12.170   7.001   7.768  1.00  0.00    -0.206 F 
ATOM     66  C   UNL     1      12.288  10.216   9.423  1.00  0.00     0.022 A 
BRANCH  63  67
ATOM     67  S   UNL     1      10.462  12.291   9.794  1.00  0.00     0.124 S 
ATOM     68  O   UNL     1       9.944  12.846   8.547  1.00  0.00    -0.237 OA
ATOM     69  O   UNL     1       9.472  12.021  10.832  1.00  0.00    -0.237 OA
ATOM     70  O   UNL     1      11.708  12.891  10.268  1.00  0.00    -0.744 OA
ENDBRANCH  63  67
ENDBRANCH  37  60
ENDBRANCH  11  12
ENDBRANCH   4   6
ENDBRANCH   1   2
BRANCH   1  71
ATOM     71  C   UNL     1       4.800  -2.431  -0.162  1.00  0.00     0.042 C 
BRANCH  71  72
ATOM     72  C   UNL     1       4.191  -3.589  -0.940  1.00  0.00     0.118 C 
BRANCH  72  73
ATOM     73  N   UNL     1       4.729  -3.695  -2.291  1.00  0.00    -0.352 N 
ATOM     74  C   UNL     1       5.611  -4.610  -2.805  1.00  0.00     0.251 C 
ATOM     75  H   UNL     1       4.413  -3.011  -2.925  1.00  0.00     0.163 HD
ATOM     76  O   UNL     1       6.100  -4.447  -3.920  1.00  0.00    -0.269 OA
BRANCH  74  77
ATOM     77  C   UNL     1       5.983  -5.795  -2.009  1.00  0.00     0.042 A 
ATOM     78  C   UNL     1       4.989  -6.657  -1.527  1.00  0.00     0.016 A 
ATOM     79  C   UNL     1       7.345  -6.032  -1.776  1.00  0.00     0.042 A 
ATOM     80  C   UNL     1       5.327  -7.752  -0.724  1.00  0.00     0.031 A 
ATOM     81  C   UNL     1       7.646  -7.135  -0.974  1.00  0.00     0.066 A 
ATOM     82  C   UNL     1       6.681  -7.983  -0.443  1.00  0.00     0.089 A 
ATOM     83  N   UNL     1       8.831  -7.646  -0.516  1.00  0.00    -0.342 N 
ATOM     84  N   UNL     1       7.258  -8.969   0.313  1.00  0.00    -0.233 NA
ATOM     85  C   UNL     1       8.555  -8.738   0.273  1.00  0.00     0.110 A 
ATOM     86  H   UNL     1       9.727  -7.292  -0.716  1.00  0.00     0.168 HD
BRANCH  85  87
ATOM     87  C   UNL     1       9.612  -9.559   0.947  1.00  0.00     0.055 C 
ATOM     88  C   UNL     1      10.329 -10.455  -0.072  1.00  0.00     0.011 C 
ATOM     89  C   UNL     1      10.609  -8.694   1.733  1.00  0.00     0.011 C 
ATOM     90  C   UNL     1      11.416 -11.297   0.588  1.00  0.00     0.001 C 
ATOM     91  C   UNL     1      11.697  -9.547   2.384  1.00  0.00     0.001 C 
ATOM     92  C   UNL     1      12.405 -10.430   1.361  1.00  0.00     0.000 C 
ENDBRANCH  85  87
ENDBRANCH  74  77
ENDBRANCH  72  73
ENDBRANCH  71  72
ENDBRANCH   1  71
TORSDOF 14
