REMARK SMILES COc1ccc(-c2c(C(=O)NCCCNC(=O)c3ccc(-c4c5nc(c(-c6cc(S(=O)(=O)[O-])ccc6F)c6ccc([nH]6)c(-c6cc(S(=O)(=O)[O-])ccc6F)c6nc(c(-c7cc(S(=O)(=O)[O-])ccc7F)c7ccc4[nH]7)C=C6)C=C5)cc3)sc3c2N=C(O)C[C@H]3c2ccc(OC)c(OC)c2)cc1
REMARK SMILES IDX 13 1 12 2 11 3 9 4 10 5 8 7 7 8 83 9 81 10 82 11 84 12 88 13
REMARK SMILES IDX 85 14 87 15 6 16 3 17 4 18 100 19 5 20 99 21 2 22 1 23 89 24
REMARK SMILES IDX 90 25 98 26 91 27 95 28 92 29 96 30 97 31 93 32 94 33 86 34
REMARK SMILES IDX 14 36 15 37 16 38 17 40 18 41 19 42 80 43 20 44 79 45 21 46
REMARK SMILES IDX 22 47 23 48 73 49 24 50 78 51 72 52 74 53 25 54 77 55 71 56
REMARK SMILES IDX 70 57 26 59 58 60 38 61 57 62 39 63 42 64 56 65 75 66 40 67
REMARK SMILES IDX 41 68 55 70 76 71 43 72 27 73 28 74 36 75 29 76 35 77 37 78
REMARK SMILES IDX 34 79 30 80 31 81 32 82 33 83 59 84 60 85 68 86 61 87 67 88
REMARK SMILES IDX 69 89 66 90 62 91 63 92 64 93 65 94 44 95 45 96 53 97 46 98
REMARK SMILES IDX 52 99 54 100 51 101 47 102 48 103 49 104 50 105
REMARK H PARENT 11 6 86 35 15 39 74 58 42 69
REMARK Flexibility Score: inf
ROOT
ATOM      1  C   UNL     1       0.398  -2.873  -2.540  1.00  0.00     0.042 C 
ENDROOT
BRANCH   1   2
ATOM      2  C   UNL     1      -0.610  -3.980  -2.271  1.00  0.00     0.118 C 
BRANCH   2   3
ATOM      3  N   UNL     1      -0.395  -5.133  -3.105  1.00  0.00    -0.351 N 
ATOM      4  C   UNL     1       0.284  -6.310  -3.050  1.00  0.00     0.262 C 
ATOM      5  O   UNL     1       0.013  -7.003  -4.045  1.00  0.00    -0.268 OA
ATOM      6  H   UNL     1      -0.876  -5.043  -3.959  1.00  0.00     0.163 HD
BRANCH   4   7
ATOM      7  C   UNL     1       1.227  -6.779  -2.022  1.00  0.00     0.102 A 
ATOM      8  C   UNL     1       1.798  -6.385  -0.802  1.00  0.00     0.031 A 
ATOM      9  C   UNL     1       2.727  -7.368  -0.310  1.00  0.00     0.090 A 
ATOM     10  S   UNL     1       1.901  -8.351  -2.480  1.00  0.00    -0.131 S 
ATOM     11  C   UNL     1       2.889  -8.442  -1.131  1.00  0.00     0.040 A 
ATOM     12  N   UNL     1       3.411  -7.241   0.911  1.00  0.00    -0.216 NA
ATOM     13  C   UNL     1       3.836  -9.561  -0.888  1.00  0.00     0.071 C 
ATOM     14  C   UNL     1       4.383  -8.075   1.080  1.00  0.00     0.186 C 
ATOM     15  C   UNL     1       4.915  -9.090   0.096  1.00  0.00     0.111 C 
BRANCH   8  16
ATOM     16  C   UNL     1       1.625  -5.118  -0.107  1.00  0.00    -0.014 A 
ATOM     17  C   UNL     1       1.345  -2.625   1.138  1.00  0.00     0.118 A 
ATOM     18  C   UNL     1       0.392  -3.627   1.345  1.00  0.00     0.047 A 
ATOM     19  C   UNL     1       2.511  -2.917   0.436  1.00  0.00     0.047 A 
ATOM     20  C   UNL     1       0.540  -4.882   0.742  1.00  0.00     0.012 A 
ATOM     21  C   UNL     1       2.648  -4.160  -0.187  1.00  0.00     0.012 A 
BRANCH  17  22
ATOM     22  O   UNL     1       1.037  -1.388   1.634  1.00  0.00    -0.497 OA
ATOM     23  C   UNL     1       1.521  -0.287   0.861  1.00  0.00     0.278 C 
ENDBRANCH  17  22
ENDBRANCH   8  16
BRANCH  13  24
ATOM     24  C   UNL     1       3.171 -10.840  -0.403  1.00  0.00    -0.035 A 
ATOM     25  C   UNL     1       2.225 -10.846   0.624  1.00  0.00     0.008 A 
ATOM     26  C   UNL     1       3.558 -12.069  -0.970  1.00  0.00     0.054 A 
ATOM     27  C   UNL     1       1.703 -12.053   1.082  1.00  0.00     0.051 A 
ATOM     28  C   UNL     1       3.048 -13.293  -0.508  1.00  0.00     0.161 A 
ATOM     29  C   UNL     1       2.116 -13.281   0.543  1.00  0.00     0.160 A 
BRANCH  28  30
ATOM     30  O   UNL     1       3.439 -14.499  -1.028  1.00  0.00    -0.493 OA
ATOM     31  C   UNL     1       4.320 -14.501  -2.145  1.00  0.00     0.278 C 
ENDBRANCH  28  30
BRANCH  29  32
ATOM     32  O   UNL     1       1.510 -14.340   1.168  1.00  0.00    -0.493 OA
ATOM     33  C   UNL     1       1.873 -15.657   0.790  1.00  0.00     0.278 C 
ENDBRANCH  29  32
ENDBRANCH  13  24
BRANCH  14  34
ATOM     34  O   UNL     1       5.081  -8.014   2.233  1.00  0.00    -0.496 OA
ATOM     35  H   UNL     1       4.825  -7.413   2.904  1.00  0.00     0.294 HD
ENDBRANCH  14  34
ENDBRANCH   4   7
ENDBRANCH   2   3
ENDBRANCH   1   2
BRANCH   1  36
ATOM     36  C   UNL     1      -0.222  -1.491  -2.440  1.00  0.00     0.118 C 
BRANCH  36  37
ATOM     37  N   UNL     1      -0.901  -1.204  -1.172  1.00  0.00    -0.352 N 
ATOM     38  C   UNL     1      -1.799  -0.171  -0.913  1.00  0.00     0.251 C 
ATOM     39  H   UNL     1      -0.700  -1.809  -0.422  1.00  0.00     0.163 HD
ATOM     40  O   UNL     1      -2.047   0.205   0.209  1.00  0.00    -0.269 OA
BRANCH  38  41
ATOM     41  C   UNL     1      -2.421   0.454  -2.096  1.00  0.00     0.039 A 
ATOM     42  C   UNL     1      -2.149   1.782  -2.423  1.00  0.00     0.014 A 
ATOM     43  C   UNL     1      -2.978  -0.424  -3.013  1.00  0.00     0.014 A 
ATOM     44  C   UNL     1      -2.274   2.178  -3.756  1.00  0.00     0.010 A 
ATOM     45  C   UNL     1      -2.923  -0.073  -4.342  1.00  0.00     0.010 A 
ATOM     46  C   UNL     1      -2.581   1.224  -4.740  1.00  0.00    -0.014 A 
BRANCH  46  47
ATOM     47  C   UNL     1      -2.389   1.523  -6.170  1.00  0.00     0.031 A 
ATOM     48  C   UNL     1      -1.183   2.322  -6.562  1.00  0.00     0.074 A 
ATOM     49  C   UNL     1      -3.087   0.932  -7.167  1.00  0.00     0.049 A 
ATOM     50  N   UNL     1      -1.161   3.508  -7.077  1.00  0.00    -0.248 NA
ATOM     51  C   UNL     1       0.159   1.779  -6.304  1.00  0.00     0.031 C 
ATOM     52  C   UNL     1      -4.133  -0.093  -7.076  1.00  0.00     0.029 A 
ATOM     53  N   UNL     1      -2.893   1.035  -8.511  1.00  0.00    -0.354 N 
ATOM     54  C   UNL     1       0.165   3.789  -7.409  1.00  0.00     0.074 A 
ATOM     55  C   UNL     1       0.942   2.760  -6.766  1.00  0.00     0.031 C 
ATOM     56  C   UNL     1      -4.264  -0.715  -8.264  1.00  0.00     0.029 A 
ATOM     57  C   UNL     1      -3.491   0.020  -9.244  1.00  0.00     0.049 A 
ATOM     58  H   UNL     1      -2.375   1.763  -8.925  1.00  0.00     0.167 HD
ATOM     59  C   UNL     1       0.483   4.743  -8.336  1.00  0.00     0.034 A 
ATOM     60  C   UNL     1      -3.401  -0.210 -10.575  1.00  0.00     0.034 A 
ATOM     61  C   UNL     1      -0.667   5.565  -8.648  1.00  0.00     0.049 A 
ATOM     62  C   UNL     1      -3.094   1.093 -11.208  1.00  0.00     0.074 A 
ATOM     63  C   UNL     1      -1.538   6.340  -7.904  1.00  0.00     0.029 A 
ATOM     64  N   UNL     1      -1.307   5.367  -9.853  1.00  0.00    -0.354 N 
ATOM     65  N   UNL     1      -3.909   2.114 -11.160  1.00  0.00    -0.248 NA
ATOM     66  C   UNL     1      -1.706   1.428 -11.482  1.00  0.00     0.031 C 
ATOM     67  C   UNL     1      -2.823   6.070  -8.465  1.00  0.00     0.029 A 
ATOM     68  C   UNL     1      -2.642   5.226  -9.564  1.00  0.00     0.049 A 
ATOM     69  H   UNL     1      -0.890   5.332 -10.744  1.00  0.00     0.167 HD
ATOM     70  C   UNL     1      -3.094   3.214 -10.944  1.00  0.00     0.074 A 
ATOM     71  C   UNL     1      -1.748   2.749 -11.280  1.00  0.00     0.031 C 
ATOM     72  C   UNL     1      -3.532   4.307 -10.248  1.00  0.00     0.034 A 
BRANCH  59  73
ATOM     73  C   UNL     1       1.720   4.782  -9.219  1.00  0.00     0.023 A 
ATOM     74  C   UNL     1       1.838   5.862 -10.124  1.00  0.00     0.031 A 
ATOM     75  C   UNL     1       2.621   3.719  -9.428  1.00  0.00     0.131 A 
ATOM     76  C   UNL     1       2.709   5.803 -11.227  1.00  0.00     0.055 A 
ATOM     77  C   UNL     1       3.542   3.698 -10.484  1.00  0.00     0.041 A 
ATOM     78  F   UNL     1       2.606   2.605  -8.688  1.00  0.00    -0.206 F 
ATOM     79  C   UNL     1       3.566   4.725 -11.413  1.00  0.00     0.022 A 
BRANCH  76  80
ATOM     80  S   UNL     1       2.549   7.064 -12.522  1.00  0.00     0.124 S 
ATOM     81  O   UNL     1       1.117   7.019 -12.799  1.00  0.00    -0.237 OA
ATOM     82  O   UNL     1       3.037   8.258 -11.841  1.00  0.00    -0.237 OA
ATOM     83  O   UNL     1       3.406   6.561 -13.592  1.00  0.00    -0.744 OA
ENDBRANCH  76  80
ENDBRANCH  59  73
BRANCH  60  84
ATOM     84  C   UNL     1      -3.362  -1.536 -11.235  1.00  0.00     0.023 A 
ATOM     85  C   UNL     1      -3.674  -1.719 -12.592  1.00  0.00     0.031 A 
ATOM     86  C   UNL     1      -2.803  -2.644 -10.553  1.00  0.00     0.131 A 
ATOM     87  C   UNL     1      -3.435  -2.966 -13.212  1.00  0.00     0.055 A 
ATOM     88  C   UNL     1      -2.582  -3.879 -11.166  1.00  0.00     0.041 A 
ATOM     89  F   UNL     1      -2.379  -2.538  -9.283  1.00  0.00    -0.206 F 
ATOM     90  C   UNL     1      -2.891  -4.043 -12.505  1.00  0.00     0.022 A 
BRANCH  87  91
ATOM     91  S   UNL     1      -3.729  -3.166 -14.996  1.00  0.00     0.124 S 
ATOM     92  O   UNL     1      -5.185  -3.205 -15.067  1.00  0.00    -0.237 OA
ATOM     93  O   UNL     1      -3.083  -1.984 -15.554  1.00  0.00    -0.237 OA
ATOM     94  O   UNL     1      -3.062  -4.430 -15.310  1.00  0.00    -0.744 OA
ENDBRANCH  87  91
ENDBRANCH  60  84
BRANCH  72  95
ATOM     95  C   UNL     1      -5.011   4.449  -9.939  1.00  0.00     0.023 A 
ATOM     96  C   UNL     1      -5.780   3.493  -9.239  1.00  0.00     0.031 A 
ATOM     97  C   UNL     1      -5.620   5.684 -10.229  1.00  0.00     0.131 A 
ATOM     98  C   UNL     1      -7.105   3.790  -8.860  1.00  0.00     0.055 A 
ATOM     99  C   UNL     1      -6.924   5.983  -9.835  1.00  0.00     0.041 A 
ATOM    100  F   UNL     1      -4.934   6.650 -10.863  1.00  0.00    -0.206 F 
ATOM    101  C   UNL     1      -7.674   5.033  -9.152  1.00  0.00     0.022 A 
BRANCH  98 102
ATOM    102  S   UNL     1      -8.117   2.556  -7.981  1.00  0.00     0.124 S 
ATOM    103  O   UNL     1      -7.912   1.333  -8.748  1.00  0.00    -0.237 OA
ATOM    104  O   UNL     1      -7.543   2.572  -6.638  1.00  0.00    -0.237 OA
ATOM    105  O   UNL     1      -9.472   3.106  -8.068  1.00  0.00    -0.744 OA
ENDBRANCH  98 102
ENDBRANCH  72  95
ENDBRANCH  46  47
ENDBRANCH  38  41
ENDBRANCH  36  37
ENDBRANCH   1  36
TORSDOF 19
