REMARK SMILES O=C(NCCCNC(=O)c1cc(NC(=O)c2ccccc2Cl)ccc1N1CCC[C@H](C[NH+]2CCCC2)C1)c1ccc(-c2c3nc(c(-c4cc(S(=O)(=O)[O-])ccc4F)c4ccc([nH]4)c(-c4cc(S(=O)(=O)[O-])ccc4F)c4nc(c(-c5cc(S(=O)(=O)[O-])ccc5F)c5ccc2[nH]5)C=C4)C=C3)cc1
REMARK SMILES IDX 5 1 4 2 3 3 1 4 2 5 38 7 39 8 100 9 40 10 99 11 41 12 42 13
REMARK SMILES IDX 43 14 93 15 44 16 98 17 92 18 94 19 45 20 97 21 91 22 90 23
REMARK SMILES IDX 46 25 78 26 58 27 77 28 59 29 62 30 76 31 95 32 60 33 61 34
REMARK SMILES IDX 75 36 96 37 63 38 47 39 48 40 56 41 49 42 55 43 57 44 54 45
REMARK SMILES IDX 50 46 51 47 52 48 53 49 79 50 80 51 88 52 81 53 87 54 89 55
REMARK SMILES IDX 86 56 82 57 83 58 84 59 85 60 64 61 65 62 73 63 66 64 72 65
REMARK SMILES IDX 74 66 71 67 67 68 68 69 69 70 70 71 6 72 7 73 8 74 9 76
REMARK SMILES IDX 10 77 11 78 25 79 12 80 24 81 23 82 26 83 27 84 37 85 28 86
REMARK SMILES IDX 30 87 29 88 31 89 32 90 33 91 36 92 34 94 35 95 13 96 14 97
REMARK SMILES IDX 15 99 16 100 17 101 21 102 18 103 20 104 22 105 19 106
REMARK H PARENT 3 6 94 24 62 35 7 75 32 93 13 98
REMARK Flexibility Score: inf
ROOT
ATOM      1  C   UNL     1       5.631  -0.475   1.925  1.00  0.00     0.042 C 
ENDROOT
BRANCH   1   2
ATOM      2  C   UNL     1       4.899  -1.032   0.711  1.00  0.00     0.118 C 
BRANCH   2   3
ATOM      3  N   UNL     1       3.443  -0.922   0.786  1.00  0.00    -0.352 N 
ATOM      4  O   UNL     1       1.370  -0.155   0.393  1.00  0.00    -0.269 OA
ATOM      5  C   UNL     1       2.550  -0.156   0.072  1.00  0.00     0.251 C 
ATOM      6  H   UNL     1       3.028  -1.499   1.467  1.00  0.00     0.163 HD
BRANCH   5   7
ATOM      7  C   UNL     1       3.015   0.691  -1.053  1.00  0.00     0.039 A 
ATOM      8  C   UNL     1       3.968   0.230  -1.959  1.00  0.00     0.014 A 
ATOM      9  C   UNL     1       2.482   1.976  -1.201  1.00  0.00     0.014 A 
ATOM     10  C   UNL     1       4.542   1.109  -2.868  1.00  0.00     0.010 A 
ATOM     11  C   UNL     1       2.978   2.822  -2.197  1.00  0.00     0.010 A 
ATOM     12  C   UNL     1       4.048   2.414  -3.007  1.00  0.00    -0.014 A 
BRANCH  12  13
ATOM     13  C   UNL     1       4.644   3.325  -4.019  1.00  0.00     0.031 A 
ATOM     14  C   UNL     1       5.291   4.618  -3.604  1.00  0.00     0.074 A 
ATOM     15  C   UNL     1       4.601   2.978  -5.320  1.00  0.00     0.049 A 
ATOM     16  N   UNL     1       5.780   5.576  -4.349  1.00  0.00    -0.248 NA
ATOM     17  C   UNL     1       5.385   4.872  -2.159  1.00  0.00     0.031 C 
ATOM     18  C   UNL     1       4.007   1.744  -5.842  1.00  0.00     0.029 A 
ATOM     19  N   UNL     1       5.059   3.624  -6.439  1.00  0.00    -0.354 N 
ATOM     20  C   UNL     1       6.211   6.563  -3.468  1.00  0.00     0.074 A 
ATOM     21  C   UNL     1       5.894   6.095  -2.134  1.00  0.00     0.031 C 
ATOM     22  C   UNL     1       4.154   1.714  -7.173  1.00  0.00     0.029 A 
ATOM     23  C   UNL     1       4.773   2.960  -7.608  1.00  0.00     0.049 A 
ATOM     24  H   UNL     1       5.544   4.480  -6.409  1.00  0.00     0.167 HD
ATOM     25  C   UNL     1       6.817   7.745  -3.750  1.00  0.00     0.034 A 
ATOM     26  C   UNL     1       4.938   3.328  -8.893  1.00  0.00     0.034 A 
ATOM     27  C   UNL     1       7.130   8.183  -5.091  1.00  0.00     0.049 A 
ATOM     28  C   UNL     1       5.564   4.660  -9.189  1.00  0.00     0.074 A 
ATOM     29  C   UNL     1       7.778   9.338  -5.494  1.00  0.00     0.029 A 
ATOM     30  N   UNL     1       6.801   7.490  -6.251  1.00  0.00    -0.354 N 
ATOM     31  N   UNL     1       5.970   5.582  -8.347  1.00  0.00    -0.248 NA
ATOM     32  C   UNL     1       5.754   5.004 -10.603  1.00  0.00     0.031 C 
ATOM     33  C   UNL     1       7.779   9.377  -6.893  1.00  0.00     0.029 A 
ATOM     34  C   UNL     1       7.201   8.210  -7.368  1.00  0.00     0.049 A 
ATOM     35  H   UNL     1       6.350   6.616  -6.277  1.00  0.00     0.167 HD
ATOM     36  C   UNL     1       6.483   6.610  -9.130  1.00  0.00     0.074 A 
ATOM     37  C   UNL     1       6.337   6.191 -10.511  1.00  0.00     0.031 C 
ATOM     38  C   UNL     1       7.034   7.787  -8.739  1.00  0.00     0.034 A 
BRANCH  25  39
ATOM     39  C   UNL     1       7.122   8.664  -2.587  1.00  0.00     0.023 A 
ATOM     40  C   UNL     1       7.994   8.288  -1.550  1.00  0.00     0.031 A 
ATOM     41  C   UNL     1       6.488   9.915  -2.487  1.00  0.00     0.131 A 
ATOM     42  C   UNL     1       8.131   9.107  -0.417  1.00  0.00     0.055 A 
ATOM     43  C   UNL     1       6.699  10.766  -1.400  1.00  0.00     0.041 A 
ATOM     44  F   UNL     1       5.630  10.325  -3.435  1.00  0.00    -0.206 F 
ATOM     45  C   UNL     1       7.508  10.354  -0.346  1.00  0.00     0.022 A 
BRANCH  42  46
ATOM     46  S   UNL     1       8.983   8.434   1.037  1.00  0.00     0.124 S 
ATOM     47  O   UNL     1       8.251   7.188   1.261  1.00  0.00    -0.237 OA
ATOM     48  O   UNL     1      10.353   8.292   0.561  1.00  0.00    -0.237 OA
ATOM     49  O   UNL     1       8.777   9.457   2.059  1.00  0.00    -0.744 OA
ENDBRANCH  42  46
ENDBRANCH  25  39
BRANCH  26  50
ATOM     50  C   UNL     1       4.438   2.437  -9.974  1.00  0.00     0.023 A 
ATOM     51  C   UNL     1       5.317   1.760 -10.829  1.00  0.00     0.031 A 
ATOM     52  C   UNL     1       3.056   2.217 -10.130  1.00  0.00     0.131 A 
ATOM     53  C   UNL     1       4.803   0.899 -11.812  1.00  0.00     0.055 A 
ATOM     54  C   UNL     1       2.553   1.328 -11.079  1.00  0.00     0.041 A 
ATOM     55  F   UNL     1       2.176   2.833  -9.324  1.00  0.00    -0.206 F 
ATOM     56  C   UNL     1       3.430   0.666 -11.932  1.00  0.00     0.022 A 
BRANCH  53  57
ATOM     57  S   UNL     1       5.959   0.098 -12.957  1.00  0.00     0.124 S 
ATOM     58  O   UNL     1       6.564   1.246 -13.621  1.00  0.00    -0.237 OA
ATOM     59  O   UNL     1       6.823  -0.645 -12.046  1.00  0.00    -0.237 OA
ATOM     60  O   UNL     1       5.091  -0.725 -13.797  1.00  0.00    -0.744 OA
ENDBRANCH  53  57
ENDBRANCH  26  50
BRANCH  38  61
ATOM     61  C   UNL     1       7.566   8.686  -9.825  1.00  0.00     0.023 A 
ATOM     62  C   UNL     1       6.712   9.378 -10.700  1.00  0.00     0.031 A 
ATOM     63  C   UNL     1       8.953   8.860  -9.972  1.00  0.00     0.131 A 
ATOM     64  C   UNL     1       7.257  10.190 -11.706  1.00  0.00     0.055 A 
ATOM     65  C   UNL     1       9.488   9.705 -10.944  1.00  0.00     0.041 A 
ATOM     66  F   UNL     1       9.811   8.217  -9.163  1.00  0.00    -0.206 F 
ATOM     67  C   UNL     1       8.638  10.371 -11.822  1.00  0.00     0.022 A 
BRANCH  64  68
ATOM     68  S   UNL     1       6.138  10.973 -12.900  1.00  0.00     0.124 S 
ATOM     69  O   UNL     1       5.541   9.816 -13.558  1.00  0.00    -0.237 OA
ATOM     70  O   UNL     1       5.250  11.747 -12.039  1.00  0.00    -0.237 OA
ATOM     71  O   UNL     1       7.034  11.769 -13.738  1.00  0.00    -0.744 OA
ENDBRANCH  64  68
ENDBRANCH  38  61
ENDBRANCH  12  13
ENDBRANCH   5   7
ENDBRANCH   2   3
ENDBRANCH   1   2
BRANCH   1  72
ATOM     72  C   UNL     1       5.247  -1.121   3.242  1.00  0.00     0.118 C 
BRANCH  72  73
ATOM     73  N   UNL     1       5.436  -2.556   3.299  1.00  0.00    -0.352 N 
ATOM     74  C   UNL     1       5.568  -3.345   4.416  1.00  0.00     0.253 C 
ATOM     75  H   UNL     1       5.476  -3.022   2.433  1.00  0.00     0.163 HD
ATOM     76  O   UNL     1       5.574  -4.568   4.290  1.00  0.00    -0.269 OA
BRANCH  74  77
ATOM     77  C   UNL     1       5.818  -2.747   5.752  1.00  0.00     0.065 A 
ATOM     78  C   UNL     1       7.037  -3.164   6.317  1.00  0.00     0.042 A 
ATOM     79  C   UNL     1       4.980  -1.839   6.427  1.00  0.00     0.050 A 
ATOM     80  C   UNL     1       7.525  -2.613   7.495  1.00  0.00     0.042 A 
ATOM     81  C   UNL     1       5.472  -1.327   7.643  1.00  0.00     0.029 A 
ATOM     82  C   UNL     1       6.718  -1.700   8.168  1.00  0.00     0.028 A 
BRANCH  79  83
ATOM     83  N   UNL     1       3.692  -1.487   6.041  1.00  0.00    -0.370 N 
ATOM     84  C   UNL     1       3.329  -0.069   5.910  1.00  0.00     0.116 C 
ATOM     85  C   UNL     1       2.823  -2.499   5.436  1.00  0.00     0.126 C 
ATOM     86  C   UNL     1       1.854   0.164   6.218  1.00  0.00     0.022 C 
ATOM     87  C   UNL     1       1.376  -2.308   5.908  1.00  0.00     0.064 C 
ATOM     88  C   UNL     1       0.957  -0.875   5.549  1.00  0.00     0.013 C 
BRANCH  87  89
ATOM     89  C   UNL     1       1.277  -2.695   7.409  1.00  0.00     0.267 C 
BRANCH  89  90
ATOM     90  N   UNL     1      -0.036  -2.894   8.031  1.00  0.00    -0.335 N 
ATOM     91  C   UNL     1      -0.878  -3.894   7.381  1.00  0.00     0.262 C 
ATOM     92  C   UNL     1      -0.839  -1.692   8.234  1.00  0.00     0.262 C 
ATOM     93  H   UNL     1       0.255  -3.237   8.947  1.00  0.00     0.348 HD
ATOM     94  C   UNL     1      -1.878  -3.104   6.563  1.00  0.00     0.067 C 
ATOM     95  C   UNL     1      -2.084  -1.833   7.366  1.00  0.00     0.067 C 
ENDBRANCH  89  90
ENDBRANCH  87  89
ENDBRANCH  79  83
BRANCH  80  96
ATOM     96  N   UNL     1       8.778  -2.924   8.061  1.00  0.00    -0.322 N 
ATOM     97  C   UNL     1       9.897  -3.535   7.532  1.00  0.00     0.257 C 
ATOM     98  H   UNL     1       8.872  -2.656   9.004  1.00  0.00     0.170 HD
ATOM     99  O   UNL     1      10.827  -3.871   8.264  1.00  0.00    -0.269 OA
BRANCH  97 100
ATOM    100  C   UNL     1      10.014  -3.793   6.087  1.00  0.00     0.058 A 
ATOM    101  C   UNL     1      10.027  -5.134   5.675  1.00  0.00     0.015 A 
ATOM    102  C   UNL     1      10.026  -2.762   5.139  1.00  0.00     0.053 A 
ATOM    103  C   UNL     1       9.964  -5.441   4.316  1.00  0.00     0.001 A 
ATOM    104  C   UNL     1       9.957  -3.080   3.780  1.00  0.00     0.021 A 
ATOM    105  Cl  UNL     1      10.094  -1.094   5.577  1.00  0.00    -0.083 Cl
ATOM    106  C   UNL     1       9.909  -4.416   3.372  1.00  0.00     0.002 A 
ENDBRANCH  97 100
ENDBRANCH  80  96
ENDBRANCH  74  77
ENDBRANCH  72  73
ENDBRANCH   1  72
TORSDOF 18
