REMARK SMILES CCCCCCNC(=O)Oc1cccc(-c2ccc([C@@H](C)C(=O)NCCCNC(=O)c3ccc(-c4c5nc(c(-c6cc(S(=O)(=O)[O-])ccc6F)c6ccc([nH]6)c(-c6cc(S(=O)(=O)[O-])ccc6F)c6nc(c(-c7cc(S(=O)(=O)[O-])ccc7F)c7ccc4[nH]7)C=C6)C=C5)cc3)cc2C(F)(F)F)c1
REMARK SMILES IDX 20 1 21 2 19 3 16 4 17 5 95 6 18 7 94 8 15 9 11 10 12 11
REMARK SMILES IDX 100 12 13 13 14 14 10 15 8 16 7 17 9 19 6 20 5 21 4 22 3 23
REMARK SMILES IDX 2 24 1 25 96 26 97 27 98 28 99 29 22 30 23 31 24 32 25 34
REMARK SMILES IDX 26 35 27 36 28 37 29 38 30 40 31 41 32 42 93 43 33 44 92 45
REMARK SMILES IDX 34 46 35 47 36 48 86 49 37 50 91 51 85 52 87 53 38 54 90 55
REMARK SMILES IDX 84 56 83 57 39 59 71 60 51 61 70 62 52 63 55 64 69 65 88 66
REMARK SMILES IDX 53 67 54 68 68 70 89 71 56 72 40 73 41 74 49 75 42 76 48 77
REMARK SMILES IDX 50 78 47 79 43 80 44 81 45 82 46 83 72 84 73 85 81 86 74 87
REMARK SMILES IDX 80 88 82 89 79 90 75 91 76 92 77 93 78 94 57 95 58 96 66 97
REMARK SMILES IDX 59 98 65 99 67 100 64 101 60 102 61 103 62 104 63 105
REMARK H PARENT 7 18 24 33 28 39 87 58 55 69
REMARK Flexibility Score: inf
ROOT
ATOM      1  C   UNL     1      -4.841  13.280   2.672  1.00  0.00     0.105 C 
ATOM      2  C   UNL     1      -6.067  14.182   2.802  1.00  0.00     0.023 C 
ENDROOT
BRANCH   1   3
ATOM      3  C   UNL     1      -5.074  11.816   3.010  1.00  0.00    -0.035 A 
ATOM      4  C   UNL     1      -5.266   9.032   3.654  1.00  0.00    -0.006 A 
ATOM      5  C   UNL     1      -5.676  10.039   4.548  1.00  0.00     0.009 A 
ATOM      6  C   UNL     1      -4.855   9.439   2.368  1.00  0.00     0.064 A 
ATOM      7  C   UNL     1      -5.635  11.395   4.210  1.00  0.00     0.005 A 
ATOM      8  C   UNL     1      -4.706  10.822   2.092  1.00  0.00     0.018 A 
BRANCH   4   9
ATOM      9  C   UNL     1      -5.286   7.628   4.119  1.00  0.00    -0.014 A 
ATOM     10  C   UNL     1      -4.238   5.449   4.358  1.00  0.00     0.133 A 
ATOM     11  C   UNL     1      -5.366   4.941   4.995  1.00  0.00     0.047 A 
ATOM     12  C   UNL     1      -4.179   6.781   3.943  1.00  0.00     0.056 A 
ATOM     13  C   UNL     1      -6.452   5.777   5.223  1.00  0.00     0.004 A 
ATOM     14  C   UNL     1      -6.416   7.102   4.777  1.00  0.00     0.009 A 
BRANCH  10  15
ATOM     15  O   UNL     1      -3.249   4.512   4.005  1.00  0.00    -0.410 OA
BRANCH  15  16
ATOM     16  C   UNL     1      -1.901   4.821   4.114  1.00  0.00     0.412 C 
ATOM     17  N   UNL     1      -1.096   3.881   3.530  1.00  0.00    -0.321 N 
ATOM     18  H   UNL     1      -0.125   4.005   3.636  1.00  0.00     0.167 HD
ATOM     19  O   UNL     1      -1.431   5.811   4.657  1.00  0.00    -0.224 OA
BRANCH  17  20
ATOM     20  C   UNL     1      -1.526   2.723   2.772  1.00  0.00     0.119 C 
BRANCH  20  21
ATOM     21  C   UNL     1      -0.954   2.729   1.353  1.00  0.00     0.021 C 
BRANCH  21  22
ATOM     22  C   UNL     1       0.574   2.622   1.275  1.00  0.00     0.002 C 
BRANCH  22  23
ATOM     23  C   UNL     1       1.177   1.368   1.917  1.00  0.00    -0.000 C 
BRANCH  23  24
ATOM     24  C   UNL     1       0.693   0.037   1.337  1.00  0.00    -0.003 C 
ATOM     25  C   UNL     1       1.062  -0.151  -0.126  1.00  0.00     0.004 C 
ENDBRANCH  23  24
ENDBRANCH  22  23
ENDBRANCH  21  22
ENDBRANCH  20  21
ENDBRANCH  17  20
ENDBRANCH  15  16
ENDBRANCH  10  15
ENDBRANCH   4   9
BRANCH   6  26
ATOM     26  C   UNL     1      -4.578   8.491   1.221  1.00  0.00     0.417 C 
ATOM     27  F   UNL     1      -5.127   8.947   0.051  1.00  0.00    -0.166 F 
ATOM     28  F   UNL     1      -3.248   8.357   0.961  1.00  0.00    -0.166 F 
ATOM     29  F   UNL     1      -5.069   7.231   1.355  1.00  0.00    -0.166 F 
ENDBRANCH   6  26
ENDBRANCH   1   3
BRANCH   1  30
ATOM     30  C   UNL     1      -3.546  13.862   3.262  1.00  0.00     0.227 C 
ATOM     31  O   UNL     1      -2.561  14.026   2.530  1.00  0.00    -0.274 OA
ATOM     32  N   UNL     1      -3.396  14.239   4.560  1.00  0.00    -0.356 N 
ATOM     33  H   UNL     1      -2.521  14.642   4.760  1.00  0.00     0.163 HD
BRANCH  32  34
ATOM     34  C   UNL     1      -4.282  14.160   5.705  1.00  0.00     0.117 C 
BRANCH  34  35
ATOM     35  C   UNL     1      -3.968  12.964   6.603  1.00  0.00     0.042 C 
BRANCH  35  36
ATOM     36  C   UNL     1      -2.830  13.199   7.588  1.00  0.00     0.118 C 
BRANCH  36  37
ATOM     37  N   UNL     1      -3.172  14.198   8.588  1.00  0.00    -0.352 N 
ATOM     38  C   UNL     1      -3.291  14.108   9.952  1.00  0.00     0.251 C 
ATOM     39  H   UNL     1      -3.350  15.094   8.223  1.00  0.00     0.163 HD
ATOM     40  O   UNL     1      -3.834  15.039  10.545  1.00  0.00    -0.269 OA
BRANCH  38  41
ATOM     41  C   UNL     1      -2.798  12.933  10.712  1.00  0.00     0.039 A 
ATOM     42  C   UNL     1      -3.469  12.581  11.888  1.00  0.00     0.014 A 
ATOM     43  C   UNL     1      -1.655  12.221  10.338  1.00  0.00     0.014 A 
ATOM     44  C   UNL     1      -3.020  11.503  12.656  1.00  0.00     0.010 A 
ATOM     45  C   UNL     1      -1.262  11.090  11.055  1.00  0.00     0.010 A 
ATOM     46  C   UNL     1      -1.929  10.727  12.232  1.00  0.00    -0.014 A 
BRANCH  46  47
ATOM     47  C   UNL     1      -1.494   9.545  13.024  1.00  0.00     0.031 A 
ATOM     48  C   UNL     1      -0.133   9.506  13.668  1.00  0.00     0.074 A 
ATOM     49  C   UNL     1      -2.332   8.496  13.151  1.00  0.00     0.049 A 
ATOM     50  N   UNL     1       0.397   8.581  14.428  1.00  0.00    -0.248 NA
ATOM     51  C   UNL     1       0.760  10.643  13.402  1.00  0.00     0.031 C 
ATOM     52  C   UNL     1      -3.651   8.392  12.521  1.00  0.00     0.029 A 
ATOM     53  N   UNL     1      -2.210   7.326  13.856  1.00  0.00    -0.354 N 
ATOM     54  C   UNL     1       1.684   9.021  14.726  1.00  0.00     0.074 A 
ATOM     55  C   UNL     1       1.875  10.263  14.008  1.00  0.00     0.031 C 
ATOM     56  C   UNL     1      -4.233   7.247  12.906  1.00  0.00     0.029 A 
ATOM     57  C   UNL     1      -3.319   6.515  13.775  1.00  0.00     0.049 A 
ATOM     58  H   UNL     1      -1.405   7.089  14.371  1.00  0.00     0.167 HD
ATOM     59  C   UNL     1       2.609   8.454  15.542  1.00  0.00     0.034 A 
ATOM     60  C   UNL     1      -3.573   5.319  14.342  1.00  0.00     0.034 A 
ATOM     61  C   UNL     1       2.399   7.213  16.251  1.00  0.00     0.049 A 
ATOM     62  C   UNL     1      -2.535   4.716  15.252  1.00  0.00     0.074 A 
ATOM     63  C   UNL     1       3.245   6.571  17.139  1.00  0.00     0.029 A 
ATOM     64  N   UNL     1       1.262   6.420  16.148  1.00  0.00    -0.354 N 
ATOM     65  N   UNL     1      -1.349   5.178  15.576  1.00  0.00    -0.248 NA
ATOM     66  C   UNL     1      -2.882   3.442  15.889  1.00  0.00     0.031 C 
ATOM     67  C   UNL     1       2.652   5.361  17.517  1.00  0.00     0.029 A 
ATOM     68  C   UNL     1       1.398   5.283  16.933  1.00  0.00     0.049 A 
ATOM     69  H   UNL     1       0.474   6.633  15.597  1.00  0.00     0.167 HD
ATOM     70  C   UNL     1      -0.820   4.260  16.479  1.00  0.00     0.074 A 
ATOM     71  C   UNL     1      -1.831   3.240  16.668  1.00  0.00     0.031 C 
ATOM     72  C   UNL     1       0.392   4.258  17.095  1.00  0.00     0.034 A 
BRANCH  59  73
ATOM     73  C   UNL     1       3.939   9.163  15.685  1.00  0.00     0.023 A 
ATOM     74  C   UNL     1       4.033  10.461  16.220  1.00  0.00     0.031 A 
ATOM     75  C   UNL     1       5.128   8.544  15.259  1.00  0.00     0.131 A 
ATOM     76  C   UNL     1       5.270  11.124  16.243  1.00  0.00     0.055 A 
ATOM     77  C   UNL     1       6.369   9.178  15.363  1.00  0.00     0.041 A 
ATOM     78  F   UNL     1       5.104   7.314  14.721  1.00  0.00    -0.206 F 
ATOM     79  C   UNL     1       6.443  10.482  15.843  1.00  0.00     0.022 A 
BRANCH  76  80
ATOM     80  S   UNL     1       5.301  12.888  16.667  1.00  0.00     0.124 S 
ATOM     81  O   UNL     1       4.417  13.452  15.649  1.00  0.00    -0.237 OA
ATOM     82  O   UNL     1       4.790  12.894  18.032  1.00  0.00    -0.237 OA
ATOM     83  O   UNL     1       6.710  13.250  16.526  1.00  0.00    -0.744 OA
ENDBRANCH  76  80
ENDBRANCH  59  73
BRANCH  60  84
ATOM     84  C   UNL     1      -4.863   4.618  14.079  1.00  0.00     0.023 A 
ATOM     85  C   UNL     1      -5.785   4.381  15.112  1.00  0.00     0.031 A 
ATOM     86  C   UNL     1      -5.178   4.142  12.794  1.00  0.00     0.131 A 
ATOM     87  C   UNL     1      -6.952   3.645  14.854  1.00  0.00     0.055 A 
ATOM     88  C   UNL     1      -6.367   3.460  12.530  1.00  0.00     0.041 A 
ATOM     89  F   UNL     1      -4.337   4.348  11.768  1.00  0.00    -0.206 F 
ATOM     90  C   UNL     1      -7.256   3.195  13.567  1.00  0.00     0.022 A 
BRANCH  87  91
ATOM     91  S   UNL     1      -8.032   3.209  16.245  1.00  0.00     0.124 S 
ATOM     92  O   UNL     1      -7.118   2.479  17.114  1.00  0.00    -0.237 OA
ATOM     93  O   UNL     1      -8.459   4.522  16.719  1.00  0.00    -0.237 OA
ATOM     94  O   UNL     1      -9.080   2.404  15.622  1.00  0.00    -0.744 OA
ENDBRANCH  87  91
ENDBRANCH  60  84
BRANCH  72  95
ATOM     95  C   UNL     1       0.659   3.124  18.057  1.00  0.00     0.023 A 
ATOM     96  C   UNL     1       0.710   1.786  17.625  1.00  0.00     0.031 A 
ATOM     97  C   UNL     1       0.807   3.378  19.432  1.00  0.00     0.131 A 
ATOM     98  C   UNL     1       0.810   0.750  18.566  1.00  0.00     0.055 A 
ATOM     99  C   UNL     1       0.985   2.347  20.356  1.00  0.00     0.041 A 
ATOM    100  F   UNL     1       0.766   4.635  19.904  1.00  0.00    -0.206 F 
ATOM    101  C   UNL     1       0.965   1.023  19.927  1.00  0.00     0.022 A 
BRANCH  98 102
ATOM    102  S   UNL     1       0.585  -0.959  18.002  1.00  0.00     0.124 S 
ATOM    103  O   UNL     1      -0.710  -0.890  17.332  1.00  0.00    -0.237 OA
ATOM    104  O   UNL     1       1.742  -1.155  17.134  1.00  0.00    -0.237 OA
ATOM    105  O   UNL     1       0.601  -1.734  19.241  1.00  0.00    -0.744 OA
ENDBRANCH  98 102
ENDBRANCH  72  95
ENDBRANCH  46  47
ENDBRANCH  38  41
ENDBRANCH  36  37
ENDBRANCH  35  36
ENDBRANCH  34  35
ENDBRANCH  32  34
ENDBRANCH   1  30
TORSDOF 23
