REMARK SMILES O=C(NCCCNC(=O)c1ccc(-c2c3nc(c(-c4cc(S(=O)(=O)[O-])ccc4F)c4ccc([nH]4)c(-c4cc(S(=O)(=O)[O-])ccc4F)c4nc(c(-c5cc(S(=O)(=O)[O-])ccc5F)c5ccc2[nH]5)C=C4)C=C3)cc1)C1=Cc2cc(OC(F)(F)F)ccc2O[C@@H]1C(F)(F)F
REMARK SMILES IDX 5 1 4 2 3 3 1 4 2 5 73 7 74 8 87 9 75 10 86 11 76 12 85 13
REMARK SMILES IDX 77 14 84 15 83 16 88 17 89 18 90 19 91 20 78 21 79 22 80 23
REMARK SMILES IDX 81 24 82 25 6 26 7 27 8 28 9 30 10 31 11 32 72 33 12 34
REMARK SMILES IDX 71 35 13 36 14 37 15 38 65 39 16 40 70 41 64 42 66 43 17 44
REMARK SMILES IDX 69 45 63 46 62 47 18 49 50 50 30 51 49 52 31 53 34 54 48 55
REMARK SMILES IDX 67 56 32 57 33 58 47 60 68 61 35 62 19 63 20 64 28 65 21 66
REMARK SMILES IDX 27 67 29 68 26 69 22 70 23 71 24 72 25 73 51 74 52 75 60 76
REMARK SMILES IDX 53 77 59 78 61 79 58 80 54 81 55 82 56 83 57 84 36 85 37 86
REMARK SMILES IDX 45 87 38 88 44 89 46 90 43 91 39 92 40 93 41 94 42 95
REMARK H PARENT 3 6 7 29 66 48 34 59
REMARK Flexibility Score: inf
ROOT
ATOM      1  C   UNL     1       4.037   2.591   0.987  1.00  0.00     0.042 C 
ENDROOT
BRANCH   1   2
ATOM      2  C   UNL     1       3.247   1.289   1.037  1.00  0.00     0.118 C 
BRANCH   2   3
ATOM      3  N   UNL     1       2.305   1.146  -0.077  1.00  0.00    -0.352 N 
ATOM      4  O   UNL     1       1.205   0.054  -1.738  1.00  0.00    -0.270 OA
ATOM      5  C   UNL     1       2.185   0.147  -1.012  1.00  0.00     0.251 C 
ATOM      6  H   UNL     1       1.657   1.881  -0.170  1.00  0.00     0.163 HD
BRANCH   5   7
ATOM      7  C   UNL     1       3.263  -0.856  -1.054  1.00  0.00     0.067 C 
ATOM      8  C   UNL     1       4.470  -0.419  -1.434  1.00  0.00     0.025 C 
ATOM      9  C   UNL     1       3.043  -2.126  -0.294  1.00  0.00     0.314 C 
ATOM     10  C   UNL     1       5.553  -0.878  -0.560  1.00  0.00     0.021 A 
ATOM     11  O   UNL     1       4.067  -2.364   0.705  1.00  0.00    -0.475 OA
ATOM     12  C   UNL     1       6.743  -0.143  -0.574  1.00  0.00     0.058 A 
ATOM     13  C   UNL     1       5.255  -1.696   0.542  1.00  0.00     0.128 A 
ATOM     14  C   UNL     1       7.557  -0.098   0.560  1.00  0.00     0.130 A 
ATOM     15  C   UNL     1       6.099  -1.699   1.649  1.00  0.00     0.051 A 
ATOM     16  C   UNL     1       7.225  -0.869   1.675  1.00  0.00     0.050 A 
BRANCH   9  17
ATOM     17  C   UNL     1       2.911  -3.332  -1.236  1.00  0.00     0.429 C 
ATOM     18  F   UNL     1       2.575  -4.452  -0.547  1.00  0.00    -0.167 F 
ATOM     19  F   UNL     1       1.945  -3.148  -2.166  1.00  0.00    -0.167 F 
ATOM     20  F   UNL     1       4.061  -3.603  -1.898  1.00  0.00    -0.167 F 
ENDBRANCH   9  17
BRANCH  14  21
ATOM     21  O   UNL     1       8.608   0.766   0.457  1.00  0.00    -0.406 OA
BRANCH  21  22
ATOM     22  C   UNL     1       9.178   1.251   1.663  1.00  0.00     0.573 C 
ATOM     23  F   UNL     1       8.245   1.848   2.432  1.00  0.00    -0.132 F 
ATOM     24  F   UNL     1       9.768   0.252   2.352  1.00  0.00    -0.132 F 
ATOM     25  F   UNL     1      10.123   2.164   1.355  1.00  0.00    -0.132 F 
ENDBRANCH  21  22
ENDBRANCH  14  21
ENDBRANCH   5   7
ENDBRANCH   2   3
ENDBRANCH   1   2
BRANCH   1  26
ATOM     26  C   UNL     1       3.977   3.355   2.305  1.00  0.00     0.118 C 
BRANCH  26  27
ATOM     27  N   UNL     1       4.666   2.701   3.410  1.00  0.00    -0.352 N 
ATOM     28  C   UNL     1       5.579   3.218   4.317  1.00  0.00     0.251 C 
ATOM     29  H   UNL     1       4.450   1.749   3.532  1.00  0.00     0.163 HD
ATOM     30  O   UNL     1       6.098   2.478   5.137  1.00  0.00    -0.269 OA
BRANCH  28  31
ATOM     31  C   UNL     1       5.950   4.652   4.251  1.00  0.00     0.039 A 
ATOM     32  C   UNL     1       7.294   5.022   4.373  1.00  0.00     0.014 A 
ATOM     33  C   UNL     1       4.984   5.628   4.016  1.00  0.00     0.014 A 
ATOM     34  C   UNL     1       7.674   6.351   4.144  1.00  0.00     0.010 A 
ATOM     35  C   UNL     1       5.377   6.913   3.662  1.00  0.00     0.010 A 
ATOM     36  C   UNL     1       6.726   7.296   3.721  1.00  0.00    -0.014 A 
BRANCH  36  37
ATOM     37  C   UNL     1       7.083   8.697   3.356  1.00  0.00     0.031 A 
ATOM     38  C   UNL     1       6.370   9.838   4.040  1.00  0.00     0.074 A 
ATOM     39  C   UNL     1       7.931   8.948   2.338  1.00  0.00     0.049 A 
ATOM     40  N   UNL     1       6.316  11.103   3.714  1.00  0.00    -0.248 NA
ATOM     41  C   UNL     1       5.551   9.483   5.208  1.00  0.00     0.031 C 
ATOM     42  C   UNL     1       8.654   7.939   1.562  1.00  0.00     0.029 A 
ATOM     43  N   UNL     1       8.312  10.137   1.765  1.00  0.00    -0.354 N 
ATOM     44  C   UNL     1       5.409  11.680   4.600  1.00  0.00     0.074 A 
ATOM     45  C   UNL     1       4.889  10.608   5.420  1.00  0.00     0.031 C 
ATOM     46  C   UNL     1       9.412   8.551   0.637  1.00  0.00     0.029 A 
ATOM     47  C   UNL     1       9.185   9.990   0.710  1.00  0.00     0.049 A 
ATOM     48  H   UNL     1       7.991  11.013   2.079  1.00  0.00     0.167 HD
ATOM     49  C   UNL     1       5.064  12.986   4.736  1.00  0.00     0.034 A 
ATOM     50  C   UNL     1       9.726  10.909  -0.115  1.00  0.00     0.034 A 
ATOM     51  C   UNL     1       5.645  14.046   3.949  1.00  0.00     0.049 A 
ATOM     52  C   UNL     1       9.361  12.360   0.074  1.00  0.00     0.074 A 
ATOM     53  C   UNL     1       5.429  15.409   4.041  1.00  0.00     0.029 A 
ATOM     54  N   UNL     1       6.573  13.859   2.932  1.00  0.00    -0.354 N 
ATOM     55  N   UNL     1       8.515  12.895   0.925  1.00  0.00    -0.248 NA
ATOM     56  C   UNL     1      10.027  13.331  -0.803  1.00  0.00     0.031 C 
ATOM     57  C   UNL     1       6.189  16.042   3.050  1.00  0.00     0.029 A 
ATOM     58  C   UNL     1       6.931  15.080   2.383  1.00  0.00     0.049 A 
ATOM     59  H   UNL     1       6.925  12.986   2.642  1.00  0.00     0.167 HD
ATOM     60  C   UNL     1       8.579  14.269   0.710  1.00  0.00     0.074 A 
ATOM     61  C   UNL     1       9.546  14.479  -0.348  1.00  0.00     0.031 C 
ATOM     62  C   UNL     1       7.905  15.268   1.334  1.00  0.00     0.034 A 
BRANCH  49  63
ATOM     63  C   UNL     1       4.005  13.320   5.762  1.00  0.00     0.023 A 
ATOM     64  C   UNL     1       4.178  13.019   7.125  1.00  0.00     0.031 A 
ATOM     65  C   UNL     1       2.779  13.885   5.369  1.00  0.00     0.131 A 
ATOM     66  C   UNL     1       3.108  13.173   8.019  1.00  0.00     0.055 A 
ATOM     67  C   UNL     1       1.754  14.133   6.285  1.00  0.00     0.041 A 
ATOM     68  F   UNL     1       2.543  14.181   4.080  1.00  0.00    -0.206 F 
ATOM     69  C   UNL     1       1.906  13.755   7.615  1.00  0.00     0.022 A 
BRANCH  66  70
ATOM     70  S   UNL     1       3.251  12.425   9.666  1.00  0.00     0.124 S 
ATOM     71  O   UNL     1       3.458  11.018   9.331  1.00  0.00    -0.237 OA
ATOM     72  O   UNL     1       4.400  13.123  10.231  1.00  0.00    -0.237 OA
ATOM     73  O   UNL     1       1.966  12.726  10.292  1.00  0.00    -0.744 OA
ENDBRANCH  66  70
ENDBRANCH  49  63
BRANCH  50  74
ATOM     74  C   UNL     1      10.673  10.496  -1.190  1.00  0.00     0.023 A 
ATOM     75  C   UNL     1      12.024  10.877  -1.140  1.00  0.00     0.031 A 
ATOM     76  C   UNL     1      10.242   9.740  -2.294  1.00  0.00     0.131 A 
ATOM     77  C   UNL     1      12.887  10.540  -2.194  1.00  0.00     0.055 A 
ATOM     78  C   UNL     1      11.116   9.365  -3.317  1.00  0.00     0.041 A 
ATOM     79  F   UNL     1       8.963   9.341  -2.385  1.00  0.00    -0.206 F 
ATOM     80  C   UNL     1      12.445   9.775  -3.276  1.00  0.00     0.022 A 
BRANCH  77  81
ATOM     81  S   UNL     1      14.585  11.176  -2.162  1.00  0.00     0.124 S 
ATOM     82  O   UNL     1      14.362  12.617  -2.129  1.00  0.00    -0.237 OA
ATOM     83  O   UNL     1      15.109  10.579  -0.939  1.00  0.00    -0.237 OA
ATOM     84  O   UNL     1      15.164  10.661  -3.402  1.00  0.00    -0.744 OA
ENDBRANCH  77  81
ENDBRANCH  50  74
BRANCH  62  85
ATOM     85  C   UNL     1       8.247  16.680   0.936  1.00  0.00     0.023 A 
ATOM     86  C   UNL     1       7.905  17.203  -0.322  1.00  0.00     0.031 A 
ATOM     87  C   UNL     1       8.922  17.518   1.843  1.00  0.00     0.131 A 
ATOM     88  C   UNL     1       8.277  18.513  -0.656  1.00  0.00     0.055 A 
ATOM     89  C   UNL     1       9.243  18.837   1.525  1.00  0.00     0.041 A 
ATOM     90  F   UNL     1       9.271  17.066   3.059  1.00  0.00    -0.206 F 
ATOM     91  C   UNL     1       8.930  19.338   0.265  1.00  0.00     0.022 A 
BRANCH  88  92
ATOM     92  S   UNL     1       7.960  19.107  -2.340  1.00  0.00     0.124 S 
ATOM     93  O   UNL     1       8.720  18.157  -3.146  1.00  0.00    -0.237 OA
ATOM     94  O   UNL     1       6.507  19.008  -2.438  1.00  0.00    -0.237 OA
ATOM     95  O   UNL     1       8.487  20.471  -2.328  1.00  0.00    -0.744 OA
ENDBRANCH  88  92
ENDBRANCH  62  85
ENDBRANCH  36  37
ENDBRANCH  28  31
ENDBRANCH  26  27
ENDBRANCH   1  26
TORSDOF 16
