REMARK SMILES Cc1cccc(NS(=O)(=O)c2ccc(Br)c(C(=O)NCCCNC(=O)c3ccc(-c4c5nc(c(-c6cc(S(=O)(=O)[O-])ccc6F)c6ccc([nH]6)c(-c6cc(S(=O)(=O)[O-])ccc6F)c6nc(c(-c7cc(S(=O)(=O)[O-])ccc7F)c7ccc4[nH]7)C=C6)C=C5)cc3)c2)c1
REMARK SMILES IDX 21 1 20 2 19 3 17 4 18 5 16 7 11 8 12 9 89 10 13 11 14 12
REMARK SMILES IDX 15 13 8 14 9 15 10 16 7 17 6 19 1 20 2 21 3 22 90 23 4 24
REMARK SMILES IDX 5 25 22 26 23 27 24 28 25 30 26 31 27 32 88 33 28 34 87 35
REMARK SMILES IDX 29 36 30 37 31 38 81 39 32 40 86 41 80 42 82 43 33 44 85 45
REMARK SMILES IDX 79 46 78 47 34 49 66 50 46 51 65 52 47 53 50 54 64 55 83 56
REMARK SMILES IDX 48 57 49 58 63 60 84 61 51 62 35 63 36 64 44 65 37 66 43 67
REMARK SMILES IDX 45 68 42 69 38 70 39 71 40 72 41 73 67 74 68 75 76 76 69 77
REMARK SMILES IDX 75 78 77 79 74 80 70 81 71 82 72 83 73 84 52 85 53 86 61 87
REMARK SMILES IDX 54 88 60 89 62 90 59 91 55 92 56 93 57 94 58 95
REMARK H PARENT 19 6 7 18 23 29 82 48 50 59
REMARK Flexibility Score: inf
ROOT
ATOM      1  C   UNL     1      -7.365  -4.068   0.970  1.00  0.00     0.042 C 
ENDROOT
BRANCH   1   2
ATOM      2  C   UNL     1      -7.206  -3.616  -0.469  1.00  0.00     0.118 C 
BRANCH   2   3
ATOM      3  N   UNL     1      -7.642  -2.250  -0.725  1.00  0.00    -0.352 N 
ATOM      4  C   UNL     1      -7.011  -1.036  -0.841  1.00  0.00     0.252 C 
ATOM      5  O   UNL     1      -7.696  -0.067  -1.175  1.00  0.00    -0.269 OA
ATOM      6  H   UNL     1      -8.617  -2.181  -0.843  1.00  0.00     0.163 HD
BRANCH   4   7
ATOM      7  C   UNL     1      -5.594  -0.780  -0.453  1.00  0.00     0.055 A 
ATOM      8  C   UNL     1      -4.000   0.804   0.472  1.00  0.00     0.088 A 
ATOM      9  C   UNL     1      -3.253  -0.248   0.995  1.00  0.00     0.023 A 
ATOM     10  C   UNL     1      -5.236   0.544  -0.134  1.00  0.00     0.037 A 
ATOM     11  C   UNL     1      -3.518  -1.532   0.530  1.00  0.00     0.018 A 
ATOM     12  C   UNL     1      -4.595  -1.742  -0.338  1.00  0.00     0.030 A 
ATOM     13  Br  UNL     1      -4.149  -2.834  -1.866  1.00  0.00    -0.050 Br
BRANCH   8  14
ATOM     14  S   UNL     1      -3.333   2.446   0.507  1.00  0.00     0.261 S 
ATOM     15  O   UNL     1      -2.982   2.738   1.882  1.00  0.00    -0.201 OA
ATOM     16  O   UNL     1      -4.231   3.320  -0.219  1.00  0.00    -0.201 OA
BRANCH  14  17
ATOM     17  N   UNL     1      -1.859   2.495  -0.374  1.00  0.00    -0.280 N 
ATOM     18  H   UNL     1      -1.602   3.336  -0.816  1.00  0.00     0.180 HD
BRANCH  17  19
ATOM     19  C   UNL     1      -0.983   1.360  -0.492  1.00  0.00     0.049 A 
ATOM     20  C   UNL     1       2.593   0.364   0.426  1.00  0.00     0.044 C 
ATOM     21  C   UNL     1       1.185   0.312  -0.095  1.00  0.00    -0.049 A 
ATOM     22  C   UNL     1       0.742  -0.837  -0.758  1.00  0.00     0.003 A 
ATOM     23  C   UNL     1       0.301   1.394   0.069  1.00  0.00     0.030 A 
ATOM     24  C   UNL     1      -0.516  -0.856  -1.356  1.00  0.00     0.002 A 
ATOM     25  C   UNL     1      -1.349   0.262  -1.270  1.00  0.00     0.027 A 
ENDBRANCH  17  19
ENDBRANCH  14  17
ENDBRANCH   8  14
ENDBRANCH   4   7
ENDBRANCH   2   3
ENDBRANCH   1   2
BRANCH   1  26
ATOM     26  C   UNL     1      -8.350  -5.224   1.082  1.00  0.00     0.118 C 
BRANCH  26  27
ATOM     27  N   UNL     1      -7.791  -6.534   0.719  1.00  0.00    -0.352 N 
ATOM     28  C   UNL     1      -8.361  -7.798   0.858  1.00  0.00     0.251 C 
ATOM     29  H   UNL     1      -6.890  -6.516   0.323  1.00  0.00     0.163 HD
ATOM     30  O   UNL     1      -7.780  -8.806   0.510  1.00  0.00    -0.269 OA
BRANCH  28  31
ATOM     31  C   UNL     1      -9.752  -7.871   1.362  1.00  0.00     0.039 A 
ATOM     32  C   UNL     1     -10.736  -8.368   0.500  1.00  0.00     0.014 A 
ATOM     33  C   UNL     1     -10.087  -7.116   2.475  1.00  0.00     0.014 A 
ATOM     34  C   UNL     1     -12.027  -7.859   0.595  1.00  0.00     0.010 A 
ATOM     35  C   UNL     1     -11.309  -6.484   2.456  1.00  0.00     0.010 A 
ATOM     36  C   UNL     1     -12.264  -6.814   1.482  1.00  0.00    -0.014 A 
BRANCH  36  37
ATOM     37  C   UNL     1     -13.414  -5.917   1.406  1.00  0.00     0.031 A 
ATOM     38  C   UNL     1     -14.331  -5.806   2.560  1.00  0.00     0.074 A 
ATOM     39  C   UNL     1     -13.550  -5.070   0.359  1.00  0.00     0.049 A 
ATOM     40  N   UNL     1     -15.466  -5.202   2.535  1.00  0.00    -0.248 NA
ATOM     41  C   UNL     1     -14.049  -6.423   3.851  1.00  0.00     0.031 C 
ATOM     42  C   UNL     1     -14.380  -3.868   0.292  1.00  0.00     0.029 A 
ATOM     43  N   UNL     1     -13.149  -5.285  -0.960  1.00  0.00    -0.354 N 
ATOM     44  C   UNL     1     -15.914  -5.082   3.829  1.00  0.00     0.074 A 
ATOM     45  C   UNL     1     -15.024  -5.911   4.602  1.00  0.00     0.031 C 
ATOM     46  C   UNL     1     -14.657  -3.602  -0.993  1.00  0.00     0.029 A 
ATOM     47  C   UNL     1     -14.148  -4.708  -1.778  1.00  0.00     0.049 A 
ATOM     48  H   UNL     1     -12.334  -5.747  -1.262  1.00  0.00     0.167 HD
ATOM     49  C   UNL     1     -16.915  -4.196   4.093  1.00  0.00     0.034 A 
ATOM     50  C   UNL     1     -14.890  -5.480  -2.625  1.00  0.00     0.034 A 
ATOM     51  C   UNL     1     -17.494  -3.662   2.854  1.00  0.00     0.049 A 
ATOM     52  C   UNL     1     -16.381  -5.474  -2.335  1.00  0.00     0.074 A 
ATOM     53  C   UNL     1     -17.430  -2.455   2.176  1.00  0.00     0.029 A 
ATOM     54  N   UNL     1     -18.086  -4.554   1.974  1.00  0.00    -0.354 N 
ATOM     55  N   UNL     1     -16.937  -4.879  -1.313  1.00  0.00    -0.248 NA
ATOM     56  C   UNL     1     -17.358  -6.208  -3.137  1.00  0.00     0.031 C 
ATOM     57  C   UNL     1     -17.999  -2.642   0.880  1.00  0.00     0.029 A 
ATOM     58  C   UNL     1     -18.428  -3.953   0.781  1.00  0.00     0.049 A 
ATOM     59  H   UNL     1     -18.244  -5.505   2.177  1.00  0.00     0.167 HD
ATOM     60  C   UNL     1     -18.277  -5.183  -1.265  1.00  0.00     0.074 A 
ATOM     61  C   UNL     1     -18.489  -6.021  -2.433  1.00  0.00     0.031 C 
ATOM     62  C   UNL     1     -19.085  -4.757  -0.243  1.00  0.00     0.034 A 
BRANCH  49  63
ATOM     63  C   UNL     1     -17.226  -3.635   5.466  1.00  0.00     0.023 A 
ATOM     64  C   UNL     1     -17.869  -2.382   5.554  1.00  0.00     0.031 A 
ATOM     65  C   UNL     1     -16.884  -4.214   6.704  1.00  0.00     0.131 A 
ATOM     66  C   UNL     1     -18.048  -1.728   6.788  1.00  0.00     0.055 A 
ATOM     67  C   UNL     1     -17.012  -3.543   7.928  1.00  0.00     0.041 A 
ATOM     68  F   UNL     1     -16.468  -5.479   6.811  1.00  0.00    -0.206 F 
ATOM     69  C   UNL     1     -17.586  -2.286   7.975  1.00  0.00     0.022 A 
BRANCH  66  70
ATOM     70  S   UNL     1     -18.899  -0.129   6.822  1.00  0.00     0.124 S 
ATOM     71  O   UNL     1     -18.037   0.696   5.982  1.00  0.00    -0.237 OA
ATOM     72  O   UNL     1     -20.208  -0.465   6.274  1.00  0.00    -0.237 OA
ATOM     73  O   UNL     1     -18.898   0.224   8.241  1.00  0.00    -0.744 OA
ENDBRANCH  66  70
ENDBRANCH  49  63
BRANCH  50  74
ATOM     74  C   UNL     1     -14.100  -6.620  -3.181  1.00  0.00     0.023 A 
ATOM     75  C   UNL     1     -12.915  -6.293  -3.879  1.00  0.00     0.031 A 
ATOM     76  C   UNL     1     -14.227  -7.924  -2.684  1.00  0.00     0.131 A 
ATOM     77  C   UNL     1     -11.835  -7.186  -3.891  1.00  0.00     0.055 A 
ATOM     78  C   UNL     1     -13.174  -8.844  -2.778  1.00  0.00     0.041 A 
ATOM     79  F   UNL     1     -15.308  -8.284  -1.976  1.00  0.00    -0.206 F 
ATOM     80  C   UNL     1     -11.954  -8.461  -3.339  1.00  0.00     0.022 A 
BRANCH  77  81
ATOM     81  S   UNL     1     -10.204  -6.540  -4.372  1.00  0.00     0.124 S 
ATOM     82  O   UNL     1     -10.336  -6.429  -5.820  1.00  0.00    -0.237 OA
ATOM     83  O   UNL     1     -10.141  -5.280  -3.633  1.00  0.00    -0.237 OA
ATOM     84  O   UNL     1      -9.275  -7.565  -3.902  1.00  0.00    -0.744 OA
ENDBRANCH  77  81
ENDBRANCH  50  74
BRANCH  62  85
ATOM     85  C   UNL     1     -20.560  -5.093  -0.079  1.00  0.00     0.023 A 
ATOM     86  C   UNL     1     -21.412  -5.369  -1.159  1.00  0.00     0.031 A 
ATOM     87  C   UNL     1     -21.184  -5.087   1.197  1.00  0.00     0.131 A 
ATOM     88  C   UNL     1     -22.764  -5.713  -0.951  1.00  0.00     0.055 A 
ATOM     89  C   UNL     1     -22.540  -5.361   1.394  1.00  0.00     0.041 A 
ATOM     90  F   UNL     1     -20.505  -4.843   2.325  1.00  0.00    -0.206 F 
ATOM     91  C   UNL     1     -23.338  -5.696   0.318  1.00  0.00     0.022 A 
BRANCH  88  92
ATOM     92  S   UNL     1     -23.756  -6.234  -2.374  1.00  0.00     0.124 S 
ATOM     93  O   UNL     1     -23.608  -5.110  -3.292  1.00  0.00    -0.237 OA
ATOM     94  O   UNL     1     -23.083  -7.469  -2.770  1.00  0.00    -0.237 OA
ATOM     95  O   UNL     1     -25.096  -6.411  -1.817  1.00  0.00    -0.744 OA
ENDBRANCH  88  92
ENDBRANCH  62  85
ENDBRANCH  36  37
ENDBRANCH  28  31
ENDBRANCH  26  27
ENDBRANCH   1  26
TORSDOF 16
