REMARK SMILES COc1cccc(NC(=O)c2nccnc2C(=O)NCCCNC(=O)c2ccc(-c3c4nc(c(-c5cc(S(=O)(=O)[O-])ccc5F)c5ccc([nH]5)c(-c5cc(S(=O)(=O)[O-])ccc5F)c5nc(c(-c6cc(S(=O)(=O)[O-])ccc6F)c6ccc3[nH]6)C=C5)C=C4)cc2)c1
REMARK SMILES IDX 21 1 20 2 19 3 17 4 18 5 16 7 11 8 12 9 13 10 15 11 14 12
REMARK SMILES IDX 9 13 8 14 10 16 7 17 3 18 4 19 89 20 5 21 6 22 2 23 1 24
REMARK SMILES IDX 22 25 23 26 24 27 25 29 26 30 27 31 88 32 28 33 87 34 29 35
REMARK SMILES IDX 30 36 31 37 81 38 32 39 86 40 80 41 82 42 33 43 85 44 79 45
REMARK SMILES IDX 78 46 34 48 66 49 46 50 65 51 47 52 50 53 64 54 83 55 48 56
REMARK SMILES IDX 49 57 63 59 84 60 51 61 35 62 36 63 44 64 37 65 43 66 45 67
REMARK SMILES IDX 42 68 38 69 39 70 40 71 41 72 67 73 68 74 76 75 69 76 75 77
REMARK SMILES IDX 77 78 74 79 70 80 71 81 72 82 73 83 52 84 53 85 61 86 54 87
REMARK SMILES IDX 60 88 62 89 59 90 55 91 56 92 57 93 58 94
REMARK H PARENT 19 6 8 15 23 28 82 47 50 58
REMARK Flexibility Score: inf
ROOT
ATOM      1  C   UNL     1       5.827  -3.955  -3.329  1.00  0.00     0.042 C 
ENDROOT
BRANCH   1   2
ATOM      2  C   UNL     1       5.321  -3.379  -4.634  1.00  0.00     0.118 C 
BRANCH   2   3
ATOM      3  N   UNL     1       5.518  -4.179  -5.814  1.00  0.00    -0.351 N 
ATOM      4  C   UNL     1       4.788  -4.257  -6.979  1.00  0.00     0.272 C 
ATOM      5  O   UNL     1       5.273  -4.978  -7.858  1.00  0.00    -0.267 OA
ATOM      6  H   UNL     1       6.305  -4.769  -5.784  1.00  0.00     0.163 HD
BRANCH   4   7
ATOM      7  C   UNL     1       3.444  -3.629  -7.242  1.00  0.00     0.159 A 
ATOM      8  C   UNL     1       2.969  -2.367  -6.900  1.00  0.00     0.159 A 
ATOM      9  N   UNL     1       1.763  -1.877  -7.354  1.00  0.00    -0.247 NA
ATOM     10  C   UNL     1       1.027  -2.708  -8.116  1.00  0.00     0.132 A 
ATOM     11  N   UNL     1       2.646  -4.457  -8.002  1.00  0.00    -0.247 NA
ATOM     12  C   UNL     1       1.453  -3.981  -8.418  1.00  0.00     0.132 A 
BRANCH   8  13
ATOM     13  C   UNL     1       3.660  -1.414  -6.023  1.00  0.00     0.276 C 
ATOM     14  N   UNL     1       3.170  -1.096  -4.758  1.00  0.00    -0.320 N 
ATOM     15  H   UNL     1       3.687  -0.388  -4.309  1.00  0.00     0.170 HD
ATOM     16  O   UNL     1       4.699  -0.895  -6.429  1.00  0.00    -0.267 OA
BRANCH  14  17
ATOM     17  C   UNL     1       2.083  -1.576  -3.977  1.00  0.00     0.045 A 
ATOM     18  C   UNL     1       0.863  -1.418  -1.861  1.00  0.00     0.120 A 
ATOM     19  C   UNL     1      -0.064  -2.349  -2.323  1.00  0.00     0.046 A 
ATOM     20  C   UNL     1       1.932  -1.035  -2.684  1.00  0.00     0.072 A 
ATOM     21  C   UNL     1       0.090  -2.919  -3.577  1.00  0.00     0.006 A 
ATOM     22  C   UNL     1       1.170  -2.551  -4.382  1.00  0.00     0.026 A 
BRANCH  18  23
ATOM     23  O   UNL     1       0.612  -0.983  -0.591  1.00  0.00    -0.497 OA
ATOM     24  C   UNL     1       1.305   0.173  -0.146  1.00  0.00     0.278 C 
ENDBRANCH  18  23
ENDBRANCH  14  17
ENDBRANCH   8  13
ENDBRANCH   4   7
ENDBRANCH   2   3
ENDBRANCH   1   2
BRANCH   1  25
ATOM     25  C   UNL     1       7.319  -4.221  -3.268  1.00  0.00     0.118 C 
BRANCH  25  26
ATOM     26  N   UNL     1       8.147  -3.027  -3.390  1.00  0.00    -0.352 N 
ATOM     27  C   UNL     1       8.852  -2.288  -2.467  1.00  0.00     0.251 C 
ATOM     28  H   UNL     1       8.216  -2.683  -4.310  1.00  0.00     0.163 HD
ATOM     29  O   UNL     1       9.389  -1.243  -2.836  1.00  0.00    -0.269 OA
BRANCH  27  30
ATOM     30  C   UNL     1       8.931  -2.685  -1.040  1.00  0.00     0.039 A 
ATOM     31  C   UNL     1       8.963  -1.689  -0.057  1.00  0.00     0.014 A 
ATOM     32  C   UNL     1       8.990  -4.020  -0.649  1.00  0.00     0.014 A 
ATOM     33  C   UNL     1       8.954  -2.039   1.298  1.00  0.00     0.010 A 
ATOM     34  C   UNL     1       8.829  -4.367   0.688  1.00  0.00     0.010 A 
ATOM     35  C   UNL     1       8.829  -3.383   1.684  1.00  0.00    -0.014 A 
BRANCH  35  36
ATOM     36  C   UNL     1       8.743  -3.789   3.115  1.00  0.00     0.031 A 
ATOM     37  C   UNL     1       9.751  -4.759   3.683  1.00  0.00     0.074 A 
ATOM     38  C   UNL     1       7.725  -3.347   3.881  1.00  0.00     0.049 A 
ATOM     39  N   UNL     1       9.792  -5.315   4.867  1.00  0.00    -0.248 NA
ATOM     40  C   UNL     1      10.830  -5.197   2.784  1.00  0.00     0.031 C 
ATOM     41  C   UNL     1       6.655  -2.451   3.433  1.00  0.00     0.029 A 
ATOM     42  N   UNL     1       7.418  -3.592   5.196  1.00  0.00    -0.354 N 
ATOM     43  C   UNL     1      10.880  -6.183   4.842  1.00  0.00     0.074 A 
ATOM     44  C   UNL     1      11.417  -6.142   3.501  1.00  0.00     0.031 C 
ATOM     45  C   UNL     1       5.838  -2.188   4.465  1.00  0.00     0.029 A 
ATOM     46  C   UNL     1       6.287  -2.938   5.633  1.00  0.00     0.049 A 
ATOM     47  H   UNL     1       7.955  -4.180   5.774  1.00  0.00     0.167 HD
ATOM     48  C   UNL     1      11.407  -6.919   5.852  1.00  0.00     0.034 A 
ATOM     49  C   UNL     1       5.677  -2.949   6.835  1.00  0.00     0.034 A 
ATOM     50  C   UNL     1      10.878  -6.922   7.193  1.00  0.00     0.049 A 
ATOM     51  C   UNL     1       6.274  -3.781   7.942  1.00  0.00     0.074 A 
ATOM     52  C   UNL     1      11.366  -7.575   8.311  1.00  0.00     0.029 A 
ATOM     53  N   UNL     1       9.738  -6.239   7.599  1.00  0.00    -0.354 N 
ATOM     54  N   UNL     1       7.338  -4.552   7.915  1.00  0.00    -0.248 NA
ATOM     55  C   UNL     1       5.596  -3.736   9.243  1.00  0.00     0.031 C 
ATOM     56  C   UNL     1      10.483  -7.347   9.371  1.00  0.00     0.029 A 
ATOM     57  C   UNL     1       9.490  -6.482   8.941  1.00  0.00     0.049 A 
ATOM     58  H   UNL     1       9.187  -5.666   7.018  1.00  0.00     0.167 HD
ATOM     59  C   UNL     1       7.472  -5.058   9.206  1.00  0.00     0.074 A 
ATOM     60  C   UNL     1       6.393  -4.488   9.987  1.00  0.00     0.031 C 
ATOM     61  C   UNL     1       8.403  -5.913   9.703  1.00  0.00     0.034 A 
BRANCH  48  62
ATOM     62  C   UNL     1      12.604  -7.786   5.533  1.00  0.00     0.023 A 
ATOM     63  C   UNL     1      13.815  -7.236   5.073  1.00  0.00     0.031 A 
ATOM     64  C   UNL     1      12.526  -9.184   5.658  1.00  0.00     0.131 A 
ATOM     65  C   UNL     1      14.862  -8.079   4.673  1.00  0.00     0.055 A 
ATOM     66  C   UNL     1      13.606 -10.014   5.346  1.00  0.00     0.041 A 
ATOM     67  F   UNL     1      11.393  -9.772   6.071  1.00  0.00    -0.206 F 
ATOM     68  C   UNL     1      14.777  -9.464   4.833  1.00  0.00     0.022 A 
BRANCH  65  69
ATOM     69  S   UNL     1      16.271  -7.350   3.795  1.00  0.00     0.124 S 
ATOM     70  O   UNL     1      15.614  -6.741   2.640  1.00  0.00    -0.237 OA
ATOM     71  O   UNL     1      16.814  -6.425   4.782  1.00  0.00    -0.237 OA
ATOM     72  O   UNL     1      17.116  -8.501   3.485  1.00  0.00    -0.744 OA
ENDBRANCH  65  69
ENDBRANCH  48  62
BRANCH  49  73
ATOM     73  C   UNL     1       4.435  -2.153   7.064  1.00  0.00     0.023 A 
ATOM     74  C   UNL     1       4.410  -1.102   7.995  1.00  0.00     0.031 A 
ATOM     75  C   UNL     1       3.240  -2.459   6.387  1.00  0.00     0.131 A 
ATOM     76  C   UNL     1       3.207  -0.429   8.261  1.00  0.00     0.055 A 
ATOM     77  C   UNL     1       2.060  -1.748   6.613  1.00  0.00     0.041 A 
ATOM     78  F   UNL     1       3.207  -3.451   5.483  1.00  0.00    -0.206 F 
ATOM     79  C   UNL     1       2.035  -0.735   7.566  1.00  0.00     0.022 A 
BRANCH  76  80
ATOM     80  S   UNL     1       3.174   0.794   9.600  1.00  0.00     0.124 S 
ATOM     81  O   UNL     1       3.611  -0.002  10.741  1.00  0.00    -0.237 OA
ATOM     82  O   UNL     1       4.118   1.797   9.117  1.00  0.00    -0.237 OA
ATOM     83  O   UNL     1       1.777   1.223   9.635  1.00  0.00    -0.744 OA
ENDBRANCH  76  80
ENDBRANCH  49  73
BRANCH  61  84
ATOM     84  C   UNL     1       8.315  -6.244  11.172  1.00  0.00     0.023 A 
ATOM     85  C   UNL     1       7.231  -6.962  11.706  1.00  0.00     0.031 A 
ATOM     86  C   UNL     1       9.328  -5.826  12.053  1.00  0.00     0.131 A 
ATOM     87  C   UNL     1       7.154  -7.186  13.088  1.00  0.00     0.055 A 
ATOM     88  C   UNL     1       9.281  -6.112  13.418  1.00  0.00     0.041 A 
ATOM     89  F   UNL     1      10.386  -5.134  11.599  1.00  0.00    -0.206 F 
ATOM     90  C   UNL     1       8.182  -6.783  13.945  1.00  0.00     0.022 A 
BRANCH  87  91
ATOM     91  S   UNL     1       5.641  -7.921  13.767  1.00  0.00     0.124 S 
ATOM     92  O   UNL     1       4.621  -6.975  13.326  1.00  0.00    -0.237 OA
ATOM     93  O   UNL     1       5.615  -9.231  13.126  1.00  0.00    -0.237 OA
ATOM     94  O   UNL     1       5.887  -7.942  15.208  1.00  0.00    -0.744 OA
ENDBRANCH  87  91
ENDBRANCH  61  84
ENDBRANCH  35  36
ENDBRANCH  27  30
ENDBRANCH  25  26
ENDBRANCH   1  25
TORSDOF 16
