REMARK SMILES N#C[C@H]1CN(c2cc(C(=O)NCCCNC(=O)c3ccc(-c4c5nc(c(-c6cc(S(=O)(=O)[O-])ccc6F)c6ccc([nH]6)c(-c6cc(S(=O)(=O)[O-])ccc6F)c6nc(c(-c7cc(S(=O)(=O)[O-])ccc7F)c7ccc4[nH]7)C=C6)C=C5)cc3)c(N)cc2F)CCO1
REMARK SMILES IDX 13 1 12 2 11 3 9 4 10 5 8 7 6 8 7 9 84 10 83 11 85 12 81 13
REMARK SMILES IDX 5 14 3 15 4 16 88 17 87 18 86 19 2 20 1 21 82 22 14 25 15 26
REMARK SMILES IDX 16 27 17 29 18 30 19 31 80 32 20 33 79 34 21 35 22 36 23 37
REMARK SMILES IDX 73 38 24 39 78 40 72 41 74 42 25 43 77 44 71 45 70 46 26 48
REMARK SMILES IDX 58 49 38 50 57 51 39 52 42 53 56 54 75 55 40 56 41 57 55 59
REMARK SMILES IDX 76 60 43 61 27 62 28 63 36 64 29 65 35 66 37 67 34 68 30 69
REMARK SMILES IDX 31 70 32 71 33 72 59 73 60 74 68 75 61 76 67 77 69 78 66 79
REMARK SMILES IDX 62 80 63 81 64 82 65 83 44 84 45 85 53 86 46 87 52 88 54 89
REMARK SMILES IDX 51 90 47 91 48 92 49 93 50 94
REMARK H PARENT 11 6 82 23 82 24 15 28 74 47 42 58
REMARK Flexibility Score: inf
ROOT
ATOM      1  C   UNL     1       0.427   6.818  -5.996  1.00  0.00     0.042 C 
ENDROOT
BRANCH   1   2
ATOM      2  C   UNL     1       1.222   5.551  -6.223  1.00  0.00     0.118 C 
BRANCH   2   3
ATOM      3  N   UNL     1       2.607   5.581  -5.792  1.00  0.00    -0.352 N 
ATOM      4  C   UNL     1       3.396   4.585  -5.258  1.00  0.00     0.253 C 
ATOM      5  O   UNL     1       4.579   4.855  -5.039  1.00  0.00    -0.269 OA
ATOM      6  H   UNL     1       3.055   6.451  -5.899  1.00  0.00     0.163 HD
BRANCH   4   7
ATOM      7  C   UNL     1       2.873   3.239  -4.859  1.00  0.00     0.065 A 
ATOM      8  C   UNL     1       3.142   1.395  -3.259  1.00  0.00     0.074 A 
ATOM      9  C   UNL     1       3.514   2.654  -3.740  1.00  0.00     0.045 A 
ATOM     10  C   UNL     1       1.983   0.827  -3.800  1.00  0.00     0.148 A 
ATOM     11  C   UNL     1       1.346   1.374  -4.903  1.00  0.00     0.067 A 
ATOM     12  F   UNL     1       1.505  -0.324  -3.300  1.00  0.00    -0.205 F 
ATOM     13  C   UNL     1       1.865   2.512  -5.522  1.00  0.00     0.047 A 
BRANCH   8  14
ATOM     14  N   UNL     1       3.949   0.701  -2.385  1.00  0.00    -0.363 N 
ATOM     15  C   UNL     1       3.780   0.116   0.001  1.00  0.00     0.240 C 
ATOM     16  C   UNL     1       4.276   1.162  -1.033  1.00  0.00     0.164 C 
ATOM     17  O   UNL     1       4.265  -1.215  -0.320  1.00  0.00    -0.360 OA
ATOM     18  C   UNL     1       3.814  -1.623  -1.623  1.00  0.00     0.183 C 
ATOM     19  C   UNL     1       4.340  -0.677  -2.706  1.00  0.00     0.145 C 
BRANCH  15  20
ATOM     20  C   UNL     1       4.239   0.494   1.351  1.00  0.00     0.096 C 
ATOM     21  N   UNL     1       4.598   0.799   2.410  1.00  0.00    -0.195 NA
ENDBRANCH  15  20
ENDBRANCH   8  14
BRANCH  13  22
ATOM     22  N   UNL     1       1.411   2.785  -6.805  1.00  0.00    -0.398 N 
ATOM     23  H   UNL     1       1.745   3.575  -7.287  1.00  0.00     0.156 HD
ATOM     24  H   UNL     1       0.755   2.188  -7.232  1.00  0.00     0.156 HD
ENDBRANCH  13  22
ENDBRANCH   4   7
ENDBRANCH   2   3
ENDBRANCH   1   2
BRANCH   1  25
ATOM     25  C   UNL     1       0.957   8.054  -6.698  1.00  0.00     0.118 C 
BRANCH  25  26
ATOM     26  N   UNL     1       0.960   7.956  -8.153  1.00  0.00    -0.352 N 
ATOM     27  C   UNL     1       0.182   8.571  -9.109  1.00  0.00     0.251 C 
ATOM     28  H   UNL     1       1.639   7.342  -8.517  1.00  0.00     0.163 HD
ATOM     29  O   UNL     1       0.289   8.215 -10.281  1.00  0.00    -0.269 OA
BRANCH  27  30
ATOM     30  C   UNL     1      -0.809   9.609  -8.737  1.00  0.00     0.039 A 
ATOM     31  C   UNL     1      -2.038   9.645  -9.401  1.00  0.00     0.014 A 
ATOM     32  C   UNL     1      -0.547  10.539  -7.732  1.00  0.00     0.014 A 
ATOM     33  C   UNL     1      -3.028  10.539  -8.981  1.00  0.00     0.010 A 
ATOM     34  C   UNL     1      -1.576  11.323  -7.223  1.00  0.00     0.010 A 
ATOM     35  C   UNL     1      -2.830  11.341  -7.845  1.00  0.00    -0.014 A 
BRANCH  35  36
ATOM     36  C   UNL     1      -3.917  12.200  -7.302  1.00  0.00     0.031 A 
ATOM     37  C   UNL     1      -3.719  13.689  -7.172  1.00  0.00     0.074 A 
ATOM     38  C   UNL     1      -5.066  11.632  -6.881  1.00  0.00     0.049 A 
ATOM     39  N   UNL     1      -4.536  14.592  -6.694  1.00  0.00    -0.248 NA
ATOM     40  C   UNL     1      -2.421  14.229  -7.607  1.00  0.00     0.031 C 
ATOM     41  C   UNL     1      -5.356  10.195  -6.903  1.00  0.00     0.029 A 
ATOM     42  N   UNL     1      -6.207  12.187  -6.356  1.00  0.00    -0.354 N 
ATOM     43  C   UNL     1      -3.850  15.800  -6.763  1.00  0.00     0.074 A 
ATOM     44  C   UNL     1      -2.523  15.501  -7.254  1.00  0.00     0.031 C 
ATOM     45  C   UNL     1      -6.607   9.990  -6.467  1.00  0.00     0.029 A 
ATOM     46  C   UNL     1      -7.191  11.267  -6.071  1.00  0.00     0.049 A 
ATOM     47  H   UNL     1      -6.312  13.153  -6.198  1.00  0.00     0.167 HD
ATOM     48  C   UNL     1      -4.295  17.048  -6.474  1.00  0.00     0.034 A 
ATOM     49  C   UNL     1      -8.420  11.429  -5.541  1.00  0.00     0.034 A 
ATOM     50  C   UNL     1      -5.624  17.330  -5.990  1.00  0.00     0.049 A 
ATOM     51  C   UNL     1      -8.876  12.822  -5.189  1.00  0.00     0.074 A 
ATOM     52  C   UNL     1      -6.197  18.559  -5.717  1.00  0.00     0.029 A 
ATOM     53  N   UNL     1      -6.584  16.370  -5.693  1.00  0.00    -0.354 N 
ATOM     54  N   UNL     1      -8.235  13.961  -5.324  1.00  0.00    -0.248 NA
ATOM     55  C   UNL     1     -10.224  12.953  -4.623  1.00  0.00     0.031 C 
ATOM     56  C   UNL     1      -7.463  18.339  -5.168  1.00  0.00     0.029 A 
ATOM     57  C   UNL     1      -7.726  16.979  -5.195  1.00  0.00     0.049 A 
ATOM     58  H   UNL     1      -6.469  15.400  -5.816  1.00  0.00     0.167 HD
ATOM     59  C   UNL     1      -9.117  14.946  -4.887  1.00  0.00     0.074 A 
ATOM     60  C   UNL     1     -10.340  14.267  -4.510  1.00  0.00     0.031 C 
ATOM     61  C   UNL     1      -8.935  16.290  -4.806  1.00  0.00     0.034 A 
BRANCH  48  62
ATOM     62  C   UNL     1      -3.325  18.195  -6.650  1.00  0.00     0.023 A 
ATOM     63  C   UNL     1      -2.765  18.507  -7.902  1.00  0.00     0.031 A 
ATOM     64  C   UNL     1      -2.941  18.978  -5.547  1.00  0.00     0.131 A 
ATOM     65  C   UNL     1      -1.798  19.519  -8.006  1.00  0.00     0.055 A 
ATOM     66  C   UNL     1      -2.047  20.044  -5.675  1.00  0.00     0.041 A 
ATOM     67  F   UNL     1      -3.418  18.713  -4.321  1.00  0.00    -0.206 F 
ATOM     68  C   UNL     1      -1.458  20.310  -6.907  1.00  0.00     0.022 A 
BRANCH  65  69
ATOM     69  S   UNL     1      -0.877  19.678  -9.560  1.00  0.00     0.124 S 
ATOM     70  O   UNL     1      -0.294  18.345  -9.695  1.00  0.00    -0.237 OA
ATOM     71  O   UNL     1      -1.926  20.016 -10.515  1.00  0.00    -0.237 OA
ATOM     72  O   UNL     1       0.083  20.744  -9.282  1.00  0.00    -0.744 OA
ENDBRANCH  65  69
ENDBRANCH  48  62
BRANCH  49  73
ATOM     73  C   UNL     1      -9.303  10.250  -5.295  1.00  0.00     0.023 A 
ATOM     74  C   UNL     1     -10.547  10.128  -5.934  1.00  0.00     0.031 A 
ATOM     75  C   UNL     1      -8.938   9.251  -4.374  1.00  0.00     0.131 A 
ATOM     76  C   UNL     1     -11.403   9.064  -5.604  1.00  0.00     0.055 A 
ATOM     77  C   UNL     1      -9.763   8.159  -4.100  1.00  0.00     0.041 A 
ATOM     78  F   UNL     1      -7.761   9.317  -3.731  1.00  0.00    -0.206 F 
ATOM     79  C   UNL     1     -11.011   8.069  -4.706  1.00  0.00     0.022 A 
BRANCH  76  80
ATOM     80  S   UNL     1     -13.085   9.060  -6.284  1.00  0.00     0.124 S 
ATOM     81  O   UNL     1     -13.598  10.340  -5.811  1.00  0.00    -0.237 OA
ATOM     82  O   UNL     1     -12.832   8.958  -7.717  1.00  0.00    -0.237 OA
ATOM     83  O   UNL     1     -13.694   7.879  -5.675  1.00  0.00    -0.744 OA
ENDBRANCH  76  80
ENDBRANCH  49  73
BRANCH  61  84
ATOM     84  C   UNL     1     -10.106  17.115  -4.327  1.00  0.00     0.023 A 
ATOM     85  C   UNL     1     -10.630  16.975  -3.031  1.00  0.00     0.031 A 
ATOM     86  C   UNL     1     -10.720  18.042  -5.189  1.00  0.00     0.131 A 
ATOM     87  C   UNL     1     -11.777  17.692  -2.659  1.00  0.00     0.055 A 
ATOM     88  C   UNL     1     -11.811  18.813  -4.786  1.00  0.00     0.041 A 
ATOM     89  F   UNL     1     -10.268  18.215  -6.442  1.00  0.00    -0.206 F 
ATOM     90  C   UNL     1     -12.357  18.627  -3.520  1.00  0.00     0.022 A 
BRANCH  87  91
ATOM     91  S   UNL     1     -12.579  17.288  -1.083  1.00  0.00     0.124 S 
ATOM     92  O   UNL     1     -12.847  15.862  -1.238  1.00  0.00    -0.237 OA
ATOM     93  O   UNL     1     -11.550  17.642  -0.110  1.00  0.00    -0.237 OA
ATOM     94  O   UNL     1     -13.763  18.145  -1.072  1.00  0.00    -0.744 OA
ENDBRANCH  87  91
ENDBRANCH  61  84
ENDBRANCH  35  36
ENDBRANCH  27  30
ENDBRANCH  25  26
ENDBRANCH   1  25
TORSDOF 16
