REMARK SMILES [NH3+][C@H]1CN(C(=O)OCC2c3ccccc3-c3ccccc32)C[C@@H]1C(=O)NCCCNC(=O)c1ccc(-c2c3nc(c(-c4cc(S(=O)(=O)[O-])ccc4F)c4ccc([nH]4)c(-c4cc(S(=O)(=O)[O-])ccc4F)c4nc(c(-c5cc(S(=O)(=O)[O-])ccc5F)c5ccc2[nH]5)C=C4)C=C3)cc1
REMARK SMILES IDX 27 1 26 2 24 3 25 4 23 6 2 7 3 8 4 9 22 10 1 11 5 15 6 16
REMARK SMILES IDX 7 17 8 18 9 19 10 20 21 21 11 22 15 23 16 24 20 25 12 26
REMARK SMILES IDX 14 27 17 28 19 29 13 30 18 31 28 32 29 33 30 34 31 35 32 37
REMARK SMILES IDX 33 38 34 39 95 40 35 41 94 42 36 43 37 44 38 45 88 46 39 47
REMARK SMILES IDX 93 48 87 49 89 50 40 51 92 52 86 53 85 54 41 56 73 57 53 58
REMARK SMILES IDX 72 59 54 60 57 61 71 62 90 63 55 64 56 65 70 67 91 68 58 69
REMARK SMILES IDX 42 70 43 71 51 72 44 73 50 74 52 75 49 76 45 77 46 78 47 79
REMARK SMILES IDX 48 80 74 81 75 82 83 83 76 84 82 85 84 86 81 87 77 88 78 89
REMARK SMILES IDX 79 90 80 91 59 92 60 93 68 94 61 95 67 96 69 97 66 98 62 99
REMARK SMILES IDX 63 100 64 101 65 102
REMARK H PARENT 26 5 1 12 1 13 1 14 30 36 89 55 57 66
REMARK Flexibility Score: inf
ROOT
ATOM      1  C   UNL     1       3.586  -2.080   0.681  1.00  0.00     0.117 C 
ENDROOT
BRANCH   1   2
ATOM      2  N   UNL     1       2.902  -2.149  -0.593  1.00  0.00    -0.356 N 
ATOM      3  C   UNL     1       1.591  -2.105  -0.934  1.00  0.00     0.231 C 
ATOM      4  O   UNL     1       1.354  -2.069  -2.149  1.00  0.00    -0.274 OA
ATOM      5  H   UNL     1       3.508  -2.248  -1.363  1.00  0.00     0.163 HD
BRANCH   3   6
ATOM      6  C   UNL     1       0.414  -2.104   0.040  1.00  0.00     0.158 C 
ATOM      7  C   UNL     1       0.256  -0.877   0.954  1.00  0.00     0.215 C 
ATOM      8  C   UNL     1       0.654  -1.363   2.371  1.00  0.00     0.188 C 
ATOM      9  N   UNL     1       0.767  -2.805   2.263  1.00  0.00    -0.301 N 
ATOM     10  C   UNL     1       0.365  -3.299   0.964  1.00  0.00     0.143 C 
BRANCH   7  11
ATOM     11  N   UNL     1      -1.146  -0.410   0.970  1.00  0.00    -0.353 N 
ATOM     12  H   UNL     1      -1.227   0.402   1.581  1.00  0.00     0.344 HD
ATOM     13  H   UNL     1      -1.749  -1.157   1.315  1.00  0.00     0.344 HD
ATOM     14  H   UNL     1      -1.430  -0.154   0.024  1.00  0.00     0.344 HD
ENDBRANCH   7  11
BRANCH   9  15
ATOM     15  C   UNL     1       1.254  -3.688   3.185  1.00  0.00     0.410 C 
ATOM     16  O   UNL     1       1.162  -4.893   3.003  1.00  0.00    -0.224 OA
BRANCH  15  17
ATOM     17  O   UNL     1       1.924  -3.114   4.218  1.00  0.00    -0.448 OA
BRANCH  17  18
ATOM     18  C   UNL     1       2.825  -4.008   4.941  1.00  0.00     0.248 C 
BRANCH  18  19
ATOM     19  C   UNL     1       2.096  -5.080   5.770  1.00  0.00     0.088 C 
ATOM     20  C   UNL     1       2.445  -6.537   5.436  1.00  0.00    -0.029 A 
ATOM     21  C   UNL     1       2.387  -5.044   7.273  1.00  0.00    -0.029 A 
ATOM     22  C   UNL     1       2.539  -7.177   4.207  1.00  0.00     0.005 A 
ATOM     23  C   UNL     1       2.642  -7.268   6.626  1.00  0.00    -0.014 A 
ATOM     24  C   UNL     1       2.634  -6.354   7.745  1.00  0.00    -0.014 A 
ATOM     25  C   UNL     1       2.405  -3.963   8.142  1.00  0.00     0.005 A 
ATOM     26  C   UNL     1       2.758  -8.554   4.171  1.00  0.00     0.000 A 
ATOM     27  C   UNL     1       2.852  -8.639   6.595  1.00  0.00     0.009 A 
ATOM     28  C   UNL     1       2.889  -6.593   9.085  1.00  0.00     0.009 A 
ATOM     29  C   UNL     1       2.681  -4.203   9.492  1.00  0.00     0.000 A 
ATOM     30  C   UNL     1       2.893  -9.283   5.357  1.00  0.00     0.001 A 
ATOM     31  C   UNL     1       2.913  -5.506   9.961  1.00  0.00     0.001 A 
ENDBRANCH  18  19
ENDBRANCH  17  18
ENDBRANCH  15  17
ENDBRANCH   9  15
ENDBRANCH   3   6
ENDBRANCH   1   2
BRANCH   1  32
ATOM     32  C   UNL     1       4.161  -3.416   1.135  1.00  0.00     0.042 C 
BRANCH  32  33
ATOM     33  C   UNL     1       5.590  -3.656   0.657  1.00  0.00     0.118 C 
BRANCH  33  34
ATOM     34  N   UNL     1       6.529  -2.704   1.244  1.00  0.00    -0.352 N 
ATOM     35  C   UNL     1       7.540  -2.872   2.158  1.00  0.00     0.251 C 
ATOM     36  H   UNL     1       6.417  -1.778   0.930  1.00  0.00     0.163 HD
ATOM     37  O   UNL     1       8.017  -1.873   2.694  1.00  0.00    -0.269 OA
BRANCH  35  38
ATOM     38  C   UNL     1       8.054  -4.216   2.507  1.00  0.00     0.039 A 
ATOM     39  C   UNL     1       8.501  -4.454   3.812  1.00  0.00     0.014 A 
ATOM     40  C   UNL     1       8.162  -5.226   1.549  1.00  0.00     0.014 A 
ATOM     41  C   UNL     1       8.994  -5.714   4.166  1.00  0.00     0.010 A 
ATOM     42  C   UNL     1       8.566  -6.505   1.923  1.00  0.00     0.010 A 
ATOM     43  C   UNL     1       8.997  -6.762   3.233  1.00  0.00    -0.014 A 
BRANCH  43  44
ATOM     44  C   UNL     1       9.466  -8.127   3.590  1.00  0.00     0.031 A 
ATOM     45  C   UNL     1      10.644  -8.730   2.869  1.00  0.00     0.074 A 
ATOM     46  C   UNL     1       8.783  -8.851   4.499  1.00  0.00     0.049 A 
ATOM     47  N   UNL     1      11.124  -9.946   2.932  1.00  0.00    -0.248 NA
ATOM     48  C   UNL     1      11.347  -7.859   1.915  1.00  0.00     0.031 C 
ATOM     49  C   UNL     1       7.596  -8.394   5.227  1.00  0.00     0.029 A 
ATOM     50  N   UNL     1       8.979 -10.130   4.957  1.00  0.00    -0.354 N 
ATOM     51  C   UNL     1      12.162  -9.994   2.005  1.00  0.00     0.074 A 
ATOM     52  C   UNL     1      12.200  -8.702   1.355  1.00  0.00     0.031 C 
ATOM     53  C   UNL     1       7.186  -9.368   6.056  1.00  0.00     0.029 A 
ATOM     54  C   UNL     1       8.048 -10.533   5.887  1.00  0.00     0.049 A 
ATOM     55  H   UNL     1       9.716 -10.705   4.649  1.00  0.00     0.167 HD
ATOM     56  C   UNL     1      13.015 -11.015   1.737  1.00  0.00     0.034 A 
ATOM     57  C   UNL     1       7.898 -11.713   6.519  1.00  0.00     0.034 A 
ATOM     58  C   UNL     1      12.981 -12.285   2.421  1.00  0.00     0.049 A 
ATOM     59  C   UNL     1       8.869 -12.826   6.219  1.00  0.00     0.074 A 
ATOM     60  C   UNL     1      13.832 -13.366   2.278  1.00  0.00     0.029 A 
ATOM     61  N   UNL     1      12.043 -12.644   3.382  1.00  0.00    -0.354 N 
ATOM     62  N   UNL     1       9.869 -12.844   5.367  1.00  0.00    -0.248 NA
ATOM     63  C   UNL     1       8.696 -14.075   6.971  1.00  0.00     0.031 C 
ATOM     64  C   UNL     1      13.377 -14.397   3.109  1.00  0.00     0.029 A 
ATOM     65  C   UNL     1      12.283 -13.936   3.823  1.00  0.00     0.049 A 
ATOM     66  H   UNL     1      11.314 -12.065   3.703  1.00  0.00     0.167 HD
ATOM     67  C   UNL     1      10.459 -14.097   5.502  1.00  0.00     0.074 A 
ATOM     68  C   UNL     1       9.714 -14.798   6.527  1.00  0.00     0.031 C 
ATOM     69  C   UNL     1      11.521 -14.622   4.840  1.00  0.00     0.034 A 
BRANCH  56  70
ATOM     70  C   UNL     1      14.036 -10.800   0.643  1.00  0.00     0.023 A 
ATOM     71  C   UNL     1      15.023  -9.803   0.738  1.00  0.00     0.031 A 
ATOM     72  C   UNL     1      14.004 -11.582  -0.526  1.00  0.00     0.131 A 
ATOM     73  C   UNL     1      15.880  -9.558  -0.347  1.00  0.00     0.055 A 
ATOM     74  C   UNL     1      14.916 -11.390  -1.567  1.00  0.00     0.041 A 
ATOM     75  F   UNL     1      13.075 -12.538  -0.684  1.00  0.00    -0.206 F 
ATOM     76  C   UNL     1      15.850 -10.361  -1.488  1.00  0.00     0.022 A 
BRANCH  73  77
ATOM     77  S   UNL     1      16.931  -8.080  -0.302  1.00  0.00     0.124 S 
ATOM     78  O   UNL     1      15.936  -7.016  -0.189  1.00  0.00    -0.237 OA
ATOM     79  O   UNL     1      17.754  -8.314   0.878  1.00  0.00    -0.237 OA
ATOM     80  O   UNL     1      17.641  -8.126  -1.578  1.00  0.00    -0.744 OA
ENDBRANCH  73  77
ENDBRANCH  56  70
BRANCH  57  81
ATOM     81  C   UNL     1       6.788 -11.914   7.492  1.00  0.00     0.023 A 
ATOM     82  C   UNL     1       7.051 -12.117   8.856  1.00  0.00     0.031 A 
ATOM     83  C   UNL     1       5.449 -11.943   7.067  1.00  0.00     0.131 A 
ATOM     84  C   UNL     1       5.995 -12.384   9.740  1.00  0.00     0.055 A 
ATOM     85  C   UNL     1       4.396 -12.156   7.960  1.00  0.00     0.041 A 
ATOM     86  F   UNL     1       5.143 -11.758   5.773  1.00  0.00    -0.206 F 
ATOM     87  C   UNL     1       4.668 -12.390   9.304  1.00  0.00     0.022 A 
BRANCH  84  88
ATOM     88  S   UNL     1       6.388 -12.809  11.459  1.00  0.00     0.124 S 
ATOM     89  O   UNL     1       7.246 -13.976  11.288  1.00  0.00    -0.237 OA
ATOM     90  O   UNL     1       7.042 -11.593  11.929  1.00  0.00    -0.237 OA
ATOM     91  O   UNL     1       5.078 -13.077  12.050  1.00  0.00    -0.744 OA
ENDBRANCH  84  88
ENDBRANCH  57  81
BRANCH  69  92
ATOM     92  C   UNL     1      11.959 -16.007   5.244  1.00  0.00     0.023 A 
ATOM     93  C   UNL     1      11.162 -17.137   4.989  1.00  0.00     0.031 A 
ATOM     94  C   UNL     1      13.185 -16.195   5.907  1.00  0.00     0.131 A 
ATOM     95  C   UNL     1      11.576 -18.398   5.444  1.00  0.00     0.055 A 
ATOM     96  C   UNL     1      13.617 -17.460   6.305  1.00  0.00     0.041 A 
ATOM     97  F   UNL     1      13.983 -15.149   6.175  1.00  0.00    -0.206 F 
ATOM     98  C   UNL     1      12.805 -18.569   6.086  1.00  0.00     0.022 A 
BRANCH  95  99
ATOM     99  S   UNL     1      10.444 -19.803   5.262  1.00  0.00     0.124 S 
ATOM    100  O   UNL     1       9.274 -19.349   6.007  1.00  0.00    -0.237 OA
ATOM    101  O   UNL     1      10.283 -19.890   3.814  1.00  0.00    -0.237 OA
ATOM    102  O   UNL     1      11.174 -20.914   5.871  1.00  0.00    -0.744 OA
ENDBRANCH  95  99
ENDBRANCH  69  92
ENDBRANCH  43  44
ENDBRANCH  35  38
ENDBRANCH  33  34
ENDBRANCH  32  33
ENDBRANCH   1  32
TORSDOF 18
