REMARK SMILES O=C(C[C@H]1C[C@H]2CC[C@@H](C1)N2C(=O)[C@H]1CCCCO1)NCCCNC(=O)c1ccc(-c2c3nc(c(-c4cc(S(=O)(=O)[O-])ccc4F)c4ccc([nH]4)c(-c4cc(S(=O)(=O)[O-])ccc4F)c4nc(c(-c5cc(S(=O)(=O)[O-])ccc5F)c5ccc2[nH]5)C=C4)C=C3)cc1
REMARK SMILES IDX 22 1 21 2 20 3 1 4 2 5 3 7 4 8 5 9 10 10 6 11 9 12 7 13
REMARK SMILES IDX 11 14 8 15 12 16 13 17 14 18 15 19 19 20 16 21 18 22 17 23
REMARK SMILES IDX 23 24 24 25 25 26 26 28 27 29 28 30 89 31 29 32 88 33 30 34
REMARK SMILES IDX 31 35 32 36 82 37 33 38 87 39 81 40 83 41 34 42 86 43 80 44
REMARK SMILES IDX 79 45 35 47 67 48 47 49 66 50 48 51 51 52 65 53 84 54 49 55
REMARK SMILES IDX 50 56 64 58 85 59 52 60 36 61 37 62 45 63 38 64 44 65 46 66
REMARK SMILES IDX 43 67 39 68 40 69 41 70 42 71 68 72 69 73 77 74 70 75 76 76
REMARK SMILES IDX 78 77 75 78 71 79 72 80 73 81 74 82 53 83 54 84 62 85 55 86
REMARK SMILES IDX 61 87 63 88 60 89 56 90 57 91 58 92 59 93
REMARK H PARENT 20 6 24 27 83 46 51 57
REMARK Flexibility Score: inf
ROOT
ATOM      1  C   UNL     1      12.483   0.880  -7.967  1.00  0.00     0.042 C 
ENDROOT
BRANCH   1   2
ATOM      2  C   UNL     1      12.845  -0.588  -7.722  1.00  0.00     0.117 C 
BRANCH   2   3
ATOM      3  N   UNL     1      11.781  -1.290  -7.035  1.00  0.00    -0.356 N 
ATOM      4  O   UNL     1      11.702  -3.218  -8.265  1.00  0.00    -0.275 OA
ATOM      5  C   UNL     1      11.293  -2.541  -7.327  1.00  0.00     0.220 C 
ATOM      6  H   UNL     1      11.363  -0.821  -6.277  1.00  0.00     0.163 HD
BRANCH   5   7
ATOM      7  C   UNL     1      10.102  -2.995  -6.460  1.00  0.00     0.103 C 
BRANCH   7   8
ATOM      8  C   UNL     1      10.318  -3.221  -4.940  1.00  0.00     0.002 C 
ATOM      9  C   UNL     1      11.251  -2.227  -4.236  1.00  0.00     0.029 C 
ATOM     10  C   UNL     1       8.975  -3.321  -4.124  1.00  0.00     0.029 C 
ATOM     11  C   UNL     1      10.529  -0.936  -3.810  1.00  0.00     0.085 C 
ATOM     12  C   UNL     1       8.494  -1.993  -3.449  1.00  0.00     0.085 C 
ATOM     13  C   UNL     1       9.522  -0.277  -4.777  1.00  0.00     0.027 C 
ATOM     14  N   UNL     1       9.625  -1.371  -2.773  1.00  0.00    -0.334 N 
ATOM     15  C   UNL     1       8.167  -0.943  -4.501  1.00  0.00     0.027 C 
BRANCH  14  16
ATOM     16  C   UNL     1       9.946  -1.162  -1.453  1.00  0.00     0.252 C 
ATOM     17  O   UNL     1      11.077  -0.772  -1.150  1.00  0.00    -0.272 OA
BRANCH  16  18
ATOM     18  C   UNL     1       8.857  -1.375  -0.396  1.00  0.00     0.207 C 
ATOM     19  C   UNL     1       8.603  -2.863  -0.170  1.00  0.00     0.042 C 
ATOM     20  O   UNL     1       9.303  -0.766   0.823  1.00  0.00    -0.368 OA
ATOM     21  C   UNL     1       7.620  -3.064   0.978  1.00  0.00     0.006 C 
ATOM     22  C   UNL     1       8.374  -0.864   1.891  1.00  0.00     0.161 C 
ATOM     23  C   UNL     1       8.101  -2.324   2.219  1.00  0.00     0.029 C 
ENDBRANCH  16  18
ENDBRANCH  14  16
ENDBRANCH   7   8
ENDBRANCH   5   7
ENDBRANCH   2   3
ENDBRANCH   1   2
BRANCH   1  24
ATOM     24  C   UNL     1      12.124   1.728  -6.740  1.00  0.00     0.118 C 
BRANCH  24  25
ATOM     25  N   UNL     1      13.185   1.859  -5.760  1.00  0.00    -0.352 N 
ATOM     26  C   UNL     1      13.652   2.980  -5.113  1.00  0.00     0.251 C 
ATOM     27  H   UNL     1      13.639   1.019  -5.520  1.00  0.00     0.163 HD
ATOM     28  O   UNL     1      14.642   2.869  -4.386  1.00  0.00    -0.269 OA
BRANCH  26  29
ATOM     29  C   UNL     1      13.030   4.316  -5.306  1.00  0.00     0.039 A 
ATOM     30  C   UNL     1      13.876   5.423  -5.430  1.00  0.00     0.014 A 
ATOM     31  C   UNL     1      11.646   4.509  -5.324  1.00  0.00     0.014 A 
ATOM     32  C   UNL     1      13.343   6.702  -5.625  1.00  0.00     0.010 A 
ATOM     33  C   UNL     1      11.115   5.779  -5.587  1.00  0.00     0.010 A 
ATOM     34  C   UNL     1      11.956   6.894  -5.736  1.00  0.00    -0.014 A 
BRANCH  34  35
ATOM     35  C   UNL     1      11.400   8.257  -5.988  1.00  0.00     0.031 A 
ATOM     36  C   UNL     1      10.529   8.936  -4.961  1.00  0.00     0.074 A 
ATOM     37  C   UNL     1      11.679   8.893  -7.145  1.00  0.00     0.049 A 
ATOM     38  N   UNL     1       9.977  10.124  -4.996  1.00  0.00    -0.248 NA
ATOM     39  C   UNL     1      10.219   8.169  -3.746  1.00  0.00     0.031 C 
ATOM     40  C   UNL     1      12.480   8.340  -8.239  1.00  0.00     0.029 A 
ATOM     41  N   UNL     1      11.330  10.145  -7.595  1.00  0.00    -0.354 N 
ATOM     42  C   UNL     1       9.255  10.247  -3.812  1.00  0.00     0.074 A 
ATOM     43  C   UNL     1       9.385   8.984  -3.117  1.00  0.00     0.031 C 
ATOM     44  C   UNL     1      12.593   9.258  -9.211  1.00  0.00     0.029 A 
ATOM     45  C   UNL     1      11.839  10.451  -8.837  1.00  0.00     0.049 A 
ATOM     46  H   UNL     1      10.767  10.764  -7.077  1.00  0.00     0.167 HD
ATOM     47  C   UNL     1       8.571  11.319  -3.336  1.00  0.00     0.034 A 
ATOM     48  C   UNL     1      11.716  11.563  -9.592  1.00  0.00     0.034 A 
ATOM     49  C   UNL     1       8.450  12.577  -4.036  1.00  0.00     0.049 A 
ATOM     50  C   UNL     1      10.928  12.732  -9.053  1.00  0.00     0.074 A 
ATOM     51  C   UNL     1       7.811  13.735  -3.624  1.00  0.00     0.029 A 
ATOM     52  N   UNL     1       8.969  12.843  -5.297  1.00  0.00    -0.354 N 
ATOM     53  N   UNL     1      10.292  12.846  -7.910  1.00  0.00    -0.248 NA
ATOM     54  C   UNL     1      10.859  13.929  -9.900  1.00  0.00     0.031 C 
ATOM     55  C   UNL     1       7.876  14.669  -4.663  1.00  0.00     0.029 A 
ATOM     56  C   UNL     1       8.639  14.134  -5.688  1.00  0.00     0.049 A 
ATOM     57  H   UNL     1       9.495  12.209  -5.836  1.00  0.00     0.167 HD
ATOM     58  C   UNL     1       9.787  14.145  -7.884  1.00  0.00     0.074 A 
ATOM     59  C   UNL     1      10.206  14.775  -9.119  1.00  0.00     0.031 C 
ATOM     60  C   UNL     1       9.052  14.761  -6.923  1.00  0.00     0.034 A 
BRANCH  47  61
ATOM     61  C   UNL     1       7.875  11.163  -2.001  1.00  0.00     0.023 A 
ATOM     62  C   UNL     1       8.590  10.894  -0.820  1.00  0.00     0.031 A 
ATOM     63  C   UNL     1       6.475  11.265  -1.909  1.00  0.00     0.131 A 
ATOM     64  C   UNL     1       7.901  10.656   0.380  1.00  0.00     0.055 A 
ATOM     65  C   UNL     1       5.802  11.117  -0.694  1.00  0.00     0.041 A 
ATOM     66  F   UNL     1       5.733  11.500  -3.002  1.00  0.00    -0.206 F 
ATOM     67  C   UNL     1       6.514  10.794   0.457  1.00  0.00     0.022 A 
BRANCH  64  68
ATOM     68  S   UNL     1       8.829  10.009   1.798  1.00  0.00     0.124 S 
ATOM     69  O   UNL     1       9.394   8.781   1.243  1.00  0.00    -0.237 OA
ATOM     70  O   UNL     1       9.775  11.083   2.073  1.00  0.00    -0.237 OA
ATOM     71  O   UNL     1       7.800   9.806   2.816  1.00  0.00    -0.744 OA
ENDBRANCH  64  68
ENDBRANCH  47  61
BRANCH  48  72
ATOM     72  C   UNL     1      12.348  11.636 -10.944  1.00  0.00     0.023 A 
ATOM     73  C   UNL     1      13.345  12.584 -11.233  1.00  0.00     0.031 A 
ATOM     74  C   UNL     1      11.919  10.796 -11.988  1.00  0.00     0.131 A 
ATOM     75  C   UNL     1      13.837  12.707 -12.542  1.00  0.00     0.055 A 
ATOM     76  C   UNL     1      12.457  10.880 -13.273  1.00  0.00     0.041 A 
ATOM     77  F   UNL     1      10.970   9.873 -11.769  1.00  0.00    -0.206 F 
ATOM     78  C   UNL     1      13.412  11.851 -13.560  1.00  0.00     0.022 A 
BRANCH  75  79
ATOM     79  S   UNL     1      14.970  14.073 -12.921  1.00  0.00     0.124 S 
ATOM     80  O   UNL     1      14.174  15.233 -12.539  1.00  0.00    -0.237 OA
ATOM     81  O   UNL     1      16.111  13.766 -12.066  1.00  0.00    -0.237 OA
ATOM     82  O   UNL     1      15.211  13.925 -14.355  1.00  0.00    -0.744 OA
ENDBRANCH  75  79
ENDBRANCH  48  72
BRANCH  60  83
ATOM     83  C   UNL     1       8.711  16.218  -7.142  1.00  0.00     0.023 A 
ATOM     84  C   UNL     1       7.907  16.647  -8.213  1.00  0.00     0.031 A 
ATOM     85  C   UNL     1       9.232  17.200  -6.278  1.00  0.00     0.131 A 
ATOM     86  C   UNL     1       7.713  18.019  -8.438  1.00  0.00     0.055 A 
ATOM     87  C   UNL     1       8.972  18.559  -6.463  1.00  0.00     0.041 A 
ATOM     88  F   UNL     1      10.010  16.855  -5.239  1.00  0.00    -0.206 F 
ATOM     89  C   UNL     1       8.225  18.977  -7.560  1.00  0.00     0.022 A 
BRANCH  86  90
ATOM     90  S   UNL     1       6.895  18.543  -9.971  1.00  0.00     0.124 S 
ATOM     91  O   UNL     1       7.715  17.895 -10.990  1.00  0.00    -0.237 OA
ATOM     92  O   UNL     1       5.548  18.009  -9.803  1.00  0.00    -0.237 OA
ATOM     93  O   UNL     1       6.992  20.001  -9.931  1.00  0.00    -0.744 OA
ENDBRANCH  86  90
ENDBRANCH  60  83
ENDBRANCH  34  35
ENDBRANCH  26  29
ENDBRANCH  24  25
ENDBRANCH   1  24
TORSDOF 16
