REMARK SMILES CC(C)[C@H](NC(=O)[C@H](C)NC(=O)CNC(=O)OCc1ccccc1)C(=O)NCCCNC(=O)c1ccc(-c2c3nc(c(-c4cc(S(=O)(=O)[O-])ccc4F)c4ccc([nH]4)c(-c4cc(S(=O)(=O)[O-])ccc4F)c4nc(c(-c5cc(S(=O)(=O)[O-])ccc5F)c5ccc2[nH]5)C=C4)C=C3)cc1
REMARK SMILES IDX 25 1 26 2 27 3 4 5 2 6 1 7 3 8 5 9 6 10 7 12 8 13 9 14 10 15
REMARK SMILES IDX 11 16 12 18 13 19 14 20 15 21 16 23 17 24 18 25 19 26 20 27
REMARK SMILES IDX 24 28 21 29 23 30 22 31 28 32 29 33 30 34 31 35 32 36 33 38
REMARK SMILES IDX 34 39 35 40 96 41 36 42 95 43 37 44 38 45 39 46 89 47 40 48
REMARK SMILES IDX 94 49 88 50 90 51 41 52 93 53 87 54 86 55 42 57 74 58 54 59
REMARK SMILES IDX 73 60 55 61 58 62 72 63 91 64 56 65 57 66 71 68 92 69 59 70
REMARK SMILES IDX 43 71 44 72 52 73 45 74 51 75 53 76 50 77 46 78 47 79 48 80
REMARK SMILES IDX 49 81 75 82 76 83 84 84 77 85 83 86 85 87 82 88 78 89 79 90
REMARK SMILES IDX 80 91 81 92 60 93 61 94 69 95 62 96 68 97 70 98 67 99 63 100
REMARK SMILES IDX 64 101 65 102 66 103
REMARK H PARENT 27 4 5 11 10 17 14 22 31 37 90 56 58 67
REMARK Flexibility Score: inf
ROOT
ATOM      1  C   UNL     1      -3.273   3.758  -3.040  1.00  0.00     0.242 C 
ATOM      2  O   UNL     1      -3.740   2.625  -3.187  1.00  0.00    -0.273 OA
ATOM      3  N   UNL     1      -3.404   4.355  -1.820  1.00  0.00    -0.354 N 
ATOM      4  H   UNL     1      -4.076   3.948  -1.227  1.00  0.00     0.163 HD
ENDROOT
BRANCH   1   5
ATOM      5  C   UNL     1      -2.429   4.401  -4.163  1.00  0.00     0.173 C 
BRANCH   5   6
ATOM      6  C   UNL     1      -0.925   4.144  -3.872  1.00  0.00     0.015 C 
ATOM      7  C   UNL     1      -0.495   2.819  -4.517  1.00  0.00     0.010 C 
ATOM      8  C   UNL     1       0.012   5.260  -4.331  1.00  0.00     0.010 C 
ENDBRANCH   5   6
BRANCH   5   9
ATOM      9  N   UNL     1      -2.808   5.802  -4.340  1.00  0.00    -0.342 N 
ATOM     10  C   UNL     1      -3.873   6.311  -5.034  1.00  0.00     0.242 C 
ATOM     11  H   UNL     1      -2.223   6.464  -3.906  1.00  0.00     0.164 HD
ATOM     12  O   UNL     1      -4.086   7.521  -4.940  1.00  0.00    -0.273 OA
BRANCH  10  13
ATOM     13  C   UNL     1      -4.760   5.373  -5.880  1.00  0.00     0.168 C 
ATOM     14  C   UNL     1      -5.623   6.176  -6.854  1.00  0.00     0.041 C 
BRANCH  13  15
ATOM     15  N   UNL     1      -5.631   4.565  -5.030  1.00  0.00    -0.343 N 
ATOM     16  C   UNL     1      -5.981   3.249  -5.153  1.00  0.00     0.240 C 
ATOM     17  H   UNL     1      -6.022   5.035  -4.259  1.00  0.00     0.164 HD
ATOM     18  O   UNL     1      -6.907   2.821  -4.460  1.00  0.00    -0.273 OA
BRANCH  16  19
ATOM     19  C   UNL     1      -5.239   2.337  -6.137  1.00  0.00     0.219 C 
BRANCH  19  20
ATOM     20  N   UNL     1      -5.550   2.711  -7.504  1.00  0.00    -0.312 N 
ATOM     21  C   UNL     1      -4.670   3.128  -8.453  1.00  0.00     0.407 C 
ATOM     22  H   UNL     1      -6.496   2.658  -7.772  1.00  0.00     0.167 HD
ATOM     23  O   UNL     1      -5.056   3.671  -9.478  1.00  0.00    -0.225 OA
BRANCH  21  24
ATOM     24  O   UNL     1      -3.374   2.913  -8.118  1.00  0.00    -0.445 OA
BRANCH  24  25
ATOM     25  C   UNL     1      -2.397   3.551  -8.955  1.00  0.00     0.270 C 
BRANCH  25  26
ATOM     26  C   UNL     1      -1.881   2.692 -10.088  1.00  0.00    -0.011 A 
ATOM     27  C   UNL     1      -0.540   2.812 -10.491  1.00  0.00     0.007 A 
ATOM     28  C   UNL     1      -2.725   1.858 -10.833  1.00  0.00     0.007 A 
ATOM     29  C   UNL     1      -0.060   2.109 -11.599  1.00  0.00     0.000 A 
ATOM     30  C   UNL     1      -2.246   1.158 -11.942  1.00  0.00     0.000 A 
ATOM     31  C   UNL     1      -0.915   1.284 -12.326  1.00  0.00     0.000 A 
ENDBRANCH  25  26
ENDBRANCH  24  25
ENDBRANCH  21  24
ENDBRANCH  19  20
ENDBRANCH  16  19
ENDBRANCH  13  15
ENDBRANCH  10  13
ENDBRANCH   5   9
ENDBRANCH   1   5
BRANCH   3  32
ATOM     32  C   UNL     1      -2.702   5.499  -1.262  1.00  0.00     0.117 C 
BRANCH  32  33
ATOM     33  C   UNL     1      -3.585   6.726  -1.079  1.00  0.00     0.042 C 
BRANCH  33  34
ATOM     34  C   UNL     1      -4.742   6.525  -0.108  1.00  0.00     0.118 C 
BRANCH  34  35
ATOM     35  N   UNL     1      -4.295   6.116   1.217  1.00  0.00    -0.352 N 
ATOM     36  C   UNL     1      -4.296   6.789   2.413  1.00  0.00     0.251 C 
ATOM     37  H   UNL     1      -3.930   5.203   1.262  1.00  0.00     0.163 HD
ATOM     38  O   UNL     1      -3.651   6.328   3.352  1.00  0.00    -0.269 OA
BRANCH  36  39
ATOM     39  C   UNL     1      -5.041   8.057   2.575  1.00  0.00     0.039 A 
ATOM     40  C   UNL     1      -4.477   9.081   3.342  1.00  0.00     0.014 A 
ATOM     41  C   UNL     1      -6.309   8.228   2.014  1.00  0.00     0.014 A 
ATOM     42  C   UNL     1      -5.150  10.298   3.485  1.00  0.00     0.010 A 
ATOM     43  C   UNL     1      -6.941   9.467   2.088  1.00  0.00     0.010 A 
ATOM     44  C   UNL     1      -6.371  10.514   2.827  1.00  0.00    -0.014 A 
BRANCH  44  45
ATOM     45  C   UNL     1      -7.079  11.819   2.905  1.00  0.00     0.031 A 
ATOM     46  C   UNL     1      -8.445  11.895   3.533  1.00  0.00     0.074 A 
ATOM     47  C   UNL     1      -6.528  12.913   2.343  1.00  0.00     0.049 A 
ATOM     48  N   UNL     1      -9.280  12.901   3.582  1.00  0.00    -0.248 NA
ATOM     49  C   UNL     1      -8.950  10.663   4.158  1.00  0.00     0.031 C 
ATOM     50  C   UNL     1      -5.226  12.956   1.672  1.00  0.00     0.029 A 
ATOM     51  N   UNL     1      -6.999  14.197   2.231  1.00  0.00    -0.354 N 
ATOM     52  C   UNL     1     -10.418  12.418   4.221  1.00  0.00     0.074 A 
ATOM     53  C   UNL     1     -10.183  11.016   4.491  1.00  0.00     0.031 C 
ATOM     54  C   UNL     1      -4.997  14.205   1.235  1.00  0.00     0.029 A 
ATOM     55  C   UNL     1      -6.151  15.040   1.550  1.00  0.00     0.049 A 
ATOM     56  H   UNL     1      -7.863  14.488   2.602  1.00  0.00     0.167 HD
ATOM     57  C   UNL     1     -11.545  13.088   4.569  1.00  0.00     0.034 A 
ATOM     58  C   UNL     1      -6.294  16.335   1.206  1.00  0.00     0.034 A 
ATOM     59  C   UNL     1     -11.754  14.492   4.314  1.00  0.00     0.049 A 
ATOM     60  C   UNL     1      -7.557  17.058   1.601  1.00  0.00     0.074 A 
ATOM     61  C   UNL     1     -12.836  15.282   4.664  1.00  0.00     0.029 A 
ATOM     62  N   UNL     1     -10.860  15.319   3.647  1.00  0.00    -0.354 N 
ATOM     63  N   UNL     1      -8.610  16.594   2.233  1.00  0.00    -0.248 NA
ATOM     64  C   UNL     1      -7.644  18.480   1.246  1.00  0.00     0.031 C 
ATOM     65  C   UNL     1     -12.618  16.572   4.166  1.00  0.00     0.029 A 
ATOM     66  C   UNL     1     -11.373  16.604   3.560  1.00  0.00     0.049 A 
ATOM     67  H   UNL     1      -9.988  15.035   3.288  1.00  0.00     0.167 HD
ATOM     68  C   UNL     1      -9.471  17.677   2.378  1.00  0.00     0.074 A 
ATOM     69  C   UNL     1      -8.809  18.818   1.779  1.00  0.00     0.031 C 
ATOM     70  C   UNL     1     -10.698  17.728   2.956  1.00  0.00     0.034 A 
BRANCH  57  71
ATOM     71  C   UNL     1     -12.641  12.298   5.242  1.00  0.00     0.023 A 
ATOM     72  C   UNL     1     -12.453  11.706   6.503  1.00  0.00     0.031 A 
ATOM     73  C   UNL     1     -13.880  12.111   4.606  1.00  0.00     0.131 A 
ATOM     74  C   UNL     1     -13.456  10.894   7.053  1.00  0.00     0.055 A 
ATOM     75  C   UNL     1     -14.905  11.367   5.194  1.00  0.00     0.041 A 
ATOM     76  F   UNL     1     -14.112  12.636   3.392  1.00  0.00    -0.206 F 
ATOM     77  C   UNL     1     -14.691  10.741   6.419  1.00  0.00     0.022 A 
BRANCH  74  78
ATOM     78  S   UNL     1     -13.074   9.937   8.545  1.00  0.00     0.124 S 
ATOM     79  O   UNL     1     -11.977   9.091   8.078  1.00  0.00    -0.237 OA
ATOM     80  O   UNL     1     -12.717  10.974   9.505  1.00  0.00    -0.237 OA
ATOM     81  O   UNL     1     -14.321   9.228   8.826  1.00  0.00    -0.744 OA
ENDBRANCH  74  78
ENDBRANCH  57  71
BRANCH  58  82
ATOM     82  C   UNL     1      -5.228  17.038   0.437  1.00  0.00     0.023 A 
ATOM     83  C   UNL     1      -4.512  18.102   1.008  1.00  0.00     0.031 A 
ATOM     84  C   UNL     1      -4.942  16.687  -0.894  1.00  0.00     0.131 A 
ATOM     85  C   UNL     1      -3.582  18.813   0.234  1.00  0.00     0.055 A 
ATOM     86  C   UNL     1      -3.979  17.366  -1.643  1.00  0.00     0.041 A 
ATOM     87  F   UNL     1      -5.592  15.671  -1.484  1.00  0.00    -0.206 F 
ATOM     88  C   UNL     1      -3.302  18.445  -1.084  1.00  0.00     0.022 A 
BRANCH  85  89
ATOM     89  S   UNL     1      -2.804  20.286   0.952  1.00  0.00     0.124 S 
ATOM     90  O   UNL     1      -3.965  21.092   1.311  1.00  0.00    -0.237 OA
ATOM     91  O   UNL     1      -2.049  19.716   2.064  1.00  0.00    -0.237 OA
ATOM     92  O   UNL     1      -1.993  20.811  -0.145  1.00  0.00    -0.744 OA
ENDBRANCH  85  89
ENDBRANCH  58  82
BRANCH  70  93
ATOM     93  C   UNL     1     -11.369  19.076   3.011  1.00  0.00     0.023 A 
ATOM     94  C   UNL     1     -11.841  19.715   1.852  1.00  0.00     0.031 A 
ATOM     95  C   UNL     1     -11.523  19.736   4.243  1.00  0.00     0.131 A 
ATOM     96  C   UNL     1     -12.399  20.999   1.941  1.00  0.00     0.055 A 
ATOM     97  C   UNL     1     -12.127  20.990   4.333  1.00  0.00     0.041 A 
ATOM     98  F   UNL     1     -11.089  19.169   5.380  1.00  0.00    -0.206 F 
ATOM     99  C   UNL     1     -12.557  21.634   3.176  1.00  0.00     0.022 A 
BRANCH  96 100
ATOM    100  S   UNL     1     -12.842  21.865   0.411  1.00  0.00     0.124 S 
ATOM    101  O   UNL     1     -11.562  21.922  -0.288  1.00  0.00    -0.237 OA
ATOM    102  O   UNL     1     -13.846  20.979  -0.170  1.00  0.00    -0.237 OA
ATOM    103  O   UNL     1     -13.351  23.153   0.880  1.00  0.00    -0.744 OA
ENDBRANCH  96 100
ENDBRANCH  70  93
ENDBRANCH  44  45
ENDBRANCH  36  39
ENDBRANCH  34  35
ENDBRANCH  33  34
ENDBRANCH  32  33
ENDBRANCH   3  32
TORSDOF 22
