REMARK SMILES CC(=O)N1[C@@H](c2c(F)cccc2Cl)SC[C@H]1C(=O)NCCCNC(=O)c1ccc(-c2c3nc(c(-c4cc(S(=O)(=O)[O-])ccc4F)c4ccc([nH]4)c(-c4cc(S(=O)(=O)[O-])ccc4F)c4nc(c(-c5cc(S(=O)(=O)[O-])ccc5F)c5ccc2[nH]5)C=C4)C=C3)cc1
REMARK SMILES IDX 22 1 21 2 20 3 19 4 17 5 18 6 16 8 4 9 5 10 14 11 15 12 2 13
REMARK SMILES IDX 1 14 3 15 6 16 7 17 12 18 8 19 9 20 11 21 13 22 10 23 23 24
REMARK SMILES IDX 24 25 25 27 26 28 27 29 88 30 28 31 87 32 29 33 30 34 31 35
REMARK SMILES IDX 81 36 32 37 86 38 80 39 82 40 33 41 85 42 79 43 78 44 34 46
REMARK SMILES IDX 66 47 46 48 65 49 47 50 50 51 64 52 83 53 48 54 49 55 63 57
REMARK SMILES IDX 84 58 51 59 35 60 36 61 44 62 37 63 43 64 45 65 42 66 38 67
REMARK SMILES IDX 39 68 40 69 41 70 67 71 68 72 76 73 69 74 75 75 77 76 74 77
REMARK SMILES IDX 70 78 71 79 72 80 73 81 52 82 53 83 61 84 54 85 60 86 62 87
REMARK SMILES IDX 59 88 55 89 56 90 57 91 58 92
REMARK H PARENT 19 7 23 26 82 45 50 56
REMARK Flexibility Score: inf
ROOT
ATOM      1  C   UNL     1       2.836  -1.508   5.939  1.00  0.00     0.118 C 
ENDROOT
BRANCH   1   2
ATOM      2  C   UNL     1       2.146  -1.779   4.604  1.00  0.00     0.042 C 
BRANCH   2   3
ATOM      3  C   UNL     1       1.303  -3.046   4.584  1.00  0.00     0.117 C 
BRANCH   3   4
ATOM      4  N   UNL     1      -0.092  -2.825   4.299  1.00  0.00    -0.354 N 
ATOM      5  C   UNL     1      -0.773  -2.966   3.129  1.00  0.00     0.243 C 
ATOM      6  O   UNL     1      -1.998  -3.123   3.224  1.00  0.00    -0.273 OA
ATOM      7  H   UNL     1      -0.634  -2.529   5.065  1.00  0.00     0.163 HD
BRANCH   5   8
ATOM      8  C   UNL     1      -0.088  -3.131   1.750  1.00  0.00     0.185 C 
ATOM      9  N   UNL     1       1.127  -2.359   1.420  1.00  0.00    -0.314 N 
ATOM     10  C   UNL     1       2.177  -3.110   0.693  1.00  0.00     0.179 C 
ATOM     11  S   UNL     1       1.340  -4.623   0.098  1.00  0.00    -0.129 SA
ATOM     12  C   UNL     1       0.113  -4.605   1.435  1.00  0.00     0.107 C 
BRANCH   9  13
ATOM     13  C   UNL     1       0.875  -0.995   1.319  1.00  0.00     0.221 C 
ATOM     14  C   UNL     1       1.538  -0.188   0.239  1.00  0.00     0.114 C 
ATOM     15  O   UNL     1       0.034  -0.448   2.037  1.00  0.00    -0.275 OA
ENDBRANCH   9  13
BRANCH  10  16
ATOM     16  C   UNL     1       3.459  -3.352   1.493  1.00  0.00     0.039 A 
ATOM     17  C   UNL     1       3.606  -4.416   2.405  1.00  0.00     0.130 A 
ATOM     18  C   UNL     1       4.571  -2.486   1.412  1.00  0.00     0.050 A 
ATOM     19  F   UNL     1       2.665  -5.359   2.530  1.00  0.00    -0.207 F 
ATOM     20  C   UNL     1       4.699  -4.543   3.267  1.00  0.00     0.040 A 
ATOM     21  C   UNL     1       5.664  -2.593   2.292  1.00  0.00     0.021 A 
ATOM     22  Cl  UNL     1       4.739  -1.288   0.179  1.00  0.00    -0.084 Cl
ATOM     23  C   UNL     1       5.718  -3.608   3.237  1.00  0.00     0.005 A 
ENDBRANCH  10  16
ENDBRANCH   5   8
ENDBRANCH   3   4
ENDBRANCH   2   3
ENDBRANCH   1   2
BRANCH   1  24
ATOM     24  N   UNL     1       3.648  -2.619   6.425  1.00  0.00    -0.352 N 
ATOM     25  C   UNL     1       4.949  -2.698   6.856  1.00  0.00     0.251 C 
ATOM     26  H   UNL     1       3.170  -3.479   6.447  1.00  0.00     0.163 HD
ATOM     27  O   UNL     1       5.399  -3.816   7.115  1.00  0.00    -0.269 OA
BRANCH  25  28
ATOM     28  C   UNL     1       5.829  -1.509   6.974  1.00  0.00     0.039 A 
ATOM     29  C   UNL     1       7.208  -1.683   6.791  1.00  0.00     0.014 A 
ATOM     30  C   UNL     1       5.345  -0.242   7.296  1.00  0.00     0.014 A 
ATOM     31  C   UNL     1       8.075  -0.587   6.852  1.00  0.00     0.010 A 
ATOM     32  C   UNL     1       6.191   0.864   7.253  1.00  0.00     0.010 A 
ATOM     33  C   UNL     1       7.569   0.706   7.039  1.00  0.00    -0.014 A 
BRANCH  33  34
ATOM     34  C   UNL     1       8.447   1.907   7.053  1.00  0.00     0.031 A 
ATOM     35  C   UNL     1       8.490   2.786   8.276  1.00  0.00     0.074 A 
ATOM     36  C   UNL     1       9.126   2.262   5.944  1.00  0.00     0.049 A 
ATOM     37  N   UNL     1       9.033   3.966   8.435  1.00  0.00    -0.248 NA
ATOM     38  C   UNL     1       7.786   2.283   9.465  1.00  0.00     0.031 C 
ATOM     39  C   UNL     1       9.145   1.513   4.685  1.00  0.00     0.029 A 
ATOM     40  N   UNL     1       9.918   3.354   5.689  1.00  0.00    -0.354 N 
ATOM     41  C   UNL     1       8.701   4.364   9.727  1.00  0.00     0.074 A 
ATOM     42  C   UNL     1       7.861   3.323  10.280  1.00  0.00     0.031 C 
ATOM     43  C   UNL     1       9.922   2.158   3.800  1.00  0.00     0.029 A 
ATOM     44  C   UNL     1      10.412   3.392   4.406  1.00  0.00     0.049 A 
ATOM     45  H   UNL     1      10.113   4.046   6.362  1.00  0.00     0.167 HD
ATOM     46  C   UNL     1       9.079   5.482  10.397  1.00  0.00     0.034 A 
ATOM     47  C   UNL     1      11.155   4.326   3.780  1.00  0.00     0.034 A 
ATOM     48  C   UNL     1       9.947   6.492   9.840  1.00  0.00     0.049 A 
ATOM     49  C   UNL     1      11.561   5.564   4.538  1.00  0.00     0.074 A 
ATOM     50  C   UNL     1      10.447   7.631  10.446  1.00  0.00     0.029 A 
ATOM     51  N   UNL     1      10.444   6.483   8.542  1.00  0.00    -0.354 N 
ATOM     52  N   UNL     1      11.264   5.914   5.769  1.00  0.00    -0.248 NA
ATOM     53  C   UNL     1      12.408   6.528   3.825  1.00  0.00     0.031 C 
ATOM     54  C   UNL     1      11.196   8.340   9.499  1.00  0.00     0.029 A 
ATOM     55  C   UNL     1      11.225   7.608   8.322  1.00  0.00     0.049 A 
ATOM     56  H   UNL     1      10.269   5.780   7.876  1.00  0.00     0.167 HD
ATOM     57  C   UNL     1      11.911   7.127   5.984  1.00  0.00     0.074 A 
ATOM     58  C   UNL     1      12.625   7.439   4.763  1.00  0.00     0.031 C 
ATOM     59  C   UNL     1      11.921   7.910   7.093  1.00  0.00     0.034 A 
BRANCH  46  60
ATOM     60  C   UNL     1       8.530   5.672  11.793  1.00  0.00     0.023 A 
ATOM     61  C   UNL     1       8.797   4.754  12.824  1.00  0.00     0.031 A 
ATOM     62  C   UNL     1       7.685   6.757  12.086  1.00  0.00     0.131 A 
ATOM     63  C   UNL     1       8.148   4.879  14.061  1.00  0.00     0.055 A 
ATOM     64  C   UNL     1       7.117   6.929  13.351  1.00  0.00     0.041 A 
ATOM     65  F   UNL     1       7.377   7.659  11.141  1.00  0.00    -0.206 F 
ATOM     66  C   UNL     1       7.330   5.975  14.341  1.00  0.00     0.022 A 
BRANCH  63  67
ATOM     67  S   UNL     1       8.251   3.497  15.232  1.00  0.00     0.124 S 
ATOM     68  O   UNL     1       7.696   2.400  14.442  1.00  0.00    -0.237 OA
ATOM     69  O   UNL     1       9.681   3.424  15.509  1.00  0.00    -0.237 OA
ATOM     70  O   UNL     1       7.418   3.932  16.351  1.00  0.00    -0.744 OA
ENDBRANCH  63  67
ENDBRANCH  46  60
BRANCH  47  71
ATOM     71  C   UNL     1      11.559   4.138   2.358  1.00  0.00     0.023 A 
ATOM     72  C   UNL     1      12.907   3.959   2.010  1.00  0.00     0.031 A 
ATOM     73  C   UNL     1      10.608   4.163   1.322  1.00  0.00     0.131 A 
ATOM     74  C   UNL     1      13.273   3.851   0.660  1.00  0.00     0.055 A 
ATOM     75  C   UNL     1      10.972   4.007  -0.017  1.00  0.00     0.041 A 
ATOM     76  F   UNL     1       9.304   4.322   1.601  1.00  0.00    -0.206 F 
ATOM     77  C   UNL     1      12.314   3.861  -0.355  1.00  0.00     0.022 A 
BRANCH  74  78
ATOM     78  S   UNL     1      15.036   3.761   0.244  1.00  0.00     0.124 S 
ATOM     79  O   UNL     1      15.538   5.011   0.803  1.00  0.00    -0.237 OA
ATOM     80  O   UNL     1      15.447   2.540   0.931  1.00  0.00    -0.237 OA
ATOM     81  O   UNL     1      15.038   3.683  -1.215  1.00  0.00    -0.744 OA
ENDBRANCH  74  78
ENDBRANCH  47  71
BRANCH  59  82
ATOM     82  C   UNL     1      12.769   9.156   7.042  1.00  0.00     0.023 A 
ATOM     83  C   UNL     1      12.447  10.238   6.204  1.00  0.00     0.031 A 
ATOM     84  C   UNL     1      13.925   9.255   7.837  1.00  0.00     0.131 A 
ATOM     85  C   UNL     1      13.301  11.350   6.140  1.00  0.00     0.055 A 
ATOM     86  C   UNL     1      14.739  10.389   7.813  1.00  0.00     0.041 A 
ATOM     87  F   UNL     1      14.280   8.251   8.654  1.00  0.00    -0.206 F 
ATOM     88  C   UNL     1      14.435  11.439   6.951  1.00  0.00     0.022 A 
BRANCH  85  89
ATOM     89  S   UNL     1      12.957  12.643   4.915  1.00  0.00     0.124 S 
ATOM     90  O   UNL     1      12.996  11.893   3.664  1.00  0.00    -0.237 OA
ATOM     91  O   UNL     1      11.643  13.124   5.330  1.00  0.00    -0.237 OA
ATOM     92  O   UNL     1      14.052  13.593   5.104  1.00  0.00    -0.744 OA
ENDBRANCH  85  89
ENDBRANCH  59  82
ENDBRANCH  33  34
ENDBRANCH  25  28
ENDBRANCH   1  24
TORSDOF 15
