REMARK SMILES Cn1nc(-c2cccs2)cc1C(=O)N1CC[C@@H](c2ccccc2C(=O)NCCCNC(=O)c2ccc(-c3c4nc(c(-c5cc(S(=O)(=O)[O-])ccc5F)c5ccc([nH]5)c(-c5cc(S(=O)(=O)[O-])ccc5F)c5nc(c(-c6cc(S(=O)(=O)[O-])ccc6F)c6ccc3[nH]6)C=C5)C=C4)cc2)C1
REMARK SMILES IDX 27 1 26 2 24 3 25 4 23 6 18 7 19 8 20 9 22 10 21 11 17 12
REMARK SMILES IDX 14 13 15 14 96 15 16 16 12 17 13 18 11 19 1 20 2 21 3 22
REMARK SMILES IDX 4 23 10 24 5 25 6 26 9 27 7 28 8 29 28 30 29 31 30 32 31 33
REMARK SMILES IDX 32 35 33 36 34 37 95 38 35 39 94 40 36 41 37 42 38 43 88 44
REMARK SMILES IDX 39 45 93 46 87 47 89 48 40 49 92 50 86 51 85 52 41 54 73 55
REMARK SMILES IDX 53 56 72 57 54 58 57 59 71 60 90 61 55 62 56 63 70 65 91 66
REMARK SMILES IDX 58 67 42 68 43 69 51 70 44 71 50 72 52 73 49 74 45 75 46 76
REMARK SMILES IDX 47 77 48 78 74 79 75 80 83 81 76 82 82 83 84 84 81 85 77 86
REMARK SMILES IDX 78 87 79 88 80 89 59 90 60 91 68 92 61 93 67 94 69 95 66 96
REMARK SMILES IDX 62 97 63 98 64 99 65 100
REMARK H PARENT 26 5 30 34 89 53 57 64
REMARK Flexibility Score: inf
ROOT
ATOM      1  C   UNL     1      -4.893  -4.103   3.148  1.00  0.00     0.118 C 
ENDROOT
BRANCH   1   2
ATOM      2  N   UNL     1      -6.098  -3.775   2.403  1.00  0.00    -0.352 N 
ATOM      3  C   UNL     1      -6.545  -4.189   1.177  1.00  0.00     0.251 C 
ATOM      4  O   UNL     1      -7.645  -3.812   0.779  1.00  0.00    -0.269 OA
ATOM      5  H   UNL     1      -6.699  -3.144   2.862  1.00  0.00     0.163 HD
BRANCH   3   6
ATOM      6  C   UNL     1      -5.784  -5.144   0.342  1.00  0.00     0.043 A 
ATOM      7  C   UNL     1      -4.628  -4.811  -0.391  1.00  0.00    -0.030 A 
ATOM      8  C   UNL     1      -4.112  -5.782  -1.276  1.00  0.00     0.005 A 
ATOM      9  C   UNL     1      -4.717  -7.030  -1.429  1.00  0.00     0.000 A 
ATOM     10  C   UNL     1      -6.394  -6.400   0.174  1.00  0.00     0.014 A 
ATOM     11  C   UNL     1      -5.857  -7.342  -0.701  1.00  0.00     0.001 A 
BRANCH   7  12
ATOM     12  C   UNL     1      -3.917  -3.485  -0.256  1.00  0.00     0.041 C 
ATOM     13  N   UNL     1      -1.828  -2.419  -0.126  1.00  0.00    -0.337 N 
ATOM     14  C   UNL     1      -2.485  -1.807  -1.276  1.00  0.00     0.120 C 
ATOM     15  C   UNL     1      -2.481  -3.651   0.247  1.00  0.00     0.128 C 
ATOM     16  C   UNL     1      -3.724  -2.672  -1.550  1.00  0.00     0.032 C 
BRANCH  13  17
ATOM     17  C   UNL     1      -0.631  -2.066   0.467  1.00  0.00     0.272 C 
ATOM     18  O   UNL     1      -0.046  -2.855   1.214  1.00  0.00    -0.267 OA
BRANCH  17  19
ATOM     19  C   UNL     1      -0.094  -0.765   0.183  1.00  0.00     0.126 A 
ATOM     20  C   UNL     1      -1.954   0.708   1.084  1.00  0.00     0.174 C 
ATOM     21  N   UNL     1      -0.698   0.443   0.420  1.00  0.00    -0.262 N 
ATOM     22  N   UNL     1       0.060   1.495   0.077  1.00  0.00    -0.172 NA
ATOM     23  C   UNL     1       1.252   0.969  -0.225  1.00  0.00     0.103 A 
ATOM     24  C   UNL     1       1.198  -0.442  -0.197  1.00  0.00     0.065 A 
BRANCH  23  25
ATOM     25  C   UNL     1       2.455   1.820  -0.505  1.00  0.00     0.055 A 
ATOM     26  C   UNL     1       3.721   1.341  -0.781  1.00  0.00     0.022 A 
ATOM     27  S   UNL     1       2.423   3.531  -0.482  1.00  0.00    -0.142 S 
ATOM     28  C   UNL     1       4.672   2.392  -0.954  1.00  0.00     0.012 A 
ATOM     29  C   UNL     1       4.097   3.635  -0.812  1.00  0.00     0.065 A 
ENDBRANCH  23  25
ENDBRANCH  17  19
ENDBRANCH  13  17
ENDBRANCH   7  12
ENDBRANCH   3   6
ENDBRANCH   1   2
BRANCH   1  30
ATOM     30  C   UNL     1      -4.064  -2.852   3.454  1.00  0.00     0.042 C 
BRANCH  30  31
ATOM     31  C   UNL     1      -4.738  -1.866   4.413  1.00  0.00     0.118 C 
BRANCH  31  32
ATOM     32  N   UNL     1      -4.197  -1.963   5.757  1.00  0.00    -0.352 N 
ATOM     33  C   UNL     1      -3.737  -0.964   6.583  1.00  0.00     0.251 C 
ATOM     34  H   UNL     1      -4.153  -2.873   6.130  1.00  0.00     0.163 HD
ATOM     35  O   UNL     1      -3.127  -1.270   7.604  1.00  0.00    -0.269 OA
BRANCH  33  36
ATOM     36  C   UNL     1      -3.959   0.467   6.256  1.00  0.00     0.039 A 
ATOM     37  C   UNL     1      -2.909   1.371   6.457  1.00  0.00     0.014 A 
ATOM     38  C   UNL     1      -5.209   0.939   5.841  1.00  0.00     0.014 A 
ATOM     39  C   UNL     1      -3.100   2.738   6.220  1.00  0.00     0.010 A 
ATOM     40  C   UNL     1      -5.392   2.300   5.580  1.00  0.00     0.010 A 
ATOM     41  C   UNL     1      -4.343   3.213   5.778  1.00  0.00    -0.014 A 
BRANCH  41  42
ATOM     42  C   UNL     1      -4.584   4.665   5.577  1.00  0.00     0.031 A 
ATOM     43  C   UNL     1      -5.426   5.428   6.564  1.00  0.00     0.074 A 
ATOM     44  C   UNL     1      -4.095   5.293   4.491  1.00  0.00     0.049 A 
ATOM     45  N   UNL     1      -5.871   6.657   6.500  1.00  0.00    -0.248 NA
ATOM     46  C   UNL     1      -5.833   4.700   7.774  1.00  0.00     0.031 C 
ATOM     47  C   UNL     1      -3.268   4.675   3.454  1.00  0.00     0.029 A 
ATOM     48  N   UNL     1      -4.242   6.592   4.073  1.00  0.00    -0.354 N 
ATOM     49  C   UNL     1      -6.641   6.842   7.642  1.00  0.00     0.074 A 
ATOM     50  C   UNL     1      -6.602   5.595   8.379  1.00  0.00     0.031 C 
ATOM     51  C   UNL     1      -2.988   5.593   2.513  1.00  0.00     0.029 A 
ATOM     52  C   UNL     1      -3.636   6.853   2.867  1.00  0.00     0.049 A 
ATOM     53  H   UNL     1      -4.734   7.271   4.588  1.00  0.00     0.167 HD
ATOM     54  C   UNL     1      -7.322   7.945   8.041  1.00  0.00     0.034 A 
ATOM     55  C   UNL     1      -3.625   7.974   2.121  1.00  0.00     0.034 A 
ATOM     56  C   UNL     1      -7.339   9.196   7.326  1.00  0.00     0.049 A 
ATOM     57  C   UNL     1      -4.362   9.195   2.596  1.00  0.00     0.074 A 
ATOM     58  C   UNL     1      -7.974  10.380   7.666  1.00  0.00     0.029 A 
ATOM     59  N   UNL     1      -6.686   9.429   6.125  1.00  0.00    -0.354 N 
ATOM     60  N   UNL     1      -5.110   9.343   3.663  1.00  0.00    -0.248 NA
ATOM     61  C   UNL     1      -4.256  10.399   1.759  1.00  0.00     0.031 C 
ATOM     62  C   UNL     1      -7.725  11.320   6.656  1.00  0.00     0.029 A 
ATOM     63  C   UNL     1      -6.909  10.730   5.705  1.00  0.00     0.049 A 
ATOM     64  H   UNL     1      -6.143   8.765   5.641  1.00  0.00     0.167 HD
ATOM     65  C   UNL     1      -5.560  10.658   3.628  1.00  0.00     0.074 A 
ATOM     66  C   UNL     1      -5.001  11.263   2.435  1.00  0.00     0.031 C 
ATOM     67  C   UNL     1      -6.360  11.310   4.507  1.00  0.00     0.034 A 
BRANCH  54  68
ATOM     68  C   UNL     1      -8.149   7.815   9.290  1.00  0.00     0.023 A 
ATOM     69  C   UNL     1      -7.559   7.744  10.562  1.00  0.00     0.031 A 
ATOM     70  C   UNL     1      -9.548   7.714   9.196  1.00  0.00     0.131 A 
ATOM     71  C   UNL     1      -8.363   7.520  11.689  1.00  0.00     0.055 A 
ATOM     72  C   UNL     1     -10.348   7.545  10.327  1.00  0.00     0.041 A 
ATOM     73  F   UNL     1     -10.156   7.755   8.000  1.00  0.00    -0.206 F 
ATOM     74  C   UNL     1      -9.754   7.435  11.581  1.00  0.00     0.022 A 
BRANCH  71  75
ATOM     75  S   UNL     1      -7.558   7.232  13.289  1.00  0.00     0.124 S 
ATOM     76  O   UNL     1      -6.775   6.030  13.014  1.00  0.00    -0.237 OA
ATOM     77  O   UNL     1      -6.798   8.460  13.486  1.00  0.00    -0.237 OA
ATOM     78  O   UNL     1      -8.680   7.040  14.206  1.00  0.00    -0.744 OA
ENDBRANCH  71  75
ENDBRANCH  54  68
BRANCH  55  79
ATOM     79  C   UNL     1      -2.935   7.982   0.808  1.00  0.00     0.023 A 
ATOM     80  C   UNL     1      -1.673   8.573   0.656  1.00  0.00     0.031 A 
ATOM     81  C   UNL     1      -3.553   7.413  -0.318  1.00  0.00     0.131 A 
ATOM     82  C   UNL     1      -1.071   8.602  -0.611  1.00  0.00     0.055 A 
ATOM     83  C   UNL     1      -2.942   7.428  -1.572  1.00  0.00     0.041 A 
ATOM     84  F   UNL     1      -4.759   6.834  -0.209  1.00  0.00    -0.206 F 
ATOM     85  C   UNL     1      -1.695   8.030  -1.724  1.00  0.00     0.022 A 
BRANCH  82  86
ATOM     86  S   UNL     1       0.530   9.437  -0.796  1.00  0.00     0.124 S 
ATOM     87  O   UNL     1       0.210  10.796  -0.374  1.00  0.00    -0.237 OA
ATOM     88  O   UNL     1       1.382   8.671   0.108  1.00  0.00    -0.237 OA
ATOM     89  O   UNL     1       0.834   9.282  -2.217  1.00  0.00    -0.744 OA
ENDBRANCH  82  86
ENDBRANCH  55  79
BRANCH  67  90
ATOM     90  C   UNL     1      -6.648  12.754   4.213  1.00  0.00     0.023 A 
ATOM     91  C   UNL     1      -7.639  13.127   3.291  1.00  0.00     0.031 A 
ATOM     92  C   UNL     1      -5.909  13.763   4.853  1.00  0.00     0.131 A 
ATOM     93  C   UNL     1      -7.850  14.486   3.013  1.00  0.00     0.055 A 
ATOM     94  C   UNL     1      -6.136  15.113   4.586  1.00  0.00     0.041 A 
ATOM     95  F   UNL     1      -4.950  13.448   5.738  1.00  0.00    -0.206 F 
ATOM     96  C   UNL     1      -7.108  15.480   3.658  1.00  0.00     0.022 A 
BRANCH  93  97
ATOM     97  S   UNL     1      -9.086  14.942   1.765  1.00  0.00     0.124 S 
ATOM     98  O   UNL     1      -8.571  14.287   0.568  1.00  0.00    -0.237 OA
ATOM     99  O   UNL     1     -10.314  14.382   2.321  1.00  0.00    -0.237 OA
ATOM    100  O   UNL     1      -9.029  16.403   1.743  1.00  0.00    -0.744 OA
ENDBRANCH  93  97
ENDBRANCH  67  90
ENDBRANCH  41  42
ENDBRANCH  33  36
ENDBRANCH  31  32
ENDBRANCH  30  31
ENDBRANCH   1  30
TORSDOF 17
