REMARK SMILES CC[C@](C)([NH3+])C(=O)N1CC[NH+]([C@H](C)C(=O)NCCCNC(=O)c2ccc(-c3c4nc(c(-c5cc(S(=O)(=O)[O-])ccc5F)c5ccc([nH]5)c(-c5cc(S(=O)(=O)[O-])ccc5F)c5nc(c(-c6cc(S(=O)(=O)[O-])ccc6F)c6ccc3[nH]6)C=C5)C=C4)cc2)CC1
REMARK SMILES IDX 18 1 17 2 16 3 14 4 15 5 12 7 13 8 11 9 6 10 7 11 8 12 9 13
REMARK SMILES IDX 87 14 10 15 86 16 3 18 4 19 2 20 1 21 5 22 19 26 20 27 21 28
REMARK SMILES IDX 22 30 23 31 24 32 85 33 25 34 84 35 26 36 27 37 28 38 78 39
REMARK SMILES IDX 29 40 83 41 77 42 79 43 30 44 82 45 76 46 75 47 31 49 63 50
REMARK SMILES IDX 43 51 62 52 44 53 47 54 61 55 80 56 45 57 46 58 60 60 81 61
REMARK SMILES IDX 48 62 32 63 33 64 41 65 34 66 40 67 42 68 39 69 35 70 36 71
REMARK SMILES IDX 37 72 38 73 64 74 65 75 73 76 66 77 72 78 74 79 71 80 67 81
REMARK SMILES IDX 68 82 69 83 70 84 49 85 50 86 58 87 51 88 57 89 59 90 56 91
REMARK SMILES IDX 52 92 53 93 54 94 55 95
REMARK H PARENT 16 6 11 17 5 23 5 24 5 25 20 29 79 48 47 59
REMARK Flexibility Score: inf
ROOT
ATOM      1  C   UNL     1       5.634   2.366  -4.846  1.00  0.00     0.042 C 
ENDROOT
BRANCH   1   2
ATOM      2  C   UNL     1       5.793   3.229  -3.608  1.00  0.00     0.118 C 
BRANCH   2   3
ATOM      3  N   UNL     1       6.376   4.533  -3.878  1.00  0.00    -0.351 N 
ATOM      4  C   UNL     1       6.119   5.761  -3.341  1.00  0.00     0.278 C 
ATOM      5  O   UNL     1       6.919   6.662  -3.621  1.00  0.00    -0.268 OA
ATOM      6  H   UNL     1       7.078   4.530  -4.568  1.00  0.00     0.163 HD
BRANCH   4   7
ATOM      7  C   UNL     1       4.898   6.042  -2.435  1.00  0.00     0.271 C 
ATOM      8  C   UNL     1       3.576   5.550  -3.039  1.00  0.00     0.086 C 
BRANCH   7   9
ATOM      9  N   UNL     1       5.155   5.764  -0.990  1.00  0.00    -0.322 N 
ATOM     10  C   UNL     1       3.928   3.128   1.852  1.00  0.00     0.283 C 
ATOM     11  O   UNL     1       4.604   2.140   2.174  1.00  0.00    -0.268 OA
ATOM     12  N   UNL     1       4.584   4.273   1.427  1.00  0.00    -0.326 N 
ATOM     13  C   UNL     1       5.890   4.119   0.799  1.00  0.00     0.181 C 
ATOM     14  C   UNL     1       4.107   5.648   1.325  1.00  0.00     0.181 C 
ATOM     15  C   UNL     1       5.723   4.433  -0.701  1.00  0.00     0.284 C 
ATOM     16  C   UNL     1       3.972   6.072  -0.151  1.00  0.00     0.284 C 
ATOM     17  H   UNL     1       5.899   6.411  -0.728  1.00  0.00     0.348 HD
BRANCH  10  18
ATOM     18  C   UNL     1       2.370   2.959   1.713  1.00  0.00     0.171 C 
ATOM     19  C   UNL     1       1.927   1.747   2.559  1.00  0.00     0.090 C 
BRANCH  18  20
ATOM     20  C   UNL     1       1.985   2.746   0.225  1.00  0.00     0.075 C 
ATOM     21  C   UNL     1       2.634   1.549  -0.464  1.00  0.00     0.011 C 
ENDBRANCH  18  20
BRANCH  18  22
ATOM     22  N   UNL     1       1.613   4.125   2.233  1.00  0.00    -0.345 N 
ATOM     23  H   UNL     1       1.855   4.279   3.211  1.00  0.00     0.345 HD
ATOM     24  H   UNL     1       0.612   3.942   2.154  1.00  0.00     0.345 HD
ATOM     25  H   UNL     1       1.851   4.955   1.689  1.00  0.00     0.345 HD
ENDBRANCH  18  22
ENDBRANCH  10  18
ENDBRANCH   7   9
ENDBRANCH   4   7
ENDBRANCH   2   3
ENDBRANCH   1   2
BRANCH   1  26
ATOM     26  C   UNL     1       6.955   2.024  -5.519  1.00  0.00     0.118 C 
BRANCH  26  27
ATOM     27  N   UNL     1       7.824   1.194  -4.691  1.00  0.00    -0.352 N 
ATOM     28  C   UNL     1       8.069  -0.162  -4.719  1.00  0.00     0.251 C 
ATOM     29  H   UNL     1       8.318   1.686  -3.996  1.00  0.00     0.163 HD
ATOM     30  O   UNL     1       8.709  -0.679  -3.812  1.00  0.00    -0.269 OA
BRANCH  28  31
ATOM     31  C   UNL     1       7.522  -0.990  -5.816  1.00  0.00     0.039 A 
ATOM     32  C   UNL     1       6.937  -2.225  -5.522  1.00  0.00     0.014 A 
ATOM     33  C   UNL     1       7.561  -0.536  -7.132  1.00  0.00     0.014 A 
ATOM     34  C   UNL     1       6.289  -2.942  -6.533  1.00  0.00     0.010 A 
ATOM     35  C   UNL     1       6.812  -1.183  -8.104  1.00  0.00     0.010 A 
ATOM     36  C   UNL     1       6.163  -2.394  -7.819  1.00  0.00    -0.014 A 
BRANCH  36  37
ATOM     37  C   UNL     1       5.379  -3.048  -8.903  1.00  0.00     0.031 A 
ATOM     38  C   UNL     1       6.050  -3.348 -10.218  1.00  0.00     0.074 A 
ATOM     39  C   UNL     1       4.053  -3.245  -8.760  1.00  0.00     0.049 A 
ATOM     40  N   UNL     1       5.519  -3.666 -11.370  1.00  0.00    -0.248 NA
ATOM     41  C   UNL     1       7.514  -3.209 -10.249  1.00  0.00     0.031 C 
ATOM     42  C   UNL     1       3.274  -2.958  -7.553  1.00  0.00     0.029 A 
ATOM     43  N   UNL     1       3.117  -3.710  -9.651  1.00  0.00    -0.354 N 
ATOM     44  C   UNL     1       6.578  -3.710 -12.273  1.00  0.00     0.074 A 
ATOM     45  C   UNL     1       7.767  -3.328 -11.543  1.00  0.00     0.031 C 
ATOM     46  C   UNL     1       1.987  -3.272  -7.772  1.00  0.00     0.029 A 
ATOM     47  C   UNL     1       1.834  -3.723  -9.151  1.00  0.00     0.049 A 
ATOM     48  H   UNL     1       3.342  -4.006 -10.562  1.00  0.00     0.167 HD
ATOM     49  C   UNL     1       6.562  -4.058 -13.584  1.00  0.00     0.034 A 
ATOM     50  C   UNL     1       0.665  -4.037  -9.744  1.00  0.00     0.034 A 
ATOM     51  C   UNL     1       5.375  -4.493 -14.277  1.00  0.00     0.049 A 
ATOM     52  C   UNL     1       0.672  -4.449 -11.194  1.00  0.00     0.074 A 
ATOM     53  C   UNL     1       5.252  -4.942 -15.581  1.00  0.00     0.029 A 
ATOM     54  N   UNL     1       4.105  -4.545 -13.717  1.00  0.00    -0.354 N 
ATOM     55  N   UNL     1       1.683  -4.507 -12.030  1.00  0.00    -0.248 NA
ATOM     56  C   UNL     1      -0.617  -4.841 -11.779  1.00  0.00     0.031 C 
ATOM     57  C   UNL     1       3.902  -5.219 -15.823  1.00  0.00     0.029 A 
ATOM     58  C   UNL     1       3.192  -5.004 -14.653  1.00  0.00     0.049 A 
ATOM     59  H   UNL     1       3.886  -4.293 -12.791  1.00  0.00     0.167 HD
ATOM     60  C   UNL     1       1.156  -4.974 -13.230  1.00  0.00     0.074 A 
ATOM     61  C   UNL     1      -0.260  -5.186 -13.008  1.00  0.00     0.031 C 
ATOM     62  C   UNL     1       1.785  -5.212 -14.408  1.00  0.00     0.034 A 
BRANCH  49  63
ATOM     63  C   UNL     1       7.863  -3.963 -14.343  1.00  0.00     0.023 A 
ATOM     64  C   UNL     1       8.985  -4.731 -13.985  1.00  0.00     0.031 A 
ATOM     65  C   UNL     1       8.002  -3.058 -15.410  1.00  0.00     0.131 A 
ATOM     66  C   UNL     1      10.217  -4.511 -14.618  1.00  0.00     0.055 A 
ATOM     67  C   UNL     1       9.208  -2.910 -16.099  1.00  0.00     0.041 A 
ATOM     68  F   UNL     1       6.973  -2.283 -15.789  1.00  0.00    -0.206 F 
ATOM     69  C   UNL     1      10.331  -3.625 -15.691  1.00  0.00     0.022 A 
BRANCH  66  70
ATOM     70  S   UNL     1      11.699  -5.279 -13.909  1.00  0.00     0.124 S 
ATOM     71  O   UNL     1      11.710  -4.705 -12.565  1.00  0.00    -0.237 OA
ATOM     72  O   UNL     1      11.389  -6.701 -13.994  1.00  0.00    -0.237 OA
ATOM     73  O   UNL     1      12.775  -4.819 -14.785  1.00  0.00    -0.744 OA
ENDBRANCH  66  70
ENDBRANCH  49  63
BRANCH  50  74
ATOM     74  C   UNL     1      -0.613  -3.967  -8.980  1.00  0.00     0.023 A 
ATOM     75  C   UNL     1      -1.344  -5.131  -8.695  1.00  0.00     0.031 A 
ATOM     76  C   UNL     1      -1.140  -2.735  -8.553  1.00  0.00     0.131 A 
ATOM     77  C   UNL     1      -2.583  -5.037  -8.043  1.00  0.00     0.055 A 
ATOM     78  C   UNL     1      -2.350  -2.651  -7.862  1.00  0.00     0.041 A 
ATOM     79  F   UNL     1      -0.475  -1.593  -8.791  1.00  0.00    -0.206 F 
ATOM     80  C   UNL     1      -3.086  -3.807  -7.614  1.00  0.00     0.022 A 
BRANCH  77  81
ATOM     81  S   UNL     1      -3.568  -6.545  -7.831  1.00  0.00     0.124 S 
ATOM     82  O   UNL     1      -3.732  -6.990  -9.210  1.00  0.00    -0.237 OA
ATOM     83  O   UNL     1      -2.695  -7.360  -6.992  1.00  0.00    -0.237 OA
ATOM     84  O   UNL     1      -4.786  -6.067  -7.179  1.00  0.00    -0.744 OA
ENDBRANCH  77  81
ENDBRANCH  50  74
BRANCH  62  85
ATOM     85  C   UNL     1       0.955  -5.790 -15.524  1.00  0.00     0.023 A 
ATOM     86  C   UNL     1      -0.018  -5.030 -16.193  1.00  0.00     0.031 A 
ATOM     87  C   UNL     1       1.156  -7.121 -15.930  1.00  0.00     0.131 A 
ATOM     88  C   UNL     1      -0.783  -5.620 -17.210  1.00  0.00     0.055 A 
ATOM     89  C   UNL     1       0.426  -7.688 -16.974  1.00  0.00     0.041 A 
ATOM     90  F   UNL     1       2.075  -7.888 -15.321  1.00  0.00    -0.206 F 
ATOM     91  C   UNL     1      -0.556  -6.939 -17.615  1.00  0.00     0.022 A 
BRANCH  88  92
ATOM     92  S   UNL     1      -2.123  -4.657 -17.965  1.00  0.00     0.124 S 
ATOM     93  O   UNL     1      -2.996  -4.406 -16.823  1.00  0.00    -0.237 OA
ATOM     94  O   UNL     1      -1.415  -3.496 -18.493  1.00  0.00    -0.237 OA
ATOM     95  O   UNL     1      -2.668  -5.561 -18.975  1.00  0.00    -0.744 OA
ENDBRANCH  88  92
ENDBRANCH  62  85
ENDBRANCH  36  37
ENDBRANCH  28  31
ENDBRANCH  26  27
ENDBRANCH   1  26
TORSDOF 17
