REMARK SMILES C[NH+]1CCC(C(=O)N2C[C@@H](C(=O)NCCCNC(=O)c3ccc(-c4c5nc(c(-c6cc(S(=O)(=O)[O-])ccc6F)c6ccc([nH]6)c(-c6cc(S(=O)(=O)[O-])ccc6F)c6nc(c(-c7cc(S(=O)(=O)[O-])ccc7F)c7ccc4[nH]7)C=C6)C=C5)cc3)[C@H](c3ccc4c(c3)OCO4)C2)CC1
REMARK SMILES IDX 15 1 14 2 13 3 11 4 12 5 10 7 8 8 9 9 93 10 83 11 6 12 7 13
REMARK SMILES IDX 5 14 1 15 2 16 3 17 95 18 4 20 94 21 84 22 85 23 89 24 86 25
REMARK SMILES IDX 88 26 87 27 90 28 92 29 91 30 16 31 17 32 18 33 19 35 20 36
REMARK SMILES IDX 21 37 82 38 22 39 81 40 23 41 24 42 25 43 75 44 26 45 80 46
REMARK SMILES IDX 74 47 76 48 27 49 79 50 73 51 72 52 28 54 60 55 40 56 59 57
REMARK SMILES IDX 41 58 44 59 58 60 77 61 42 62 43 63 57 65 78 66 45 67 29 68
REMARK SMILES IDX 30 69 38 70 31 71 37 72 39 73 36 74 32 75 33 76 34 77 35 78
REMARK SMILES IDX 61 79 62 80 70 81 63 82 69 83 71 84 68 85 64 86 65 87 66 88
REMARK SMILES IDX 67 89 46 90 47 91 55 92 48 93 54 94 56 95 53 96 49 97 50 98
REMARK SMILES IDX 51 99 52 100
REMARK H PARENT 13 6 2 19 17 34 76 53 44 64
REMARK Flexibility Score: inf
ROOT
ATOM      1  C   UNL     1       0.342   0.720   6.936  1.00  0.00     0.042 C 
ENDROOT
BRANCH   1   2
ATOM      2  C   UNL     1       1.713   0.762   6.290  1.00  0.00     0.117 C 
BRANCH   2   3
ATOM      3  N   UNL     1       2.292  -0.549   6.046  1.00  0.00    -0.356 N 
ATOM      4  C   UNL     1       3.055  -0.968   4.997  1.00  0.00     0.225 C 
ATOM      5  O   UNL     1       3.618  -2.060   5.080  1.00  0.00    -0.275 OA
ATOM      6  H   UNL     1       2.107  -1.228   6.734  1.00  0.00     0.163 HD
BRANCH   4   7
ATOM      7  C   UNL     1       3.178  -0.095   3.772  1.00  0.00     0.107 C 
ATOM      8  N   UNL     1       3.675  -0.021   1.526  1.00  0.00    -0.341 N 
ATOM      9  C   UNL     1       3.224  -0.957   2.528  1.00  0.00     0.133 C 
ATOM     10  C   UNL     1       4.674   0.865   2.124  1.00  0.00     0.128 C 
ATOM     11  C   UNL     1       4.506   0.693   3.658  1.00  0.00     0.053 C 
BRANCH   8  12
ATOM     12  C   UNL     1       3.316   0.110   0.209  1.00  0.00     0.226 C 
ATOM     13  O   UNL     1       4.120   0.593  -0.598  1.00  0.00    -0.275 OA
BRANCH  12  14
ATOM     14  C   UNL     1       1.852  -0.046  -0.232  1.00  0.00     0.090 C 
ATOM     15  C   UNL     1      -2.450   0.013  -0.256  1.00  0.00     0.332 C 
ATOM     16  N   UNL     1      -1.038  -0.037   0.120  1.00  0.00    -0.337 N 
ATOM     17  C   UNL     1      -0.353   1.201  -0.264  1.00  0.00     0.262 C 
ATOM     18  C   UNL     1      -0.374  -1.211  -0.464  1.00  0.00     0.262 C 
ATOM     19  H   UNL     1      -0.986  -0.126   1.135  1.00  0.00     0.347 HD
ATOM     20  C   UNL     1       1.085   1.195   0.249  1.00  0.00     0.075 C 
ATOM     21  C   UNL     1       1.055  -1.312   0.081  1.00  0.00     0.075 C 
ENDBRANCH  12  14
ENDBRANCH   8  12
BRANCH  11  22
ATOM     22  C   UNL     1       4.463   1.936   4.532  1.00  0.00    -0.038 A 
ATOM     23  C   UNL     1       3.875   3.151   4.109  1.00  0.00     0.008 A 
ATOM     24  C   UNL     1       4.846   1.802   5.883  1.00  0.00     0.054 A 
ATOM     25  C   UNL     1       3.612   4.186   5.018  1.00  0.00     0.051 A 
ATOM     26  C   UNL     1       4.519   2.813   6.764  1.00  0.00     0.166 A 
ATOM     27  C   UNL     1       3.906   3.967   6.345  1.00  0.00     0.165 A 
ATOM     28  O   UNL     1       4.614   2.742   8.121  1.00  0.00    -0.454 OA
ATOM     29  O   UNL     1       3.565   4.776   7.385  1.00  0.00    -0.454 OA
ATOM     30  C   UNL     1       3.823   3.892   8.499  1.00  0.00     0.468 C 
ENDBRANCH  11  22
ENDBRANCH   4   7
ENDBRANCH   2   3
ENDBRANCH   1   2
BRANCH   1  31
ATOM     31  C   UNL     1       0.342   0.078   8.317  1.00  0.00     0.118 C 
BRANCH  31  32
ATOM     32  N   UNL     1       1.192   0.778   9.279  1.00  0.00    -0.352 N 
ATOM     33  C   UNL     1       0.851   1.523  10.384  1.00  0.00     0.251 C 
ATOM     34  H   UNL     1       2.159   0.704   9.110  1.00  0.00     0.163 HD
ATOM     35  O   UNL     1       1.706   2.199  10.952  1.00  0.00    -0.269 OA
BRANCH  33  36
ATOM     36  C   UNL     1      -0.551   1.539  10.852  1.00  0.00     0.039 A 
ATOM     37  C   UNL     1      -1.153   2.754  11.190  1.00  0.00     0.014 A 
ATOM     38  C   UNL     1      -1.284   0.354  10.912  1.00  0.00     0.014 A 
ATOM     39  C   UNL     1      -2.522   2.792  11.475  1.00  0.00     0.010 A 
ATOM     40  C   UNL     1      -2.659   0.407  11.093  1.00  0.00     0.010 A 
ATOM     41  C   UNL     1      -3.297   1.627  11.367  1.00  0.00    -0.014 A 
BRANCH  41  42
ATOM     42  C   UNL     1      -4.775   1.620  11.538  1.00  0.00     0.031 A 
ATOM     43  C   UNL     1      -5.383   0.729  12.587  1.00  0.00     0.074 A 
ATOM     44  C   UNL     1      -5.564   2.284  10.671  1.00  0.00     0.049 A 
ATOM     45  N   UNL     1      -6.621   0.338  12.731  1.00  0.00    -0.248 NA
ATOM     46  C   UNL     1      -4.451   0.160  13.573  1.00  0.00     0.031 C 
ATOM     47  C   UNL     1      -5.098   3.164   9.597  1.00  0.00     0.029 A 
ATOM     48  N   UNL     1      -6.931   2.296  10.535  1.00  0.00    -0.354 N 
ATOM     49  C   UNL     1      -6.611  -0.561  13.793  1.00  0.00     0.074 A 
ATOM     50  C   UNL     1      -5.233  -0.691  14.219  1.00  0.00     0.031 C 
ATOM     51  C   UNL     1      -6.158   3.632   8.918  1.00  0.00     0.029 A 
ATOM     52  C   UNL     1      -7.374   3.038   9.463  1.00  0.00     0.049 A 
ATOM     53  H   UNL     1      -7.537   1.819  11.147  1.00  0.00     0.167 HD
ATOM     54  C   UNL     1      -7.656  -1.208  14.365  1.00  0.00     0.034 A 
ATOM     55  C   UNL     1      -8.614   3.193   8.956  1.00  0.00     0.034 A 
ATOM     56  C   UNL     1      -9.025  -1.031  13.949  1.00  0.00     0.049 A 
ATOM     57  C   UNL     1      -9.764   2.466   9.607  1.00  0.00     0.074 A 
ATOM     58  C   UNL     1     -10.171  -1.588  14.491  1.00  0.00     0.029 A 
ATOM     59  N   UNL     1      -9.435  -0.230  12.891  1.00  0.00    -0.354 N 
ATOM     60  N   UNL     1      -9.742   1.625  10.615  1.00  0.00    -0.248 NA
ATOM     61  C   UNL     1     -11.104   2.709   9.055  1.00  0.00     0.031 C 
ATOM     62  C   UNL     1     -11.265  -1.166  13.729  1.00  0.00     0.029 A 
ATOM     63  C   UNL     1     -10.812  -0.291  12.755  1.00  0.00     0.049 A 
ATOM     64  H   UNL     1      -8.835   0.303  12.321  1.00  0.00     0.167 HD
ATOM     65  C   UNL     1     -11.069   1.273  10.843  1.00  0.00     0.074 A 
ATOM     66  C   UNL     1     -11.864   1.987   9.866  1.00  0.00     0.031 C 
ATOM     67  C   UNL     1     -11.586   0.442  11.782  1.00  0.00     0.034 A 
BRANCH  54  68
ATOM     68  C   UNL     1      -7.347  -2.179  15.478  1.00  0.00     0.023 A 
ATOM     69  C   UNL     1      -6.747  -1.761  16.678  1.00  0.00     0.031 A 
ATOM     70  C   UNL     1      -7.616  -3.551  15.322  1.00  0.00     0.131 A 
ATOM     71  C   UNL     1      -6.353  -2.710  17.633  1.00  0.00     0.055 A 
ATOM     72  C   UNL     1      -7.305  -4.481  16.316  1.00  0.00     0.041 A 
ATOM     73  F   UNL     1      -8.170  -4.015  14.190  1.00  0.00    -0.206 F 
ATOM     74  C   UNL     1      -6.652  -4.065  17.473  1.00  0.00     0.022 A 
BRANCH  71  75
ATOM     75  S   UNL     1      -5.304  -2.165  19.008  1.00  0.00     0.124 S 
ATOM     76  O   UNL     1      -4.141  -1.638  18.297  1.00  0.00    -0.237 OA
ATOM     77  O   UNL     1      -6.145  -1.179  19.675  1.00  0.00    -0.237 OA
ATOM     78  O   UNL     1      -5.061  -3.393  19.762  1.00  0.00    -0.744 OA
ENDBRANCH  71  75
ENDBRANCH  54  68
BRANCH  55  79
ATOM     79  C   UNL     1      -8.838   4.051   7.757  1.00  0.00     0.023 A 
ATOM     80  C   UNL     1      -9.589   5.233   7.850  1.00  0.00     0.031 A 
ATOM     81  C   UNL     1      -8.334   3.688   6.496  1.00  0.00     0.131 A 
ATOM     82  C   UNL     1      -9.854   5.987   6.697  1.00  0.00     0.055 A 
ATOM     83  C   UNL     1      -8.557   4.468   5.360  1.00  0.00     0.041 A 
ATOM     84  F   UNL     1      -7.603   2.571   6.352  1.00  0.00    -0.206 F 
ATOM     85  C   UNL     1      -9.332   5.620   5.454  1.00  0.00     0.022 A 
BRANCH  82  86
ATOM     86  S   UNL     1     -10.959   7.419   6.831  1.00  0.00     0.124 S 
ATOM     87  O   UNL     1     -12.177   6.805   7.350  1.00  0.00    -0.237 OA
ATOM     88  O   UNL     1     -10.229   8.279   7.756  1.00  0.00    -0.237 OA
ATOM     89  O   UNL     1     -11.044   7.913   5.459  1.00  0.00    -0.744 OA
ENDBRANCH  82  86
ENDBRANCH  55  79
BRANCH  67  90
ATOM     90  C   UNL     1     -13.086   0.324  11.851  1.00  0.00     0.023 A 
ATOM     91  C   UNL     1     -13.826  -0.358  10.872  1.00  0.00     0.031 A 
ATOM     92  C   UNL     1     -13.777   0.881  12.943  1.00  0.00     0.131 A 
ATOM     93  C   UNL     1     -15.223  -0.440  10.988  1.00  0.00     0.055 A 
ATOM     94  C   UNL     1     -15.160   0.756  13.076  1.00  0.00     0.041 A 
ATOM     95  F   UNL     1     -13.114   1.542  13.905  1.00  0.00    -0.206 F 
ATOM     96  C   UNL     1     -15.891   0.098  12.092  1.00  0.00     0.022 A 
BRANCH  93  97
ATOM     97  S   UNL     1     -16.166  -1.226   9.654  1.00  0.00     0.124 S 
ATOM     98  O   UNL     1     -15.874  -0.354   8.521  1.00  0.00    -0.237 OA
ATOM     99  O   UNL     1     -15.579  -2.561   9.598  1.00  0.00    -0.237 OA
ATOM    100  O   UNL     1     -17.546  -1.179  10.135  1.00  0.00    -0.744 OA
ENDBRANCH  93  97
ENDBRANCH  67  90
ENDBRANCH  41  42
ENDBRANCH  33  36
ENDBRANCH  31  32
ENDBRANCH   1  31
TORSDOF 16
