REMARK SMILES CCc1cc(N2CCC(O)(C(=O)NCCCNC(=O)c3ccc(-c4c5nc(c(-c6cc(S(=O)(=O)[O-])ccc6F)c6ccc([nH]6)c(-c6cc(S(=O)(=O)[O-])ccc6F)c6nc(c(-c7cc(S(=O)(=O)[O-])ccc7F)c7ccc4[nH]7)C=C6)C=C5)cc3)CC2)nc(N2CCOCC2)n1
REMARK SMILES IDX 15 1 14 2 13 3 11 4 12 5 9 7 6 8 7 9 84 10 8 11 83 12 5 13
REMARK SMILES IDX 3 14 4 15 93 16 86 17 85 18 2 19 1 20 87 21 88 22 92 23
REMARK SMILES IDX 89 24 91 25 90 26 10 27 16 29 17 30 18 31 19 33 20 34 21 35
REMARK SMILES IDX 82 36 22 37 81 38 23 39 24 40 25 41 75 42 26 43 80 44 74 45
REMARK SMILES IDX 76 46 27 47 79 48 73 49 72 50 28 52 60 53 40 54 59 55 41 56
REMARK SMILES IDX 44 57 58 58 77 59 42 60 43 61 57 63 78 64 45 65 29 66 30 67
REMARK SMILES IDX 38 68 31 69 37 70 39 71 36 72 32 73 33 74 34 75 35 76 61 77
REMARK SMILES IDX 62 78 70 79 63 80 69 81 71 82 68 83 64 84 65 85 66 86 67 87
REMARK SMILES IDX 46 88 47 89 55 90 48 91 54 92 56 93 53 94 49 95 50 96 51 97
REMARK SMILES IDX 52 98
REMARK H PARENT 13 6 10 28 17 32 76 51 44 62
REMARK Flexibility Score: inf
ROOT
ATOM      1  C   UNL     1       3.208  11.086  -1.122  1.00  0.00     0.042 C 
ENDROOT
BRANCH   1   2
ATOM      2  C   UNL     1       1.835  11.119  -1.787  1.00  0.00     0.117 C 
BRANCH   2   3
ATOM      3  N   UNL     1       1.891  10.641  -3.155  1.00  0.00    -0.354 N 
ATOM      4  C   UNL     1       1.425   9.486  -3.711  1.00  0.00     0.252 C 
ATOM      5  O   UNL     1       1.601   9.352  -4.927  1.00  0.00    -0.272 OA
ATOM      6  H   UNL     1       2.339  11.249  -3.786  1.00  0.00     0.163 HD
BRANCH   4   7
ATOM      7  C   UNL     1       0.715   8.400  -2.850  1.00  0.00     0.146 C 
ATOM      8  N   UNL     1       0.535   5.656  -2.069  1.00  0.00    -0.356 N 
ATOM      9  C   UNL     1       1.090   6.582  -1.108  1.00  0.00     0.121 C 
ATOM     10  C   UNL     1      -0.394   6.114  -3.083  1.00  0.00     0.121 C 
ATOM     11  C   UNL     1       1.696   7.773  -1.845  1.00  0.00     0.067 C 
ATOM     12  C   UNL     1       0.175   7.319  -3.810  1.00  0.00     0.067 C 
BRANCH   8  13
ATOM     13  C   UNL     1       0.898   4.329  -2.062  1.00  0.00     0.134 A 
ATOM     14  C   UNL     1       0.859   2.193  -1.085  1.00  0.00     0.048 A 
ATOM     15  C   UNL     1       0.592   3.539  -0.975  1.00  0.00     0.071 A 
ATOM     16  N   UNL     1       1.411   1.671  -2.195  1.00  0.00    -0.218 NA
ATOM     17  C   UNL     1       1.775   2.518  -3.169  1.00  0.00     0.227 A 
ATOM     18  N   UNL     1       1.508   3.830  -3.148  1.00  0.00    -0.196 NA
BRANCH  14  19
ATOM     19  C   UNL     1       0.485   1.270   0.049  1.00  0.00     0.053 C 
ATOM     20  C   UNL     1       1.014  -0.151  -0.091  1.00  0.00     0.011 C 
ENDBRANCH  14  19
BRANCH  17  21
ATOM     21  N   UNL     1       2.479   1.996  -4.217  1.00  0.00    -0.336 N 
ATOM     22  C   UNL     1       3.656   2.676  -4.735  1.00  0.00     0.148 C 
ATOM     23  C   UNL     1       1.839   1.013  -5.073  1.00  0.00     0.148 C 
ATOM     24  C   UNL     1       3.425   3.148  -6.175  1.00  0.00     0.181 C 
ATOM     25  C   UNL     1       1.669   1.602  -6.485  1.00  0.00     0.181 C 
ATOM     26  O   UNL     1       2.918   2.088  -7.010  1.00  0.00    -0.378 OA
ENDBRANCH  17  21
ENDBRANCH   8  13
BRANCH   7  27
ATOM     27  O   UNL     1      -0.384   9.009  -2.156  1.00  0.00    -0.380 OA
ATOM     28  H   UNL     1      -0.047   9.690  -1.552  1.00  0.00     0.212 HD
ENDBRANCH   7  27
ENDBRANCH   4   7
ENDBRANCH   2   3
ENDBRANCH   1   2
BRANCH   1  29
ATOM     29  C   UNL     1       4.226  12.032  -1.750  1.00  0.00     0.118 C 
BRANCH  29  30
ATOM     30  N   UNL     1       3.847  13.429  -1.608  1.00  0.00    -0.352 N 
ATOM     31  C   UNL     1       4.499  14.460  -0.982  1.00  0.00     0.251 C 
ATOM     32  H   UNL     1       2.990  13.672  -2.026  1.00  0.00     0.163 HD
ATOM     33  O   UNL     1       3.895  15.520  -0.793  1.00  0.00    -0.269 OA
BRANCH  31  34
ATOM     34  C   UNL     1       5.895  14.310  -0.518  1.00  0.00     0.039 A 
ATOM     35  C   UNL     1       6.259  14.865   0.712  1.00  0.00     0.014 A 
ATOM     36  C   UNL     1       6.855  13.656  -1.296  1.00  0.00     0.014 A 
ATOM     37  C   UNL     1       7.564  14.711   1.188  1.00  0.00     0.010 A 
ATOM     38  C   UNL     1       8.134  13.437  -0.786  1.00  0.00     0.010 A 
ATOM     39  C   UNL     1       8.504  13.964   0.461  1.00  0.00    -0.014 A 
BRANCH  39  40
ATOM     40  C   UNL     1       9.874  13.724   0.991  1.00  0.00     0.031 A 
ATOM     41  C   UNL     1      11.076  14.256   0.254  1.00  0.00     0.074 A 
ATOM     42  C   UNL     1      10.036  12.977   2.103  1.00  0.00     0.049 A 
ATOM     43  N   UNL     1      12.347  14.086   0.516  1.00  0.00    -0.248 NA
ATOM     44  C   UNL     1      10.816  15.063  -0.949  1.00  0.00     0.031 C 
ATOM     45  C   UNL     1       8.949  12.376   2.881  1.00  0.00     0.029 A 
ATOM     46  N   UNL     1      11.171  12.582   2.767  1.00  0.00    -0.354 N 
ATOM     47  C   UNL     1      13.037  14.745  -0.496  1.00  0.00     0.074 A 
ATOM     48  C   UNL     1      12.043  15.281  -1.401  1.00  0.00     0.031 C 
ATOM     49  C   UNL     1       9.470  11.705   3.921  1.00  0.00     0.029 A 
ATOM     50  C   UNL     1      10.926  11.781   3.860  1.00  0.00     0.049 A 
ATOM     51  H   UNL     1      12.077  12.847   2.487  1.00  0.00     0.167 HD
ATOM     52  C   UNL     1      14.375  14.899  -0.647  1.00  0.00     0.034 A 
ATOM     53  C   UNL     1      11.775  11.161   4.704  1.00  0.00     0.034 A 
ATOM     54  C   UNL     1      15.353  14.381   0.279  1.00  0.00     0.049 A 
ATOM     55  C   UNL     1      13.261  11.344   4.504  1.00  0.00     0.074 A 
ATOM     56  C   UNL     1      16.727  14.550   0.260  1.00  0.00     0.029 A 
ATOM     57  N   UNL     1      15.066  13.587   1.381  1.00  0.00    -0.354 N 
ATOM     58  N   UNL     1      13.891  12.032   3.579  1.00  0.00    -0.248 NA
ATOM     59  C   UNL     1      14.149  10.679   5.466  1.00  0.00     0.031 C 
ATOM     60  C   UNL     1      17.276  13.797   1.301  1.00  0.00     0.029 A 
ATOM     61  C   UNL     1      16.241  13.228   2.025  1.00  0.00     0.049 A 
ATOM     62  H   UNL     1      14.162  13.319   1.664  1.00  0.00     0.167 HD
ATOM     63  C   UNL     1      15.247  11.911   3.876  1.00  0.00     0.074 A 
ATOM     64  C   UNL     1      15.340  11.103   5.073  1.00  0.00     0.031 C 
ATOM     65  C   UNL     1      16.319  12.422   3.220  1.00  0.00     0.034 A 
BRANCH  52  66
ATOM     66  C   UNL     1      14.872  15.633  -1.869  1.00  0.00     0.023 A 
ATOM     67  C   UNL     1      14.615  16.999  -2.073  1.00  0.00     0.031 A 
ATOM     68  C   UNL     1      15.645  14.956  -2.830  1.00  0.00     0.131 A 
ATOM     69  C   UNL     1      15.089  17.634  -3.231  1.00  0.00     0.055 A 
ATOM     70  C   UNL     1      16.174  15.610  -3.944  1.00  0.00     0.041 A 
ATOM     71  F   UNL     1      15.905  13.646  -2.698  1.00  0.00    -0.206 F 
ATOM     72  C   UNL     1      15.889  16.956  -4.154  1.00  0.00     0.022 A 
BRANCH  69  73
ATOM     73  S   UNL     1      14.565  19.338  -3.566  1.00  0.00     0.124 S 
ATOM     74  O   UNL     1      13.115  19.186  -3.662  1.00  0.00    -0.237 OA
ATOM     75  O   UNL     1      15.056  20.056  -2.396  1.00  0.00    -0.237 OA
ATOM     76  O   UNL     1      15.235  19.662  -4.824  1.00  0.00    -0.744 OA
ENDBRANCH  69  73
ENDBRANCH  52  66
BRANCH  53  77
ATOM     77  C   UNL     1      11.263  10.283   5.799  1.00  0.00     0.023 A 
ATOM     78  C   UNL     1      11.541  10.566   7.146  1.00  0.00     0.031 A 
ATOM     79  C   UNL     1      10.561   9.099   5.510  1.00  0.00     0.131 A 
ATOM     80  C   UNL     1      11.187   9.644   8.144  1.00  0.00     0.055 A 
ATOM     81  C   UNL     1      10.149   8.219   6.512  1.00  0.00     0.041 A 
ATOM     82  F   UNL     1      10.265   8.776   4.240  1.00  0.00    -0.206 F 
ATOM     83  C   UNL     1      10.481   8.479   7.838  1.00  0.00     0.022 A 
BRANCH  80  84
ATOM     84  S   UNL     1      11.785   9.924   9.834  1.00  0.00     0.124 S 
ATOM     85  O   UNL     1      13.222  10.056   9.621  1.00  0.00    -0.237 OA
ATOM     86  O   UNL     1      11.076  11.144  10.206  1.00  0.00    -0.237 OA
ATOM     87  O   UNL     1      11.366   8.719  10.546  1.00  0.00    -0.744 OA
ENDBRANCH  80  84
ENDBRANCH  53  77
BRANCH  65  88
ATOM     88  C   UNL     1      17.680  12.167   3.821  1.00  0.00     0.023 A 
ATOM     89  C   UNL     1      18.229  10.875   3.898  1.00  0.00     0.031 A 
ATOM     90  C   UNL     1      18.435  13.238   4.334  1.00  0.00     0.131 A 
ATOM     91  C   UNL     1      19.466  10.678   4.529  1.00  0.00     0.055 A 
ATOM     92  C   UNL     1      19.696  13.044   4.900  1.00  0.00     0.041 A 
ATOM     93  F   UNL     1      17.960  14.493   4.290  1.00  0.00    -0.206 F 
ATOM     94  C   UNL     1      20.212  11.756   5.014  1.00  0.00     0.022 A 
BRANCH  91  95
ATOM     95  S   UNL     1      20.046   8.981   4.798  1.00  0.00     0.124 S 
ATOM     96  O   UNL     1      18.957   8.410   5.585  1.00  0.00    -0.237 OA
ATOM     97  O   UNL     1      20.179   8.477   3.436  1.00  0.00    -0.237 OA
ATOM     98  O   UNL     1      21.305   9.158   5.519  1.00  0.00    -0.744 OA
ENDBRANCH  91  95
ENDBRANCH  65  88
ENDBRANCH  39  40
ENDBRANCH  31  34
ENDBRANCH  29  30
ENDBRANCH   1  29
TORSDOF 17
