REMARK SMILES CC[C@H](C)[C@@H](Nc1nc(C(F)(F)F)nc2ccccc12)C(=O)NCCCNC(=O)c1ccc(-c2c3nc(c(-c4cc(S(=O)(=O)[O-])ccc4F)c4ccc([nH]4)c(-c4cc(S(=O)(=O)[O-])ccc4F)c4nc(c(-c5cc(S(=O)(=O)[O-])ccc5F)c5ccc2[nH]5)C=C4)C=C3)cc1
REMARK SMILES IDX 25 1 24 2 23 3 21 4 22 5 5 7 3 8 4 9 2 10 1 11 6 12 7 14
REMARK SMILES IDX 8 15 20 16 9 17 15 18 19 19 14 20 16 21 18 22 17 23 10 24
REMARK SMILES IDX 11 25 12 26 13 27 26 28 27 29 28 30 29 32 30 33 31 34 92 35
REMARK SMILES IDX 32 36 91 37 33 38 34 39 35 40 85 41 36 42 90 43 84 44 86 45
REMARK SMILES IDX 37 46 89 47 83 48 82 49 38 51 70 52 50 53 69 54 51 55 54 56
REMARK SMILES IDX 68 57 87 58 52 59 53 60 67 62 88 63 55 64 39 65 40 66 48 67
REMARK SMILES IDX 41 68 47 69 49 70 46 71 42 72 43 73 44 74 45 75 71 76 72 77
REMARK SMILES IDX 80 78 73 79 79 80 81 81 78 82 74 83 75 84 76 85 77 86 56 87
REMARK SMILES IDX 57 88 65 89 58 90 64 91 66 92 63 93 59 94 60 95 61 96 62 97
REMARK H PARENT 23 6 6 13 27 31 86 50 54 61
REMARK Flexibility Score: inf
ROOT
ATOM      1  C   UNL     1       4.384   0.864   3.588  1.00  0.00     0.042 C 
ENDROOT
BRANCH   1   2
ATOM      2  C   UNL     1       3.418  -0.040   4.329  1.00  0.00     0.117 C 
BRANCH   2   3
ATOM      3  N   UNL     1       2.322   0.711   4.919  1.00  0.00    -0.354 N 
ATOM      4  C   UNL     1       0.979   0.617   4.706  1.00  0.00     0.242 C 
ATOM      5  O   UNL     1       0.246   1.393   5.328  1.00  0.00    -0.273 OA
ATOM      6  H   UNL     1       2.592   1.394   5.575  1.00  0.00     0.163 HD
BRANCH   4   7
ATOM      7  C   UNL     1       0.377  -0.403   3.703  1.00  0.00     0.173 C 
BRANCH   7   8
ATOM      8  C   UNL     1       0.747   0.044   2.247  1.00  0.00     0.018 C 
ATOM      9  C   UNL     1       0.423  -0.993   1.166  1.00  0.00     0.010 C 
BRANCH   8  10
ATOM     10  C   UNL     1       0.140   1.430   1.890  1.00  0.00     0.002 C 
ATOM     11  C   UNL     1      -1.287   1.403   1.359  1.00  0.00     0.004 C 
ENDBRANCH   8  10
ENDBRANCH   7   8
BRANCH   7  12
ATOM     12  N   UNL     1       0.736  -1.819   3.987  1.00  0.00    -0.358 N 
ATOM     13  H   UNL     1       0.522  -2.478   3.288  1.00  0.00     0.162 HD
BRANCH  12  14
ATOM     14  C   UNL     1       1.336  -2.301   5.132  1.00  0.00     0.138 A 
ATOM     15  N   UNL     1       2.387  -3.089   4.840  1.00  0.00    -0.207 NA
ATOM     16  C   UNL     1       1.016  -1.957   6.452  1.00  0.00     0.043 A 
ATOM     17  C   UNL     1       3.225  -3.443   5.841  1.00  0.00     0.237 A 
ATOM     18  C   UNL     1       1.967  -2.331   7.411  1.00  0.00     0.076 A 
ATOM     19  C   UNL     1      -0.146  -1.266   6.875  1.00  0.00     0.014 A 
ATOM     20  N   UNL     1       3.054  -3.048   7.119  1.00  0.00    -0.224 NA
ATOM     21  C   UNL     1       1.794  -1.919   8.726  1.00  0.00     0.029 A 
ATOM     22  C   UNL     1      -0.304  -0.868   8.202  1.00  0.00     0.001 A 
ATOM     23  C   UNL     1       0.681  -1.179   9.127  1.00  0.00     0.002 A 
BRANCH  17  24
ATOM     24  C   UNL     1       4.480  -4.246   5.479  1.00  0.00     0.451 C 
ATOM     25  F   UNL     1       4.198  -5.420   4.835  1.00  0.00    -0.163 F 
ATOM     26  F   UNL     1       5.320  -3.563   4.643  1.00  0.00    -0.163 F 
ATOM     27  F   UNL     1       5.247  -4.601   6.554  1.00  0.00    -0.163 F 
ENDBRANCH  17  24
ENDBRANCH  12  14
ENDBRANCH   7  12
ENDBRANCH   4   7
ENDBRANCH   2   3
ENDBRANCH   1   2
BRANCH   1  28
ATOM     28  C   UNL     1       5.157   1.783   4.518  1.00  0.00     0.118 C 
BRANCH  28  29
ATOM     29  N   UNL     1       6.087   1.056   5.374  1.00  0.00    -0.352 N 
ATOM     30  C   UNL     1       7.444   1.235   5.505  1.00  0.00     0.251 C 
ATOM     31  H   UNL     1       5.693   0.346   5.930  1.00  0.00     0.163 HD
ATOM     32  O   UNL     1       8.120   0.424   6.129  1.00  0.00    -0.269 OA
BRANCH  30  33
ATOM     33  C   UNL     1       8.068   2.405   4.857  1.00  0.00     0.039 A 
ATOM     34  C   UNL     1       9.193   2.227   4.049  1.00  0.00     0.014 A 
ATOM     35  C   UNL     1       7.487   3.666   5.004  1.00  0.00     0.014 A 
ATOM     36  C   UNL     1       9.695   3.312   3.326  1.00  0.00     0.010 A 
ATOM     37  C   UNL     1       7.930   4.717   4.217  1.00  0.00     0.010 A 
ATOM     38  C   UNL     1       9.044   4.554   3.377  1.00  0.00    -0.014 A 
BRANCH  38  39
ATOM     39  C   UNL     1       9.518   5.733   2.609  1.00  0.00     0.031 A 
ATOM     40  C   UNL     1       9.939   6.964   3.361  1.00  0.00     0.074 A 
ATOM     41  C   UNL     1       9.447   5.743   1.265  1.00  0.00     0.049 A 
ATOM     42  N   UNL     1      10.159   8.175   2.921  1.00  0.00    -0.248 NA
ATOM     43  C   UNL     1      10.072   6.816   4.818  1.00  0.00     0.031 C 
ATOM     44  C   UNL     1       9.020   4.620   0.428  1.00  0.00     0.029 A 
ATOM     45  N   UNL     1       9.704   6.748   0.367  1.00  0.00    -0.354 N 
ATOM     46  C   UNL     1      10.414   8.943   4.053  1.00  0.00     0.074 A 
ATOM     47  C   UNL     1      10.254   8.070   5.196  1.00  0.00     0.031 C 
ATOM     48  C   UNL     1       9.044   4.999  -0.860  1.00  0.00     0.029 A 
ATOM     49  C   UNL     1       9.437   6.403  -0.937  1.00  0.00     0.049 A 
ATOM     50  H   UNL     1      10.047   7.633   0.631  1.00  0.00     0.167 HD
ATOM     51  C   UNL     1      10.767  10.250   4.127  1.00  0.00     0.034 A 
ATOM     52  C   UNL     1       9.476   7.144  -2.063  1.00  0.00     0.034 A 
ATOM     53  C   UNL     1      10.946  11.090   2.969  1.00  0.00     0.049 A 
ATOM     54  C   UNL     1       9.880   8.592  -1.967  1.00  0.00     0.074 A 
ATOM     55  C   UNL     1      11.358  12.409   2.911  1.00  0.00     0.029 A 
ATOM     56  N   UNL     1      10.722  10.686   1.657  1.00  0.00    -0.354 N 
ATOM     57  N   UNL     1      10.146   9.304  -0.896  1.00  0.00    -0.248 NA
ATOM     58  C   UNL     1       9.998   9.333  -3.229  1.00  0.00     0.031 C 
ATOM     59  C   UNL     1      11.330  12.819   1.573  1.00  0.00     0.029 A 
ATOM     60  C   UNL     1      10.969  11.735   0.786  1.00  0.00     0.049 A 
ATOM     61  H   UNL     1      10.430   9.786   1.386  1.00  0.00     0.167 HD
ATOM     62  C   UNL     1      10.496  10.569  -1.359  1.00  0.00     0.074 A 
ATOM     63  C   UNL     1      10.404  10.522  -2.804  1.00  0.00     0.031 C 
ATOM     64  C   UNL     1      10.871  11.666  -0.653  1.00  0.00     0.034 A 
BRANCH  51  65
ATOM     65  C   UNL     1      10.944  10.837   5.509  1.00  0.00     0.023 A 
ATOM     66  C   UNL     1      11.891  10.323   6.413  1.00  0.00     0.031 A 
ATOM     67  C   UNL     1      10.103  11.869   5.960  1.00  0.00     0.131 A 
ATOM     68  C   UNL     1      11.895  10.755   7.747  1.00  0.00     0.055 A 
ATOM     69  C   UNL     1      10.182  12.367   7.263  1.00  0.00     0.041 A 
ATOM     70  F   UNL     1       9.166  12.391   5.153  1.00  0.00    -0.206 F 
ATOM     71  C   UNL     1      11.065  11.793   8.173  1.00  0.00     0.022 A 
BRANCH  68  72
ATOM     72  S   UNL     1      12.856   9.803   8.956  1.00  0.00     0.124 S 
ATOM     73  O   UNL     1      12.288   8.466   8.795  1.00  0.00    -0.237 OA
ATOM     74  O   UNL     1      14.223   9.978   8.481  1.00  0.00    -0.237 OA
ATOM     75  O   UNL     1      12.547  10.453  10.228  1.00  0.00    -0.744 OA
ENDBRANCH  68  72
ENDBRANCH  51  65
BRANCH  52  76
ATOM     76  C   UNL     1       9.107   6.531  -3.369  1.00  0.00     0.023 A 
ATOM     77  C   UNL     1      10.075   6.301  -4.359  1.00  0.00     0.031 A 
ATOM     78  C   UNL     1       7.779   6.160  -3.642  1.00  0.00     0.131 A 
ATOM     79  C   UNL     1       9.695   5.742  -5.589  1.00  0.00     0.055 A 
ATOM     80  C   UNL     1       7.413   5.567  -4.851  1.00  0.00     0.041 A 
ATOM     81  F   UNL     1       6.819   6.346  -2.721  1.00  0.00    -0.206 F 
ATOM     82  C   UNL     1       8.373   5.362  -5.837  1.00  0.00     0.022 A 
BRANCH  79  83
ATOM     83  S   UNL     1      10.952   5.553  -6.883  1.00  0.00     0.124 S 
ATOM     84  O   UNL     1      11.355   6.936  -7.110  1.00  0.00    -0.237 OA
ATOM     85  O   UNL     1      11.935   4.696  -6.229  1.00  0.00    -0.237 OA
ATOM     86  O   UNL     1      10.217   4.928  -7.981  1.00  0.00    -0.744 OA
ENDBRANCH  79  83
ENDBRANCH  52  76
BRANCH  64  87
ATOM     87  C   UNL     1      11.275  12.886  -1.440  1.00  0.00     0.023 A 
ATOM     88  C   UNL     1      10.339  13.667  -2.137  1.00  0.00     0.031 A 
ATOM     89  C   UNL     1      12.624  13.284  -1.463  1.00  0.00     0.131 A 
ATOM     90  C   UNL     1      10.771  14.791  -2.858  1.00  0.00     0.055 A 
ATOM     91  C   UNL     1      13.040  14.429  -2.142  1.00  0.00     0.041 A 
ATOM     92  F   UNL     1      13.557  12.570  -0.812  1.00  0.00    -0.206 F 
ATOM     93  C   UNL     1      12.112  15.186  -2.851  1.00  0.00     0.022 A 
BRANCH  90  94
ATOM     94  S   UNL     1       9.563  15.711  -3.850  1.00  0.00     0.124 S 
ATOM     95  O   UNL     1       9.122  14.699  -4.806  1.00  0.00    -0.237 OA
ATOM     96  O   UNL     1       8.579  16.116  -2.852  1.00  0.00    -0.237 OA
ATOM     97  O   UNL     1      10.348  16.803  -4.423  1.00  0.00    -0.744 OA
ENDBRANCH  90  94
ENDBRANCH  64  87
ENDBRANCH  38  39
ENDBRANCH  30  33
ENDBRANCH  28  29
ENDBRANCH   1  28
TORSDOF 18
