REMARK SMILES CCCC[C@@](CC)(C[C@H]1CCOC1)C(=O)NCCCNC(=O)c1ccc(-c2c3nc(c(-c4cc(S(=O)(=O)[O-])ccc4F)c4ccc([nH]4)c(-c4cc(S(=O)(=O)[O-])ccc4F)c4nc(c(-c5cc(S(=O)(=O)[O-])ccc5F)c5ccc2[nH]5)C=C4)C=C3)cc1
REMARK SMILES IDX 18 1 17 2 16 3 14 4 15 5 5 7 4 8 3 9 2 10 1 11 6 12 7 13
REMARK SMILES IDX 8 14 9 15 10 16 13 17 11 18 12 19 19 20 20 21 21 22 22 24
REMARK SMILES IDX 23 25 24 26 85 27 25 28 84 29 26 30 27 31 28 32 78 33 29 34
REMARK SMILES IDX 83 35 77 36 79 37 30 38 82 39 76 40 75 41 31 43 63 44 43 45
REMARK SMILES IDX 62 46 44 47 47 48 61 49 80 50 45 51 46 52 60 54 81 55 48 56
REMARK SMILES IDX 32 57 33 58 41 59 34 60 40 61 42 62 39 63 35 64 36 65 37 66
REMARK SMILES IDX 38 67 64 68 65 69 73 70 66 71 72 72 74 73 71 74 67 75 68 76
REMARK SMILES IDX 69 77 70 78 49 79 50 80 58 81 51 82 57 83 59 84 56 85 52 86
REMARK SMILES IDX 53 87 54 88 55 89
REMARK H PARENT 16 6 20 23 79 42 47 53
REMARK Flexibility Score: inf
ROOT
ATOM      1  C   UNL     1      -0.439   4.585  -5.198  1.00  0.00     0.042 C 
ENDROOT
BRANCH   1   2
ATOM      2  C   UNL     1      -1.869   4.069  -5.102  1.00  0.00     0.117 C 
BRANCH   2   3
ATOM      3  N   UNL     1      -1.924   2.711  -4.580  1.00  0.00    -0.356 N 
ATOM      4  C   UNL     1      -2.306   2.159  -3.399  1.00  0.00     0.226 C 
ATOM      5  O   UNL     1      -1.969   0.981  -3.261  1.00  0.00    -0.274 OA
ATOM      6  H   UNL     1      -1.614   2.040  -5.231  1.00  0.00     0.163 HD
BRANCH   4   7
ATOM      7  C   UNL     1      -3.052   2.941  -2.291  1.00  0.00     0.049 C 
BRANCH   7   8
ATOM      8  C   UNL     1      -3.489   2.038  -1.078  1.00  0.00     0.017 C 
BRANCH   8   9
ATOM      9  C   UNL     1      -4.557   0.938  -1.253  1.00  0.00     0.001 C 
BRANCH   9  10
ATOM     10  C   UNL     1      -4.144  -0.361  -1.953  1.00  0.00    -0.003 C 
ATOM     11  C   UNL     1      -2.967  -1.080  -1.303  1.00  0.00     0.004 C 
ENDBRANCH   9  10
ENDBRANCH   8   9
ENDBRANCH   7   8
BRANCH   7  12
ATOM     12  C   UNL     1      -4.337   3.558  -2.942  1.00  0.00     0.013 C 
ATOM     13  C   UNL     1      -5.144   4.531  -2.094  1.00  0.00     0.005 C 
ENDBRANCH   7  12
BRANCH   7  14
ATOM     14  C   UNL     1      -2.058   4.025  -1.735  1.00  0.00     0.023 C 
BRANCH  14  15
ATOM     15  C   UNL     1      -0.842   3.562  -0.892  1.00  0.00     0.018 C 
ATOM     16  C   UNL     1      -0.068   2.316  -1.281  1.00  0.00     0.034 C 
ATOM     17  C   UNL     1       0.298   4.580  -0.887  1.00  0.00     0.163 C 
ATOM     18  C   UNL     1       1.217   2.480  -0.497  1.00  0.00     0.160 C 
ATOM     19  O   UNL     1       1.464   3.888  -0.415  1.00  0.00    -0.381 OA
ENDBRANCH  14  15
ENDBRANCH   7  14
ENDBRANCH   4   7
ENDBRANCH   2   3
ENDBRANCH   1   2
BRANCH   1  20
ATOM     20  C   UNL     1       0.478   3.723  -6.055  1.00  0.00     0.118 C 
BRANCH  20  21
ATOM     21  N   UNL     1       0.028   3.636  -7.438  1.00  0.00    -0.352 N 
ATOM     22  C   UNL     1       0.566   4.189  -8.574  1.00  0.00     0.251 C 
ATOM     23  H   UNL     1      -0.785   3.100  -7.579  1.00  0.00     0.163 HD
ATOM     24  O   UNL     1      -0.090   4.191  -9.614  1.00  0.00    -0.269 OA
BRANCH  22  25
ATOM     25  C   UNL     1       1.909   4.804  -8.536  1.00  0.00     0.039 A 
ATOM     26  C   UNL     1       2.111   6.036  -9.163  1.00  0.00     0.014 A 
ATOM     27  C   UNL     1       2.966   4.174  -7.873  1.00  0.00     0.014 A 
ATOM     28  C   UNL     1       3.347   6.678  -9.043  1.00  0.00     0.010 A 
ATOM     29  C   UNL     1       4.165   4.853  -7.682  1.00  0.00     0.010 A 
ATOM     30  C   UNL     1       4.366   6.117  -8.256  1.00  0.00    -0.014 A 
BRANCH  30  31
ATOM     31  C   UNL     1       5.636   6.845  -7.992  1.00  0.00     0.031 A 
ATOM     32  C   UNL     1       6.948   6.257  -8.437  1.00  0.00     0.074 A 
ATOM     33  C   UNL     1       5.609   7.986  -7.272  1.00  0.00     0.049 A 
ATOM     34  N   UNL     1       8.163   6.678  -8.199  1.00  0.00    -0.248 NA
ATOM     35  C   UNL     1       6.887   5.020  -9.232  1.00  0.00     0.031 C 
ATOM     36  C   UNL     1       4.398   8.633  -6.759  1.00  0.00     0.029 A 
ATOM     37  N   UNL     1       6.626   8.796  -6.829  1.00  0.00    -0.354 N 
ATOM     38  C   UNL     1       9.011   5.747  -8.791  1.00  0.00     0.074 A 
ATOM     39  C   UNL     1       8.171   4.720  -9.367  1.00  0.00     0.031 C 
ATOM     40  C   UNL     1       4.741   9.743  -6.086  1.00  0.00     0.029 A 
ATOM     41  C   UNL     1       6.196   9.857  -6.062  1.00  0.00     0.049 A 
ATOM     42  H   UNL     1       7.574   8.634  -7.039  1.00  0.00     0.167 HD
ATOM     43  C   UNL     1      10.364   5.759  -8.853  1.00  0.00     0.034 A 
ATOM     44  C   UNL     1       6.892  10.795  -5.388  1.00  0.00     0.034 A 
ATOM     45  C   UNL     1      11.183   6.805  -8.292  1.00  0.00     0.049 A 
ATOM     46  C   UNL     1       8.401  10.755  -5.441  1.00  0.00     0.074 A 
ATOM     47  C   UNL     1      12.555   6.963  -8.385  1.00  0.00     0.029 A 
ATOM     48  N   UNL     1      10.713   7.856  -7.516  1.00  0.00    -0.354 N 
ATOM     49  N   UNL     1       9.182   9.915  -6.081  1.00  0.00    -0.248 NA
ATOM     50  C   UNL     1       9.123  11.788  -4.685  1.00  0.00     0.031 C 
ATOM     51  C   UNL     1      12.924   8.052  -7.591  1.00  0.00     0.029 A 
ATOM     52  C   UNL     1      11.775   8.631  -7.076  1.00  0.00     0.049 A 
ATOM     53  H   UNL     1       9.766   8.026  -7.309  1.00  0.00     0.167 HD
ATOM     54  C   UNL     1      10.484  10.339  -5.825  1.00  0.00     0.074 A 
ATOM     55  C   UNL     1      10.383  11.518  -4.992  1.00  0.00     0.031 C 
ATOM     56  C   UNL     1      11.659   9.802  -6.240  1.00  0.00     0.034 A 
BRANCH  43  57
ATOM     57  C   UNL     1      11.055   4.593  -9.518  1.00  0.00     0.023 A 
ATOM     58  C   UNL     1      10.908   4.320 -10.888  1.00  0.00     0.031 A 
ATOM     59  C   UNL     1      11.901   3.758  -8.766  1.00  0.00     0.131 A 
ATOM     60  C   UNL     1      11.557   3.211 -11.453  1.00  0.00     0.055 A 
ATOM     61  C   UNL     1      12.602   2.701  -9.349  1.00  0.00     0.041 A 
ATOM     62  F   UNL     1      12.062   3.957  -7.448  1.00  0.00    -0.206 F 
ATOM     63  C   UNL     1      12.425   2.417 -10.699  1.00  0.00     0.022 A 
BRANCH  60  64
ATOM     64  S   UNL     1      11.166   2.755 -13.164  1.00  0.00     0.124 S 
ATOM     65  O   UNL     1       9.725   2.527 -13.088  1.00  0.00    -0.237 OA
ATOM     66  O   UNL     1      11.587   3.935 -13.910  1.00  0.00    -0.237 OA
ATOM     67  O   UNL     1      11.969   1.554 -13.391  1.00  0.00    -0.744 OA
ENDBRANCH  60  64
ENDBRANCH  43  57
BRANCH  44  68
ATOM     68  C   UNL     1       6.192  11.826  -4.563  1.00  0.00     0.023 A 
ATOM     69  C   UNL     1       6.348  13.195  -4.833  1.00  0.00     0.031 A 
ATOM     70  C   UNL     1       5.423  11.463  -3.443  1.00  0.00     0.131 A 
ATOM     71  C   UNL     1       5.805  14.149  -3.957  1.00  0.00     0.055 A 
ATOM     72  C   UNL     1       4.824  12.415  -2.615  1.00  0.00     0.041 A 
ATOM     73  F   UNL     1       5.240  10.169  -3.133  1.00  0.00    -0.206 F 
ATOM     74  C   UNL     1       5.031  13.768  -2.859  1.00  0.00     0.022 A 
BRANCH  71  75
ATOM     75  S   UNL     1       6.241  15.893  -4.199  1.00  0.00     0.124 S 
ATOM     76  O   UNL     1       7.699  15.839  -4.174  1.00  0.00    -0.237 OA
ATOM     77  O   UNL     1       5.631  16.180  -5.493  1.00  0.00    -0.237 OA
ATOM     78  O   UNL     1       5.620  16.560  -3.056  1.00  0.00    -0.744 OA
ENDBRANCH  71  75
ENDBRANCH  44  68
BRANCH  56  79
ATOM     79  C   UNL     1      12.927  10.511  -5.833  1.00  0.00     0.023 A 
ATOM     80  C   UNL     1      13.349  10.558  -4.493  1.00  0.00     0.031 A 
ATOM     81  C   UNL     1      13.732  11.132  -6.804  1.00  0.00     0.131 A 
ATOM     82  C   UNL     1      14.523  11.248  -4.156  1.00  0.00     0.055 A 
ATOM     83  C   UNL     1      14.931  11.762  -6.471  1.00  0.00     0.041 A 
ATOM     84  F   UNL     1      13.373  11.121  -8.098  1.00  0.00    -0.206 F 
ATOM     85  C   UNL     1      15.328  11.831  -5.138  1.00  0.00     0.022 A 
BRANCH  82  86
ATOM     86  S   UNL     1      14.952  11.434  -2.404  1.00  0.00     0.124 S 
ATOM     87  O   UNL     1      13.805  12.174  -1.888  1.00  0.00    -0.237 OA
ATOM     88  O   UNL     1      15.069  10.049  -1.960  1.00  0.00    -0.237 OA
ATOM     89  O   UNL     1      16.209  12.181  -2.436  1.00  0.00    -0.744 OA
ENDBRANCH  82  86
ENDBRANCH  56  79
ENDBRANCH  30  31
ENDBRANCH  22  25
ENDBRANCH  20  21
ENDBRANCH   1  20
TORSDOF 19
