REMARK SMILES COc1ccc(CNC(=O)[C@H]2CC(C)=C(C)C[C@@H]2C(=O)NCCCNC(=O)c2ccc(-c3c4nc(c(-c5cc(S(=O)(=O)[O-])ccc5F)c5ccc([nH]5)c(-c5cc(S(=O)(=O)[O-])ccc5F)c5nc(c(-c6cc(S(=O)(=O)[O-])ccc6F)c6ccc3[nH]6)C=C5)C=C4)cc2)cc1OC
REMARK SMILES IDX 22 1 21 2 19 3 20 4 18 6 11 7 12 8 13 9 17 10 14 11 15 12
REMARK SMILES IDX 16 13 9 14 8 15 10 17 7 18 6 19 3 20 4 21 92 22 5 23 91 24
REMARK SMILES IDX 2 25 1 26 93 27 94 28 23 29 24 30 25 31 26 32 27 34 28 35
REMARK SMILES IDX 29 36 90 37 30 38 89 39 31 40 32 41 33 42 83 43 34 44 88 45
REMARK SMILES IDX 82 46 84 47 35 48 87 49 81 50 80 51 36 53 68 54 48 55 67 56
REMARK SMILES IDX 49 57 52 58 66 59 85 60 50 61 51 62 65 64 86 65 53 66 37 67
REMARK SMILES IDX 38 68 46 69 39 70 45 71 47 72 44 73 40 74 41 75 42 76 43 77
REMARK SMILES IDX 69 78 70 79 78 80 71 81 77 82 79 83 76 84 72 85 73 86 74 87
REMARK SMILES IDX 75 88 54 89 55 90 63 91 56 92 62 93 64 94 61 95 57 96 58 97
REMARK SMILES IDX 59 98 60 99
REMARK H PARENT 21 5 8 16 25 33 84 52 52 63
REMARK Flexibility Score: inf
ROOT
ATOM      1  C   UNL     1      -1.077  -8.669  -7.397  1.00  0.00     0.117 C 
ENDROOT
BRANCH   1   2
ATOM      2  N   UNL     1      -1.339  -7.687  -8.439  1.00  0.00    -0.356 N 
ATOM      3  C   UNL     1      -0.852  -6.421  -8.611  1.00  0.00     0.224 C 
ATOM      4  O   UNL     1      -1.254  -5.790  -9.589  1.00  0.00    -0.275 OA
ATOM      5  H   UNL     1      -1.970  -7.983  -9.134  1.00  0.00     0.163 HD
BRANCH   3   6
ATOM      6  C   UNL     1       0.171  -5.845  -7.620  1.00  0.00     0.095 C 
ATOM      7  C   UNL     1      -0.490  -5.560  -6.265  1.00  0.00     0.095 C 
ATOM      8  C   UNL     1      -1.049  -4.157  -6.061  1.00  0.00     0.045 C 
ATOM      9  C   UNL     1      -0.380  -3.032  -6.798  1.00  0.00    -0.074 C 
ATOM     10  C   UNL     1       0.916  -4.640  -8.228  1.00  0.00     0.045 C 
ATOM     11  C   UNL     1      -0.754  -1.671  -6.266  1.00  0.00     0.039 C 
ATOM     12  C   UNL     1       0.490  -3.252  -7.804  1.00  0.00    -0.074 C 
ATOM     13  C   UNL     1       1.145  -2.132  -8.572  1.00  0.00     0.039 C 
BRANCH   7  14
ATOM     14  C   UNL     1       0.286  -6.188  -5.108  1.00  0.00     0.224 C 
ATOM     15  N   UNL     1       1.367  -5.650  -4.510  1.00  0.00    -0.352 N 
ATOM     16  H   UNL     1       1.848  -6.278  -3.924  1.00  0.00     0.163 HD
ATOM     17  O   UNL     1      -0.033  -7.313  -4.705  1.00  0.00    -0.275 OA
BRANCH  15  18
ATOM     18  C   UNL     1       1.959  -4.337  -4.559  1.00  0.00     0.151 C 
BRANCH  18  19
ATOM     19  C   UNL     1       1.720  -3.569  -3.280  1.00  0.00    -0.025 A 
ATOM     20  C   UNL     1       1.315  -2.031  -0.955  1.00  0.00     0.160 A 
ATOM     21  C   UNL     1       0.285  -2.827  -1.464  1.00  0.00     0.051 A 
ATOM     22  C   UNL     1       2.570  -2.025  -1.574  1.00  0.00     0.161 A 
ATOM     23  C   UNL     1       0.488  -3.589  -2.615  1.00  0.00     0.009 A 
ATOM     24  C   UNL     1       2.748  -2.778  -2.745  1.00  0.00     0.056 A 
BRANCH  20  25
ATOM     25  O   UNL     1       1.067  -1.326   0.192  1.00  0.00    -0.493 OA
ATOM     26  C   UNL     1       0.281  -0.165  -0.079  1.00  0.00     0.278 C 
ENDBRANCH  20  25
BRANCH  22  27
ATOM     27  O   UNL     1       3.704  -1.357  -1.200  1.00  0.00    -0.493 OA
ATOM     28  C   UNL     1       3.685  -0.619   0.011  1.00  0.00     0.278 C 
ENDBRANCH  22  27
ENDBRANCH  18  19
ENDBRANCH  15  18
ENDBRANCH   7  14
ENDBRANCH   3   6
ENDBRANCH   1   2
BRANCH   1  29
ATOM     29  C   UNL     1      -2.227  -8.776  -6.394  1.00  0.00     0.042 C 
BRANCH  29  30
ATOM     30  C   UNL     1      -3.456  -9.490  -6.939  1.00  0.00     0.118 C 
BRANCH  30  31
ATOM     31  N   UNL     1      -3.236 -10.920  -7.071  1.00  0.00    -0.352 N 
ATOM     32  C   UNL     1      -3.931 -11.965  -6.520  1.00  0.00     0.251 C 
ATOM     33  H   UNL     1      -2.475 -11.177  -7.640  1.00  0.00     0.163 HD
ATOM     34  O   UNL     1      -3.433 -13.094  -6.558  1.00  0.00    -0.269 OA
BRANCH  32  35
ATOM     35  C   UNL     1      -5.249 -11.758  -5.877  1.00  0.00     0.039 A 
ATOM     36  C   UNL     1      -5.569 -12.514  -4.744  1.00  0.00     0.014 A 
ATOM     37  C   UNL     1      -6.194 -10.873  -6.406  1.00  0.00     0.014 A 
ATOM     38  C   UNL     1      -6.814 -12.360  -4.129  1.00  0.00     0.010 A 
ATOM     39  C   UNL     1      -7.404 -10.663  -5.747  1.00  0.00     0.010 A 
ATOM     40  C   UNL     1      -7.736 -11.418  -4.613  1.00  0.00    -0.014 A 
BRANCH  40  41
ATOM     41  C   UNL     1      -9.062 -11.243  -3.963  1.00  0.00     0.031 A 
ATOM     42  C   UNL     1     -10.323 -11.576  -4.718  1.00  0.00     0.074 A 
ATOM     43  C   UNL     1      -9.133 -10.751  -2.710  1.00  0.00     0.049 A 
ATOM     44  N   UNL     1     -11.571 -11.454  -4.343  1.00  0.00    -0.248 NA
ATOM     45  C   UNL     1     -10.156 -12.087  -6.087  1.00  0.00     0.031 C 
ATOM     46  C   UNL     1      -7.983 -10.354  -1.894  1.00  0.00     0.029 A 
ATOM     47  N   UNL     1     -10.214 -10.498  -1.904  1.00  0.00    -0.354 N 
ATOM     48  C   UNL     1     -12.336 -11.858  -5.433  1.00  0.00     0.074 A 
ATOM     49  C   UNL     1     -11.411 -12.167  -6.502  1.00  0.00     0.031 C 
ATOM     50  C   UNL     1      -8.419  -9.934  -0.696  1.00  0.00     0.029 A 
ATOM     51  C   UNL     1      -9.877  -9.991  -0.670  1.00  0.00     0.049 A 
ATOM     52  H   UNL     1     -11.143 -10.663  -2.183  1.00  0.00     0.167 HD
ATOM     53  C   UNL     1     -13.684 -11.984  -5.525  1.00  0.00     0.034 A 
ATOM     54  C   UNL     1     -10.655  -9.609   0.362  1.00  0.00     0.034 A 
ATOM     55  C   UNL     1     -14.591 -11.685  -4.443  1.00  0.00     0.049 A 
ATOM     56  C   UNL     1     -12.150  -9.750   0.235  1.00  0.00     0.074 A 
ATOM     57  C   UNL     1     -15.968 -11.825  -4.406  1.00  0.00     0.029 A 
ATOM     58  N   UNL     1     -14.213 -11.180  -3.205  1.00  0.00    -0.354 N 
ATOM     59  N   UNL     1     -12.856 -10.183  -0.785  1.00  0.00    -0.248 NA
ATOM     60  C   UNL     1     -12.952  -9.367   1.403  1.00  0.00     0.031 C 
ATOM     61  C   UNL     1     -16.427 -11.344  -3.175  1.00  0.00     0.029 A 
ATOM     62  C   UNL     1     -15.332 -10.976  -2.410  1.00  0.00     0.049 A 
ATOM     63  H   UNL     1     -13.286 -10.993  -2.931  1.00  0.00     0.167 HD
ATOM     64  C   UNL     1     -14.184 -10.151  -0.368  1.00  0.00     0.074 A 
ATOM     65  C   UNL     1     -14.176  -9.675   1.001  1.00  0.00     0.031 C 
ATOM     66  C   UNL     1     -15.308 -10.487  -1.051  1.00  0.00     0.034 A 
BRANCH  53  67
ATOM     67  C   UNL     1     -14.252 -12.438  -6.851  1.00  0.00     0.023 A 
ATOM     68  C   UNL     1     -13.946 -13.700  -7.394  1.00  0.00     0.031 A 
ATOM     69  C   UNL     1     -15.086 -11.588  -7.599  1.00  0.00     0.131 A 
ATOM     70  C   UNL     1     -14.401 -14.041  -8.677  1.00  0.00     0.055 A 
ATOM     71  C   UNL     1     -15.606 -11.969  -8.838  1.00  0.00     0.041 A 
ATOM     72  F   UNL     1     -15.399 -10.365  -7.145  1.00  0.00    -0.206 F 
ATOM     73  C   UNL     1     -15.250 -13.195  -9.392  1.00  0.00     0.022 A 
BRANCH  70  74
ATOM     74  S   UNL     1     -13.746 -15.542  -9.457  1.00  0.00     0.124 S 
ATOM     75  O   UNL     1     -12.311 -15.266  -9.468  1.00  0.00    -0.237 OA
ATOM     76  O   UNL     1     -14.188 -16.591  -8.546  1.00  0.00    -0.237 OA
ATOM     77  O   UNL     1     -14.381 -15.550 -10.773  1.00  0.00    -0.744 OA
ENDBRANCH  70  74
ENDBRANCH  53  67
BRANCH  54  78
ATOM     78  C   UNL     1     -10.043  -9.055   1.604  1.00  0.00     0.023 A 
ATOM     79  C   UNL     1     -10.156  -9.729   2.831  1.00  0.00     0.031 A 
ATOM     80  C   UNL     1      -9.369  -7.821   1.590  1.00  0.00     0.131 A 
ATOM     81  C   UNL     1      -9.646  -9.144   4.000  1.00  0.00     0.055 A 
ATOM     82  C   UNL     1      -8.816  -7.269   2.747  1.00  0.00     0.041 A 
ATOM     83  F   UNL     1      -9.227  -7.137   0.443  1.00  0.00    -0.206 F 
ATOM     84  C   UNL     1      -8.965  -7.926   3.964  1.00  0.00     0.022 A 
BRANCH  81  85
ATOM     85  S   UNL     1      -9.959  -9.962   5.589  1.00  0.00     0.124 S 
ATOM     86  O   UNL     1     -11.416 -10.020   5.611  1.00  0.00    -0.237 OA
ATOM     87  O   UNL     1      -9.268 -11.235   5.416  1.00  0.00    -0.237 OA
ATOM     88  O   UNL     1      -9.356  -9.055   6.563  1.00  0.00    -0.744 OA
ENDBRANCH  81  85
ENDBRANCH  54  78
BRANCH  66  89
ATOM     89  C   UNL     1     -16.616 -10.388  -0.303  1.00  0.00     0.023 A 
ATOM     90  C   UNL     1     -17.133  -9.153   0.124  1.00  0.00     0.031 A 
ATOM     91  C   UNL     1     -17.343 -11.552   0.006  1.00  0.00     0.131 A 
ATOM     92  C   UNL     1     -18.307  -9.114   0.892  1.00  0.00     0.055 A 
ATOM     93  C   UNL     1     -18.544 -11.502   0.715  1.00  0.00     0.041 A 
ATOM     94  F   UNL     1     -16.896 -12.759  -0.375  1.00  0.00    -0.206 F 
ATOM     95  C   UNL     1     -19.024 -10.279   1.176  1.00  0.00     0.022 A 
BRANCH  92  96
ATOM     96  S   UNL     1     -18.829  -7.530   1.605  1.00  0.00     0.124 S 
ATOM     97  O   UNL     1     -17.659  -7.151   2.391  1.00  0.00    -0.237 OA
ATOM     98  O   UNL     1     -19.087  -6.723   0.417  1.00  0.00    -0.237 OA
ATOM     99  O   UNL     1     -20.014  -7.879   2.387  1.00  0.00    -0.744 OA
ENDBRANCH  92  96
ENDBRANCH  66  89
ENDBRANCH  40  41
ENDBRANCH  32  35
ENDBRANCH  30  31
ENDBRANCH  29  30
ENDBRANCH   1  29
TORSDOF 18
