REMARK SMILES Cc1ccc(S(=O)(=O)n2cc(C(=O)C(=O)NCC(=O)NCCCNC(=O)c3ccc(-c4c5nc(c(-c6cc(S(=O)(=O)[O-])ccc6F)c6ccc([nH]6)c(-c6cc(S(=O)(=O)[O-])ccc6F)c6nc(c(-c7cc(S(=O)(=O)[O-])ccc7F)c7ccc4[nH]7)C=C6)C=C5)cc3)c3ccccc32)cc1
REMARK SMILES IDX 21 1 20 2 18 3 19 4 17 6 16 7 14 8 15 9 12 11 13 12 11 13
REMARK SMILES IDX 9 14 10 15 95 16 90 17 94 18 91 19 93 20 92 21 6 22 7 23
REMARK SMILES IDX 8 24 5 25 1 26 2 27 3 28 97 29 4 30 96 31 22 32 23 33 24 34
REMARK SMILES IDX 25 35 26 37 27 38 28 39 89 40 29 41 88 42 30 43 31 44 32 45
REMARK SMILES IDX 82 46 33 47 87 48 81 49 83 50 34 51 86 52 80 53 79 54 35 56
REMARK SMILES IDX 67 57 47 58 66 59 48 60 51 61 65 62 84 63 49 64 50 65 64 67
REMARK SMILES IDX 85 68 52 69 36 70 37 71 45 72 38 73 44 74 46 75 43 76 39 77
REMARK SMILES IDX 40 78 41 79 42 80 68 81 69 82 77 83 70 84 76 85 78 86 75 87
REMARK SMILES IDX 71 88 72 89 73 90 74 91 53 92 54 93 62 94 55 95 61 96 63 97
REMARK SMILES IDX 60 98 56 99 57 100 58 101 59 102
REMARK H PARENT 20 5 16 10 24 36 83 55 51 66
REMARK Flexibility Score: inf
ROOT
ATOM      1  C   UNL     1      -9.115   5.161   0.667  1.00  0.00     0.117 C 
ENDROOT
BRANCH   1   2
ATOM      2  N   UNL     1      -9.752   6.027   1.643  1.00  0.00    -0.355 N 
ATOM      3  C   UNL     1      -9.212   6.562   2.779  1.00  0.00     0.239 C 
ATOM      4  O   UNL     1      -9.902   7.225   3.555  1.00  0.00    -0.273 OA
ATOM      5  H   UNL     1     -10.692   6.258   1.464  1.00  0.00     0.163 HD
BRANCH   3   6
ATOM      6  C   UNL     1      -7.721   6.342   3.054  1.00  0.00     0.216 C 
BRANCH   6   7
ATOM      7  N   UNL     1      -7.402   4.963   3.411  1.00  0.00    -0.340 N 
ATOM      8  C   UNL     1      -6.490   4.085   2.867  1.00  0.00     0.292 C 
ATOM      9  O   UNL     1      -6.386   2.962   3.353  1.00  0.00    -0.265 OA
ATOM     10  H   UNL     1      -7.924   4.601   4.163  1.00  0.00     0.164 HD
BRANCH   8  11
ATOM     11  C   UNL     1      -5.599   4.495   1.667  1.00  0.00     0.252 C 
ATOM     12  O   UNL     1      -5.320   5.683   1.530  1.00  0.00    -0.283 OA
BRANCH  11  13
ATOM     13  C   UNL     1      -5.036   3.495   0.741  1.00  0.00     0.054 A 
ATOM     14  N   UNL     1      -4.196   1.599  -0.092  1.00  0.00    -0.240 N 
ATOM     15  C   UNL     1      -4.858   2.143   0.978  1.00  0.00     0.117 A 
ATOM     16  C   UNL     1      -3.958   2.544  -1.067  1.00  0.00     0.065 A 
ATOM     17  C   UNL     1      -4.490   3.745  -0.572  1.00  0.00     0.012 A 
ATOM     18  C   UNL     1      -3.301   2.477  -2.310  1.00  0.00     0.028 A 
ATOM     19  C   UNL     1      -4.386   4.901  -1.377  1.00  0.00     0.011 A 
ATOM     20  C   UNL     1      -3.187   3.646  -3.065  1.00  0.00     0.002 A 
ATOM     21  C   UNL     1      -3.732   4.841  -2.612  1.00  0.00     0.001 A 
BRANCH  14  22
ATOM     22  S   UNL     1      -3.595   0.005  -0.117  1.00  0.00     0.268 S 
ATOM     23  O   UNL     1      -3.911  -0.517  -1.428  1.00  0.00    -0.201 OA
ATOM     24  O   UNL     1      -4.079  -0.626   1.102  1.00  0.00    -0.201 OA
BRANCH  22  25
ATOM     25  C   UNL     1      -1.824   0.073   0.013  1.00  0.00     0.088 A 
ATOM     26  C   UNL     1       2.478  -0.029   0.024  1.00  0.00     0.044 C 
ATOM     27  C   UNL     1       0.979   0.011   0.043  1.00  0.00    -0.051 A 
ATOM     28  C   UNL     1       0.248  -1.180  -0.034  1.00  0.00     0.005 A 
ATOM     29  C   UNL     1       0.292   1.229   0.136  1.00  0.00     0.005 A 
ATOM     30  C   UNL     1      -1.147  -1.151  -0.054  1.00  0.00     0.022 A 
ATOM     31  C   UNL     1      -1.107   1.263   0.133  1.00  0.00     0.022 A 
ENDBRANCH  22  25
ENDBRANCH  14  22
ENDBRANCH  11  13
ENDBRANCH   8  11
ENDBRANCH   6   7
ENDBRANCH   3   6
ENDBRANCH   1   2
BRANCH   1  32
ATOM     32  C   UNL     1      -9.363   3.693   0.971  1.00  0.00     0.042 C 
BRANCH  32  33
ATOM     33  C   UNL     1     -10.724   3.209   0.492  1.00  0.00     0.118 C 
BRANCH  33  34
ATOM     34  N   UNL     1     -10.731   2.779  -0.908  1.00  0.00    -0.352 N 
ATOM     35  C   UNL     1     -11.616   1.960  -1.591  1.00  0.00     0.251 C 
ATOM     36  H   UNL     1      -9.988   3.128  -1.451  1.00  0.00     0.163 HD
ATOM     37  O   UNL     1     -11.399   1.600  -2.744  1.00  0.00    -0.269 OA
BRANCH  35  38
ATOM     38  C   UNL     1     -12.950   1.696  -1.003  1.00  0.00     0.039 A 
ATOM     39  C   UNL     1     -14.042   2.093  -1.791  1.00  0.00     0.014 A 
ATOM     40  C   UNL     1     -13.084   1.539   0.367  1.00  0.00     0.014 A 
ATOM     41  C   UNL     1     -15.134   2.676  -1.173  1.00  0.00     0.010 A 
ATOM     42  C   UNL     1     -14.070   2.266   0.978  1.00  0.00     0.010 A 
ATOM     43  C   UNL     1     -15.044   2.890   0.193  1.00  0.00    -0.014 A 
BRANCH  43  44
ATOM     44  C   UNL     1     -15.975   3.688   0.951  1.00  0.00     0.031 A 
ATOM     45  C   UNL     1     -17.069   2.961   1.596  1.00  0.00     0.074 A 
ATOM     46  C   UNL     1     -15.692   4.990   1.166  1.00  0.00     0.049 A 
ATOM     47  N   UNL     1     -18.136   3.515   2.033  1.00  0.00    -0.248 NA
ATOM     48  C   UNL     1     -17.085   1.501   1.726  1.00  0.00     0.031 C 
ATOM     49  C   UNL     1     -16.269   5.896   2.151  1.00  0.00     0.029 A 
ATOM     50  N   UNL     1     -14.944   5.822   0.333  1.00  0.00    -0.354 N 
ATOM     51  C   UNL     1     -18.767   2.582   2.819  1.00  0.00     0.074 A 
ATOM     52  C   UNL     1     -18.203   1.319   2.432  1.00  0.00     0.031 C 
ATOM     53  C   UNL     1     -16.099   7.162   1.727  1.00  0.00     0.029 A 
ATOM     54  C   UNL     1     -15.566   7.090   0.377  1.00  0.00     0.049 A 
ATOM     55  H   UNL     1     -14.143   5.576  -0.183  1.00  0.00     0.167 HD
ATOM     56  C   UNL     1     -19.551   3.040   3.829  1.00  0.00     0.034 A 
ATOM     57  C   UNL     1     -16.189   7.569  -0.745  1.00  0.00     0.034 A 
ATOM     58  C   UNL     1     -19.729   4.491   3.705  1.00  0.00     0.049 A 
ATOM     59  C   UNL     1     -17.699   7.678  -0.581  1.00  0.00     0.074 A 
ATOM     60  C   UNL     1     -19.218   5.599   4.355  1.00  0.00     0.029 A 
ATOM     61  N   UNL     1     -20.295   4.967   2.538  1.00  0.00    -0.354 N 
ATOM     62  N   UNL     1     -18.366   7.179   0.427  1.00  0.00    -0.248 NA
ATOM     63  C   UNL     1     -18.581   8.325  -1.548  1.00  0.00     0.031 C 
ATOM     64  C   UNL     1     -19.436   6.737   3.512  1.00  0.00     0.029 A 
ATOM     65  C   UNL     1     -20.123   6.322   2.384  1.00  0.00     0.049 A 
ATOM     66  H   UNL     1     -20.769   4.398   1.889  1.00  0.00     0.167 HD
ATOM     67  C   UNL     1     -19.711   7.388   0.261  1.00  0.00     0.074 A 
ATOM     68  C   UNL     1     -19.794   8.091  -1.011  1.00  0.00     0.031 C 
ATOM     69  C   UNL     1     -20.639   6.946   1.170  1.00  0.00     0.034 A 
BRANCH  56  70
ATOM     70  C   UNL     1     -20.008   2.258   5.035  1.00  0.00     0.023 A 
ATOM     71  C   UNL     1     -20.763   2.949   6.003  1.00  0.00     0.031 A 
ATOM     72  C   UNL     1     -19.684   0.925   5.367  1.00  0.00     0.131 A 
ATOM     73  C   UNL     1     -21.130   2.349   7.219  1.00  0.00     0.055 A 
ATOM     74  C   UNL     1     -20.085   0.313   6.562  1.00  0.00     0.041 A 
ATOM     75  F   UNL     1     -18.930   0.142   4.590  1.00  0.00    -0.206 F 
ATOM     76  C   UNL     1     -20.804   1.028   7.502  1.00  0.00     0.022 A 
BRANCH  73  77
ATOM     77  S   UNL     1     -21.996   3.351   8.452  1.00  0.00     0.124 S 
ATOM     78  O   UNL     1     -21.017   4.394   8.739  1.00  0.00    -0.237 OA
ATOM     79  O   UNL     1     -23.192   3.764   7.728  1.00  0.00    -0.237 OA
ATOM     80  O   UNL     1     -22.230   2.409   9.546  1.00  0.00    -0.744 OA
ENDBRANCH  73  77
ENDBRANCH  56  70
BRANCH  57  81
ATOM     81  C   UNL     1     -15.441   7.165  -1.988  1.00  0.00     0.023 A 
ATOM     82  C   UNL     1     -14.073   7.529  -2.037  1.00  0.00     0.031 A 
ATOM     83  C   UNL     1     -15.847   6.065  -2.756  1.00  0.00     0.131 A 
ATOM     84  C   UNL     1     -13.133   6.654  -2.607  1.00  0.00     0.055 A 
ATOM     85  C   UNL     1     -14.909   5.261  -3.422  1.00  0.00     0.041 A 
ATOM     86  F   UNL     1     -17.124   5.658  -2.749  1.00  0.00    -0.206 F 
ATOM     87  C   UNL     1     -13.542   5.513  -3.293  1.00  0.00     0.022 A 
BRANCH  84  88
ATOM     88  S   UNL     1     -11.390   6.848  -2.122  1.00  0.00     0.124 S 
ATOM     89  O   UNL     1     -10.961   7.979  -2.936  1.00  0.00    -0.237 OA
ATOM     90  O   UNL     1     -11.492   7.093  -0.682  1.00  0.00    -0.237 OA
ATOM     91  O   UNL     1     -10.777   5.564  -2.457  1.00  0.00    -0.744 OA
ENDBRANCH  84  88
ENDBRANCH  57  81
BRANCH  69  92
ATOM     92  C   UNL     1     -22.142   7.036   0.985  1.00  0.00     0.023 A 
ATOM     93  C   UNL     1     -22.748   8.108   0.323  1.00  0.00     0.031 A 
ATOM     94  C   UNL     1     -23.032   6.066   1.518  1.00  0.00     0.131 A 
ATOM     95  C   UNL     1     -24.141   8.138   0.126  1.00  0.00     0.055 A 
ATOM     96  C   UNL     1     -24.421   6.153   1.412  1.00  0.00     0.041 A 
ATOM     97  F   UNL     1     -22.607   4.950   2.124  1.00  0.00    -0.206 F 
ATOM     98  C   UNL     1     -24.986   7.185   0.690  1.00  0.00     0.022 A 
BRANCH  95  99
ATOM     99  S   UNL     1     -24.820   9.405  -0.970  1.00  0.00     0.124 S 
ATOM    100  O   UNL     1     -24.306  10.639  -0.385  1.00  0.00    -0.237 OA
ATOM    101  O   UNL     1     -24.241   9.023  -2.255  1.00  0.00    -0.237 OA
ATOM    102  O   UNL     1     -26.265   9.217  -0.862  1.00  0.00    -0.744 OA
ENDBRANCH  95  99
ENDBRANCH  69  92
ENDBRANCH  43  44
ENDBRANCH  35  38
ENDBRANCH  33  34
ENDBRANCH  32  33
ENDBRANCH   1  32
TORSDOF 18
