REMARK SMILES COc1ccc([C@H]2CC(c3ccc(S(C)(=O)=O)cc3)=NN2c2ccc(C(=O)NCCCNC(=O)c3ccc(-c4c5nc(c(-c6cc(S(=O)(=O)[O-])ccc6F)c6ccc([nH]6)c(-c6cc(S(=O)(=O)[O-])ccc6F)c6nc(c(-c7cc(S(=O)(=O)[O-])ccc7F)c7ccc4[nH]7)C=C6)C=C5)cc3)cc2)cc1
REMARK SMILES IDX 30 1 29 2 28 3 26 4 27 5 25 7 22 8 23 9 99 10 24 11 98 12
REMARK SMILES IDX 21 13 7 14 8 15 9 16 20 17 6 18 3 19 4 20 101 21 5 22 100 23
REMARK SMILES IDX 2 24 1 25 10 26 11 27 19 28 12 29 18 30 13 31 14 32 15 33
REMARK SMILES IDX 16 34 17 35 31 36 32 37 33 38 34 40 35 41 36 42 97 43 37 44
REMARK SMILES IDX 96 45 38 46 39 47 40 48 90 49 41 50 95 51 89 52 91 53 42 54
REMARK SMILES IDX 94 55 88 56 87 57 43 59 75 60 55 61 74 62 56 63 59 64 73 65
REMARK SMILES IDX 92 66 57 67 58 68 72 70 93 71 60 72 44 73 45 74 53 75 46 76
REMARK SMILES IDX 52 77 54 78 51 79 47 80 48 81 49 82 50 83 76 84 77 85 85 86
REMARK SMILES IDX 78 87 84 88 86 89 83 90 79 91 80 92 81 93 82 94 61 95 62 96
REMARK SMILES IDX 70 97 63 98 69 99 71 100 68 101 64 102 65 103 66 104 67 105
REMARK H PARENT 28 6 32 39 91 58 59 69
REMARK Flexibility Score: inf
ROOT
ATOM      1  C   UNL     1       0.837   4.085  10.677  1.00  0.00     0.042 C 
ENDROOT
BRANCH   1   2
ATOM      2  C   UNL     1       0.965   4.343   9.176  1.00  0.00     0.118 C 
BRANCH   2   3
ATOM      3  N   UNL     1       2.301   4.795   8.836  1.00  0.00    -0.352 N 
ATOM      4  C   UNL     1       3.387   4.157   8.297  1.00  0.00     0.251 C 
ATOM      5  O   UNL     1       4.387   4.841   8.069  1.00  0.00    -0.269 OA
ATOM      6  H   UNL     1       2.457   5.748   9.030  1.00  0.00     0.163 HD
BRANCH   4   7
ATOM      7  C   UNL     1       3.397   2.715   7.926  1.00  0.00     0.039 A 
ATOM      8  C   UNL     1       3.507   0.030   7.030  1.00  0.00     0.060 A 
ATOM      9  C   UNL     1       4.350   1.002   6.485  1.00  0.00     0.029 A 
ATOM     10  C   UNL     1       2.654   0.406   8.070  1.00  0.00     0.029 A 
ATOM     11  C   UNL     1       4.284   2.331   6.910  1.00  0.00     0.016 A 
ATOM     12  C   UNL     1       2.626   1.726   8.539  1.00  0.00     0.016 A 
BRANCH   8  13
ATOM     13  N   UNL     1       3.545  -1.267   6.546  1.00  0.00    -0.257 N 
ATOM     14  C   UNL     1       2.375  -2.001   6.067  1.00  0.00     0.144 C 
ATOM     15  C   UNL     1       2.910  -3.431   5.923  1.00  0.00     0.091 C 
ATOM     16  C   UNL     1       4.307  -3.240   6.441  1.00  0.00     0.071 C 
ATOM     17  N   UNL     1       4.638  -2.036   6.779  1.00  0.00    -0.176 NA
BRANCH  14  18
ATOM     18  C   UNL     1       1.868  -1.428   4.753  1.00  0.00    -0.023 A 
ATOM     19  C   UNL     1       0.915  -0.349   2.323  1.00  0.00     0.118 A 
ATOM     20  C   UNL     1       0.076  -0.451   3.434  1.00  0.00     0.047 A 
ATOM     21  C   UNL     1       2.241  -0.762   2.432  1.00  0.00     0.047 A 
ATOM     22  C   UNL     1       0.542  -0.991   4.637  1.00  0.00     0.010 A 
ATOM     23  C   UNL     1       2.713  -1.293   3.637  1.00  0.00     0.010 A 
BRANCH  19  24
ATOM     24  O   UNL     1       0.337   0.195   1.209  1.00  0.00    -0.497 OA
ATOM     25  C   UNL     1       1.003  -0.044  -0.025  1.00  0.00     0.278 C 
ENDBRANCH  19  24
ENDBRANCH  14  18
BRANCH  16  26
ATOM     26  C   UNL     1       5.219  -4.376   6.583  1.00  0.00    -0.002 A 
ATOM     27  C   UNL     1       5.691  -4.704   7.857  1.00  0.00     0.011 A 
ATOM     28  C   UNL     1       5.630  -5.088   5.454  1.00  0.00     0.011 A 
ATOM     29  C   UNL     1       6.577  -5.769   8.010  1.00  0.00     0.021 A 
ATOM     30  C   UNL     1       6.537  -6.138   5.602  1.00  0.00     0.021 A 
ATOM     31  C   UNL     1       7.008  -6.469   6.878  1.00  0.00     0.067 A 
BRANCH  31  32
ATOM     32  S   UNL     1       8.168  -7.802   7.074  1.00  0.00     0.175 S 
ATOM     33  C   UNL     1       9.600  -7.033   7.788  1.00  0.00     0.163 C 
ATOM     34  O   UNL     1       7.600  -8.714   8.045  1.00  0.00    -0.224 OA
ATOM     35  O   UNL     1       8.538  -8.260   5.747  1.00  0.00    -0.224 OA
ENDBRANCH  31  32
ENDBRANCH  16  26
ENDBRANCH   8  13
ENDBRANCH   4   7
ENDBRANCH   2   3
ENDBRANCH   1   2
BRANCH   1  36
ATOM     36  C   UNL     1       0.775   5.367  11.506  1.00  0.00     0.118 C 
BRANCH  36  37
ATOM     37  N   UNL     1      -0.473   6.086  11.296  1.00  0.00    -0.352 N 
ATOM     38  C   UNL     1      -1.430   6.474  12.200  1.00  0.00     0.251 C 
ATOM     39  H   UNL     1      -0.660   6.331  10.361  1.00  0.00     0.163 HD
ATOM     40  O   UNL     1      -2.523   6.850  11.784  1.00  0.00    -0.269 OA
BRANCH  38  41
ATOM     41  C   UNL     1      -1.162   6.432  13.655  1.00  0.00     0.039 A 
ATOM     42  C   UNL     1      -2.185   6.022  14.515  1.00  0.00     0.014 A 
ATOM     43  C   UNL     1       0.067   6.843  14.182  1.00  0.00     0.014 A 
ATOM     44  C   UNL     1      -1.962   5.977  15.894  1.00  0.00     0.010 A 
ATOM     45  C   UNL     1       0.309   6.738  15.551  1.00  0.00     0.010 A 
ATOM     46  C   UNL     1      -0.704   6.309  16.422  1.00  0.00    -0.014 A 
BRANCH  46  47
ATOM     47  C   UNL     1      -0.435   6.222  17.881  1.00  0.00     0.031 A 
ATOM     48  C   UNL     1      -0.136   7.468  18.671  1.00  0.00     0.074 A 
ATOM     49  C   UNL     1      -0.410   5.016  18.482  1.00  0.00     0.049 A 
ATOM     50  N   UNL     1       0.204   7.590  19.928  1.00  0.00    -0.248 NA
ATOM     51  C   UNL     1      -0.204   8.742  17.940  1.00  0.00     0.031 C 
ATOM     52  C   UNL     1      -0.661   3.736  17.816  1.00  0.00     0.029 A 
ATOM     53  N   UNL     1      -0.156   4.667  19.784  1.00  0.00    -0.354 N 
ATOM     54  C   UNL     1       0.402   8.950  20.139  1.00  0.00     0.074 A 
ATOM     55  C   UNL     1       0.197   9.604  18.862  1.00  0.00     0.031 C 
ATOM     56  C   UNL     1      -0.574   2.746  18.719  1.00  0.00     0.029 A 
ATOM     57  C   UNL     1      -0.215   3.312  20.015  1.00  0.00     0.049 A 
ATOM     58  H   UNL     1       0.049   5.324  20.488  1.00  0.00     0.167 HD
ATOM     59  C   UNL     1       0.706   9.596  21.292  1.00  0.00     0.034 A 
ATOM     60  C   UNL     1       0.007   2.605  21.140  1.00  0.00     0.034 A 
ATOM     61  C   UNL     1       0.897   8.930  22.558  1.00  0.00     0.049 A 
ATOM     62  C   UNL     1       0.374   3.341  22.403  1.00  0.00     0.074 A 
ATOM     63  C   UNL     1       1.172   9.489  23.795  1.00  0.00     0.029 A 
ATOM     64  N   UNL     1       0.838   7.555  22.752  1.00  0.00    -0.354 N 
ATOM     65  N   UNL     1       0.534   4.631  22.590  1.00  0.00    -0.248 NA
ATOM     66  C   UNL     1       0.582   2.527  23.607  1.00  0.00     0.031 C 
ATOM     67  C   UNL     1       1.338   8.452  24.720  1.00  0.00     0.029 A 
ATOM     68  C   UNL     1       1.095   7.248  24.079  1.00  0.00     0.049 A 
ATOM     69  H   UNL     1       0.642   6.895  22.048  1.00  0.00     0.167 HD
ATOM     70  C   UNL     1       0.830   4.784  23.942  1.00  0.00     0.074 A 
ATOM     71  C   UNL     1       0.813   3.456  24.522  1.00  0.00     0.031 C 
ATOM     72  C   UNL     1       1.086   5.918  24.642  1.00  0.00     0.034 A 
BRANCH  59  73
ATOM     73  C   UNL     1       0.876  11.096  21.225  1.00  0.00     0.023 A 
ATOM     74  C   UNL     1      -0.190  11.944  20.879  1.00  0.00     0.031 A 
ATOM     75  C   UNL     1       2.125  11.685  21.491  1.00  0.00     0.131 A 
ATOM     76  C   UNL     1       0.029  13.323  20.736  1.00  0.00     0.055 A 
ATOM     77  C   UNL     1       2.317  13.067  21.425  1.00  0.00     0.041 A 
ATOM     78  F   UNL     1       3.186  10.925  21.808  1.00  0.00    -0.206 F 
ATOM     79  C   UNL     1       1.269  13.893  21.031  1.00  0.00     0.022 A 
BRANCH  76  80
ATOM     80  S   UNL     1      -1.295  14.341  20.029  1.00  0.00     0.124 S 
ATOM     81  O   UNL     1      -1.472  13.723  18.717  1.00  0.00    -0.237 OA
ATOM     82  O   UNL     1      -2.384  14.149  20.979  1.00  0.00    -0.237 OA
ATOM     83  O   UNL     1      -0.718  15.684  20.003  1.00  0.00    -0.744 OA
ENDBRANCH  76  80
ENDBRANCH  59  73
BRANCH  60  84
ATOM     84  C   UNL     1      -0.106   1.119  21.133  1.00  0.00     0.023 A 
ATOM     85  C   UNL     1      -1.102   0.469  21.879  1.00  0.00     0.031 A 
ATOM     86  C   UNL     1       0.802   0.325  20.410  1.00  0.00     0.131 A 
ATOM     87  C   UNL     1      -1.141  -0.933  21.922  1.00  0.00     0.055 A 
ATOM     88  C   UNL     1       0.728  -1.069  20.416  1.00  0.00     0.041 A 
ATOM     89  F   UNL     1       1.769   0.896  19.675  1.00  0.00    -0.206 F 
ATOM     90  C   UNL     1      -0.240  -1.707  21.186  1.00  0.00     0.022 A 
BRANCH  87  91
ATOM     91  S   UNL     1      -2.342  -1.735  23.019  1.00  0.00     0.124 S 
ATOM     92  O   UNL     1      -1.972  -1.185  24.318  1.00  0.00    -0.237 OA
ATOM     93  O   UNL     1      -3.611  -1.275  22.464  1.00  0.00    -0.237 OA
ATOM     94  O   UNL     1      -2.067  -3.159  22.841  1.00  0.00    -0.744 OA
ENDBRANCH  87  91
ENDBRANCH  60  84
BRANCH  72  95
ATOM     95  C   UNL     1       1.321   5.768  26.124  1.00  0.00     0.023 A 
ATOM     96  C   UNL     1       2.459   5.117  26.631  1.00  0.00     0.031 A 
ATOM     97  C   UNL     1       0.382   6.271  27.042  1.00  0.00     0.131 A 
ATOM     98  C   UNL     1       2.602   4.938  28.016  1.00  0.00     0.055 A 
ATOM     99  C   UNL     1       0.558   6.142  28.420  1.00  0.00     0.041 A 
ATOM    100  F   UNL     1      -0.724   6.899  26.612  1.00  0.00    -0.206 F 
ATOM    101  C   UNL     1       1.667   5.460  28.913  1.00  0.00     0.022 A 
BRANCH  98 102
ATOM    102  S   UNL     1       3.983   3.932  28.626  1.00  0.00     0.124 S 
ATOM    103  O   UNL     1       3.744   2.654  27.963  1.00  0.00    -0.237 OA
ATOM    104  O   UNL     1       5.145   4.683  28.163  1.00  0.00    -0.237 OA
ATOM    105  O   UNL     1       3.788   3.925  30.075  1.00  0.00    -0.744 OA
ENDBRANCH  98 102
ENDBRANCH  72  95
ENDBRANCH  46  47
ENDBRANCH  38  41
ENDBRANCH  36  37
ENDBRANCH   1  36
TORSDOF 18
