REMARK SMILES Cc1cc(C(=O)NCCCNC(=O)c2ccc(-c3c4nc(c(-c5cc(S(=O)(=O)[O-])ccc5F)c5ccc([nH]5)c(-c5cc(S(=O)(=O)[O-])ccc5F)c5nc(c(-c6cc(S(=O)(=O)[O-])ccc6F)c6ccc3[nH]6)C=C5)C=C4)cc2)nn1[C@H]1CCS(=O)(=O)C1
REMARK SMILES IDX 10 1 9 2 8 3 7 4 5 5 6 6 4 8 1 9 2 10 3 11 78 12 77 13 79 14
REMARK SMILES IDX 80 15 85 16 81 17 82 18 83 19 84 20 11 21 12 22 13 24 14 25
REMARK SMILES IDX 15 26 76 27 16 28 75 29 17 30 18 31 19 32 69 33 20 34 74 35
REMARK SMILES IDX 68 36 70 37 21 38 73 39 67 40 66 41 22 43 54 44 34 45 53 46
REMARK SMILES IDX 35 47 38 48 52 49 71 50 36 51 37 52 51 54 72 55 39 56 23 57
REMARK SMILES IDX 24 58 32 59 25 60 31 61 33 62 30 63 26 64 27 65 28 66 29 67
REMARK SMILES IDX 55 68 56 69 64 70 57 71 63 72 65 73 62 74 58 75 59 76 60 77
REMARK SMILES IDX 61 78 40 79 41 80 49 81 42 82 48 83 50 84 47 85 43 86 44 87
REMARK SMILES IDX 45 88 46 89
REMARK H PARENT 7 7 11 23 70 42 38 53
REMARK Flexibility Score: inf
ROOT
ATOM      1  C   UNL     1      -1.197   8.165   7.227  1.00  0.00     0.118 C 
ENDROOT
BRANCH   1   2
ATOM      2  C   UNL     1      -0.384   7.193   6.386  1.00  0.00     0.042 C 
BRANCH   2   3
ATOM      3  C   UNL     1      -0.754   5.728   6.649  1.00  0.00     0.118 C 
BRANCH   3   4
ATOM      4  N   UNL     1      -1.871   5.277   5.836  1.00  0.00    -0.351 N 
ATOM      5  C   UNL     1      -1.901   4.599   4.632  1.00  0.00     0.271 C 
ATOM      6  O   UNL     1      -3.001   4.192   4.255  1.00  0.00    -0.267 OA
ATOM      7  H   UNL     1      -2.757   5.491   6.206  1.00  0.00     0.163 HD
BRANCH   5   8
ATOM      8  C   UNL     1      -0.663   4.369   3.853  1.00  0.00     0.150 A 
ATOM      9  C   UNL     1       2.886   4.602   2.886  1.00  0.00     0.066 C 
ATOM     10  C   UNL     1       1.431   4.374   3.044  1.00  0.00     0.036 A 
ATOM     11  C   UNL     1       0.583   5.032   3.906  1.00  0.00     0.059 A 
ATOM     12  N   UNL     1       0.633   3.482   2.376  1.00  0.00    -0.265 N 
ATOM     13  N   UNL     1      -0.607   3.415   2.902  1.00  0.00    -0.167 NA
BRANCH  12  14
ATOM     14  C   UNL     1       0.876   2.644   1.210  1.00  0.00     0.123 C 
ATOM     15  C   UNL     1      -0.022   3.049   0.023  1.00  0.00     0.044 C 
ATOM     16  C   UNL     1       2.290   2.643   0.651  1.00  0.00     0.164 C 
ATOM     17  C   UNL     1       0.410   2.219  -1.180  1.00  0.00     0.139 C 
ATOM     18  S   UNL     1       2.146   1.892  -0.946  1.00  0.00     0.152 S 
ATOM     19  O   UNL     1       2.345   0.472  -0.799  1.00  0.00    -0.229 OA
ATOM     20  O   UNL     1       2.916   2.688  -1.889  1.00  0.00    -0.229 OA
ENDBRANCH  12  14
ENDBRANCH   5   8
ENDBRANCH   3   4
ENDBRANCH   2   3
ENDBRANCH   1   2
BRANCH   1  21
ATOM     21  N   UNL     1      -0.842   8.091   8.646  1.00  0.00    -0.352 N 
ATOM     22  C   UNL     1      -1.454   8.700   9.723  1.00  0.00     0.251 C 
ATOM     23  H   UNL     1      -0.061   7.532   8.860  1.00  0.00     0.163 HD
ATOM     24  O   UNL     1      -0.842   8.835  10.777  1.00  0.00    -0.269 OA
BRANCH  22  25
ATOM     25  C   UNL     1      -2.834   9.199   9.579  1.00  0.00     0.039 A 
ATOM     26  C   UNL     1      -3.217  10.426  10.127  1.00  0.00     0.014 A 
ATOM     27  C   UNL     1      -3.737   8.438   8.843  1.00  0.00     0.014 A 
ATOM     28  C   UNL     1      -4.486  10.926   9.839  1.00  0.00     0.010 A 
ATOM     29  C   UNL     1      -4.925   8.997   8.438  1.00  0.00     0.010 A 
ATOM     30  C   UNL     1      -5.329  10.221   8.965  1.00  0.00    -0.014 A 
BRANCH  30  31
ATOM     31  C   UNL     1      -6.568  10.823   8.466  1.00  0.00     0.031 A 
ATOM     32  C   UNL     1      -6.392  12.162   7.838  1.00  0.00     0.074 A 
ATOM     33  C   UNL     1      -7.726  10.136   8.332  1.00  0.00     0.049 A 
ATOM     34  N   UNL     1      -6.843  13.301   8.248  1.00  0.00    -0.248 NA
ATOM     35  C   UNL     1      -5.468  12.274   6.695  1.00  0.00     0.031 C 
ATOM     36  C   UNL     1      -7.961   8.714   8.612  1.00  0.00     0.029 A 
ATOM     37  N   UNL     1      -8.912  10.530   7.788  1.00  0.00    -0.354 N 
ATOM     38  C   UNL     1      -6.480  14.230   7.275  1.00  0.00     0.074 A 
ATOM     39  C   UNL     1      -5.458  13.592   6.492  1.00  0.00     0.031 C 
ATOM     40  C   UNL     1      -9.104   8.316   8.013  1.00  0.00     0.029 A 
ATOM     41  C   UNL     1      -9.772   9.481   7.464  1.00  0.00     0.049 A 
ATOM     42  H   UNL     1      -9.142  11.475   7.636  1.00  0.00     0.167 HD
ATOM     43  C   UNL     1      -7.240  15.338   7.039  1.00  0.00     0.034 A 
ATOM     44  C   UNL     1     -10.943   9.548   6.776  1.00  0.00     0.034 A 
ATOM     45  C   UNL     1      -8.155  15.571   8.139  1.00  0.00     0.049 A 
ATOM     46  C   UNL     1     -11.412  10.950   6.865  1.00  0.00     0.074 A 
ATOM     47  C   UNL     1      -8.007  15.771   9.499  1.00  0.00     0.029 A 
ATOM     48  N   UNL     1      -9.478  15.229   7.962  1.00  0.00    -0.354 N 
ATOM     49  N   UNL     1     -11.768  11.516   7.984  1.00  0.00    -0.248 NA
ATOM     50  C   UNL     1     -11.040  11.867   5.799  1.00  0.00     0.031 C 
ATOM     51  C   UNL     1      -9.084  15.050  10.095  1.00  0.00     0.029 A 
ATOM     52  C   UNL     1      -9.882  14.531   9.072  1.00  0.00     0.049 A 
ATOM     53  H   UNL     1     -10.034  15.446   7.179  1.00  0.00     0.167 HD
ATOM     54  C   UNL     1     -11.244  12.797   7.918  1.00  0.00     0.074 A 
ATOM     55  C   UNL     1     -10.913  12.993   6.508  1.00  0.00     0.031 C 
ATOM     56  C   UNL     1     -10.863  13.461   9.050  1.00  0.00     0.034 A 
BRANCH  43  57
ATOM     57  C   UNL     1      -7.454  15.976   5.675  1.00  0.00     0.023 A 
ATOM     58  C   UNL     1      -8.354  17.059   5.613  1.00  0.00     0.031 A 
ATOM     59  C   UNL     1      -7.081  15.429   4.426  1.00  0.00     0.131 A 
ATOM     60  C   UNL     1      -8.939  17.451   4.396  1.00  0.00     0.055 A 
ATOM     61  C   UNL     1      -7.615  15.868   3.210  1.00  0.00     0.041 A 
ATOM     62  F   UNL     1      -6.249  14.390   4.301  1.00  0.00    -0.206 F 
ATOM     63  C   UNL     1      -8.580  16.858   3.192  1.00  0.00     0.022 A 
BRANCH  60  64
ATOM     64  S   UNL     1     -10.327  18.613   4.450  1.00  0.00     0.124 S 
ATOM     65  O   UNL     1     -11.218  17.956   5.400  1.00  0.00    -0.237 OA
ATOM     66  O   UNL     1      -9.675  19.834   4.913  1.00  0.00    -0.237 OA
ATOM     67  O   UNL     1     -10.797  18.642   3.067  1.00  0.00    -0.744 OA
ENDBRANCH  60  64
ENDBRANCH  43  57
BRANCH  44  68
ATOM     68  C   UNL     1     -11.515   8.549   5.831  1.00  0.00     0.023 A 
ATOM     69  C   UNL     1     -12.882   8.523   5.479  1.00  0.00     0.031 A 
ATOM     70  C   UNL     1     -10.646   7.748   5.057  1.00  0.00     0.131 A 
ATOM     71  C   UNL     1     -13.324   7.728   4.394  1.00  0.00     0.055 A 
ATOM     72  C   UNL     1     -11.088   6.964   3.988  1.00  0.00     0.041 A 
ATOM     73  F   UNL     1      -9.319   7.770   5.259  1.00  0.00    -0.206 F 
ATOM     74  C   UNL     1     -12.430   6.960   3.645  1.00  0.00     0.022 A 
BRANCH  71  75
ATOM     75  S   UNL     1     -15.071   7.762   3.873  1.00  0.00     0.124 S 
ATOM     76  O   UNL     1     -15.738   7.078   4.975  1.00  0.00    -0.237 OA
ATOM     77  O   UNL     1     -15.333   9.190   3.740  1.00  0.00    -0.237 OA
ATOM     78  O   UNL     1     -15.064   7.024   2.608  1.00  0.00    -0.744 OA
ENDBRANCH  71  75
ENDBRANCH  44  68
BRANCH  56  79
ATOM     79  C   UNL     1     -11.334  12.929  10.391  1.00  0.00     0.023 A 
ATOM     80  C   UNL     1     -11.086  11.629  10.889  1.00  0.00     0.031 A 
ATOM     81  C   UNL     1     -11.983  13.839  11.244  1.00  0.00     0.131 A 
ATOM     82  C   UNL     1     -11.499  11.283  12.193  1.00  0.00     0.055 A 
ATOM     83  C   UNL     1     -12.369  13.500  12.540  1.00  0.00     0.041 A 
ATOM     84  F   UNL     1     -12.227  15.097  10.840  1.00  0.00    -0.206 F 
ATOM     85  C   UNL     1     -12.134  12.217  13.017  1.00  0.00     0.022 A 
BRANCH  82  86
ATOM     86  S   UNL     1     -11.240   9.598  12.841  1.00  0.00     0.124 S 
ATOM     87  O   UNL     1     -11.678   8.737  11.749  1.00  0.00    -0.237 OA
ATOM     88  O   UNL     1      -9.808   9.587  13.130  1.00  0.00    -0.237 OA
ATOM     89  O   UNL     1     -12.096   9.557  14.029  1.00  0.00    -0.744 OA
ENDBRANCH  82  86
ENDBRANCH  56  79
ENDBRANCH  30  31
ENDBRANCH  22  25
ENDBRANCH   1  21
TORSDOF 14
