REMARK SMILES O=C(NCCCNC(=O)c1ccc(-c2c3nc(c(-c4cc(S(=O)(=O)[O-])ccc4F)c4ccc([nH]4)c(-c4cc(S(=O)(=O)[O-])ccc4F)c4nc(c(-c5cc(S(=O)(=O)[O-])ccc5F)c5ccc2[nH]5)C=C4)C=C3)cc1)C1=NN(c2ccc(S(=O)(=O)[O-])cc2)C(=O)/C1=C/Nc1ccccc1
REMARK SMILES IDX 5 1 4 2 3 3 1 4 2 5 73 7 74 8 88 9 75 10 86 11 89 12 87 13
REMARK SMILES IDX 76 14 77 15 85 16 78 17 84 18 79 19 80 20 81 21 82 22 83 23
REMARK SMILES IDX 90 24 91 26 92 27 96 28 93 29 95 30 94 31 6 32 7 33 8 34
REMARK SMILES IDX 9 36 10 37 11 38 72 39 12 40 71 41 13 42 14 43 15 44 65 45
REMARK SMILES IDX 16 46 70 47 64 48 66 49 17 50 69 51 63 52 62 53 18 55 50 56
REMARK SMILES IDX 30 57 49 58 31 59 34 60 48 61 67 62 32 63 33 64 47 66 68 67
REMARK SMILES IDX 35 68 19 69 20 70 28 71 21 72 27 73 29 74 26 75 22 76 23 77
REMARK SMILES IDX 24 78 25 79 51 80 52 81 60 82 53 83 59 84 61 85 58 86 54 87
REMARK SMILES IDX 55 88 56 89 57 90 36 91 37 92 45 93 38 94 44 95 46 96 43 97
REMARK SMILES IDX 39 98 40 99 41 100 42 101
REMARK H PARENT 3 6 90 25 7 35 66 54 34 65
REMARK Flexibility Score: inf
ROOT
ATOM      1  C   UNL     1       4.984  -2.220  -1.076  1.00  0.00     0.042 C 
ENDROOT
BRANCH   1   2
ATOM      2  C   UNL     1       4.462  -0.805  -0.882  1.00  0.00     0.118 C 
BRANCH   2   3
ATOM      3  N   UNL     1       3.020  -0.750  -0.702  1.00  0.00    -0.351 N 
ATOM      4  O   UNL     1       1.086   0.098   0.121  1.00  0.00    -0.267 OA
ATOM      5  C   UNL     1       2.305   0.010   0.189  1.00  0.00     0.272 C 
ATOM      6  H   UNL     1       2.490  -1.330  -1.295  1.00  0.00     0.163 HD
BRANCH   5   7
ATOM      7  C   UNL     1       3.022   0.825   1.215  1.00  0.00     0.163 C 
ATOM      8  N   UNL     1       2.955   0.598   2.502  1.00  0.00    -0.158 NA
ATOM      9  C   UNL     1       3.833   1.997   0.886  1.00  0.00     0.091 C 
ATOM     10  N   UNL     1       3.687   1.631   3.098  1.00  0.00    -0.196 N 
ATOM     11  C   UNL     1       4.333   2.480   2.185  1.00  0.00     0.282 C 
ATOM     12  C   UNL     1       4.079   2.607  -0.275  1.00  0.00     0.099 C 
ATOM     13  O   UNL     1       5.077   3.431   2.346  1.00  0.00    -0.267 OA
BRANCH  10  14
ATOM     14  C   UNL     1       3.500   1.871   4.479  1.00  0.00     0.069 A 
ATOM     15  C   UNL     1       3.014   0.865   5.328  1.00  0.00     0.030 A 
ATOM     16  C   UNL     1       3.696   3.157   5.008  1.00  0.00     0.030 A 
ATOM     17  C   UNL     1       2.716   1.140   6.669  1.00  0.00     0.021 A 
ATOM     18  C   UNL     1       3.373   3.448   6.335  1.00  0.00     0.021 A 
ATOM     19  C   UNL     1       2.885   2.437   7.159  1.00  0.00     0.054 A 
BRANCH  19  20
ATOM     20  S   UNL     1       2.401   2.807   8.819  1.00  0.00     0.124 S 
ATOM     21  O   UNL     1       1.059   2.307   9.022  1.00  0.00    -0.237 OA
ATOM     22  O   UNL     1       3.490   2.442   9.697  1.00  0.00    -0.237 OA
ATOM     23  O   UNL     1       2.300   4.418   8.893  1.00  0.00    -0.744 OA
ENDBRANCH  19  20
ENDBRANCH  10  14
BRANCH  12  24
ATOM     24  N   UNL     1       3.515   2.384  -1.504  1.00  0.00    -0.361 N 
ATOM     25  H   UNL     1       2.698   1.836  -1.522  1.00  0.00     0.166 HD
BRANCH  24  26
ATOM     26  C   UNL     1       3.985   2.855  -2.739  1.00  0.00     0.038 A 
ATOM     27  C   UNL     1       3.057   3.261  -3.707  1.00  0.00     0.026 A 
ATOM     28  C   UNL     1       5.349   2.994  -3.018  1.00  0.00     0.026 A 
ATOM     29  C   UNL     1       3.482   3.772  -4.934  1.00  0.00     0.002 A 
ATOM     30  C   UNL     1       5.777   3.482  -4.256  1.00  0.00     0.002 A 
ATOM     31  C   UNL     1       4.843   3.873  -5.212  1.00  0.00     0.000 A 
ENDBRANCH  24  26
ENDBRANCH  12  24
ENDBRANCH   5   7
ENDBRANCH   2   3
ENDBRANCH   1   2
BRANCH   1  32
ATOM     32  C   UNL     1       4.459  -2.933  -2.317  1.00  0.00     0.118 C 
BRANCH  32  33
ATOM     33  N   UNL     1       4.895  -2.328  -3.567  1.00  0.00    -0.352 N 
ATOM     34  C   UNL     1       5.611  -2.868  -4.612  1.00  0.00     0.251 C 
ATOM     35  H   UNL     1       4.638  -1.384  -3.683  1.00  0.00     0.163 HD
ATOM     36  O   UNL     1       5.981  -2.136  -5.526  1.00  0.00    -0.269 OA
BRANCH  34  37
ATOM     37  C   UNL     1       5.973  -4.305  -4.620  1.00  0.00     0.039 A 
ATOM     38  C   UNL     1       7.265  -4.671  -5.009  1.00  0.00     0.014 A 
ATOM     39  C   UNL     1       5.059  -5.291  -4.240  1.00  0.00     0.014 A 
ATOM     40  C   UNL     1       7.666  -6.008  -4.925  1.00  0.00     0.010 A 
ATOM     41  C   UNL     1       5.486  -6.607  -4.072  1.00  0.00     0.010 A 
ATOM     42  C   UNL     1       6.797  -6.981  -4.405  1.00  0.00    -0.014 A 
BRANCH  42  43
ATOM     43  C   UNL     1       7.245  -8.383  -4.186  1.00  0.00     0.031 A 
ATOM     44  C   UNL     1       6.570  -9.519  -4.910  1.00  0.00     0.074 A 
ATOM     45  C   UNL     1       8.207  -8.642  -3.277  1.00  0.00     0.049 A 
ATOM     46  N   UNL     1       6.754 -10.808  -4.782  1.00  0.00    -0.248 NA
ATOM     47  C   UNL     1       5.526  -9.155  -5.880  1.00  0.00     0.031 C 
ATOM     48  C   UNL     1       8.903  -7.634  -2.471  1.00  0.00     0.029 A 
ATOM     49  N   UNL     1       8.761  -9.829  -2.865  1.00  0.00    -0.354 N 
ATOM     50  C   UNL     1       5.838 -11.410  -5.639  1.00  0.00     0.074 A 
ATOM     51  C   UNL     1       5.063 -10.344  -6.237  1.00  0.00     0.031 C 
ATOM     52  C   UNL     1       9.802  -8.243  -1.682  1.00  0.00     0.029 A 
ATOM     53  C   UNL     1       9.719  -9.686  -1.887  1.00  0.00     0.049 A 
ATOM     54  H   UNL     1       8.497 -10.703  -3.235  1.00  0.00     0.167 HD
ATOM     55  C   UNL     1       5.674 -12.727  -5.918  1.00  0.00     0.034 A 
ATOM     56  C   UNL     1      10.440 -10.609  -1.220  1.00  0.00     0.034 A 
ATOM     57  C   UNL     1       6.471 -13.778  -5.334  1.00  0.00     0.049 A 
ATOM     58  C   UNL     1      10.240 -12.067  -1.550  1.00  0.00     0.074 A 
ATOM     59  C   UNL     1       6.435 -15.137  -5.600  1.00  0.00     0.029 A 
ATOM     60  N   UNL     1       7.447 -13.592  -4.363  1.00  0.00    -0.354 N 
ATOM     61  N   UNL     1       9.409 -12.613  -2.406  1.00  0.00    -0.248 NA
ATOM     62  C   UNL     1      11.085 -13.030  -0.832  1.00  0.00     0.031 C 
ATOM     63  C   UNL     1       7.342 -15.777  -4.748  1.00  0.00     0.029 A 
ATOM     64  C   UNL     1       7.997 -14.812  -3.999  1.00  0.00     0.049 A 
ATOM     65  H   UNL     1       7.709 -12.721  -3.987  1.00  0.00     0.167 HD
ATOM     66  C   UNL     1       9.653 -13.983  -2.349  1.00  0.00     0.074 A 
ATOM     67  C   UNL     1      10.720 -14.175  -1.388  1.00  0.00     0.031 C 
ATOM     68  C   UNL     1       9.053 -14.991  -3.032  1.00  0.00     0.034 A 
BRANCH  55  69
ATOM     69  C   UNL     1       4.575 -13.103  -6.883  1.00  0.00     0.023 A 
ATOM     70  C   UNL     1       4.599 -12.692  -8.227  1.00  0.00     0.031 A 
ATOM     71  C   UNL     1       3.480 -13.871  -6.450  1.00  0.00     0.131 A 
ATOM     72  C   UNL     1       3.518 -12.989  -9.071  1.00  0.00     0.055 A 
ATOM     73  C   UNL     1       2.444 -14.231  -7.316  1.00  0.00     0.041 A 
ATOM     74  F   UNL     1       3.391 -14.277  -5.174  1.00  0.00    -0.206 F 
ATOM     75  C   UNL     1       2.453 -13.778  -8.632  1.00  0.00     0.022 A 
BRANCH  72  76
ATOM     76  S   UNL     1       3.463 -12.218 -10.711  1.00  0.00     0.124 S 
ATOM     77  O   UNL     1       3.457 -10.797 -10.368  1.00  0.00    -0.237 OA
ATOM     78  O   UNL     1       4.681 -12.718 -11.337  1.00  0.00    -0.237 OA
ATOM     79  O   UNL     1       2.215 -12.718 -11.284  1.00  0.00    -0.744 OA
ENDBRANCH  72  76
ENDBRANCH  55  69
BRANCH  56  80
ATOM     80  C   UNL     1      11.409 -10.196  -0.165  1.00  0.00     0.023 A 
ATOM     81  C   UNL     1      12.786 -10.419  -0.321  1.00  0.00     0.031 A 
ATOM     82  C   UNL     1      10.967  -9.616   1.037  1.00  0.00     0.131 A 
ATOM     83  C   UNL     1      13.668 -10.112   0.727  1.00  0.00     0.055 A 
ATOM     84  C   UNL     1      11.855  -9.263   2.056  1.00  0.00     0.041 A 
ATOM     85  F   UNL     1       9.662  -9.374   1.235  1.00  0.00    -0.206 F 
ATOM     86  C   UNL     1      13.213  -9.525   1.909  1.00  0.00     0.022 A 
BRANCH  83  87
ATOM     87  S   UNL     1      15.414 -10.576   0.555  1.00  0.00     0.124 S 
ATOM     88  O   UNL     1      15.318 -12.012   0.320  1.00  0.00    -0.237 OA
ATOM     89  O   UNL     1      15.831  -9.765  -0.583  1.00  0.00    -0.237 OA
ATOM     90  O   UNL     1      15.995 -10.191   1.839  1.00  0.00    -0.744 OA
ENDBRANCH  83  87
ENDBRANCH  56  80
BRANCH  68  91
ATOM     91  C   UNL     1       9.575 -16.385  -2.790  1.00  0.00     0.023 A 
ATOM     92  C   UNL     1       9.410 -17.033  -1.554  1.00  0.00     0.031 A 
ATOM     93  C   UNL     1      10.262 -17.068  -3.810  1.00  0.00     0.131 A 
ATOM     94  C   UNL     1       9.975 -18.301  -1.349  1.00  0.00     0.055 A 
ATOM     95  C   UNL     1      10.771 -18.353  -3.619  1.00  0.00     0.041 A 
ATOM     96  F   UNL     1      10.450 -16.496  -5.010  1.00  0.00    -0.206 F 
ATOM     97  C   UNL     1      10.641 -18.971  -2.378  1.00  0.00     0.022 A 
BRANCH  94  98
ATOM     98  S   UNL     1       9.906 -19.027   0.312  1.00  0.00     0.124 S 
ATOM     99  O   UNL     1      10.595 -18.021   1.113  1.00  0.00    -0.237 OA
ATOM    100  O   UNL     1       8.470 -19.150   0.539  1.00  0.00    -0.237 OA
ATOM    101  O   UNL     1      10.618 -20.295   0.162  1.00  0.00    -0.744 OA
ENDBRANCH  94  98
ENDBRANCH  68  91
ENDBRANCH  42  43
ENDBRANCH  34  37
ENDBRANCH  32  33
ENDBRANCH   1  32
TORSDOF 17
