REMARK SMILES O=C(C[C@H]1C(=O)NCC[N@@H+]1Cc1ccc(Cl)c(F)c1)NCCCNC(=O)c1ccc(-c2c3nc(c(-c4cc(S(=O)(=O)[O-])ccc4F)c4ccc([nH]4)c(-c4cc(S(=O)(=O)[O-])ccc4F)c4nc(c(-c5cc(S(=O)(=O)[O-])ccc5F)c5ccc2[nH]5)C=C4)C=C3)cc1
REMARK SMILES IDX 22 1 21 2 20 3 1 4 2 5 3 7 4 8 5 9 10 10 6 11 7 12 9 13 8 15
REMARK SMILES IDX 11 17 12 18 13 19 19 20 14 21 17 22 15 23 18 24 16 25 23 26
REMARK SMILES IDX 24 27 25 28 26 30 27 31 28 32 89 33 29 34 88 35 30 36 31 37
REMARK SMILES IDX 32 38 82 39 33 40 87 41 81 42 83 43 34 44 86 45 80 46 79 47
REMARK SMILES IDX 35 49 67 50 47 51 66 52 48 53 51 54 65 55 84 56 49 57 50 58
REMARK SMILES IDX 64 60 85 61 52 62 36 63 37 64 45 65 38 66 44 67 46 68 43 69
REMARK SMILES IDX 39 70 40 71 41 72 42 73 68 74 69 75 77 76 70 77 76 78 78 79
REMARK SMILES IDX 75 80 71 81 72 82 73 83 74 84 53 85 54 86 62 87 55 88 61 89
REMARK SMILES IDX 63 90 60 91 56 92 57 93 58 94 59 95
REMARK H PARENT 20 6 10 14 7 16 24 29 83 48 51 59
REMARK Flexibility Score: inf
ROOT
ATOM      1  C   UNL     1       8.069   3.797   3.502  1.00  0.00     0.042 C 
ENDROOT
BRANCH   1   2
ATOM      2  C   UNL     1       7.136   2.648   3.139  1.00  0.00     0.117 C 
BRANCH   2   3
ATOM      3  N   UNL     1       6.732   2.628   1.746  1.00  0.00    -0.356 N 
ATOM      4  O   UNL     1       6.222   0.391   1.720  1.00  0.00    -0.275 OA
ATOM      5  C   UNL     1       6.182   1.494   1.187  1.00  0.00     0.226 C 
ATOM      6  H   UNL     1       6.853   3.433   1.194  1.00  0.00     0.163 HD
BRANCH   5   7
ATOM      7  C   UNL     1       5.458   1.731  -0.124  1.00  0.00     0.175 C 
BRANCH   7   8
ATOM      8  C   UNL     1       3.934   1.951   0.028  1.00  0.00     0.283 C 
ATOM      9  C   UNL     1       3.424   1.608   1.439  1.00  0.00     0.279 C 
ATOM     10  N   UNL     1       3.519   3.324  -0.391  1.00  0.00    -0.319 N 
ATOM     11  O   UNL     1       3.039   0.481   1.745  1.00  0.00    -0.268 OA
ATOM     12  N   UNL     1       3.439   2.611   2.369  1.00  0.00    -0.345 N 
ATOM     13  C   UNL     1       3.929   4.340   0.585  1.00  0.00     0.284 C 
ATOM     14  H   UNL     1       4.040   3.520  -1.245  1.00  0.00     0.349 HD
ATOM     15  C   UNL     1       3.707   4.002   2.072  1.00  0.00     0.177 C 
ATOM     16  H   UNL     1       3.255   2.370   3.305  1.00  0.00     0.163 HD
BRANCH  10  17
ATOM     17  C   UNL     1       2.116   3.441  -0.837  1.00  0.00     0.299 C 
BRANCH  17  18
ATOM     18  C   UNL     1       1.032   3.230   0.198  1.00  0.00     0.009 A 
ATOM     19  C   UNL     1       0.469   1.958   0.395  1.00  0.00     0.011 A 
ATOM     20  C   UNL     1       0.615   4.281   1.028  1.00  0.00     0.050 A 
ATOM     21  C   UNL     1      -0.417   1.723   1.451  1.00  0.00     0.024 A 
ATOM     22  C   UNL     1      -0.257   4.038   2.087  1.00  0.00     0.142 A 
ATOM     23  C   UNL     1      -0.763   2.762   2.311  1.00  0.00     0.076 A 
ATOM     24  F   UNL     1      -0.566   5.053   2.907  1.00  0.00    -0.205 F 
ATOM     25  Cl  UNL     1      -1.798   2.448   3.650  1.00  0.00    -0.081 Cl
ENDBRANCH  17  18
ENDBRANCH  10  17
ENDBRANCH   7   8
ENDBRANCH   5   7
ENDBRANCH   2   3
ENDBRANCH   1   2
BRANCH   1  26
ATOM     26  C   UNL     1       7.517   5.205   3.291  1.00  0.00     0.118 C 
BRANCH  26  27
ATOM     27  N   UNL     1       6.422   5.563   4.179  1.00  0.00    -0.352 N 
ATOM     28  C   UNL     1       6.164   6.761   4.808  1.00  0.00     0.251 C 
ATOM     29  H   UNL     1       5.771   4.846   4.356  1.00  0.00     0.163 HD
ATOM     30  O   UNL     1       5.167   6.869   5.516  1.00  0.00    -0.269 OA
BRANCH  28  31
ATOM     31  C   UNL     1       7.123   7.885   4.692  1.00  0.00     0.039 A 
ATOM     32  C   UNL     1       7.584   8.481   5.870  1.00  0.00     0.014 A 
ATOM     33  C   UNL     1       7.615   8.307   3.455  1.00  0.00     0.014 A 
ATOM     34  C   UNL     1       8.618   9.419   5.816  1.00  0.00     0.010 A 
ATOM     35  C   UNL     1       8.685   9.202   3.406  1.00  0.00     0.010 A 
ATOM     36  C   UNL     1       9.217   9.742   4.588  1.00  0.00    -0.014 A 
BRANCH  36  37
ATOM     37  C   UNL     1      10.443  10.582   4.530  1.00  0.00     0.031 A 
ATOM     38  C   UNL     1      10.418  11.928   3.864  1.00  0.00     0.074 A 
ATOM     39  C   UNL     1      11.604  10.090   5.009  1.00  0.00     0.049 A 
ATOM     40  N   UNL     1      11.406  12.752   3.625  1.00  0.00    -0.248 NA
ATOM     41  C   UNL     1       9.111  12.396   3.381  1.00  0.00     0.031 C 
ATOM     42  C   UNL     1      11.766   8.781   5.648  1.00  0.00     0.029 A 
ATOM     43  N   UNL     1      12.870  10.621   5.020  1.00  0.00    -0.354 N 
ATOM     44  C   UNL     1      10.845  13.835   2.958  1.00  0.00     0.074 A 
ATOM     45  C   UNL     1       9.437  13.535   2.787  1.00  0.00     0.031 C 
ATOM     46  C   UNL     1      13.053   8.617   5.996  1.00  0.00     0.029 A 
ATOM     47  C   UNL     1      13.816   9.784   5.566  1.00  0.00     0.049 A 
ATOM     48  H   UNL     1      13.081  11.516   4.669  1.00  0.00     0.167 HD
ATOM     49  C   UNL     1      11.445  14.979   2.541  1.00  0.00     0.034 A 
ATOM     50  C   UNL     1      15.151   9.927   5.688  1.00  0.00     0.034 A 
ATOM     51  C   UNL     1      12.848  15.267   2.722  1.00  0.00     0.049 A 
ATOM     52  C   UNL     1      15.801  11.188   5.181  1.00  0.00     0.074 A 
ATOM     53  C   UNL     1      13.541  16.420   2.393  1.00  0.00     0.029 A 
ATOM     54  N   UNL     1      13.778  14.391   3.269  1.00  0.00    -0.354 N 
ATOM     55  N   UNL     1      15.248  12.222   4.591  1.00  0.00    -0.248 NA
ATOM     56  C   UNL     1      17.254  11.300   5.359  1.00  0.00     0.031 C 
ATOM     57  C   UNL     1      14.897  16.217   2.681  1.00  0.00     0.029 A 
ATOM     58  C   UNL     1      15.042  14.963   3.252  1.00  0.00     0.049 A 
ATOM     59  H   UNL     1      13.570  13.494   3.618  1.00  0.00     0.167 HD
ATOM     60  C   UNL     1      16.285  13.117   4.347  1.00  0.00     0.074 A 
ATOM     61  C   UNL     1      17.492  12.508   4.868  1.00  0.00     0.031 C 
ATOM     62  C   UNL     1      16.242  14.335   3.751  1.00  0.00     0.034 A 
BRANCH  49  63
ATOM     63  C   UNL     1      10.584  15.988   1.821  1.00  0.00     0.023 A 
ATOM     64  C   UNL     1       9.514  16.635   2.463  1.00  0.00     0.031 A 
ATOM     65  C   UNL     1      10.819  16.287   0.467  1.00  0.00     0.131 A 
ATOM     66  C   UNL     1       8.673  17.489   1.733  1.00  0.00     0.055 A 
ATOM     67  C   UNL     1      10.026  17.199  -0.233  1.00  0.00     0.041 A 
ATOM     68  F   UNL     1      11.814  15.686  -0.203  1.00  0.00    -0.206 F 
ATOM     69  C   UNL     1       8.936  17.794   0.396  1.00  0.00     0.022 A 
BRANCH  66  70
ATOM     70  S   UNL     1       7.150  18.081   2.519  1.00  0.00     0.124 S 
ATOM     71  O   UNL     1       6.476  16.825   2.838  1.00  0.00    -0.237 OA
ATOM     72  O   UNL     1       7.657  18.842   3.655  1.00  0.00    -0.237 OA
ATOM     73  O   UNL     1       6.510  18.874   1.472  1.00  0.00    -0.744 OA
ENDBRANCH  66  70
ENDBRANCH  49  63
BRANCH  50  74
ATOM     74  C   UNL     1      15.974   8.839   6.287  1.00  0.00     0.023 A 
ATOM     75  C   UNL     1      16.642   9.027   7.507  1.00  0.00     0.031 A 
ATOM     76  C   UNL     1      16.136   7.609   5.626  1.00  0.00     0.131 A 
ATOM     77  C   UNL     1      17.477   8.017   8.009  1.00  0.00     0.055 A 
ATOM     78  C   UNL     1      16.930   6.589   6.153  1.00  0.00     0.041 A 
ATOM     79  F   UNL     1      15.513   7.377   4.460  1.00  0.00    -0.206 F 
ATOM     80  C   UNL     1      17.616   6.795   7.346  1.00  0.00     0.022 A 
BRANCH  77  81
ATOM     81  S   UNL     1      18.438   8.351   9.510  1.00  0.00     0.124 S 
ATOM     82  O   UNL     1      19.219   9.516   9.109  1.00  0.00    -0.237 OA
ATOM     83  O   UNL     1      17.388   8.589  10.494  1.00  0.00    -0.237 OA
ATOM     84  O   UNL     1      19.204   7.122   9.704  1.00  0.00    -0.744 OA
ENDBRANCH  77  81
ENDBRANCH  50  74
BRANCH  62  85
ATOM     85  C   UNL     1      17.543  15.093   3.660  1.00  0.00     0.023 A 
ATOM     86  C   UNL     1      18.590  14.661   2.827  1.00  0.00     0.031 A 
ATOM     87  C   UNL     1      17.745  16.249   4.434  1.00  0.00     0.131 A 
ATOM     88  C   UNL     1      19.812  15.351   2.826  1.00  0.00     0.055 A 
ATOM     89  C   UNL     1      18.944  16.963   4.388  1.00  0.00     0.041 A 
ATOM     90  F   UNL     1      16.779  16.704   5.248  1.00  0.00    -0.206 F 
ATOM     91  C   UNL     1      19.990  16.508   3.590  1.00  0.00     0.022 A 
BRANCH  88  92
ATOM     92  S   UNL     1      21.197  14.671   1.872  1.00  0.00     0.124 S 
ATOM     93  O   UNL     1      21.375  13.361   2.489  1.00  0.00    -0.237 OA
ATOM     94  O   UNL     1      20.669  14.670   0.512  1.00  0.00    -0.237 OA
ATOM     95  O   UNL     1      22.280  15.623   2.114  1.00  0.00    -0.744 OA
ENDBRANCH  88  92
ENDBRANCH  62  85
ENDBRANCH  36  37
ENDBRANCH  28  31
ENDBRANCH  26  27
ENDBRANCH   1  26
TORSDOF 16
