REMARK SMILES CCC[NH2+][C@]1(C(=O)NCCCNC(=O)c2ccc(-c3c4nc(c(-c5cc(S(=O)(=O)[O-])ccc5F)c5ccc([nH]5)c(-c5cc(S(=O)(=O)[O-])ccc5F)c5nc(c(-c6cc(S(=O)(=O)[O-])ccc6F)c6ccc3[nH]6)C=C5)C=C4)cc2)CCC[C@H](Sc2nnc(C)o2)C1
REMARK SMILES IDX 10 1 9 2 8 3 6 4 7 5 5 7 78 8 89 9 79 10 81 11 80 12 4 13
REMARK SMILES IDX 3 16 2 17 1 18 82 19 83 20 84 21 88 22 85 23 86 24 87 25
REMARK SMILES IDX 11 26 12 27 13 28 14 30 15 31 16 32 77 33 17 34 76 35 18 36
REMARK SMILES IDX 19 37 20 38 70 39 21 40 75 41 69 42 71 43 22 44 74 45 68 46
REMARK SMILES IDX 67 47 23 49 55 50 35 51 54 52 36 53 39 54 53 55 72 56 37 57
REMARK SMILES IDX 38 58 52 60 73 61 40 62 24 63 25 64 33 65 26 66 32 67 34 68
REMARK SMILES IDX 31 69 27 70 28 71 29 72 30 73 56 74 57 75 65 76 58 77 64 78
REMARK SMILES IDX 66 79 63 80 59 81 60 82 61 83 62 84 41 85 42 86 50 87 43 88
REMARK SMILES IDX 49 89 51 90 48 91 44 92 45 93 46 94 47 95
REMARK H PARENT 8 6 4 14 4 15 12 29 71 48 39 59
REMARK Flexibility Score: inf
ROOT
ATOM      1  C   UNL     1      -0.441   0.079   4.047  1.00  0.00     0.042 C 
ENDROOT
BRANCH   1   2
ATOM      2  C   UNL     1      -1.098  -1.060   3.279  1.00  0.00     0.118 C 
BRANCH   2   3
ATOM      3  N   UNL     1      -0.384  -1.435   2.068  1.00  0.00    -0.351 N 
ATOM      4  C   UNL     1       0.336  -2.515   1.665  1.00  0.00     0.281 C 
ATOM      5  O   UNL     1       0.547  -2.548   0.440  1.00  0.00    -0.268 OA
ATOM      6  H   UNL     1      -0.434  -0.738   1.374  1.00  0.00     0.163 HD
BRANCH   4   7
ATOM      7  C   UNL     1       0.938  -3.648   2.590  1.00  0.00     0.176 C 
ATOM      8  C   UNL     1       0.287  -3.736   3.984  1.00  0.00     0.079 C 
ATOM      9  C   UNL     1       0.655  -5.009   1.856  1.00  0.00     0.094 C 
ATOM     10  C   UNL     1       0.650  -4.975   4.798  1.00  0.00     0.008 C 
ATOM     11  C   UNL     1       0.924  -6.312   2.653  1.00  0.00     0.063 C 
ATOM     12  C   UNL     1       0.262  -6.227   4.030  1.00  0.00     0.015 C 
BRANCH   7  13
ATOM     13  N   UNL     1       2.385  -3.355   2.830  1.00  0.00    -0.334 N 
ATOM     14  H   UNL     1       2.444  -2.445   3.288  1.00  0.00     0.347 HD
ATOM     15  H   UNL     1       2.726  -4.137   3.388  1.00  0.00     0.347 HD
BRANCH  13  16
ATOM     16  C   UNL     1       3.258  -3.315   1.651  1.00  0.00     0.261 C 
BRANCH  16  17
ATOM     17  C   UNL     1       4.735  -3.085   2.026  1.00  0.00     0.058 C 
ATOM     18  C   UNL     1       5.326  -4.064   3.033  1.00  0.00     0.010 C 
ENDBRANCH  16  17
ENDBRANCH  13  16
ENDBRANCH   7  13
BRANCH  11  19
ATOM     19  S   UNL     1       2.711  -6.651   2.611  1.00  0.00    -0.062 SA
BRANCH  19  20
ATOM     20  C   UNL     1       3.053  -7.794   3.853  1.00  0.00     0.276 A 
ATOM     21  N   UNL     1       2.238  -8.702   4.348  1.00  0.00    -0.101 NA
ATOM     22  O   UNL     1       4.307  -7.872   4.400  1.00  0.00    -0.416 OA
ATOM     23  N   UNL     1       2.961  -9.414   5.290  1.00  0.00    -0.112 NA
ATOM     24  C   UNL     1       4.173  -8.902   5.282  1.00  0.00     0.214 A 
ATOM     25  C   UNL     1       5.377  -9.296   6.033  1.00  0.00     0.113 C 
ENDBRANCH  19  20
ENDBRANCH  11  19
ENDBRANCH   4   7
ENDBRANCH   2   3
ENDBRANCH   1   2
BRANCH   1  26
ATOM     26  C   UNL     1      -0.707   1.454   3.437  1.00  0.00     0.118 C 
BRANCH  26  27
ATOM     27  N   UNL     1      -2.129   1.795   3.428  1.00  0.00    -0.352 N 
ATOM     28  C   UNL     1      -2.834   2.730   4.142  1.00  0.00     0.251 C 
ATOM     29  H   UNL     1      -2.672   1.263   2.803  1.00  0.00     0.163 HD
ATOM     30  O   UNL     1      -4.066   2.668   4.153  1.00  0.00    -0.269 OA
BRANCH  28  31
ATOM     31  C   UNL     1      -2.141   3.790   4.901  1.00  0.00     0.039 A 
ATOM     32  C   UNL     1      -2.624   4.153   6.162  1.00  0.00     0.014 A 
ATOM     33  C   UNL     1      -1.032   4.447   4.364  1.00  0.00     0.014 A 
ATOM     34  C   UNL     1      -1.938   5.104   6.921  1.00  0.00     0.010 A 
ATOM     35  C   UNL     1      -0.306   5.338   5.150  1.00  0.00     0.010 A 
ATOM     36  C   UNL     1      -0.741   5.661   6.443  1.00  0.00    -0.014 A 
BRANCH  36  37
ATOM     37  C   UNL     1       0.103   6.540   7.295  1.00  0.00     0.031 A 
ATOM     38  C   UNL     1       0.367   7.963   6.891  1.00  0.00     0.074 A 
ATOM     39  C   UNL     1       0.707   6.017   8.380  1.00  0.00     0.049 A 
ATOM     40  N   UNL     1       1.175   8.839   7.431  1.00  0.00    -0.248 NA
ATOM     41  C   UNL     1      -0.355   8.458   5.710  1.00  0.00     0.031 C 
ATOM     42  C   UNL     1       0.549   4.638   8.851  1.00  0.00     0.029 A 
ATOM     43  N   UNL     1       1.589   6.570   9.274  1.00  0.00    -0.354 N 
ATOM     44  C   UNL     1       1.069   9.985   6.651  1.00  0.00     0.074 A 
ATOM     45  C   UNL     1       0.158   9.672   5.570  1.00  0.00     0.031 C 
ATOM     46  C   UNL     1       1.294   4.460   9.952  1.00  0.00     0.029 A 
ATOM     47  C   UNL     1       2.032   5.687  10.233  1.00  0.00     0.049 A 
ATOM     48  H   UNL     1       1.878   7.510   9.234  1.00  0.00     0.167 HD
ATOM     49  C   UNL     1       1.666  11.190   6.832  1.00  0.00     0.034 A 
ATOM     50  C   UNL     1       2.950   5.835  11.208  1.00  0.00     0.034 A 
ATOM     51  C   UNL     1       2.572  11.479   7.918  1.00  0.00     0.049 A 
ATOM     52  C   UNL     1       3.650   7.163  11.347  1.00  0.00     0.074 A 
ATOM     53  C   UNL     1       3.181  12.681   8.234  1.00  0.00     0.029 A 
ATOM     54  N   UNL     1       3.016  10.553   8.854  1.00  0.00    -0.354 N 
ATOM     55  N   UNL     1       3.494   8.257  10.637  1.00  0.00    -0.248 NA
ATOM     56  C   UNL     1       4.649   7.277  12.417  1.00  0.00     0.031 C 
ATOM     57  C   UNL     1       4.053  12.463   9.306  1.00  0.00     0.029 A 
ATOM     58  C   UNL     1       3.929  11.144   9.715  1.00  0.00     0.049 A 
ATOM     59  H   UNL     1       2.725   9.613   8.900  1.00  0.00     0.167 HD
ATOM     60  C   UNL     1       4.363   9.194  11.187  1.00  0.00     0.074 A 
ATOM     61  C   UNL     1       5.022   8.544  12.302  1.00  0.00     0.031 C 
ATOM     62  C   UNL     1       4.596  10.476  10.807  1.00  0.00     0.034 A 
BRANCH  49  63
ATOM     63  C   UNL     1       1.380  12.271   5.818  1.00  0.00     0.023 A 
ATOM     64  C   UNL     1       0.085  12.785   5.629  1.00  0.00     0.031 A 
ATOM     65  C   UNL     1       2.415  12.789   5.018  1.00  0.00     0.131 A 
ATOM     66  C   UNL     1      -0.155  13.729   4.619  1.00  0.00     0.055 A 
ATOM     67  C   UNL     1       2.184  13.789   4.071  1.00  0.00     0.041 A 
ATOM     68  F   UNL     1       3.669  12.325   5.137  1.00  0.00    -0.206 F 
ATOM     69  C   UNL     1       0.890  14.254   3.856  1.00  0.00     0.022 A 
BRANCH  66  70
ATOM     70  S   UNL     1      -1.873  14.155   4.224  1.00  0.00     0.124 S 
ATOM     71  O   UNL     1      -2.430  12.848   3.886  1.00  0.00    -0.237 OA
ATOM     72  O   UNL     1      -2.345  14.749   5.468  1.00  0.00    -0.237 OA
ATOM     73  O   UNL     1      -1.746  15.079   3.099  1.00  0.00    -0.744 OA
ENDBRANCH  66  70
ENDBRANCH  49  63
BRANCH  50  74
ATOM     74  C   UNL     1       3.293   4.694  12.104  1.00  0.00     0.023 A 
ATOM     75  C   UNL     1       3.052   4.763  13.485  1.00  0.00     0.031 A 
ATOM     76  C   UNL     1       3.906   3.532  11.600  1.00  0.00     0.131 A 
ATOM     77  C   UNL     1       3.461   3.711  14.320  1.00  0.00     0.055 A 
ATOM     78  C   UNL     1       4.256   2.463  12.427  1.00  0.00     0.041 A 
ATOM     79  F   UNL     1       4.160   3.412  10.287  1.00  0.00    -0.206 F 
ATOM     80  C   UNL     1       4.046   2.555  13.799  1.00  0.00     0.022 A 
BRANCH  77  81
ATOM     81  S   UNL     1       3.298   3.916  16.115  1.00  0.00     0.124 S 
ATOM     82  O   UNL     1       4.085   5.120  16.348  1.00  0.00    -0.237 OA
ATOM     83  O   UNL     1       1.854   4.051  16.274  1.00  0.00    -0.237 OA
ATOM     84  O   UNL     1       3.869   2.682  16.650  1.00  0.00    -0.744 OA
ENDBRANCH  77  81
ENDBRANCH  50  74
BRANCH  62  85
ATOM     85  C   UNL     1       5.596  11.260  11.620  1.00  0.00     0.023 A 
ATOM     86  C   UNL     1       6.963  10.934  11.618  1.00  0.00     0.031 A 
ATOM     87  C   UNL     1       5.177  12.350  12.404  1.00  0.00     0.131 A 
ATOM     88  C   UNL     1       7.856  11.660  12.421  1.00  0.00     0.055 A 
ATOM     89  C   UNL     1       6.079  13.107  13.153  1.00  0.00     0.041 A 
ATOM     90  F   UNL     1       3.882  12.702  12.447  1.00  0.00    -0.206 F 
ATOM     91  C   UNL     1       7.426  12.756  13.172  1.00  0.00     0.022 A 
BRANCH  88  92
ATOM     92  S   UNL     1       9.579  11.103  12.530  1.00  0.00     0.124 S 
ATOM     93  O   UNL     1       9.428   9.761  13.083  1.00  0.00    -0.237 OA
ATOM     94  O   UNL     1      10.021  11.175  11.142  1.00  0.00    -0.237 OA
ATOM     95  O   UNL     1      10.197  12.077  13.428  1.00  0.00    -0.744 OA
ENDBRANCH  88  92
ENDBRANCH  62  85
ENDBRANCH  36  37
ENDBRANCH  28  31
ENDBRANCH  26  27
ENDBRANCH   1  26
TORSDOF 18
