REMARK SMILES CS(=O)(=O)CCSCc1cc(F)cc(/C=C/C(=O)NCCCNC(=O)c2ccc(-c3c4nc(c(-c5cc(S(=O)(=O)[O-])ccc5F)c5ccc([nH]5)c(-c5cc(S(=O)(=O)[O-])ccc5F)c5nc(c(-c6cc(S(=O)(=O)[O-])ccc6F)c6ccc3[nH]6)C=C5)C=C4)cc2)c1
REMARK SMILES IDX 17 1 18 2 19 3 16 5 15 6 14 7 9 8 10 9 89 10 11 11 12 12
REMARK SMILES IDX 13 13 8 14 7 15 6 16 5 17 2 18 1 19 3 20 4 21 20 22 21 23
REMARK SMILES IDX 22 24 23 25 24 26 25 28 26 29 27 30 88 31 28 32 87 33 29 34
REMARK SMILES IDX 30 35 31 36 81 37 32 38 86 39 80 40 82 41 33 42 85 43 79 44
REMARK SMILES IDX 78 45 34 47 66 48 46 49 65 50 47 51 50 52 64 53 83 54 48 55
REMARK SMILES IDX 49 56 63 58 84 59 51 60 35 61 36 62 44 63 37 64 43 65 45 66
REMARK SMILES IDX 42 67 38 68 39 69 40 70 41 71 67 72 68 73 76 74 69 75 75 76
REMARK SMILES IDX 77 77 74 78 70 79 71 80 72 81 73 82 52 83 53 84 61 85 54 86
REMARK SMILES IDX 60 87 62 88 59 89 55 90 56 91 57 92 58 93
REMARK H PARENT 19 4 23 27 82 46 50 57
REMARK Flexibility Score: inf
ROOT
ATOM      1  C   UNL     1      -6.016   3.248  -1.129  1.00  0.00     0.244 C 
ATOM      2  O   UNL     1      -7.243   3.256  -1.221  1.00  0.00    -0.270 OA
ATOM      3  N   UNL     1      -5.365   4.430  -1.000  1.00  0.00    -0.352 N 
ATOM      4  H   UNL     1      -5.951   5.218  -1.065  1.00  0.00     0.163 HD
ENDROOT
BRANCH   1   5
ATOM      5  C   UNL     1      -5.322   1.939  -1.077  1.00  0.00     0.072 C 
ATOM      6  C   UNL     1      -4.117   1.640  -1.583  1.00  0.00     0.014 C 
BRANCH   6   7
ATOM      7  C   UNL     1      -3.495   0.303  -1.565  1.00  0.00    -0.022 A 
ATOM      8  C   UNL     1      -1.427  -1.028  -1.783  1.00  0.00    -0.035 A 
ATOM      9  C   UNL     1      -2.199  -2.190  -1.775  1.00  0.00     0.043 A 
ATOM     10  C   UNL     1      -2.099   0.213  -1.705  1.00  0.00     0.013 A 
ATOM     11  C   UNL     1      -3.576  -2.109  -1.594  1.00  0.00     0.124 A 
ATOM     12  F   UNL     1      -4.293  -3.239  -1.529  1.00  0.00    -0.207 F 
ATOM     13  C   UNL     1      -4.227  -0.884  -1.489  1.00  0.00     0.047 A 
BRANCH   8  14
ATOM     14  C   UNL     1       0.075  -0.997  -1.923  1.00  0.00     0.105 C 
BRANCH  14  15
ATOM     15  S   UNL     1       1.047  -2.500  -1.597  1.00  0.00    -0.156 SA
BRANCH  15  16
ATOM     16  C   UNL     1       0.516  -2.995   0.082  1.00  0.00     0.086 C 
BRANCH  16  17
ATOM     17  C   UNL     1       1.342  -2.444   1.230  1.00  0.00     0.147 C 
BRANCH  17  18
ATOM     18  S   UNL     1       0.798  -0.864   1.846  1.00  0.00     0.148 S 
ATOM     19  C   UNL     1       1.893   0.309   1.078  1.00  0.00     0.158 C 
ATOM     20  O   UNL     1       1.077  -0.835   3.272  1.00  0.00    -0.229 OA
ATOM     21  O   UNL     1      -0.543  -0.608   1.366  1.00  0.00    -0.229 OA
ENDBRANCH  17  18
ENDBRANCH  16  17
ENDBRANCH  15  16
ENDBRANCH  14  15
ENDBRANCH   8  14
ENDBRANCH   6   7
ENDBRANCH   1   5
BRANCH   3  22
ATOM     22  C   UNL     1      -3.966   4.753  -0.784  1.00  0.00     0.118 C 
BRANCH  22  23
ATOM     23  C   UNL     1      -3.326   5.317  -2.051  1.00  0.00     0.042 C 
BRANCH  23  24
ATOM     24  C   UNL     1      -3.804   6.728  -2.396  1.00  0.00     0.118 C 
BRANCH  24  25
ATOM     25  N   UNL     1      -3.381   7.708  -1.402  1.00  0.00    -0.352 N 
ATOM     26  C   UNL     1      -2.588   8.820  -1.546  1.00  0.00     0.251 C 
ATOM     27  H   UNL     1      -3.714   7.548  -0.489  1.00  0.00     0.163 HD
ATOM     28  O   UNL     1      -2.145   9.381  -0.548  1.00  0.00    -0.269 OA
BRANCH  26  29
ATOM     29  C   UNL     1      -2.263   9.327  -2.896  1.00  0.00     0.039 A 
ATOM     30  C   UNL     1      -0.956   9.731  -3.177  1.00  0.00     0.014 A 
ATOM     31  C   UNL     1      -3.253   9.415  -3.879  1.00  0.00     0.014 A 
ATOM     32  C   UNL     1      -0.624  10.151  -4.468  1.00  0.00     0.010 A 
ATOM     33  C   UNL     1      -2.906   9.764  -5.180  1.00  0.00     0.010 A 
ATOM     34  C   UNL     1      -1.587  10.129  -5.490  1.00  0.00    -0.014 A 
BRANCH  34  35
ATOM     35  C   UNL     1      -1.243  10.466  -6.895  1.00  0.00     0.031 A 
ATOM     36  C   UNL     1      -1.897  11.642  -7.568  1.00  0.00     0.074 A 
ATOM     37  C   UNL     1      -0.406   9.667  -7.585  1.00  0.00     0.049 A 
ATOM     38  N   UNL     1      -1.843  12.009  -8.821  1.00  0.00    -0.248 NA
ATOM     39  C   UNL     1      -2.745  12.500  -6.725  1.00  0.00     0.031 C 
ATOM     40  C   UNL     1       0.276   8.488  -7.045  1.00  0.00     0.029 A 
ATOM     41  N   UNL     1       0.008   9.716  -8.893  1.00  0.00    -0.354 N 
ATOM     42  C   UNL     1      -2.657  13.132  -8.922  1.00  0.00     0.074 A 
ATOM     43  C   UNL     1      -3.232  13.355  -7.613  1.00  0.00     0.031 C 
ATOM     44  C   UNL     1       1.042   7.944  -8.003  1.00  0.00     0.029 A 
ATOM     45  C   UNL     1       0.864   8.697  -9.241  1.00  0.00     0.049 A 
ATOM     46  H   UNL     1      -0.280  10.416  -9.522  1.00  0.00     0.167 HD
ATOM     47  C   UNL     1      -2.887  13.914 -10.004  1.00  0.00     0.034 A 
ATOM     48  C   UNL     1       1.426   8.388 -10.426  1.00  0.00     0.034 A 
ATOM     49  C   UNL     1      -2.292  13.690 -11.298  1.00  0.00     0.049 A 
ATOM     50  C   UNL     1       1.123   9.249 -11.623  1.00  0.00     0.074 A 
ATOM     51  C   UNL     1      -2.431  14.446 -12.448  1.00  0.00     0.029 A 
ATOM     52  N   UNL     1      -1.447  12.636 -11.614  1.00  0.00    -0.354 N 
ATOM     53  N   UNL     1       0.346  10.303 -11.703  1.00  0.00    -0.248 NA
ATOM     54  C   UNL     1       1.770   8.878 -12.888  1.00  0.00     0.031 C 
ATOM     55  C   UNL     1      -1.723  13.816 -13.475  1.00  0.00     0.029 A 
ATOM     56  C   UNL     1      -1.078  12.708 -12.948  1.00  0.00     0.049 A 
ATOM     57  H   UNL     1      -1.152  11.939 -10.984  1.00  0.00     0.167 HD
ATOM     58  C   UNL     1       0.430  10.737 -13.022  1.00  0.00     0.074 A 
ATOM     59  C   UNL     1       1.337   9.833 -13.700  1.00  0.00     0.031 C 
ATOM     60  C   UNL     1      -0.184  11.791 -13.616  1.00  0.00     0.034 A 
BRANCH  47  61
ATOM     61  C   UNL     1      -3.832  15.076  -9.842  1.00  0.00     0.023 A 
ATOM     62  C   UNL     1      -3.508  16.180  -9.036  1.00  0.00     0.031 A 
ATOM     63  C   UNL     1      -5.060  15.094 -10.527  1.00  0.00     0.131 A 
ATOM     64  C   UNL     1      -4.418  17.239  -8.903  1.00  0.00     0.055 A 
ATOM     65  C   UNL     1      -5.933  16.180 -10.441  1.00  0.00     0.041 A 
ATOM     66  F   UNL     1      -5.428  14.057 -11.296  1.00  0.00    -0.206 F 
ATOM     67  C   UNL     1      -5.617  17.258  -9.620  1.00  0.00     0.022 A 
BRANCH  64  68
ATOM     68  S   UNL     1      -4.048  18.561  -7.718  1.00  0.00     0.124 S 
ATOM     69  O   UNL     1      -4.075  17.835  -6.451  1.00  0.00    -0.237 OA
ATOM     70  O   UNL     1      -2.738  19.025  -8.160  1.00  0.00    -0.237 OA
ATOM     71  O   UNL     1      -5.142  19.510  -7.910  1.00  0.00    -0.744 OA
ENDBRANCH  64  68
ENDBRANCH  47  61
BRANCH  48  72
ATOM     72  C   UNL     1       2.324   7.205 -10.538  1.00  0.00     0.023 A 
ATOM     73  C   UNL     1       3.699   7.365 -10.764  1.00  0.00     0.031 A 
ATOM     74  C   UNL     1       1.820   5.898 -10.409  1.00  0.00     0.131 A 
ATOM     75  C   UNL     1       4.524   6.234 -10.875  1.00  0.00     0.055 A 
ATOM     76  C   UNL     1       2.650   4.779 -10.482  1.00  0.00     0.041 A 
ATOM     77  F   UNL     1       0.513   5.694 -10.180  1.00  0.00    -0.206 F 
ATOM     78  C   UNL     1       4.011   4.944 -10.722  1.00  0.00     0.022 A 
BRANCH  75  79
ATOM     79  S   UNL     1       6.283   6.473 -11.246  1.00  0.00     0.124 S 
ATOM     80  O   UNL     1       6.228   7.062 -12.579  1.00  0.00    -0.237 OA
ATOM     81  O   UNL     1       6.705   7.360 -10.167  1.00  0.00    -0.237 OA
ATOM     82  O   UNL     1       6.830   5.119 -11.182  1.00  0.00    -0.744 OA
ENDBRANCH  75  79
ENDBRANCH  48  72
BRANCH  60  83
ATOM     83  C   UNL     1       0.131  12.050 -15.066  1.00  0.00     0.023 A 
ATOM     84  C   UNL     1      -0.311  11.187 -16.082  1.00  0.00     0.031 A 
ATOM     85  C   UNL     1       0.856  13.197 -15.436  1.00  0.00     0.131 A 
ATOM     86  C   UNL     1       0.007  11.465 -17.419  1.00  0.00     0.055 A 
ATOM     87  C   UNL     1       1.122  13.497 -16.772  1.00  0.00     0.041 A 
ATOM     88  F   UNL     1       1.302  14.054 -14.504  1.00  0.00    -0.206 F 
ATOM     89  C   UNL     1       0.704  12.624 -17.772  1.00  0.00     0.022 A 
BRANCH  86  90
ATOM     90  S   UNL     1      -0.456  10.261 -18.693  1.00  0.00     0.124 S 
ATOM     91  O   UNL     1       0.312   9.087 -18.292  1.00  0.00    -0.237 OA
ATOM     92  O   UNL     1      -1.903  10.164 -18.524  1.00  0.00    -0.237 OA
ATOM     93  O   UNL     1      -0.020  10.892 -19.937  1.00  0.00    -0.744 OA
ENDBRANCH  86  90
ENDBRANCH  60  83
ENDBRANCH  34  35
ENDBRANCH  26  29
ENDBRANCH  24  25
ENDBRANCH  23  24
ENDBRANCH  22  23
ENDBRANCH   3  22
TORSDOF 19
