REMARK SMILES CC(C)C[C@H](NC(=O)CNC(=O)[C@@H](NC(=O)OCc1ccccc1)C(C)C)C(=O)N[C@@H](C)C(=O)NCCCNC(=O)c1ccc(-c2c3nc(c(-c4cc(S(=O)(=O)[O-])ccc4F)c4ccc([nH]4)c(-c4cc(S(=O)(=O)[O-])ccc4F)c4nc(c(-c5cc(S(=O)(=O)[O-])ccc5F)c5ccc2[nH]5)C=C4)C=C3)cc1
REMARK SMILES IDX 31 1 32 2 30 3 28 4 29 5 5 7 4 8 2 9 1 10 3 11 6 12 7 13
REMARK SMILES IDX 8 15 9 16 10 17 11 18 12 20 13 21 14 22 15 23 16 25 17 26
REMARK SMILES IDX 18 27 19 28 20 29 24 30 21 31 23 32 22 33 25 34 26 35 27 36
REMARK SMILES IDX 33 37 34 38 35 39 36 41 37 42 38 43 39 44 40 45 41 47 42 48
REMARK SMILES IDX 43 49 104 50 44 51 103 52 45 53 46 54 47 55 97 56 48 57
REMARK SMILES IDX 102 58 96 59 98 60 49 61 101 62 95 63 94 64 50 66 82 67
REMARK SMILES IDX 62 68 81 69 63 70 66 71 80 72 99 73 64 74 65 75 79 77 100 78
REMARK SMILES IDX 67 79 51 80 52 81 60 82 53 83 59 84 61 85 58 86 54 87 55 88
REMARK SMILES IDX 56 89 57 90 83 91 84 92 92 93 85 94 91 95 93 96 90 97 86 98
REMARK SMILES IDX 87 99 88 100 89 101 68 102 69 103 77 104 70 105 76 106
REMARK SMILES IDX 78 107 75 108 71 109 72 110 73 111 74 112
REMARK H PARENT 30 6 6 14 10 19 14 24 35 40 39 46 98 65 66 76
REMARK Flexibility Score: inf
ROOT
ATOM      1  C   UNL     1      -3.119  -3.282  -2.069  1.00  0.00     0.168 C 
ATOM      2  C   UNL     1      -3.379  -4.389  -1.058  1.00  0.00     0.041 C 
ENDROOT
BRANCH   1   3
ATOM      3  N   UNL     1      -3.595  -1.983  -1.599  1.00  0.00    -0.343 N 
ATOM      4  C   UNL     1      -2.966  -0.775  -1.620  1.00  0.00     0.243 C 
ATOM      5  O   UNL     1      -3.671   0.235  -1.554  1.00  0.00    -0.273 OA
ATOM      6  H   UNL     1      -4.500  -1.981  -1.211  1.00  0.00     0.164 HD
BRANCH   4   7
ATOM      7  C   UNL     1      -1.446  -0.664  -1.838  1.00  0.00     0.171 C 
BRANCH   7   8
ATOM      8  C   UNL     1      -1.041  -0.823  -3.311  1.00  0.00     0.038 C 
BRANCH   8   9
ATOM      9  C   UNL     1      -1.812   0.058  -4.328  1.00  0.00    -0.015 C 
ATOM     10  C   UNL     1      -1.807   1.558  -4.028  1.00  0.00     0.007 C 
ATOM     11  C   UNL     1      -1.228  -0.157  -5.728  1.00  0.00     0.007 C 
ENDBRANCH   8   9
ENDBRANCH   7   8
BRANCH   7  12
ATOM     12  N   UNL     1      -0.739  -1.558  -0.911  1.00  0.00    -0.343 N 
ATOM     13  C   UNL     1       0.345  -1.367  -0.116  1.00  0.00     0.240 C 
ATOM     14  H   UNL     1      -1.122  -2.463  -0.856  1.00  0.00     0.164 HD
ATOM     15  O   UNL     1       0.539  -2.216   0.763  1.00  0.00    -0.273 OA
BRANCH  13  16
ATOM     16  C   UNL     1       1.227  -0.113  -0.166  1.00  0.00     0.216 C 
BRANCH  16  17
ATOM     17  N   UNL     1       1.442   0.466  -1.471  1.00  0.00    -0.345 N 
ATOM     18  C   UNL     1       1.124   1.663  -2.018  1.00  0.00     0.243 C 
ATOM     19  H   UNL     1       1.917  -0.133  -2.091  1.00  0.00     0.164 HD
ATOM     20  O   UNL     1       1.564   1.844  -3.162  1.00  0.00    -0.273 OA
BRANCH  18  21
ATOM     21  C   UNL     1       0.391   2.823  -1.281  1.00  0.00     0.177 C 
BRANCH  21  22
ATOM     22  N   UNL     1      -0.807   2.395  -0.549  1.00  0.00    -0.309 N 
ATOM     23  C   UNL     1      -1.045   2.084   0.748  1.00  0.00     0.408 C 
ATOM     24  H   UNL     1      -1.605   2.319  -1.120  1.00  0.00     0.167 HD
ATOM     25  O   UNL     1      -2.001   1.384   1.056  1.00  0.00    -0.225 OA
BRANCH  23  26
ATOM     26  O   UNL     1      -0.204   2.678   1.617  1.00  0.00    -0.445 OA
BRANCH  26  27
ATOM     27  C   UNL     1      -0.654   2.667   2.978  1.00  0.00     0.270 C 
BRANCH  27  28
ATOM     28  C   UNL     1      -1.726   3.696   3.296  1.00  0.00    -0.011 A 
ATOM     29  C   UNL     1      -2.498   4.339   2.314  1.00  0.00     0.007 A 
ATOM     30  C   UNL     1      -2.012   3.973   4.641  1.00  0.00     0.007 A 
ATOM     31  C   UNL     1      -3.521   5.223   2.659  1.00  0.00     0.000 A 
ATOM     32  C   UNL     1      -3.033   4.863   4.987  1.00  0.00     0.000 A 
ATOM     33  C   UNL     1      -3.789   5.485   3.997  1.00  0.00     0.000 A 
ENDBRANCH  27  28
ENDBRANCH  26  27
ENDBRANCH  23  26
ENDBRANCH  21  22
BRANCH  21  34
ATOM     34  C   UNL     1       1.371   3.767  -0.552  1.00  0.00     0.015 C 
ATOM     35  C   UNL     1       2.561   4.153  -1.443  1.00  0.00     0.010 C 
ATOM     36  C   UNL     1       0.671   5.066  -0.132  1.00  0.00     0.010 C 
ENDBRANCH  21  34
ENDBRANCH  18  21
ENDBRANCH  16  17
ENDBRANCH  13  16
ENDBRANCH   7  12
ENDBRANCH   4   7
ENDBRANCH   1   3
BRANCH   1  37
ATOM     37  C   UNL     1      -3.659  -3.597  -3.472  1.00  0.00     0.242 C 
ATOM     38  O   UNL     1      -2.882  -3.815  -4.406  1.00  0.00    -0.273 OA
ATOM     39  N   UNL     1      -4.990  -3.693  -3.725  1.00  0.00    -0.354 N 
ATOM     40  H   UNL     1      -5.213  -3.880  -4.665  1.00  0.00     0.163 HD
BRANCH  39  41
ATOM     41  C   UNL     1      -6.139  -3.567  -2.849  1.00  0.00     0.117 C 
BRANCH  41  42
ATOM     42  C   UNL     1      -7.068  -2.442  -3.279  1.00  0.00     0.042 C 
BRANCH  42  43
ATOM     43  C   UNL     1      -7.649  -2.624  -4.677  1.00  0.00     0.118 C 
BRANCH  43  44
ATOM     44  N   UNL     1      -8.361  -3.887  -4.823  1.00  0.00    -0.352 N 
ATOM     45  C   UNL     1      -9.696  -4.132  -5.031  1.00  0.00     0.251 C 
ATOM     46  H   UNL     1      -7.796  -4.691  -4.764  1.00  0.00     0.163 HD
ATOM     47  O   UNL     1     -10.127  -5.272  -4.883  1.00  0.00    -0.269 OA
BRANCH  45  48
ATOM     48  C   UNL     1     -10.604  -3.029  -5.409  1.00  0.00     0.039 A 
ATOM     49  C   UNL     1     -11.873  -2.965  -4.829  1.00  0.00     0.014 A 
ATOM     50  C   UNL     1     -10.208  -2.063  -6.338  1.00  0.00     0.014 A 
ATOM     51  C   UNL     1     -12.712  -1.888  -5.123  1.00  0.00     0.010 A 
ATOM     52  C   UNL     1     -11.007  -0.946  -6.559  1.00  0.00     0.010 A 
ATOM     53  C   UNL     1     -12.267  -0.846  -5.953  1.00  0.00    -0.014 A 
BRANCH  53  54
ATOM     54  C   UNL     1     -13.101   0.361  -6.191  1.00  0.00     0.031 A 
ATOM     55  C   UNL     1     -13.567   0.696  -7.583  1.00  0.00     0.074 A 
ATOM     56  C   UNL     1     -13.380   1.187  -5.162  1.00  0.00     0.049 A 
ATOM     57  N   UNL     1     -14.236   1.740  -8.001  1.00  0.00    -0.248 NA
ATOM     58  C   UNL     1     -13.208  -0.253  -8.648  1.00  0.00     0.031 C 
ATOM     59  C   UNL     1     -12.947   0.986  -3.777  1.00  0.00     0.029 A 
ATOM     60  N   UNL     1     -14.087   2.362  -5.118  1.00  0.00    -0.354 N 
ATOM     61  C   UNL     1     -14.366   1.581  -9.377  1.00  0.00     0.074 A 
ATOM     62  C   UNL     1     -13.655   0.370  -9.728  1.00  0.00     0.031 C 
ATOM     63  C   UNL     1     -13.424   1.984  -3.017  1.00  0.00     0.029 A 
ATOM     64  C   UNL     1     -14.149   2.925  -3.864  1.00  0.00     0.049 A 
ATOM     65  H   UNL     1     -14.511   2.765  -5.910  1.00  0.00     0.167 HD
ATOM     66  C   UNL     1     -15.036   2.362 -10.260  1.00  0.00     0.034 A 
ATOM     67  C   UNL     1     -14.711   4.077  -3.446  1.00  0.00     0.034 A 
ATOM     68  C   UNL     1     -15.751   3.558  -9.888  1.00  0.00     0.049 A 
ATOM     69  C   UNL     1     -15.421   4.944  -4.456  1.00  0.00     0.074 A 
ATOM     70  C   UNL     1     -16.515   4.388 -10.690  1.00  0.00     0.029 A 
ATOM     71  N   UNL     1     -15.783   4.103  -8.610  1.00  0.00    -0.354 N 
ATOM     72  N   UNL     1     -15.585   4.747  -5.744  1.00  0.00    -0.248 NA
ATOM     73  C   UNL     1     -16.029   6.182  -3.954  1.00  0.00     0.031 C 
ATOM     74  C   UNL     1     -16.942   5.473  -9.918  1.00  0.00     0.029 A 
ATOM     75  C   UNL     1     -16.521   5.278  -8.612  1.00  0.00     0.049 A 
ATOM     76  H   UNL     1     -15.347   3.713  -7.819  1.00  0.00     0.167 HD
ATOM     77  C   UNL     1     -16.346   5.822  -6.197  1.00  0.00     0.074 A 
ATOM     78  C   UNL     1     -16.622   6.651  -5.042  1.00  0.00     0.031 C 
ATOM     79  C   UNL     1     -16.780   6.099  -7.453  1.00  0.00     0.034 A 
BRANCH  66  80
ATOM     80  C   UNL     1     -15.003   1.961 -11.716  1.00  0.00     0.023 A 
ATOM     81  C   UNL     1     -15.561   0.751 -12.165  1.00  0.00     0.031 A 
ATOM     82  C   UNL     1     -14.401   2.801 -12.670  1.00  0.00     0.131 A 
ATOM     83  C   UNL     1     -15.450   0.386 -13.515  1.00  0.00     0.055 A 
ATOM     84  C   UNL     1     -14.365   2.469 -14.026  1.00  0.00     0.041 A 
ATOM     85  F   UNL     1     -13.831   3.958 -12.300  1.00  0.00    -0.206 F 
ATOM     86  C   UNL     1     -14.880   1.249 -14.454  1.00  0.00     0.022 A 
BRANCH  83  87
ATOM     87  S   UNL     1     -15.942  -1.290 -14.003  1.00  0.00     0.124 S 
ATOM     88  O   UNL     1     -15.065  -2.110 -13.170  1.00  0.00    -0.237 OA
ATOM     89  O   UNL     1     -17.358  -1.316 -13.658  1.00  0.00    -0.237 OA
ATOM     90  O   UNL     1     -15.647  -1.331 -15.434  1.00  0.00    -0.744 OA
ENDBRANCH  83  87
ENDBRANCH  66  80
BRANCH  67  91
ATOM     91  C   UNL     1     -14.623   4.494  -2.016  1.00  0.00     0.023 A 
ATOM     92  C   UNL     1     -15.780   4.646  -1.236  1.00  0.00     0.031 A 
ATOM     93  C   UNL     1     -13.385   4.803  -1.423  1.00  0.00     0.131 A 
ATOM     94  C   UNL     1     -15.684   5.152   0.070  1.00  0.00     0.055 A 
ATOM     95  C   UNL     1     -13.289   5.245  -0.102  1.00  0.00     0.041 A 
ATOM     96  F   UNL     1     -12.246   4.674  -2.121  1.00  0.00    -0.206 F 
ATOM     97  C   UNL     1     -14.445   5.438   0.647  1.00  0.00     0.022 A 
BRANCH  94  98
ATOM     98  S   UNL     1     -17.214   5.534   0.966  1.00  0.00     0.124 S 
ATOM     99  O   UNL     1     -17.865   6.468   0.055  1.00  0.00    -0.237 OA
ATOM    100  O   UNL     1     -17.831   4.218   1.085  1.00  0.00    -0.237 OA
ATOM    101  O   UNL     1     -16.737   6.114   2.220  1.00  0.00    -0.744 OA
ENDBRANCH  94  98
ENDBRANCH  67  91
BRANCH  79 102
ATOM    102  C   UNL     1     -17.639   7.329  -7.627  1.00  0.00     0.023 A 
ATOM    103  C   UNL     1     -17.135   8.623  -7.411  1.00  0.00     0.031 A 
ATOM    104  C   UNL     1     -18.989   7.199  -8.000  1.00  0.00     0.131 A 
ATOM    105  C   UNL     1     -17.989   9.731  -7.511  1.00  0.00     0.055 A 
ATOM    106  C   UNL     1     -19.817   8.311  -8.165  1.00  0.00     0.041 A 
ATOM    107  F   UNL     1     -19.526   5.987  -8.215  1.00  0.00    -0.206 F 
ATOM    108  C   UNL     1     -19.321   9.585  -7.905  1.00  0.00     0.022 A 
BRANCH 105 109
ATOM    109  S   UNL     1     -17.361  11.360  -7.019  1.00  0.00     0.124 S 
ATOM    110  O   UNL     1     -16.966  11.128  -5.634  1.00  0.00    -0.237 OA
ATOM    111  O   UNL     1     -16.271  11.574  -7.966  1.00  0.00    -0.237 OA
ATOM    112  O   UNL     1     -18.515  12.240  -7.196  1.00  0.00    -0.744 OA
ENDBRANCH 105 109
ENDBRANCH  79 102
ENDBRANCH  53  54
ENDBRANCH  45  48
ENDBRANCH  43  44
ENDBRANCH  42  43
ENDBRANCH  41  42
ENDBRANCH  39  41
ENDBRANCH   1  37
TORSDOF 26
