REMARK SMILES Cc1nn(C)c(=O)c(C(=O)N[C@H](C)CC(=O)NCCCNC(=O)c2ccc(-c3c4nc(c(-c5cc(S(=O)(=O)[O-])ccc5F)c5ccc([nH]5)c(-c5cc(S(=O)(=O)[O-])ccc5F)c5nc(c(-c6cc(S(=O)(=O)[O-])ccc6F)c6ccc3[nH]6)C=C5)C=C4)cc2)c1C
REMARK SMILES IDX 19 1 18 2 17 3 15 4 16 5 14 7 12 8 13 9 11 10 9 11 10 12
REMARK SMILES IDX 8 14 1 15 2 16 3 17 87 18 4 19 88 20 5 21 6 22 7 23 20 24
REMARK SMILES IDX 21 25 22 26 23 28 24 29 25 30 86 31 26 32 85 33 27 34 28 35
REMARK SMILES IDX 29 36 79 37 30 38 84 39 78 40 80 41 31 42 83 43 77 44 76 45
REMARK SMILES IDX 32 47 64 48 44 49 63 50 45 51 48 52 62 53 81 54 46 55 47 56
REMARK SMILES IDX 61 58 82 59 49 60 33 61 34 62 42 63 35 64 41 65 43 66 40 67
REMARK SMILES IDX 36 68 37 69 38 70 39 71 65 72 66 73 74 74 67 75 73 76 75 77
REMARK SMILES IDX 72 78 68 79 69 80 70 81 71 82 50 83 51 84 59 85 52 86 58 87
REMARK SMILES IDX 60 88 57 89 53 90 54 91 55 92 56 93
REMARK H PARENT 17 6 11 13 21 27 80 46 48 57
REMARK Flexibility Score: inf
ROOT
ATOM      1  C   UNL     1       0.276   1.901   6.536  1.00  0.00     0.042 C 
ENDROOT
BRANCH   1   2
ATOM      2  C   UNL     1       0.611   3.370   6.280  1.00  0.00     0.117 C 
BRANCH   2   3
ATOM      3  N   UNL     1       1.538   3.520   5.170  1.00  0.00    -0.356 N 
ATOM      4  C   UNL     1       1.358   4.055   3.933  1.00  0.00     0.222 C 
ATOM      5  O   UNL     1       2.299   4.008   3.138  1.00  0.00    -0.275 OA
ATOM      6  H   UNL     1       2.445   3.178   5.342  1.00  0.00     0.163 HD
BRANCH   4   7
ATOM      7  C   UNL     1       0.033   4.667   3.527  1.00  0.00     0.124 C 
BRANCH   7   8
ATOM      8  C   UNL     1      -0.891   3.618   2.904  1.00  0.00     0.088 C 
ATOM      9  C   UNL     1      -1.992   3.157   3.868  1.00  0.00     0.031 C 
BRANCH   8  10
ATOM     10  N   UNL     1      -1.534   4.115   1.682  1.00  0.00    -0.349 N 
ATOM     11  C   UNL     1      -1.626   3.413   0.505  1.00  0.00     0.257 C 
ATOM     12  O   UNL     1      -2.728   3.040   0.113  1.00  0.00    -0.269 OA
ATOM     13  H   UNL     1      -1.927   5.018   1.708  1.00  0.00     0.164 HD
BRANCH  11  14
ATOM     14  C   UNL     1      -0.430   3.347  -0.383  1.00  0.00     0.111 A 
ATOM     15  C   UNL     1       3.119   2.211  -0.828  1.00  0.00     0.069 C 
ATOM     16  C   UNL     1       1.718   2.643  -1.202  1.00  0.00     0.062 A 
ATOM     17  N   UNL     1       1.537   3.061  -2.412  1.00  0.00    -0.175 NA
ATOM     18  C   UNL     1       0.643   2.563  -0.170  1.00  0.00    -0.010 A 
ATOM     19  N   UNL     1       0.321   3.617  -2.698  1.00  0.00    -0.232 N 
ATOM     20  C   UNL     1       0.825   1.522   0.886  1.00  0.00     0.047 C 
ATOM     21  C   UNL     1       0.083   3.935  -4.093  1.00  0.00     0.178 C 
ATOM     22  C   UNL     1      -0.572   4.027  -1.713  1.00  0.00     0.279 A 
ATOM     23  O   UNL     1      -1.467   4.845  -1.919  1.00  0.00    -0.267 OA
ENDBRANCH  11  14
ENDBRANCH   8  10
ENDBRANCH   7   8
ENDBRANCH   4   7
ENDBRANCH   2   3
ENDBRANCH   1   2
BRANCH   1  24
ATOM     24  C   UNL     1       1.415   1.111   7.171  1.00  0.00     0.118 C 
BRANCH  24  25
ATOM     25  N   UNL     1       1.636   1.488   8.557  1.00  0.00    -0.352 N 
ATOM     26  C   UNL     1       1.171   0.928   9.722  1.00  0.00     0.251 C 
ATOM     27  H   UNL     1       2.216   2.274   8.682  1.00  0.00     0.163 HD
ATOM     28  O   UNL     1       1.256   1.579  10.760  1.00  0.00    -0.269 OA
BRANCH  26  29
ATOM     29  C   UNL     1       0.560  -0.423   9.745  1.00  0.00     0.039 A 
ATOM     30  C   UNL     1      -0.517  -0.660  10.606  1.00  0.00     0.014 A 
ATOM     31  C   UNL     1       1.086  -1.480   8.998  1.00  0.00     0.014 A 
ATOM     32  C   UNL     1      -1.087  -1.935  10.684  1.00  0.00     0.010 A 
ATOM     33  C   UNL     1       0.467  -2.730   9.014  1.00  0.00     0.010 A 
ATOM     34  C   UNL     1      -0.614  -2.978   9.872  1.00  0.00    -0.014 A 
BRANCH  34  35
ATOM     35  C   UNL     1      -1.196  -4.344   9.953  1.00  0.00     0.031 A 
ATOM     36  C   UNL     1      -0.349  -5.493  10.440  1.00  0.00     0.074 A 
ATOM     37  C   UNL     1      -2.469  -4.561   9.569  1.00  0.00     0.049 A 
ATOM     38  N   UNL     1      -0.644  -6.765  10.512  1.00  0.00    -0.248 NA
ATOM     39  C   UNL     1       1.017  -5.169  10.881  1.00  0.00     0.031 C 
ATOM     40  C   UNL     1      -3.386  -3.536   9.065  1.00  0.00     0.029 A 
ATOM     41  N   UNL     1      -3.215  -5.713   9.544  1.00  0.00    -0.354 N 
ATOM     42  C   UNL     1       0.500  -7.393  10.994  1.00  0.00     0.074 A 
ATOM     43  C   UNL     1       1.511  -6.370  11.142  1.00  0.00     0.031 C 
ATOM     44  C   UNL     1      -4.581  -4.098   8.819  1.00  0.00     0.029 A 
ATOM     45  C   UNL     1      -4.505  -5.528   9.103  1.00  0.00     0.049 A 
ATOM     46  H   UNL     1      -2.860  -6.590   9.817  1.00  0.00     0.167 HD
ATOM     47  C   UNL     1       0.683  -8.698  11.310  1.00  0.00     0.034 A 
ATOM     48  C   UNL     1      -5.511  -6.410   8.941  1.00  0.00     0.034 A 
ATOM     49  C   UNL     1      -0.339  -9.706  11.194  1.00  0.00     0.049 A 
ATOM     50  C   UNL     1      -5.275  -7.860   9.271  1.00  0.00     0.074 A 
ATOM     51  C   UNL     1      -0.268 -11.047  11.528  1.00  0.00     0.029 A 
ATOM     52  N   UNL     1      -1.622  -9.482  10.713  1.00  0.00    -0.354 N 
ATOM     53  N   UNL     1      -4.184  -8.435   9.720  1.00  0.00    -0.248 NA
ATOM     54  C   UNL     1      -6.403  -8.780   9.069  1.00  0.00     0.031 C 
ATOM     55  C   UNL     1      -1.490 -11.645  11.202  1.00  0.00     0.029 A 
ATOM     56  C   UNL     1      -2.343 -10.665  10.720  1.00  0.00     0.049 A 
ATOM     57  H   UNL     1      -1.968  -8.612  10.411  1.00  0.00     0.167 HD
ATOM     58  C   UNL     1      -4.500  -9.782   9.870  1.00  0.00     0.074 A 
ATOM     59  C   UNL     1      -5.885  -9.933   9.472  1.00  0.00     0.031 C 
ATOM     60  C   UNL     1      -3.716 -10.800  10.302  1.00  0.00     0.034 A 
BRANCH  47  61
ATOM     61  C   UNL     1       2.045  -9.110  11.807  1.00  0.00     0.023 A 
ATOM     62  C   UNL     1       2.533  -8.674  13.050  1.00  0.00     0.031 A 
ATOM     63  C   UNL     1       2.860  -9.954  11.034  1.00  0.00     0.131 A 
ATOM     64  C   UNL     1       3.823  -9.040  13.461  1.00  0.00     0.055 A 
ATOM     65  C   UNL     1       4.117 -10.370  11.478  1.00  0.00     0.041 A 
ATOM     66  F   UNL     1       2.450 -10.386   9.831  1.00  0.00    -0.206 F 
ATOM     67  C   UNL     1       4.609  -9.905  12.695  1.00  0.00     0.022 A 
BRANCH  64  68
ATOM     68  S   UNL     1       4.497  -8.299  14.972  1.00  0.00     0.124 S 
ATOM     69  O   UNL     1       4.596  -6.893  14.588  1.00  0.00    -0.237 OA
ATOM     70  O   UNL     1       3.478  -8.619  15.965  1.00  0.00    -0.237 OA
ATOM     71  O   UNL     1       5.776  -8.983  15.148  1.00  0.00    -0.744 OA
ENDBRANCH  64  68
ENDBRANCH  47  61
BRANCH  48  72
ATOM     72  C   UNL     1      -6.835  -5.949   8.438  1.00  0.00     0.023 A 
ATOM     73  C   UNL     1      -7.957  -5.932   9.280  1.00  0.00     0.031 A 
ATOM     74  C   UNL     1      -6.995  -5.521   7.109  1.00  0.00     0.131 A 
ATOM     75  C   UNL     1      -9.200  -5.516   8.778  1.00  0.00     0.055 A 
ATOM     76  C   UNL     1      -8.225  -5.074   6.624  1.00  0.00     0.041 A 
ATOM     77  F   UNL     1      -5.948  -5.510   6.269  1.00  0.00    -0.206 F 
ATOM     78  C   UNL     1      -9.339  -5.076   7.459  1.00  0.00     0.022 A 
BRANCH  75  79
ATOM     79  S   UNL     1     -10.647  -5.581   9.870  1.00  0.00     0.124 S 
ATOM     80  O   UNL     1     -10.768  -7.014  10.116  1.00  0.00    -0.237 OA
ATOM     81  O   UNL     1     -10.211  -4.769  11.001  1.00  0.00    -0.237 OA
ATOM     82  O   UNL     1     -11.711  -4.994   9.059  1.00  0.00    -0.744 OA
ENDBRANCH  75  79
ENDBRANCH  48  72
BRANCH  60  83
ATOM     83  C   UNL     1      -4.341 -12.167  10.384  1.00  0.00     0.023 A 
ATOM     84  C   UNL     1      -4.627 -12.909   9.226  1.00  0.00     0.031 A 
ATOM     85  C   UNL     1      -4.610 -12.749  11.635  1.00  0.00     0.131 A 
ATOM     86  C   UNL     1      -5.192 -14.187   9.342  1.00  0.00     0.055 A 
ATOM     87  C   UNL     1      -5.133 -14.037  11.745  1.00  0.00     0.041 A 
ATOM     88  F   UNL     1      -4.350 -12.079  12.769  1.00  0.00    -0.206 F 
ATOM     89  C   UNL     1      -5.431 -14.762  10.594  1.00  0.00     0.022 A 
BRANCH  86  90
ATOM     90  S   UNL     1      -5.640 -15.082   7.830  1.00  0.00     0.124 S 
ATOM     91  O   UNL     1      -6.701 -14.241   7.285  1.00  0.00    -0.237 OA
ATOM     92  O   UNL     1      -4.386 -15.090   7.084  1.00  0.00    -0.237 OA
ATOM     93  O   UNL     1      -6.075 -16.388   8.322  1.00  0.00    -0.744 OA
ENDBRANCH  86  90
ENDBRANCH  60  83
ENDBRANCH  34  35
ENDBRANCH  26  29
ENDBRANCH  24  25
ENDBRANCH   1  24
TORSDOF 16
