REMARK SMILES O=C(C[C@H](C1CCCCC1)N1Cc2ccccc2C1=O)NCCCNC(=O)c1ccc(-c2c3nc(c(-c4cc(S(=O)(=O)[O-])ccc4F)c4ccc([nH]4)c(-c4cc(S(=O)(=O)[O-])ccc4F)c4nc(c(-c5cc(S(=O)(=O)[O-])ccc5F)c5ccc2[nH]5)C=C4)C=C3)cc1
REMARK SMILES IDX 23 1 22 2 21 3 1 4 2 5 3 7 4 8 11 9 12 10 19 11 13 12 18 13
REMARK SMILES IDX 20 14 14 15 17 16 15 17 16 18 5 19 6 20 10 21 7 22 9 23 8 24
REMARK SMILES IDX 24 25 25 26 26 27 27 29 28 30 29 31 90 32 30 33 89 34 31 35
REMARK SMILES IDX 32 36 33 37 83 38 34 39 88 40 82 41 84 42 35 43 87 44 81 45
REMARK SMILES IDX 80 46 36 48 68 49 48 50 67 51 49 52 52 53 66 54 85 55 50 56
REMARK SMILES IDX 51 57 65 59 86 60 53 61 37 62 38 63 46 64 39 65 45 66 47 67
REMARK SMILES IDX 44 68 40 69 41 70 42 71 43 72 69 73 70 74 78 75 71 76 77 77
REMARK SMILES IDX 79 78 76 79 72 80 73 81 74 82 75 83 54 84 55 85 63 86 56 87
REMARK SMILES IDX 62 88 64 89 61 90 57 91 58 92 59 93 60 94
REMARK H PARENT 21 6 25 28 84 47 52 58
REMARK Flexibility Score: inf
ROOT
ATOM      1  C   UNL     1       6.944  -1.640   3.010  1.00  0.00     0.042 C 
ENDROOT
BRANCH   1   2
ATOM      2  C   UNL     1       6.941  -1.667   1.490  1.00  0.00     0.117 C 
BRANCH   2   3
ATOM      3  N   UNL     1       6.157  -0.617   0.873  1.00  0.00    -0.356 N 
ATOM      4  O   UNL     1       7.057  -1.021  -1.189  1.00  0.00    -0.275 OA
ATOM      5  C   UNL     1       6.213  -0.459  -0.497  1.00  0.00     0.222 C 
ATOM      6  H   UNL     1       5.593  -0.026   1.422  1.00  0.00     0.163 HD
BRANCH   5   7
ATOM      7  C   UNL     1       5.124   0.412  -1.081  1.00  0.00     0.125 C 
BRANCH   7   8
ATOM      8  C   UNL     1       3.986  -0.385  -1.779  1.00  0.00     0.098 C 
BRANCH   8   9
ATOM      9  N   UNL     1       4.509  -1.320  -2.796  1.00  0.00    -0.331 N 
ATOM     10  C   UNL     1       4.453  -2.766  -2.689  1.00  0.00     0.156 C 
ATOM     11  C   UNL     1       5.300  -0.924  -3.880  1.00  0.00     0.254 C 
ATOM     12  C   UNL     1       5.231  -3.240  -3.863  1.00  0.00    -0.016 A 
ATOM     13  C   UNL     1       5.782  -2.155  -4.533  1.00  0.00     0.045 A 
ATOM     14  O   UNL     1       5.561   0.202  -4.250  1.00  0.00    -0.269 OA
ATOM     15  C   UNL     1       5.484  -4.538  -4.272  1.00  0.00     0.006 A 
ATOM     16  C   UNL     1       6.641  -2.316  -5.603  1.00  0.00     0.014 A 
ATOM     17  C   UNL     1       6.335  -4.725  -5.363  1.00  0.00     0.000 A 
ATOM     18  C   UNL     1       6.921  -3.624  -6.015  1.00  0.00     0.001 A 
ENDBRANCH   8   9
BRANCH   8  19
ATOM     19  C   UNL     1       2.846  -0.960  -0.838  1.00  0.00     0.012 C 
ATOM     20  C   UNL     1       3.256  -2.118   0.102  1.00  0.00     0.006 C 
ATOM     21  C   UNL     1       2.148   0.188  -0.067  1.00  0.00     0.006 C 
ATOM     22  C   UNL     1       2.261  -2.473   1.202  1.00  0.00     0.000 C 
ATOM     23  C   UNL     1       1.129  -0.288   0.964  1.00  0.00     0.000 C 
ATOM     24  C   UNL     1       1.778  -1.246   1.949  1.00  0.00     0.000 C 
ENDBRANCH   8  19
ENDBRANCH   7   8
ENDBRANCH   5   7
ENDBRANCH   2   3
ENDBRANCH   1   2
BRANCH   1  25
ATOM     25  C   UNL     1       5.598  -1.908   3.676  1.00  0.00     0.118 C 
BRANCH  25  26
ATOM     26  N   UNL     1       5.087  -3.254   3.479  1.00  0.00    -0.352 N 
ATOM     27  C   UNL     1       4.424  -4.074   4.366  1.00  0.00     0.251 C 
ATOM     28  H   UNL     1       5.237  -3.635   2.584  1.00  0.00     0.163 HD
ATOM     29  O   UNL     1       4.100  -5.205   4.012  1.00  0.00    -0.269 OA
BRANCH  27  30
ATOM     30  C   UNL     1       4.153  -3.623   5.753  1.00  0.00     0.039 A 
ATOM     31  C   UNL     1       4.441  -4.498   6.803  1.00  0.00     0.014 A 
ATOM     32  C   UNL     1       3.650  -2.349   6.031  1.00  0.00     0.014 A 
ATOM     33  C   UNL     1       4.311  -4.067   8.126  1.00  0.00     0.010 A 
ATOM     34  C   UNL     1       3.592  -1.894   7.351  1.00  0.00     0.010 A 
ATOM     35  C   UNL     1       3.935  -2.744   8.414  1.00  0.00    -0.014 A 
BRANCH  35  36
ATOM     36  C   UNL     1       3.938  -2.246   9.819  1.00  0.00     0.031 A 
ATOM     37  C   UNL     1       2.663  -1.803  10.483  1.00  0.00     0.074 A 
ATOM     38  C   UNL     1       5.105  -2.172  10.492  1.00  0.00     0.049 A 
ATOM     39  N   UNL     1       2.476  -1.357  11.700  1.00  0.00    -0.248 NA
ATOM     40  C   UNL     1       1.441  -1.845   9.667  1.00  0.00     0.031 C 
ATOM     41  C   UNL     1       6.417  -2.528   9.944  1.00  0.00     0.029 A 
ATOM     42  N   UNL     1       5.383  -1.782  11.780  1.00  0.00    -0.354 N 
ATOM     43  C   UNL     1       1.119  -1.068  11.798  1.00  0.00     0.074 A 
ATOM     44  C   UNL     1       0.546  -1.325  10.493  1.00  0.00     0.031 C 
ATOM     45  C   UNL     1       7.349  -2.382  10.899  1.00  0.00     0.029 A 
ATOM     46  C   UNL     1       6.716  -1.876  12.113  1.00  0.00     0.049 A 
ATOM     47  H   UNL     1       4.693  -1.465  12.406  1.00  0.00     0.167 HD
ATOM     48  C   UNL     1       0.413  -0.653  12.880  1.00  0.00     0.034 A 
ATOM     49  C   UNL     1       7.360  -1.585  13.262  1.00  0.00     0.034 A 
ATOM     50  C   UNL     1       1.000  -0.397  14.174  1.00  0.00     0.049 A 
ATOM     51  C   UNL     1       6.557  -1.089  14.440  1.00  0.00     0.074 A 
ATOM     52  C   UNL     1       0.368  -0.016  15.346  1.00  0.00     0.029 A 
ATOM     53  N   UNL     1       2.355  -0.480  14.468  1.00  0.00    -0.354 N 
ATOM     54  N   UNL     1       5.264  -0.881  14.530  1.00  0.00    -0.248 NA
ATOM     55  C   UNL     1       7.301  -0.804  15.673  1.00  0.00     0.031 C 
ATOM     56  C   UNL     1       1.346   0.210  16.321  1.00  0.00     0.029 A 
ATOM     57  C   UNL     1       2.582  -0.121  15.790  1.00  0.00     0.049 A 
ATOM     58  H   UNL     1       3.054  -0.754  13.831  1.00  0.00     0.167 HD
ATOM     59  C   UNL     1       5.037  -0.473  15.843  1.00  0.00     0.074 A 
ATOM     60  C   UNL     1       6.323  -0.487  16.508  1.00  0.00     0.031 C 
ATOM     61  C   UNL     1       3.870  -0.123  16.444  1.00  0.00     0.034 A 
BRANCH  48  62
ATOM     62  C   UNL     1      -1.071  -0.425  12.697  1.00  0.00     0.023 A 
ATOM     63  C   UNL     1      -1.940  -1.470  12.333  1.00  0.00     0.031 A 
ATOM     64  C   UNL     1      -1.625   0.856  12.872  1.00  0.00     0.131 A 
ATOM     65  C   UNL     1      -3.293  -1.201  12.079  1.00  0.00     0.055 A 
ATOM     66  C   UNL     1      -2.990   1.099  12.704  1.00  0.00     0.041 A 
ATOM     67  F   UNL     1      -0.845   1.899  13.198  1.00  0.00    -0.206 F 
ATOM     68  C   UNL     1      -3.830   0.071  12.289  1.00  0.00     0.022 A 
BRANCH  65  69
ATOM     69  S   UNL     1      -4.306  -2.500  11.319  1.00  0.00     0.124 S 
ATOM     70  O   UNL     1      -3.565  -2.769  10.089  1.00  0.00    -0.237 OA
ATOM     71  O   UNL     1      -4.276  -3.553  12.327  1.00  0.00    -0.237 OA
ATOM     72  O   UNL     1      -5.603  -1.855  11.127  1.00  0.00    -0.744 OA
ENDBRANCH  65  69
ENDBRANCH  48  62
BRANCH  49  73
ATOM     73  C   UNL     1       8.841  -1.742  13.364  1.00  0.00     0.023 A 
ATOM     74  C   UNL     1       9.416  -2.643  14.276  1.00  0.00     0.031 A 
ATOM     75  C   UNL     1       9.708  -0.952  12.588  1.00  0.00     0.131 A 
ATOM     76  C   UNL     1      10.811  -2.693  14.427  1.00  0.00     0.055 A 
ATOM     77  C   UNL     1      11.096  -1.050  12.698  1.00  0.00     0.041 A 
ATOM     78  F   UNL     1       9.214  -0.073  11.701  1.00  0.00    -0.206 F 
ATOM     79  C   UNL     1      11.655  -1.914  13.633  1.00  0.00     0.022 A 
BRANCH  76  80
ATOM     80  S   UNL     1      11.506  -3.718  15.754  1.00  0.00     0.124 S 
ATOM     81  O   UNL     1      10.853  -3.160  16.932  1.00  0.00    -0.237 OA
ATOM     82  O   UNL     1      11.080  -5.056  15.357  1.00  0.00    -0.237 OA
ATOM     83  O   UNL     1      12.943  -3.469  15.658  1.00  0.00    -0.744 OA
ENDBRANCH  76  80
ENDBRANCH  49  73
BRANCH  61  84
ATOM     84  C   UNL     1       3.932   0.229  17.913  1.00  0.00     0.023 A 
ATOM     85  C   UNL     1       4.652   1.343  18.381  1.00  0.00     0.031 A 
ATOM     86  C   UNL     1       3.282  -0.580  18.863  1.00  0.00     0.131 A 
ATOM     87  C   UNL     1       4.764   1.575  19.761  1.00  0.00     0.055 A 
ATOM     88  C   UNL     1       3.335  -0.301  20.229  1.00  0.00     0.041 A 
ATOM     89  F   UNL     1       2.583  -1.660  18.477  1.00  0.00    -0.206 F 
ATOM     90  C   UNL     1       4.094   0.772  20.686  1.00  0.00     0.022 A 
BRANCH  87  91
ATOM     91  S   UNL     1       5.899   2.869  20.336  1.00  0.00     0.124 S 
ATOM     92  O   UNL     1       7.163   2.449  19.741  1.00  0.00    -0.237 OA
ATOM     93  O   UNL     1       5.302   4.077  19.777  1.00  0.00    -0.237 OA
ATOM     94  O   UNL     1       5.832   2.761  21.792  1.00  0.00    -0.744 OA
ENDBRANCH  87  91
ENDBRANCH  61  84
ENDBRANCH  35  36
ENDBRANCH  27  30
ENDBRANCH  25  26
ENDBRANCH   1  25
TORSDOF 16
