REMARK SMILES C[C@@H](NC(=O)CCCN1C(=O)/C(=C/c2c3ccccc3cc3ccccc23)SC1=S)C(=O)NCCCNC(=O)c1ccc(-c2c3nc(c(-c4cc(S(=O)(=O)[O-])ccc4F)c4ccc([nH]4)c(-c4cc(S(=O)(=O)[O-])ccc4F)c4nc(c(-c5cc(S(=O)(=O)[O-])ccc5F)c5ccc2[nH]5)C=C4)C=C3)cc1
REMARK SMILES IDX 31 1 32 2 33 3 2 5 1 6 3 7 4 8 5 10 6 11 7 12 8 13 9 14
REMARK SMILES IDX 10 15 29 16 11 17 12 18 28 19 30 20 13 21 14 22 15 23 27 24
REMARK SMILES IDX 16 25 20 26 22 27 26 28 17 29 19 30 21 31 23 32 25 33 18 34
REMARK SMILES IDX 24 35 34 36 35 37 36 38 37 39 38 40 39 42 40 43 41 44 102 45
REMARK SMILES IDX 42 46 101 47 43 48 44 49 45 50 95 51 46 52 100 53 94 54
REMARK SMILES IDX 96 55 47 56 99 57 93 58 92 59 48 61 80 62 60 63 79 64 61 65
REMARK SMILES IDX 64 66 78 67 97 68 62 69 63 70 77 72 98 73 65 74 49 75 50 76
REMARK SMILES IDX 58 77 51 78 57 79 59 80 56 81 52 82 53 83 54 84 55 85 81 86
REMARK SMILES IDX 82 87 90 88 83 89 89 90 91 91 88 92 84 93 85 94 86 95 87 96
REMARK SMILES IDX 66 97 67 98 75 99 68 100 74 101 76 102 73 103 69 104 70 105
REMARK SMILES IDX 71 106 72 107
REMARK H PARENT 33 4 3 9 37 41 96 60 64 71
REMARK Flexibility Score: inf
ROOT
ATOM      1  C   UNL     1      -1.101  -2.563  -1.017  1.00  0.00     0.242 C 
ATOM      2  O   UNL     1      -1.737  -3.147  -1.927  1.00  0.00    -0.273 OA
ATOM      3  N   UNL     1      -1.945  -2.345   0.057  1.00  0.00    -0.354 N 
ATOM      4  H   UNL     1      -2.840  -2.432  -0.345  1.00  0.00     0.163 HD
ENDROOT
BRANCH   1   5
ATOM      5  C   UNL     1       0.522  -2.319  -1.431  1.00  0.00     0.168 C 
ATOM      6  C   UNL     1       1.494  -1.107  -1.527  1.00  0.00     0.041 C 
BRANCH   5   7
ATOM      7  N   UNL     1       1.334  -3.425  -1.004  1.00  0.00    -0.345 N 
ATOM      8  C   UNL     1       1.498  -3.713   0.303  1.00  0.00     0.220 C 
ATOM      9  H   UNL     1       1.780  -3.984  -1.680  1.00  0.00     0.164 HD
ATOM     10  O   UNL     1       2.287  -4.595   0.655  1.00  0.00    -0.275 OA
BRANCH   8  11
ATOM     11  C   UNL     1       0.554  -3.004   1.241  1.00  0.00     0.102 C 
BRANCH  11  12
ATOM     12  C   UNL     1       0.561  -1.398   1.275  1.00  0.00     0.032 C 
BRANCH  12  13
ATOM     13  C   UNL     1      -0.217  -0.042   0.505  1.00  0.00     0.128 C 
BRANCH  13  14
ATOM     14  N   UNL     1      -0.954   0.294  -0.894  1.00  0.00    -0.293 N 
ATOM     15  C   UNL     1      -2.153  -0.159  -1.472  1.00  0.00     0.266 C 
ATOM     16  C   UNL     1      -0.696   1.507  -1.540  1.00  0.00     0.148 C 
ATOM     17  O   UNL     1      -3.202  -0.470  -0.918  1.00  0.00    -0.268 OA
ATOM     18  C   UNL     1      -2.131   0.016  -2.981  1.00  0.00     0.081 C 
ATOM     19  S   UNL     1      -1.397   1.547  -3.186  1.00  0.00    -0.054 SA
ATOM     20  S   UNL     1       0.151   2.829  -0.969  1.00  0.00    -0.052 S 
ATOM     21  C   UNL     1      -2.572  -0.885  -3.899  1.00  0.00     0.030 C 
BRANCH  21  22
ATOM     22  C   UNL     1      -2.606  -0.884  -5.427  1.00  0.00    -0.009 A 
ATOM     23  C   UNL     1      -1.494  -0.421  -6.204  1.00  0.00    -0.010 A 
ATOM     24  C   UNL     1      -3.766  -1.399  -6.138  1.00  0.00    -0.010 A 
ATOM     25  C   UNL     1      -0.192  -0.209  -5.696  1.00  0.00     0.009 A 
ATOM     26  C   UNL     1      -1.659  -0.186  -7.594  1.00  0.00    -0.017 A 
ATOM     27  C   UNL     1      -3.866  -1.195  -7.545  1.00  0.00    -0.017 A 
ATOM     28  C   UNL     1      -4.840  -2.134  -5.565  1.00  0.00     0.009 A 
ATOM     29  C   UNL     1       0.833   0.352  -6.464  1.00  0.00     0.001 A 
ATOM     30  C   UNL     1      -0.630   0.390  -8.359  1.00  0.00     0.009 A 
ATOM     31  C   UNL     1      -2.845  -0.545  -8.232  1.00  0.00     0.017 A 
ATOM     32  C   UNL     1      -4.978  -1.643  -8.286  1.00  0.00     0.009 A 
ATOM     33  C   UNL     1      -5.926  -2.613  -6.320  1.00  0.00     0.001 A 
ATOM     34  C   UNL     1       0.603   0.683  -7.789  1.00  0.00     0.001 A 
ATOM     35  C   UNL     1      -6.005  -2.352  -7.679  1.00  0.00     0.001 A 
ENDBRANCH  21  22
ENDBRANCH  13  14
ENDBRANCH  12  13
ENDBRANCH  11  12
ENDBRANCH   8  11
ENDBRANCH   5   7
ENDBRANCH   1   5
BRANCH   3  36
ATOM     36  C   UNL     1      -2.263  -2.038   1.550  1.00  0.00     0.117 C 
BRANCH  36  37
ATOM     37  C   UNL     1      -2.690  -0.629   2.059  1.00  0.00     0.042 C 
BRANCH  37  38
ATOM     38  C   UNL     1      -4.091  -0.452   2.641  1.00  0.00     0.118 C 
BRANCH  38  39
ATOM     39  N   UNL     1      -4.453  -1.496   3.582  1.00  0.00    -0.352 N 
ATOM     40  C   UNL     1      -4.558  -1.495   4.951  1.00  0.00     0.251 C 
ATOM     41  H   UNL     1      -4.660  -2.362   3.163  1.00  0.00     0.163 HD
ATOM     42  O   UNL     1      -4.474  -2.571   5.540  1.00  0.00    -0.269 OA
BRANCH  40  43
ATOM     43  C   UNL     1      -4.787  -0.244   5.712  1.00  0.00     0.039 A 
ATOM     44  C   UNL     1      -4.449  -0.189   7.069  1.00  0.00     0.014 A 
ATOM     45  C   UNL     1      -5.408   0.855   5.120  1.00  0.00     0.014 A 
ATOM     46  C   UNL     1      -4.709   0.972   7.803  1.00  0.00     0.010 A 
ATOM     47  C   UNL     1      -5.500   2.059   5.800  1.00  0.00     0.010 A 
ATOM     48  C   UNL     1      -5.208   2.119   7.164  1.00  0.00    -0.014 A 
BRANCH  48  49
ATOM     49  C   UNL     1      -5.491   3.371   7.910  1.00  0.00     0.031 A 
ATOM     50  C   UNL     1      -6.879   3.967   7.885  1.00  0.00     0.074 A 
ATOM     51  C   UNL     1      -4.486   3.985   8.564  1.00  0.00     0.049 A 
ATOM     52  N   UNL     1      -7.320   5.062   8.449  1.00  0.00    -0.248 NA
ATOM     53  C   UNL     1      -7.895   3.272   7.075  1.00  0.00     0.031 C 
ATOM     54  C   UNL     1      -3.091   3.534   8.582  1.00  0.00     0.029 A 
ATOM     55  N   UNL     1      -4.477   5.107   9.349  1.00  0.00    -0.354 N 
ATOM     56  C   UNL     1      -8.647   5.188   8.047  1.00  0.00     0.074 A 
ATOM     57  C   UNL     1      -8.907   4.122   7.109  1.00  0.00     0.031 C 
ATOM     58  C   UNL     1      -2.381   4.325   9.399  1.00  0.00     0.029 A 
ATOM     59  C   UNL     1      -3.252   5.373   9.915  1.00  0.00     0.049 A 
ATOM     60  H   UNL     1      -5.272   5.670   9.494  1.00  0.00     0.167 HD
ATOM     61  C   UNL     1      -9.578   6.083   8.457  1.00  0.00     0.034 A 
ATOM     62  C   UNL     1      -2.880   6.352  10.762  1.00  0.00     0.034 A 
ATOM     63  C   UNL     1      -9.293   7.122   9.413  1.00  0.00     0.049 A 
ATOM     64  C   UNL     1      -3.933   7.330  11.213  1.00  0.00     0.074 A 
ATOM     65  C   UNL     1     -10.153   8.060   9.953  1.00  0.00     0.029 A 
ATOM     66  N   UNL     1      -8.041   7.359   9.972  1.00  0.00    -0.354 N 
ATOM     67  N   UNL     1      -5.202   7.395  10.876  1.00  0.00    -0.248 NA
ATOM     68  C   UNL     1      -3.509   8.350  12.176  1.00  0.00     0.031 C 
ATOM     69  C   UNL     1      -9.405   8.914  10.772  1.00  0.00     0.029 A 
ATOM     70  C   UNL     1      -8.100   8.449  10.825  1.00  0.00     0.049 A 
ATOM     71  H   UNL     1      -7.232   6.830   9.787  1.00  0.00     0.167 HD
ATOM     72  C   UNL     1      -5.736   8.448  11.613  1.00  0.00     0.074 A 
ATOM     73  C   UNL     1      -4.655   8.960  12.433  1.00  0.00     0.031 C 
ATOM     74  C   UNL     1      -7.000   8.950  11.616  1.00  0.00     0.034 A 
BRANCH  61  75
ATOM     75  C   UNL     1     -10.965   5.978   7.861  1.00  0.00     0.023 A 
ATOM     76  C   UNL     1     -11.750   4.818   8.004  1.00  0.00     0.031 A 
ATOM     77  C   UNL     1     -11.498   7.037   7.106  1.00  0.00     0.131 A 
ATOM     78  C   UNL     1     -12.980   4.713   7.337  1.00  0.00     0.055 A 
ATOM     79  C   UNL     1     -12.765   6.962   6.521  1.00  0.00     0.041 A 
ATOM     80  F   UNL     1     -10.790   8.159   6.905  1.00  0.00    -0.206 F 
ATOM     81  C   UNL     1     -13.508   5.789   6.621  1.00  0.00     0.022 A 
BRANCH  78  82
ATOM     82  S   UNL     1     -13.803   3.096   7.282  1.00  0.00     0.124 S 
ATOM     83  O   UNL     1     -12.783   2.268   6.644  1.00  0.00    -0.237 OA
ATOM     84  O   UNL     1     -14.057   2.823   8.692  1.00  0.00    -0.237 OA
ATOM     85  O   UNL     1     -14.992   3.344   6.469  1.00  0.00    -0.744 OA
ENDBRANCH  78  82
ENDBRANCH  61  75
BRANCH  62  86
ATOM     86  C   UNL     1      -1.473   6.441  11.248  1.00  0.00     0.023 A 
ATOM     87  C   UNL     1      -1.166   6.312  12.613  1.00  0.00     0.031 A 
ATOM     88  C   UNL     1      -0.412   6.690  10.358  1.00  0.00     0.131 A 
ATOM     89  C   UNL     1       0.154   6.488  13.054  1.00  0.00     0.055 A 
ATOM     90  C   UNL     1       0.909   6.797  10.794  1.00  0.00     0.041 A 
ATOM     91  F   UNL     1      -0.645   6.815   9.042  1.00  0.00    -0.206 F 
ATOM     92  C   UNL     1       1.197   6.713  12.153  1.00  0.00     0.022 A 
BRANCH  89  93
ATOM     93  S   UNL     1       0.475   6.524  14.839  1.00  0.00     0.124 S 
ATOM     94  O   UNL     1      -0.411   7.595  15.278  1.00  0.00    -0.237 OA
ATOM     95  O   UNL     1       0.100   5.173  15.242  1.00  0.00    -0.237 OA
ATOM     96  O   UNL     1       1.904   6.822  14.921  1.00  0.00    -0.744 OA
ENDBRANCH  89  93
ENDBRANCH  62  86
BRANCH  74  97
ATOM     97  C   UNL     1      -7.271  10.086  12.572  1.00  0.00     0.023 A 
ATOM     98  C   UNL     1      -6.599  11.315  12.465  1.00  0.00     0.031 A 
ATOM     99  C   UNL     1      -8.174   9.915  13.636  1.00  0.00     0.131 A 
ATOM    100  C   UNL     1      -6.759  12.284  13.464  1.00  0.00     0.055 A 
ATOM    101  C   UNL     1      -8.401  10.922  14.574  1.00  0.00     0.041 A 
ATOM    102  F   UNL     1      -8.844   8.762  13.790  1.00  0.00    -0.206 F 
ATOM    103  C   UNL     1      -7.672  12.106  14.506  1.00  0.00     0.022 A 
BRANCH 100 104
ATOM    104  S   UNL     1      -5.629  13.702  13.475  1.00  0.00     0.124 S 
ATOM    105  O   UNL     1      -4.325  13.047  13.485  1.00  0.00    -0.237 OA
ATOM    106  O   UNL     1      -5.985  14.394  12.241  1.00  0.00    -0.237 OA
ATOM    107  O   UNL     1      -5.979  14.408  14.706  1.00  0.00    -0.744 OA
ENDBRANCH 100 104
ENDBRANCH  74  97
ENDBRANCH  48  49
ENDBRANCH  40  43
ENDBRANCH  38  39
ENDBRANCH  37  38
ENDBRANCH  36  37
ENDBRANCH   3  36
TORSDOF 19
