REMARK SMILES CN(C)Nc1ncnc(Nc2ccc(C(=O)NCCCNC(=O)c3ccc(-c4c5nc(c(-c6cc(S(=O)(=O)[O-])ccc6F)c6ccc([nH]6)c(-c6cc(S(=O)(=O)[O-])ccc6F)c6nc(c(-c7cc(S(=O)(=O)[O-])ccc7F)c7ccc4[nH]7)C=C6)C=C5)cc3)cc2)c1[N+](=O)[O-]
REMARK SMILES IDX 18 1 17 2 15 3 16 4 14 6 11 7 12 8 88 9 13 10 87 11 10 12
REMARK SMILES IDX 9 14 5 15 6 16 89 17 7 18 8 19 4 20 2 22 1 23 3 24 90 25
REMARK SMILES IDX 91 26 92 27 19 28 20 29 21 30 22 31 23 33 24 34 25 35 86 36
REMARK SMILES IDX 26 37 85 38 27 39 28 40 29 41 79 42 30 43 84 44 78 45 80 46
REMARK SMILES IDX 31 47 83 48 77 49 76 50 32 52 64 53 44 54 63 55 45 56 48 57
REMARK SMILES IDX 62 58 81 59 46 60 47 61 61 63 82 64 49 65 33 66 34 67 42 68
REMARK SMILES IDX 35 69 41 70 43 71 40 72 36 73 37 74 38 75 39 76 65 77 66 78
REMARK SMILES IDX 74 79 67 80 73 81 75 82 72 83 68 84 69 85 70 86 71 87 50 88
REMARK SMILES IDX 51 89 59 90 52 91 58 92 60 93 57 94 53 95 54 96 55 97 56 98
REMARK H PARENT 17 5 10 13 4 21 21 32 80 51 48 62
REMARK Flexibility Score: inf
ROOT
ATOM      1  C   UNL     1       6.487   4.666   6.926  1.00  0.00     0.118 C 
ENDROOT
BRANCH   1   2
ATOM      2  N   UNL     1       7.768   4.034   6.663  1.00  0.00    -0.352 N 
ATOM      3  C   UNL     1       8.207   3.220   5.650  1.00  0.00     0.251 C 
ATOM      4  O   UNL     1       9.393   2.891   5.650  1.00  0.00    -0.269 OA
ATOM      5  H   UNL     1       8.454   4.227   7.342  1.00  0.00     0.163 HD
BRANCH   3   6
ATOM      6  C   UNL     1       7.338   2.772   4.528  1.00  0.00     0.039 A 
ATOM      7  C   UNL     1       5.822   2.042   2.261  1.00  0.00     0.040 A 
ATOM      8  C   UNL     1       7.207   2.168   2.169  1.00  0.00     0.027 A 
ATOM      9  C   UNL     1       5.220   2.172   3.519  1.00  0.00     0.027 A 
ATOM     10  C   UNL     1       7.956   2.551   3.287  1.00  0.00     0.016 A 
ATOM     11  C   UNL     1       5.972   2.517   4.647  1.00  0.00     0.016 A 
BRANCH   7  12
ATOM     12  N   UNL     1       5.071   1.677   1.125  1.00  0.00    -0.334 N 
ATOM     13  H   UNL     1       5.400   0.925   0.583  1.00  0.00     0.168 HD
BRANCH  12  14
ATOM     14  C   UNL     1       3.881   2.311   0.709  1.00  0.00     0.215 A 
ATOM     15  C   UNL     1       1.810   2.408  -0.453  1.00  0.00     0.225 A 
ATOM     16  N   UNL     1       1.589   3.653   0.021  1.00  0.00    -0.212 NA
ATOM     17  C   UNL     1       2.999   1.752  -0.201  1.00  0.00     0.354 A 
ATOM     18  C   UNL     1       2.524   4.170   0.819  1.00  0.00     0.227 A 
ATOM     19  N   UNL     1       3.637   3.545   1.208  1.00  0.00    -0.212 NA
BRANCH  15  20
ATOM     20  N   UNL     1       0.679   1.871  -1.075  1.00  0.00    -0.298 N 
ATOM     21  H   UNL     1       0.120   2.478  -1.613  1.00  0.00     0.184 HD
BRANCH  20  22
ATOM     22  N   UNL     1       0.282   0.515  -0.985  1.00  0.00    -0.228 NA
ATOM     23  C   UNL     1       0.114   0.104   0.421  1.00  0.00     0.130 C 
ATOM     24  C   UNL     1      -1.026   0.399  -1.655  1.00  0.00     0.130 C 
ENDBRANCH  20  22
ENDBRANCH  15  20
BRANCH  17  25
ATOM     25  N   UNL     1       3.335   0.538  -0.880  1.00  0.00     0.070 N 
ATOM     26  O   UNL     1       3.667  -0.429  -0.175  1.00  0.00    -0.258 OA
ATOM     27  O   UNL     1       3.390   0.567  -2.118  1.00  0.00    -0.258 OA
ENDBRANCH  17  25
ENDBRANCH  12  14
ENDBRANCH   7  12
ENDBRANCH   3   6
ENDBRANCH   1   2
BRANCH   1  28
ATOM     28  C   UNL     1       5.731   3.945   8.043  1.00  0.00     0.042 C 
BRANCH  28  29
ATOM     29  C   UNL     1       6.326   4.172   9.432  1.00  0.00     0.118 C 
BRANCH  29  30
ATOM     30  N   UNL     1       6.145   5.543   9.880  1.00  0.00    -0.352 N 
ATOM     31  C   UNL     1       5.590   6.037  11.033  1.00  0.00     0.251 C 
ATOM     32  H   UNL     1       6.475   6.228   9.254  1.00  0.00     0.163 HD
ATOM     33  O   UNL     1       5.325   7.235  11.086  1.00  0.00    -0.269 OA
BRANCH  31  34
ATOM     34  C   UNL     1       5.303   5.162  12.195  1.00  0.00     0.039 A 
ATOM     35  C   UNL     1       4.183   5.454  12.981  1.00  0.00     0.014 A 
ATOM     36  C   UNL     1       6.159   4.122  12.572  1.00  0.00     0.014 A 
ATOM     37  C   UNL     1       3.912   4.698  14.125  1.00  0.00     0.010 A 
ATOM     38  C   UNL     1       5.851   3.326  13.678  1.00  0.00     0.010 A 
ATOM     39  C   UNL     1       4.737   3.619  14.478  1.00  0.00    -0.014 A 
BRANCH  39  40
ATOM     40  C   UNL     1       4.459   2.825  15.704  1.00  0.00     0.031 A 
ATOM     41  C   UNL     1       5.418   2.862  16.866  1.00  0.00     0.074 A 
ATOM     42  C   UNL     1       3.355   2.056  15.763  1.00  0.00     0.049 A 
ATOM     43  N   UNL     1       5.353   2.239  18.015  1.00  0.00    -0.248 NA
ATOM     44  C   UNL     1       6.623   3.687  16.699  1.00  0.00     0.031 C 
ATOM     45  C   UNL     1       2.376   1.903  14.684  1.00  0.00     0.029 A 
ATOM     46  N   UNL     1       2.868   1.260  16.768  1.00  0.00    -0.354 N 
ATOM     47  C   UNL     1       6.512   2.585  18.703  1.00  0.00     0.074 A 
ATOM     48  C   UNL     1       7.288   3.424  17.814  1.00  0.00     0.031 C 
ATOM     49  C   UNL     1       1.394   1.085  15.096  1.00  0.00     0.029 A 
ATOM     50  C   UNL     1       1.686   0.632  16.452  1.00  0.00     0.049 A 
ATOM     51  H   UNL     1       3.322   1.149  17.635  1.00  0.00     0.167 HD
ATOM     52  C   UNL     1       6.884   2.255  19.966  1.00  0.00     0.034 A 
ATOM     53  C   UNL     1       0.923  -0.212  17.174  1.00  0.00     0.034 A 
ATOM     54  C   UNL     1       6.092   1.426  20.844  1.00  0.00     0.049 A 
ATOM     55  C   UNL     1       1.345  -0.552  18.580  1.00  0.00     0.074 A 
ATOM     56  C   UNL     1       6.346   1.066  22.157  1.00  0.00     0.029 A 
ATOM     57  N   UNL     1       4.889   0.823  20.496  1.00  0.00    -0.354 N 
ATOM     58  N   UNL     1       2.418  -0.171  19.236  1.00  0.00    -0.248 NA
ATOM     59  C   UNL     1       0.442  -1.415  19.348  1.00  0.00     0.031 C 
ATOM     60  C   UNL     1       5.330   0.200  22.581  1.00  0.00     0.029 A 
ATOM     61  C   UNL     1       4.402   0.076  21.559  1.00  0.00     0.049 A 
ATOM     62  H   UNL     1       4.446   0.913  19.622  1.00  0.00     0.167 HD
ATOM     63  C   UNL     1       2.302  -0.730  20.506  1.00  0.00     0.074 A 
ATOM     64  C   UNL     1       1.045  -1.451  20.526  1.00  0.00     0.031 C 
ATOM     65  C   UNL     1       3.156  -0.655  21.560  1.00  0.00     0.034 A 
BRANCH  52  66
ATOM     66  C   UNL     1       8.220   2.771  20.452  1.00  0.00     0.023 A 
ATOM     67  C   UNL     1       8.484   4.148  20.569  1.00  0.00     0.031 A 
ATOM     68  C   UNL     1       9.260   1.877  20.765  1.00  0.00     0.131 A 
ATOM     69  C   UNL     1       9.773   4.591  20.902  1.00  0.00     0.055 A 
ATOM     70  C   UNL     1      10.517   2.324  21.179  1.00  0.00     0.041 A 
ATOM     71  F   UNL     1       9.078   0.551  20.657  1.00  0.00    -0.206 F 
ATOM     72  C   UNL     1      10.786   3.688  21.232  1.00  0.00     0.022 A 
BRANCH  69  73
ATOM     73  S   UNL     1      10.149   6.359  20.744  1.00  0.00     0.124 S 
ATOM     74  O   UNL     1       9.857   6.598  19.333  1.00  0.00    -0.237 OA
ATOM     75  O   UNL     1       9.228   6.964  21.699  1.00  0.00    -0.237 OA
ATOM     76  O   UNL     1      11.563   6.442  21.102  1.00  0.00    -0.744 OA
ENDBRANCH  69  73
ENDBRANCH  52  66
BRANCH  53  77
ATOM     77  C   UNL     1      -0.319  -0.790  16.589  1.00  0.00     0.023 A 
ATOM     78  C   UNL     1      -1.584  -0.462  17.102  1.00  0.00     0.031 A 
ATOM     79  C   UNL     1      -0.256  -1.706  15.524  1.00  0.00     0.131 A 
ATOM     80  C   UNL     1      -2.732  -1.079  16.581  1.00  0.00     0.055 A 
ATOM     81  C   UNL     1      -1.405  -2.281  14.976  1.00  0.00     0.041 A 
ATOM     82  F   UNL     1       0.928  -2.045  14.989  1.00  0.00    -0.206 F 
ATOM     83  C   UNL     1      -2.651  -1.977  15.514  1.00  0.00     0.022 A 
BRANCH  80  84
ATOM     84  S   UNL     1      -4.332  -0.742  17.366  1.00  0.00     0.124 S 
ATOM     85  O   UNL     1      -4.088  -1.171  18.738  1.00  0.00    -0.237 OA
ATOM     86  O   UNL     1      -4.473   0.696  17.158  1.00  0.00    -0.237 OA
ATOM     87  O   UNL     1      -5.264  -1.573  16.607  1.00  0.00    -0.744 OA
ENDBRANCH  80  84
ENDBRANCH  53  77
BRANCH  65  88
ATOM     88  C   UNL     1       2.725  -1.347  22.831  1.00  0.00     0.023 A 
ATOM     89  C   UNL     1       2.586  -2.745  22.899  1.00  0.00     0.031 A 
ATOM     90  C   UNL     1       2.408  -0.595  23.975  1.00  0.00     0.131 A 
ATOM     91  C   UNL     1       2.069  -3.340  24.060  1.00  0.00     0.055 A 
ATOM     92  C   UNL     1       1.958  -1.199  25.150  1.00  0.00     0.041 A 
ATOM     93  F   UNL     1       2.521   0.743  23.967  1.00  0.00    -0.206 F 
ATOM     94  C   UNL     1       1.769  -2.577  25.191  1.00  0.00     0.022 A 
BRANCH  91  95
ATOM     95  S   UNL     1       1.678  -5.111  24.029  1.00  0.00     0.124 S 
ATOM     96  O   UNL     1       0.780  -5.204  22.881  1.00  0.00    -0.237 OA
ATOM     97  O   UNL     1       2.994  -5.718  23.859  1.00  0.00    -0.237 OA
ATOM     98  O   UNL     1       1.050  -5.347  25.327  1.00  0.00    -0.744 OA
ENDBRANCH  91  95
ENDBRANCH  65  88
ENDBRANCH  39  40
ENDBRANCH  31  34
ENDBRANCH  29  30
ENDBRANCH  28  29
ENDBRANCH   1  28
TORSDOF 18
