REMARK SMILES O=C(Cc1ccccc1Nc1c(Cl)cccc1C(F)(F)F)NCCCNC(=O)c1ccc(-c2c3nc(c(-c4cc(S(=O)(=O)[O-])ccc4F)c4ccc([nH]4)c(-c4cc(S(=O)(=O)[O-])ccc4F)c4nc(c(-c5cc(S(=O)(=O)[O-])ccc5F)c5ccc2[nH]5)C=C4)C=C3)cc1
REMARK SMILES IDX 23 1 22 2 1 3 2 4 3 6 4 7 5 8 9 9 6 10 8 11 7 12 10 13 11 15
REMARK SMILES IDX 12 16 17 17 13 18 14 19 16 20 15 21 18 22 19 23 20 24 21 25
REMARK SMILES IDX 24 26 25 27 26 28 27 29 28 31 29 32 30 33 91 34 31 35 90 36
REMARK SMILES IDX 32 37 33 38 34 39 84 40 35 41 89 42 83 43 85 44 36 45 88 46
REMARK SMILES IDX 82 47 81 48 37 50 69 51 49 52 68 53 50 54 53 55 67 56 86 57
REMARK SMILES IDX 51 58 52 59 66 61 87 62 54 63 38 64 39 65 47 66 40 67 46 68
REMARK SMILES IDX 48 69 45 70 41 71 42 72 43 73 44 74 70 75 71 76 79 77 72 78
REMARK SMILES IDX 78 79 80 80 77 81 73 82 74 83 75 84 76 85 55 86 56 87 64 88
REMARK SMILES IDX 57 89 63 90 65 91 62 92 58 93 59 94 60 95 61 96
REMARK H PARENT 22 5 10 14 26 30 85 49 53 60
REMARK Flexibility Score: inf
ROOT
ATOM      1  C   UNL     1       1.875   2.228   0.749  1.00  0.00     0.117 C 
ENDROOT
BRANCH   1   2
ATOM      2  N   UNL     1       2.695   1.031   0.653  1.00  0.00    -0.356 N 
ATOM      3  O   UNL     1       1.124  -0.232  -0.456  1.00  0.00    -0.275 OA
ATOM      4  C   UNL     1       2.249  -0.120   0.019  1.00  0.00     0.224 C 
ATOM      5  H   UNL     1       3.596   1.038   1.050  1.00  0.00     0.163 HD
BRANCH   4   6
ATOM      6  C   UNL     1       3.302  -1.203  -0.086  1.00  0.00     0.137 C 
BRANCH   6   7
ATOM      7  C   UNL     1       4.128  -1.271  -1.365  1.00  0.00    -0.015 A 
ATOM      8  C   UNL     1       4.556  -2.567  -1.738  1.00  0.00     0.006 A 
ATOM      9  C   UNL     1       4.602  -0.165  -2.112  1.00  0.00     0.042 A 
ATOM     10  C   UNL     1       5.440  -2.773  -2.796  1.00  0.00     0.000 A 
ATOM     11  C   UNL     1       5.526  -0.398  -3.149  1.00  0.00     0.026 A 
ATOM     12  C   UNL     1       5.938  -1.684  -3.493  1.00  0.00     0.002 A 
BRANCH   9  13
ATOM     13  N   UNL     1       4.237   1.157  -1.803  1.00  0.00    -0.354 N 
ATOM     14  H   UNL     1       3.691   1.255  -0.989  1.00  0.00     0.167 HD
BRANCH  13  15
ATOM     15  C   UNL     1       4.526   2.366  -2.472  1.00  0.00     0.070 A 
ATOM     16  C   UNL     1       5.423   3.284  -1.885  1.00  0.00     0.065 A 
ATOM     17  C   UNL     1       3.765   2.776  -3.587  1.00  0.00     0.080 A 
ATOM     18  Cl  UNL     1       6.359   2.843  -0.496  1.00  0.00    -0.082 Cl
ATOM     19  C   UNL     1       5.574   4.572  -2.398  1.00  0.00     0.023 A 
ATOM     20  C   UNL     1       3.940   4.078  -4.097  1.00  0.00     0.015 A 
ATOM     21  C   UNL     1       4.827   4.972  -3.501  1.00  0.00     0.002 A 
BRANCH  17  22
ATOM     22  C   UNL     1       2.787   1.851  -4.271  1.00  0.00     0.418 C 
ATOM     23  F   UNL     1       1.907   2.520  -5.077  1.00  0.00    -0.166 F 
ATOM     24  F   UNL     1       3.401   0.952  -5.091  1.00  0.00    -0.166 F 
ATOM     25  F   UNL     1       2.004   1.134  -3.420  1.00  0.00    -0.166 F 
ENDBRANCH  17  22
ENDBRANCH  13  15
ENDBRANCH   9  13
ENDBRANCH   6   7
ENDBRANCH   4   6
ENDBRANCH   1   2
BRANCH   1  26
ATOM     26  C   UNL     1       2.120   3.042   2.016  1.00  0.00     0.042 C 
BRANCH  26  27
ATOM     27  C   UNL     1       3.521   3.632   2.171  1.00  0.00     0.118 C 
BRANCH  27  28
ATOM     28  N   UNL     1       3.883   4.589   1.140  1.00  0.00    -0.352 N 
ATOM     29  C   UNL     1       4.708   5.691   1.205  1.00  0.00     0.251 C 
ATOM     30  H   UNL     1       3.477   4.424   0.259  1.00  0.00     0.163 HD
ATOM     31  O   UNL     1       4.852   6.379   0.199  1.00  0.00    -0.269 OA
BRANCH  29  32
ATOM     32  C   UNL     1       5.365   6.096   2.474  1.00  0.00     0.039 A 
ATOM     33  C   UNL     1       5.435   7.464   2.761  1.00  0.00     0.014 A 
ATOM     34  C   UNL     1       5.900   5.177   3.381  1.00  0.00     0.014 A 
ATOM     35  C   UNL     1       5.942   7.900   3.987  1.00  0.00     0.010 A 
ATOM     36  C   UNL     1       6.342   5.608   4.635  1.00  0.00     0.010 A 
ATOM     37  C   UNL     1       6.347   6.972   4.959  1.00  0.00    -0.014 A 
BRANCH  37  38
ATOM     38  C   UNL     1       6.713   7.426   6.327  1.00  0.00     0.031 A 
ATOM     39  C   UNL     1       8.112   7.261   6.849  1.00  0.00     0.074 A 
ATOM     40  C   UNL     1       5.754   7.951   7.118  1.00  0.00     0.049 A 
ATOM     41  N   UNL     1       8.604   7.593   8.016  1.00  0.00    -0.248 NA
ATOM     42  C   UNL     1       9.079   6.615   5.950  1.00  0.00     0.031 C 
ATOM     43  C   UNL     1       4.346   8.107   6.743  1.00  0.00     0.029 A 
ATOM     44  N   UNL     1       5.812   8.450   8.394  1.00  0.00    -0.354 N 
ATOM     45  C   UNL     1       9.936   7.194   7.996  1.00  0.00     0.074 A 
ATOM     46  C   UNL     1      10.155   6.543   6.720  1.00  0.00     0.031 C 
ATOM     47  C   UNL     1       3.683   8.692   7.753  1.00  0.00     0.029 A 
ATOM     48  C   UNL     1       4.606   8.921   8.860  1.00  0.00     0.049 A 
ATOM     49  H   UNL     1       6.639   8.469   8.928  1.00  0.00     0.167 HD
ATOM     50  C   UNL     1      10.892   7.373   8.944  1.00  0.00     0.034 A 
ATOM     51  C   UNL     1       4.278   9.476  10.043  1.00  0.00     0.034 A 
ATOM     52  C   UNL     1      10.655   8.023  10.212  1.00  0.00     0.049 A 
ATOM     53  C   UNL     1       5.357   9.675  11.074  1.00  0.00     0.074 A 
ATOM     54  C   UNL     1      11.556   8.286  11.231  1.00  0.00     0.029 A 
ATOM     55  N   UNL     1       9.425   8.509  10.641  1.00  0.00    -0.354 N 
ATOM     56  N   UNL     1       6.626   9.341  11.017  1.00  0.00    -0.248 NA
ATOM     57  C   UNL     1       4.964  10.345  12.319  1.00  0.00     0.031 C 
ATOM     58  C   UNL     1      10.861   8.878  12.293  1.00  0.00     0.029 A 
ATOM     59  C   UNL     1       9.540   9.050  11.914  1.00  0.00     0.049 A 
ATOM     60  H   UNL     1       8.593   8.474  10.117  1.00  0.00     0.167 HD
ATOM     61  C   UNL     1       7.187   9.786  12.210  1.00  0.00     0.074 A 
ATOM     62  C   UNL     1       6.123  10.430  12.954  1.00  0.00     0.031 C 
ATOM     63  C   UNL     1       8.467   9.676  12.650  1.00  0.00     0.034 A 
BRANCH  50  64
ATOM     64  C   UNL     1      12.270   6.829   8.645  1.00  0.00     0.023 A 
ATOM     65  C   UNL     1      13.035   7.315   7.569  1.00  0.00     0.031 A 
ATOM     66  C   UNL     1      12.811   5.787   9.417  1.00  0.00     0.131 A 
ATOM     67  C   UNL     1      14.257   6.705   7.245  1.00  0.00     0.055 A 
ATOM     68  C   UNL     1      14.066   5.239   9.140  1.00  0.00     0.041 A 
ATOM     69  F   UNL     1      12.121   5.268  10.445  1.00  0.00    -0.206 F 
ATOM     70  C   UNL     1      14.790   5.686   8.038  1.00  0.00     0.022 A 
BRANCH  67  71
ATOM     71  S   UNL     1      15.066   7.162   5.687  1.00  0.00     0.124 S 
ATOM     72  O   UNL     1      14.037   6.816   4.709  1.00  0.00    -0.237 OA
ATOM     73  O   UNL     1      15.322   8.586   5.870  1.00  0.00    -0.237 OA
ATOM     74  O   UNL     1      16.255   6.313   5.657  1.00  0.00    -0.744 OA
ENDBRANCH  67  71
ENDBRANCH  50  64
BRANCH  51  75
ATOM     75  C   UNL     1       2.874   9.893  10.317  1.00  0.00     0.023 A 
ATOM     76  C   UNL     1       2.540  11.245  10.486  1.00  0.00     0.031 A 
ATOM     77  C   UNL     1       1.850   8.938  10.449  1.00  0.00     0.131 A 
ATOM     78  C   UNL     1       1.226  11.605  10.823  1.00  0.00     0.055 A 
ATOM     79  C   UNL     1       0.534   9.304  10.736  1.00  0.00     0.041 A 
ATOM     80  F   UNL     1       2.114   7.632  10.286  1.00  0.00    -0.206 F 
ATOM     81  C   UNL     1       0.218  10.644  10.938  1.00  0.00     0.022 A 
BRANCH  78  82
ATOM     82  S   UNL     1       0.867  13.346  11.184  1.00  0.00     0.124 S 
ATOM     83  O   UNL     1       1.793  13.621  12.276  1.00  0.00    -0.237 OA
ATOM     84  O   UNL     1       1.169  13.987   9.909  1.00  0.00    -0.237 OA
ATOM     85  O   UNL     1      -0.547  13.332  11.552  1.00  0.00    -0.744 OA
ENDBRANCH  78  82
ENDBRANCH  51  75
BRANCH  63  86
ATOM     86  C   UNL     1       8.780  10.307  13.985  1.00  0.00     0.023 A 
ATOM     87  C   UNL     1       8.227   9.819  15.182  1.00  0.00     0.031 A 
ATOM     88  C   UNL     1       9.611  11.439  14.053  1.00  0.00     0.131 A 
ATOM     89  C   UNL     1       8.456  10.501  16.386  1.00  0.00     0.055 A 
ATOM     90  C   UNL     1       9.884  12.078  15.263  1.00  0.00     0.041 A 
ATOM     91  F   UNL     1      10.165  11.949  12.941  1.00  0.00    -0.206 F 
ATOM     92  C   UNL     1       9.292  11.620  16.436  1.00  0.00     0.022 A 
BRANCH  89  93
ATOM     93  S   UNL     1       7.554   9.974  17.870  1.00  0.00     0.124 S 
ATOM     94  O   UNL     1       6.166  10.056  17.428  1.00  0.00    -0.237 OA
ATOM     95  O   UNL     1       8.075   8.628  18.087  1.00  0.00    -0.237 OA
ATOM     96  O   UNL     1       7.944  10.959  18.877  1.00  0.00    -0.744 OA
ENDBRANCH  89  93
ENDBRANCH  63  86
ENDBRANCH  37  38
ENDBRANCH  29  32
ENDBRANCH  27  28
ENDBRANCH  26  27
ENDBRANCH   1  26
TORSDOF 17
