REMARK SMILES Cc1cnn(C2(C(=O)NCCCNC(=O)c3ccc(-c4c5nc(c(-c6cc(S(=O)(=O)[O-])ccc6F)c6ccc([nH]6)c(-c6cc(S(=O)(=O)[O-])ccc6F)c6nc(c(-c7cc(S(=O)(=O)[O-])ccc7F)c7ccc4[nH]7)C=C6)C=C5)cc3)CCN(C(=O)c3cc4ccccc4[nH]3)CC2)c1
REMARK SMILES IDX 12 1 11 2 10 3 9 4 7 5 8 6 6 8 79 9 94 10 80 11 93 12 81 13
REMARK SMILES IDX 82 14 83 15 5 16 1 17 2 18 3 19 95 20 4 21 84 22 85 23 92 24
REMARK SMILES IDX 86 25 91 26 87 28 90 29 88 30 89 31 13 32 14 33 15 35 16 36
REMARK SMILES IDX 17 37 78 38 18 39 77 40 19 41 20 42 21 43 71 44 22 45 76 46
REMARK SMILES IDX 70 47 72 48 23 49 75 50 69 51 68 52 24 54 56 55 36 56 55 57
REMARK SMILES IDX 37 58 40 59 54 60 73 61 38 62 39 63 53 65 74 66 41 67 25 68
REMARK SMILES IDX 26 69 34 70 27 71 33 72 35 73 32 74 28 75 29 76 30 77 31 78
REMARK SMILES IDX 57 79 58 80 66 81 59 82 65 83 67 84 64 85 60 86 61 87 62 88
REMARK SMILES IDX 63 89 42 90 43 91 51 92 44 93 50 94 52 95 49 96 45 97 46 98
REMARK SMILES IDX 47 99 48 100
REMARK H PARENT 9 7 92 27 13 34 72 53 40 64
REMARK Flexibility Score: inf
ROOT
ATOM      1  C   UNL     1       1.061   7.790  -6.175  1.00  0.00     0.118 C 
ENDROOT
BRANCH   1   2
ATOM      2  C   UNL     1       1.363   7.303  -4.773  1.00  0.00     0.042 C 
BRANCH   2   3
ATOM      3  C   UNL     1       0.156   6.649  -4.097  1.00  0.00     0.117 C 
BRANCH   3   4
ATOM      4  N   UNL     1      -0.222   5.349  -4.655  1.00  0.00    -0.354 N 
ATOM      5  C   UNL     1      -0.257   4.070  -4.132  1.00  0.00     0.248 C 
ATOM      6  O   UNL     1      -0.743   3.235  -4.894  1.00  0.00    -0.272 OA
ATOM      7  H   UNL     1      -0.509   5.396  -5.596  1.00  0.00     0.163 HD
BRANCH   5   8
ATOM      8  C   UNL     1       0.275   3.777  -2.690  1.00  0.00     0.144 C 
ATOM      9  C   UNL     1       1.778   4.162  -2.706  1.00  0.00     0.062 C 
ATOM     10  C   UNL     1      -0.638   4.572  -1.719  1.00  0.00     0.062 C 
ATOM     11  C   UNL     1       2.317   4.706  -1.398  1.00  0.00     0.123 C 
ATOM     12  C   UNL     1       0.052   5.130  -0.481  1.00  0.00     0.123 C 
ATOM     13  N   UNL     1       1.394   5.630  -0.761  1.00  0.00    -0.337 N 
ATOM     14  C   UNL     1       1.853   6.904  -0.427  1.00  0.00     0.270 C 
ATOM     15  O   UNL     1       2.878   7.372  -0.915  1.00  0.00    -0.267 OA
BRANCH   8  16
ATOM     16  N   UNL     1       0.213   2.345  -2.244  1.00  0.00    -0.257 N 
ATOM     17  C   UNL     1       0.823  -0.435   0.063  1.00  0.00     0.048 C 
ATOM     18  C   UNL     1       0.470   0.504  -1.022  1.00  0.00    -0.013 A 
ATOM     19  C   UNL     1      -0.074   0.240  -2.292  1.00  0.00     0.138 A 
ATOM     20  C   UNL     1       0.619   1.870  -1.014  1.00  0.00     0.113 A 
ATOM     21  N   UNL     1      -0.234   1.346  -3.019  1.00  0.00    -0.180 NA
ENDBRANCH   8  16
BRANCH  14  22
ATOM     22  C   UNL     1       1.055   7.681   0.488  1.00  0.00     0.105 A 
ATOM     23  C   UNL     1       0.576   7.379   1.751  1.00  0.00     0.042 A 
ATOM     24  N   UNL     1       0.691   8.979   0.225  1.00  0.00    -0.351 N 
ATOM     25  C   UNL     1      -0.152   8.501   2.229  1.00  0.00     0.000 A 
ATOM     26  C   UNL     1      -0.101   9.474   1.232  1.00  0.00     0.046 A 
ATOM     27  H   UNL     1       0.961   9.485  -0.576  1.00  0.00     0.167 HD
ATOM     28  C   UNL     1      -0.852   8.783   3.417  1.00  0.00     0.010 A 
ATOM     29  C   UNL     1      -0.754  10.705   1.341  1.00  0.00     0.026 A 
ATOM     30  C   UNL     1      -1.494  10.019   3.552  1.00  0.00     0.001 A 
ATOM     31  C   UNL     1      -1.455  10.959   2.524  1.00  0.00     0.002 A 
ENDBRANCH  14  22
ENDBRANCH   5   8
ENDBRANCH   3   4
ENDBRANCH   2   3
ENDBRANCH   1   2
BRANCH   1  32
ATOM     32  N   UNL     1       0.145   8.933  -6.212  1.00  0.00    -0.352 N 
ATOM     33  C   UNL     1      -0.270   9.634  -7.333  1.00  0.00     0.251 C 
ATOM     34  H   UNL     1      -0.215   9.235  -5.347  1.00  0.00     0.163 HD
ATOM     35  O   UNL     1      -0.728  10.769  -7.220  1.00  0.00    -0.269 OA
BRANCH  33  36
ATOM     36  C   UNL     1      -0.132   8.986  -8.650  1.00  0.00     0.039 A 
ATOM     37  C   UNL     1       0.316   9.673  -9.778  1.00  0.00     0.014 A 
ATOM     38  C   UNL     1      -0.393   7.620  -8.711  1.00  0.00     0.014 A 
ATOM     39  C   UNL     1       0.588   8.942 -10.935  1.00  0.00     0.010 A 
ATOM     40  C   UNL     1       0.073   6.883  -9.765  1.00  0.00     0.010 A 
ATOM     41  C   UNL     1       0.495   7.537 -10.910  1.00  0.00    -0.014 A 
BRANCH  41  42
ATOM     42  C   UNL     1       0.933   6.717 -12.033  1.00  0.00     0.031 A 
ATOM     43  C   UNL     1       2.297   7.036 -12.515  1.00  0.00     0.074 A 
ATOM     44  C   UNL     1       0.260   5.643 -12.505  1.00  0.00     0.049 A 
ATOM     45  N   UNL     1       2.599   7.785 -13.521  1.00  0.00    -0.248 NA
ATOM     46  C   UNL     1       3.454   6.661 -11.689  1.00  0.00     0.031 C 
ATOM     47  C   UNL     1      -0.954   5.009 -11.978  1.00  0.00     0.029 A 
ATOM     48  N   UNL     1       0.580   4.836 -13.554  1.00  0.00    -0.354 N 
ATOM     49  C   UNL     1       3.981   7.739 -13.629  1.00  0.00     0.074 A 
ATOM     50  C   UNL     1       4.449   7.250 -12.359  1.00  0.00     0.031 C 
ATOM     51  C   UNL     1      -1.148   3.812 -12.579  1.00  0.00     0.029 A 
ATOM     52  C   UNL     1      -0.190   3.679 -13.661  1.00  0.00     0.049 A 
ATOM     53  H   UNL     1       1.300   5.053 -14.189  1.00  0.00     0.167 HD
ATOM     54  C   UNL     1       4.581   7.857 -14.847  1.00  0.00     0.034 A 
ATOM     55  C   UNL     1      -0.080   2.696 -14.595  1.00  0.00     0.034 A 
ATOM     56  C   UNL     1       3.627   8.318 -15.840  1.00  0.00     0.049 A 
ATOM     57  C   UNL     1       0.568   3.319 -15.775  1.00  0.00     0.074 A 
ATOM     58  C   UNL     1       2.825   9.437 -15.971  1.00  0.00     0.029 A 
ATOM     59  N   UNL     1       3.079   7.375 -16.684  1.00  0.00    -0.354 N 
ATOM     60  N   UNL     1       0.003   4.263 -16.477  1.00  0.00    -0.248 NA
ATOM     61  C   UNL     1       2.019   3.263 -15.871  1.00  0.00     0.031 C 
ATOM     62  C   UNL     1       1.583   8.941 -16.470  1.00  0.00     0.029 A 
ATOM     63  C   UNL     1       1.719   7.571 -16.710  1.00  0.00     0.049 A 
ATOM     64  H   UNL     1       3.575   6.684 -17.181  1.00  0.00     0.167 HD
ATOM     65  C   UNL     1       1.014   5.178 -16.726  1.00  0.00     0.074 A 
ATOM     66  C   UNL     1       2.251   4.460 -16.421  1.00  0.00     0.031 C 
ATOM     67  C   UNL     1       0.742   6.509 -16.885  1.00  0.00     0.034 A 
BRANCH  54  68
ATOM     68  C   UNL     1       5.882   7.199 -15.252  1.00  0.00     0.023 A 
ATOM     69  C   UNL     1       6.314   7.414 -16.576  1.00  0.00     0.031 A 
ATOM     70  C   UNL     1       6.553   6.174 -14.550  1.00  0.00     0.131 A 
ATOM     71  C   UNL     1       7.255   6.563 -17.179  1.00  0.00     0.055 A 
ATOM     72  C   UNL     1       7.539   5.372 -15.135  1.00  0.00     0.041 A 
ATOM     73  F   UNL     1       6.244   5.824 -13.298  1.00  0.00    -0.206 F 
ATOM     74  C   UNL     1       7.869   5.538 -16.468  1.00  0.00     0.022 A 
BRANCH  71  75
ATOM     75  S   UNL     1       7.514   6.709 -18.965  1.00  0.00     0.124 S 
ATOM     76  O   UNL     1       6.155   6.548 -19.470  1.00  0.00    -0.237 OA
ATOM     77  O   UNL     1       8.090   8.045 -19.076  1.00  0.00    -0.237 OA
ATOM     78  O   UNL     1       8.427   5.609 -19.264  1.00  0.00    -0.744 OA
ENDBRANCH  71  75
ENDBRANCH  54  68
BRANCH  55  79
ATOM     79  C   UNL     1      -0.179   1.224 -14.388  1.00  0.00     0.023 A 
ATOM     80  C   UNL     1      -0.404   0.305 -15.438  1.00  0.00     0.031 A 
ATOM     81  C   UNL     1       0.220   0.680 -13.146  1.00  0.00     0.131 A 
ATOM     82  C   UNL     1      -0.218  -1.084 -15.224  1.00  0.00     0.055 A 
ATOM     83  C   UNL     1       0.407  -0.689 -12.943  1.00  0.00     0.041 A 
ATOM     84  F   UNL     1       0.530   1.476 -12.111  1.00  0.00    -0.206 F 
ATOM     85  C   UNL     1       0.199  -1.578 -13.986  1.00  0.00     0.022 A 
BRANCH  82  86
ATOM     86  S   UNL     1      -0.436  -2.278 -16.589  1.00  0.00     0.124 S 
ATOM     87  O   UNL     1      -1.865  -2.185 -16.861  1.00  0.00    -0.237 OA
ATOM     88  O   UNL     1       0.456  -1.750 -17.614  1.00  0.00    -0.237 OA
ATOM     89  O   UNL     1      -0.006  -3.550 -16.004  1.00  0.00    -0.744 OA
ENDBRANCH  82  86
ENDBRANCH  55  79
BRANCH  67  90
ATOM     90  C   UNL     1      -0.705   6.928 -17.082  1.00  0.00     0.023 A 
ATOM     91  C   UNL     1      -1.763   6.683 -16.174  1.00  0.00     0.031 A 
ATOM     92  C   UNL     1      -0.992   7.713 -18.213  1.00  0.00     0.131 A 
ATOM     93  C   UNL     1      -3.047   7.210 -16.426  1.00  0.00     0.055 A 
ATOM     94  C   UNL     1      -2.256   8.252 -18.447  1.00  0.00     0.041 A 
ATOM     95  F   UNL     1      -0.028   8.001 -19.104  1.00  0.00    -0.206 F 
ATOM     96  C   UNL     1      -3.291   7.998 -17.556  1.00  0.00     0.022 A 
BRANCH  93  97
ATOM     97  S   UNL     1      -4.441   6.869 -15.298  1.00  0.00     0.124 S 
ATOM     98  O   UNL     1      -4.380   5.425 -15.107  1.00  0.00    -0.237 OA
ATOM     99  O   UNL     1      -4.112   7.683 -14.131  1.00  0.00    -0.237 OA
ATOM    100  O   UNL     1      -5.609   7.334 -16.049  1.00  0.00    -0.744 OA
ENDBRANCH  93  97
ENDBRANCH  67  90
ENDBRANCH  41  42
ENDBRANCH  33  36
ENDBRANCH   1  32
TORSDOF 15
