REMARK SMILES CC[C@H](C)[C@H](NC(=O)[C@H](C(C)C)n1c(=O)[nH]c2ccccc2c1=O)C(=O)NCCCNC(=O)c1ccc(-c2c3nc(c(-c4cc(S(=O)(=O)[O-])ccc4F)c4ccc([nH]4)c(-c4cc(S(=O)(=O)[O-])ccc4F)c4nc(c(-c5cc(S(=O)(=O)[O-])ccc5F)c5ccc2[nH]5)C=C4)C=C3)cc1
REMARK SMILES IDX 29 1 28 2 27 3 25 4 26 5 5 7 3 8 4 9 2 10 1 11 6 12 7 13
REMARK SMILES IDX 8 15 9 16 13 17 14 18 23 19 15 20 16 21 22 22 24 23 17 24
REMARK SMILES IDX 21 26 18 27 20 28 19 29 10 30 11 31 12 32 30 33 31 34 32 35
REMARK SMILES IDX 33 37 34 38 35 39 96 40 36 41 95 42 37 43 38 44 39 45 89 46
REMARK SMILES IDX 40 47 94 48 88 49 90 50 41 51 93 52 87 53 86 54 42 56 74 57
REMARK SMILES IDX 54 58 73 59 55 60 58 61 72 62 91 63 56 64 57 65 71 67 92 68
REMARK SMILES IDX 59 69 43 70 44 71 52 72 45 73 51 74 53 75 50 76 46 77 47 78
REMARK SMILES IDX 48 79 49 80 75 81 76 82 84 83 77 84 83 85 85 86 82 87 78 88
REMARK SMILES IDX 79 89 80 90 81 91 60 92 61 93 69 94 62 95 68 96 70 97 67 98
REMARK SMILES IDX 63 99 64 100 65 101 66 102
REMARK H PARENT 27 6 6 14 16 25 31 36 90 55 58 66
REMARK Flexibility Score: inf
ROOT
ATOM      1  C   UNL     1       0.436   6.962   4.277  1.00  0.00     0.042 C 
ENDROOT
BRANCH   1   2
ATOM      2  C   UNL     1       1.635   6.036   4.455  1.00  0.00     0.117 C 
BRANCH   2   3
ATOM      3  N   UNL     1       1.398   4.598   4.644  1.00  0.00    -0.354 N 
ATOM      4  C   UNL     1       1.710   3.443   3.988  1.00  0.00     0.242 C 
ATOM      5  O   UNL     1       2.202   2.587   4.747  1.00  0.00    -0.273 OA
ATOM      6  H   UNL     1       0.875   4.421   5.460  1.00  0.00     0.163 HD
BRANCH   4   7
ATOM      7  C   UNL     1       1.667   3.111   2.447  1.00  0.00     0.174 C 
BRANCH   7   8
ATOM      8  C   UNL     1       3.018   3.536   1.752  1.00  0.00     0.018 C 
ATOM      9  C   UNL     1       3.277   2.804   0.426  1.00  0.00     0.010 C 
BRANCH   8  10
ATOM     10  C   UNL     1       3.128   5.061   1.612  1.00  0.00     0.002 C 
ATOM     11  C   UNL     1       4.062   5.645   0.570  1.00  0.00     0.004 C 
ENDBRANCH   8  10
ENDBRANCH   7   8
BRANCH   7  12
ATOM     12  N   UNL     1       0.497   3.414   1.577  1.00  0.00    -0.342 N 
ATOM     13  C   UNL     1      -0.599   2.618   1.361  1.00  0.00     0.244 C 
ATOM     14  H   UNL     1       0.512   4.279   1.106  1.00  0.00     0.164 HD
ATOM     15  O   UNL     1      -0.659   2.107   0.231  1.00  0.00    -0.273 OA
BRANCH  13  16
ATOM     16  C   UNL     1      -1.793   2.402   2.347  1.00  0.00     0.187 C 
BRANCH  16  17
ATOM     17  N   UNL     1      -1.997   0.978   2.612  1.00  0.00    -0.247 N 
ATOM     18  C   UNL     1      -3.102   0.343   2.062  1.00  0.00     0.329 A 
ATOM     19  C   UNL     1      -1.028   0.325   3.353  1.00  0.00     0.264 A 
ATOM     20  O   UNL     1      -4.022   0.913   1.480  1.00  0.00    -0.248 OA
ATOM     21  N   UNL     1      -3.158  -1.016   2.194  1.00  0.00    -0.307 N 
ATOM     22  C   UNL     1      -1.159  -1.125   3.517  1.00  0.00     0.064 A 
ATOM     23  O   UNL     1      -0.045   0.885   3.836  1.00  0.00    -0.268 OA
ATOM     24  C   UNL     1      -2.209  -1.769   2.876  1.00  0.00     0.055 A 
ATOM     25  H   UNL     1      -3.915  -1.491   1.782  1.00  0.00     0.171 HD
ATOM     26  C   UNL     1      -0.213  -1.851   4.245  1.00  0.00     0.016 A 
ATOM     27  C   UNL     1      -2.301  -3.158   2.916  1.00  0.00     0.027 A 
ATOM     28  C   UNL     1      -0.302  -3.240   4.288  1.00  0.00     0.001 A 
ATOM     29  C   UNL     1      -1.336  -3.892   3.612  1.00  0.00     0.002 A 
ENDBRANCH  16  17
BRANCH  16  30
ATOM     30  C   UNL     1      -2.173   3.374   3.479  1.00  0.00     0.016 C 
ATOM     31  C   UNL     1      -1.835   2.992   4.920  1.00  0.00     0.010 C 
ATOM     32  C   UNL     1      -1.678   4.760   3.142  1.00  0.00     0.010 C 
ENDBRANCH  16  30
ENDBRANCH  13  16
ENDBRANCH   7  12
ENDBRANCH   4   7
ENDBRANCH   2   3
ENDBRANCH   1   2
BRANCH   1  33
ATOM     33  C   UNL     1      -0.618   6.884   5.377  1.00  0.00     0.118 C 
BRANCH  33  34
ATOM     34  N   UNL     1      -0.373   7.804   6.469  1.00  0.00    -0.352 N 
ATOM     35  C   UNL     1      -1.125   8.893   6.854  1.00  0.00     0.251 C 
ATOM     36  H   UNL     1       0.433   7.628   7.006  1.00  0.00     0.163 HD
ATOM     37  O   UNL     1      -0.648   9.697   7.651  1.00  0.00    -0.269 OA
BRANCH  35  38
ATOM     38  C   UNL     1      -2.486   9.116   6.298  1.00  0.00     0.039 A 
ATOM     39  C   UNL     1      -3.431   8.086   6.235  1.00  0.00     0.014 A 
ATOM     40  C   UNL     1      -2.839  10.401   5.876  1.00  0.00     0.014 A 
ATOM     41  C   UNL     1      -4.685   8.319   5.660  1.00  0.00     0.010 A 
ATOM     42  C   UNL     1      -4.119  10.646   5.363  1.00  0.00     0.010 A 
ATOM     43  C   UNL     1      -5.051   9.604   5.226  1.00  0.00    -0.014 A 
BRANCH  43  44
ATOM     44  C   UNL     1      -6.411   9.868   4.668  1.00  0.00     0.031 A 
ATOM     45  C   UNL     1      -6.582  10.353   3.250  1.00  0.00     0.074 A 
ATOM     46  C   UNL     1      -7.499   9.688   5.444  1.00  0.00     0.049 A 
ATOM     47  N   UNL     1      -7.676  10.693   2.619  1.00  0.00    -0.248 NA
ATOM     48  C   UNL     1      -5.361  10.481   2.438  1.00  0.00     0.031 C 
ATOM     49  C   UNL     1      -7.466   9.222   6.831  1.00  0.00     0.029 A 
ATOM     50  N   UNL     1      -8.838   9.869   5.189  1.00  0.00    -0.354 N 
ATOM     51  C   UNL     1      -7.279  11.087   1.344  1.00  0.00     0.074 A 
ATOM     52  C   UNL     1      -5.837  10.988   1.308  1.00  0.00     0.031 C 
ATOM     53  C   UNL     1      -8.721   9.118   7.291  1.00  0.00     0.029 A 
ATOM     54  C   UNL     1      -9.650   9.582   6.264  1.00  0.00     0.049 A 
ATOM     55  H   UNL     1      -9.184  10.175   4.319  1.00  0.00     0.167 HD
ATOM     56  C   UNL     1      -8.048  11.476   0.297  1.00  0.00     0.034 A 
ATOM     57  C   UNL     1     -10.987   9.697   6.421  1.00  0.00     0.034 A 
ATOM     58  C   UNL     1      -9.488  11.554   0.347  1.00  0.00     0.049 A 
ATOM     59  C   UNL     1     -11.817  10.183   5.259  1.00  0.00     0.074 A 
ATOM     60  C   UNL     1     -10.358  11.910  -0.669  1.00  0.00     0.029 A 
ATOM     61  N   UNL     1     -10.271  11.272   1.458  1.00  0.00    -0.354 N 
ATOM     62  N   UNL     1     -11.429  10.501   4.046  1.00  0.00    -0.248 NA
ATOM     63  C   UNL     1     -13.263  10.323   5.477  1.00  0.00     0.031 C 
ATOM     64  C   UNL     1     -11.654  11.918  -0.154  1.00  0.00     0.029 A 
ATOM     65  C   UNL     1     -11.609  11.477   1.159  1.00  0.00     0.049 A 
ATOM     66  H   UNL     1      -9.926  10.971   2.329  1.00  0.00     0.167 HD
ATOM     67  C   UNL     1     -12.584  10.849   3.351  1.00  0.00     0.074 A 
ATOM     68  C   UNL     1     -13.688  10.678   4.271  1.00  0.00     0.031 C 
ATOM     69  C   UNL     1     -12.713  11.279   2.070  1.00  0.00     0.034 A 
BRANCH  56  70
ATOM     70  C   UNL     1      -7.377  11.835  -1.011  1.00  0.00     0.023 A 
ATOM     71  C   UNL     1      -7.538  13.123  -1.558  1.00  0.00     0.031 A 
ATOM     72  C   UNL     1      -6.706  10.869  -1.782  1.00  0.00     0.131 A 
ATOM     73  C   UNL     1      -7.073  13.396  -2.852  1.00  0.00     0.055 A 
ATOM     74  C   UNL     1      -6.199  11.161  -3.050  1.00  0.00     0.041 A 
ATOM     75  F   UNL     1      -6.530   9.623  -1.313  1.00  0.00    -0.206 F 
ATOM     76  C   UNL     1      -6.395  12.426  -3.596  1.00  0.00     0.022 A 
BRANCH  73  77
ATOM     77  S   UNL     1      -7.399  14.992  -3.652  1.00  0.00     0.124 S 
ATOM     78  O   UNL     1      -6.046  15.471  -3.926  1.00  0.00    -0.237 OA
ATOM     79  O   UNL     1      -8.169  14.592  -4.827  1.00  0.00    -0.237 OA
ATOM     80  O   UNL     1      -8.132  15.748  -2.643  1.00  0.00    -0.744 OA
ENDBRANCH  73  77
ENDBRANCH  56  70
BRANCH  57  81
ATOM     81  C   UNL     1     -11.608   9.302   7.723  1.00  0.00     0.023 A 
ATOM     82  C   UNL     1     -11.236   9.930   8.927  1.00  0.00     0.031 A 
ATOM     83  C   UNL     1     -12.505   8.223   7.796  1.00  0.00     0.131 A 
ATOM     84  C   UNL     1     -11.692   9.422  10.151  1.00  0.00     0.055 A 
ATOM     85  C   UNL     1     -13.023   7.774   9.012  1.00  0.00     0.041 A 
ATOM     86  F   UNL     1     -12.885   7.582   6.679  1.00  0.00    -0.206 F 
ATOM     87  C   UNL     1     -12.600   8.361  10.200  1.00  0.00     0.022 A 
BRANCH  84  88
ATOM     88  S   UNL     1     -11.008  10.025  11.720  1.00  0.00     0.124 S 
ATOM     89  O   UNL     1     -12.197  10.529  12.399  1.00  0.00    -0.237 OA
ATOM     90  O   UNL     1     -10.430   8.805  12.280  1.00  0.00    -0.237 OA
ATOM     91  O   UNL     1     -10.039  11.035  11.308  1.00  0.00    -0.744 OA
ENDBRANCH  84  88
ENDBRANCH  57  81
BRANCH  69  92
ATOM     92  C   UNL     1     -14.095  11.587   1.538  1.00  0.00     0.023 A 
ATOM     93  C   UNL     1     -14.592  10.878   0.426  1.00  0.00     0.031 A 
ATOM     94  C   UNL     1     -14.839  12.682   2.012  1.00  0.00     0.131 A 
ATOM     95  C   UNL     1     -15.763  11.307  -0.210  1.00  0.00     0.055 A 
ATOM     96  C   UNL     1     -16.039  13.068   1.411  1.00  0.00     0.041 A 
ATOM     97  F   UNL     1     -14.405  13.399   3.061  1.00  0.00    -0.206 F 
ATOM     98  C   UNL     1     -16.496  12.391   0.284  1.00  0.00     0.022 A 
BRANCH  95  99
ATOM     99  S   UNL     1     -16.319  10.547  -1.761  1.00  0.00     0.124 S 
ATOM    100  O   UNL     1     -17.651  10.065  -1.401  1.00  0.00    -0.237 OA
ATOM    101  O   UNL     1     -16.294  11.679  -2.683  1.00  0.00    -0.237 OA
ATOM    102  O   UNL     1     -15.331   9.505  -2.017  1.00  0.00    -0.744 OA
ENDBRANCH  95  99
ENDBRANCH  69  92
ENDBRANCH  43  44
ENDBRANCH  35  38
ENDBRANCH  33  34
ENDBRANCH   1  33
TORSDOF 19
