REMARK SMILES COCC[C@]1(C(=O)NCCCNC(=O)c2ccc(-c3c4nc(c(-c5cc(S(=O)(=O)[O-])ccc5F)c5ccc([nH]5)c(-c5cc(S(=O)(=O)[O-])ccc5F)c5nc(c(-c6cc(S(=O)(=O)[O-])ccc6F)c6ccc3[nH]6)C=C5)C=C4)cc2)CCC[N@@H+](Cc2ccc(C(F)(F)F)nc2)C1
REMARK SMILES IDX 10 1 9 2 8 3 6 4 7 5 5 7 78 8 93 9 79 10 81 11 80 12 4 14
REMARK SMILES IDX 3 15 2 16 1 17 82 18 83 19 84 20 92 21 85 22 91 23 86 24
REMARK SMILES IDX 87 25 88 26 89 27 90 28 11 29 12 30 13 31 14 33 15 34 16 35
REMARK SMILES IDX 77 36 17 37 76 38 18 39 19 40 20 41 70 42 21 43 75 44 69 45
REMARK SMILES IDX 71 46 22 47 74 48 68 49 67 50 23 52 55 53 35 54 54 55 36 56
REMARK SMILES IDX 39 57 53 58 72 59 37 60 38 61 52 63 73 64 40 65 24 66 25 67
REMARK SMILES IDX 33 68 26 69 32 70 34 71 31 72 27 73 28 74 29 75 30 76 56 77
REMARK SMILES IDX 57 78 65 79 58 80 64 81 66 82 63 83 59 84 60 85 61 86 62 87
REMARK SMILES IDX 41 88 42 89 50 90 43 91 49 92 51 93 48 94 44 95 45 96 46 97
REMARK SMILES IDX 47 98
REMARK H PARENT 8 6 81 13 12 32 71 51 39 62
REMARK Flexibility Score: inf
ROOT
ATOM      1  C   UNL     1       1.264  -5.374  -0.761  1.00  0.00     0.042 C 
ENDROOT
BRANCH   1   2
ATOM      2  C   UNL     1       1.706  -3.939  -0.544  1.00  0.00     0.117 C 
BRANCH   2   3
ATOM      3  N   UNL     1       0.576  -3.029  -0.415  1.00  0.00    -0.355 N 
ATOM      4  C   UNL     1       0.143  -2.207   0.579  1.00  0.00     0.232 C 
ATOM      5  O   UNL     1      -0.985  -1.736   0.405  1.00  0.00    -0.274 OA
ATOM      6  H   UNL     1       0.005  -3.003  -1.217  1.00  0.00     0.163 HD
BRANCH   4   7
ATOM      7  C   UNL     1       0.967  -1.918   1.853  1.00  0.00     0.100 C 
ATOM      8  C   UNL     1       0.931  -3.212   2.713  1.00  0.00     0.029 C 
ATOM      9  C   UNL     1       2.420  -1.532   1.508  1.00  0.00     0.279 C 
ATOM     10  C   UNL     1       1.992  -3.239   3.813  1.00  0.00     0.063 C 
ATOM     11  N   UNL     1       3.334  -1.513   2.658  1.00  0.00    -0.330 N 
ATOM     12  C   UNL     1       3.375  -2.834   3.302  1.00  0.00     0.262 C 
ATOM     13  H   UNL     1       2.971  -0.852   3.345  1.00  0.00     0.348 HD
BRANCH   7  14
ATOM     14  C   UNL     1       0.289  -0.763   2.669  1.00  0.00     0.051 C 
BRANCH  14  15
ATOM     15  C   UNL     1       0.528   0.686   2.210  1.00  0.00     0.161 C 
BRANCH  15  16
ATOM     16  O   UNL     1      -0.115   1.032   0.990  1.00  0.00    -0.385 OA
ATOM     17  C   UNL     1       0.724   1.062  -0.153  1.00  0.00     0.194 C 
ENDBRANCH  15  16
ENDBRANCH  14  15
ENDBRANCH   7  14
BRANCH  11  18
ATOM     18  C   UNL     1       4.677  -1.009   2.291  1.00  0.00     0.300 C 
BRANCH  18  19
ATOM     19  C   UNL     1       5.449  -1.831   1.284  1.00  0.00     0.025 A 
ATOM     20  C   UNL     1       5.188  -1.769  -0.088  1.00  0.00     0.013 A 
ATOM     21  C   UNL     1       6.409  -2.743   1.700  1.00  0.00     0.121 A 
ATOM     22  C   UNL     1       5.798  -2.669  -0.958  1.00  0.00     0.034 A 
ATOM     23  N   UNL     1       7.043  -3.607   0.876  1.00  0.00    -0.251 NA
ATOM     24  C   UNL     1       6.706  -3.596  -0.447  1.00  0.00     0.144 A 
BRANCH  24  25
ATOM     25  C   UNL     1       7.338  -4.623  -1.379  1.00  0.00     0.433 C 
ATOM     26  F   UNL     1       8.643  -4.347  -1.662  1.00  0.00    -0.165 F 
ATOM     27  F   UNL     1       7.316  -5.891  -0.878  1.00  0.00    -0.165 F 
ATOM     28  F   UNL     1       6.711  -4.699  -2.591  1.00  0.00    -0.165 F 
ENDBRANCH  24  25
ENDBRANCH  18  19
ENDBRANCH  11  18
ENDBRANCH   4   7
ENDBRANCH   2   3
ENDBRANCH   1   2
BRANCH   1  29
ATOM     29  C   UNL     1       0.494  -5.590  -2.052  1.00  0.00     0.118 C 
BRANCH  29  30
ATOM     30  N   UNL     1       1.313  -5.369  -3.235  1.00  0.00    -0.352 N 
ATOM     31  C   UNL     1       1.776  -6.271  -4.166  1.00  0.00     0.251 C 
ATOM     32  H   UNL     1       1.575  -4.433  -3.394  1.00  0.00     0.163 HD
ATOM     33  O   UNL     1       2.631  -5.921  -4.969  1.00  0.00    -0.269 OA
BRANCH  31  34
ATOM     34  C   UNL     1       1.259  -7.659  -4.167  1.00  0.00     0.039 A 
ATOM     35  C   UNL     1       2.146  -8.719  -4.364  1.00  0.00     0.014 A 
ATOM     36  C   UNL     1      -0.098  -7.914  -3.960  1.00  0.00     0.014 A 
ATOM     37  C   UNL     1       1.681 -10.034  -4.273  1.00  0.00     0.010 A 
ATOM     38  C   UNL     1      -0.535  -9.217  -3.755  1.00  0.00     0.010 A 
ATOM     39  C   UNL     1       0.346 -10.294  -3.922  1.00  0.00    -0.014 A 
BRANCH  39  40
ATOM     40  C   UNL     1      -0.160 -11.682  -3.749  1.00  0.00     0.031 A 
ATOM     41  C   UNL     1      -1.283 -12.184  -4.618  1.00  0.00     0.074 A 
ATOM     42  C   UNL     1       0.345 -12.465  -2.774  1.00  0.00     0.049 A 
ATOM     43  N   UNL     1      -1.923 -13.324  -4.569  1.00  0.00    -0.248 NA
ATOM     44  C   UNL     1      -1.776 -11.266  -5.657  1.00  0.00     0.031 C 
ATOM     45  C   UNL     1       1.407 -12.077  -1.841  1.00  0.00     0.029 A 
ATOM     46  N   UNL     1       0.031 -13.747  -2.398  1.00  0.00    -0.354 N 
ATOM     47  C   UNL     1      -2.898 -13.254  -5.558  1.00  0.00     0.074 A 
ATOM     48  C   UNL     1      -2.814 -11.932  -6.138  1.00  0.00     0.031 C 
ATOM     49  C   UNL     1       1.678 -13.109  -1.027  1.00  0.00     0.029 A 
ATOM     50  C   UNL     1       0.775 -14.213  -1.337  1.00  0.00     0.049 A 
ATOM     51  H   UNL     1      -0.662 -14.284  -2.845  1.00  0.00     0.167 HD
ATOM     52  C   UNL     1      -3.765 -14.214  -5.966  1.00  0.00     0.034 A 
ATOM     53  C   UNL     1       0.725 -15.389  -0.679  1.00  0.00     0.034 A 
ATOM     54  C   UNL     1      -3.826 -15.533  -5.386  1.00  0.00     0.049 A 
ATOM     55  C   UNL     1      -0.274 -16.428  -1.127  1.00  0.00     0.074 A 
ATOM     56  C   UNL     1      -4.627 -16.599  -5.755  1.00  0.00     0.029 A 
ATOM     57  N   UNL     1      -3.062 -15.965  -4.309  1.00  0.00    -0.354 N 
ATOM     58  N   UNL     1      -1.155 -16.364  -2.100  1.00  0.00    -0.248 NA
ATOM     59  C   UNL     1      -0.278 -17.701  -0.396  1.00  0.00     0.031 C 
ATOM     60  C   UNL     1      -4.405 -17.646  -4.854  1.00  0.00     0.029 A 
ATOM     61  C   UNL     1      -3.399 -17.268  -3.979  1.00  0.00     0.049 A 
ATOM     62  H   UNL     1      -2.380 -15.425  -3.848  1.00  0.00     0.167 HD
ATOM     63  C   UNL     1      -1.791 -17.602  -2.117  1.00  0.00     0.074 A 
ATOM     64  C   UNL     1      -1.181 -18.396  -1.071  1.00  0.00     0.031 C 
ATOM     65  C   UNL     1      -2.787 -18.046  -2.927  1.00  0.00     0.034 A 
BRANCH  52  66
ATOM     66  C   UNL     1      -4.727 -13.859  -7.076  1.00  0.00     0.023 A 
ATOM     67  C   UNL     1      -4.277 -13.500  -8.359  1.00  0.00     0.031 A 
ATOM     68  C   UNL     1      -6.114 -13.859  -6.844  1.00  0.00     0.131 A 
ATOM     69  C   UNL     1      -5.195 -13.082  -9.334  1.00  0.00     0.055 A 
ATOM     70  C   UNL     1      -7.029 -13.527  -7.846  1.00  0.00     0.041 A 
ATOM     71  F   UNL     1      -6.606 -14.170  -5.634  1.00  0.00    -0.206 F 
ATOM     72  C   UNL     1      -6.570 -13.120  -9.096  1.00  0.00     0.022 A 
BRANCH  69  73
ATOM     73  S   UNL     1      -4.557 -12.344 -10.863  1.00  0.00     0.124 S 
ATOM     74  O   UNL     1      -3.784 -11.217 -10.345  1.00  0.00    -0.237 OA
ATOM     75  O   UNL     1      -3.785 -13.436 -11.443  1.00  0.00    -0.237 OA
ATOM     76  O   UNL     1      -5.766 -11.975 -11.596  1.00  0.00    -0.744 OA
ENDBRANCH  69  73
ENDBRANCH  52  66
BRANCH  53  77
ATOM     77  C   UNL     1       1.631 -15.653   0.477  1.00  0.00     0.023 A 
ATOM     78  C   UNL     1       2.572 -16.694   0.437  1.00  0.00     0.031 A 
ATOM     79  C   UNL     1       1.531 -14.903   1.664  1.00  0.00     0.131 A 
ATOM     80  C   UNL     1       3.335 -16.994   1.576  1.00  0.00     0.055 A 
ATOM     81  C   UNL     1       2.337 -15.165   2.773  1.00  0.00     0.041 A 
ATOM     82  F   UNL     1       0.650 -13.895   1.759  1.00  0.00    -0.206 F 
ATOM     83  C   UNL     1       3.235 -16.227   2.739  1.00  0.00     0.022 A 
BRANCH  80  84
ATOM     84  S   UNL     1       4.385 -18.473   1.553  1.00  0.00     0.124 S 
ATOM     85  O   UNL     1       3.414 -19.520   1.253  1.00  0.00    -0.237 OA
ATOM     86  O   UNL     1       5.333 -18.154   0.491  1.00  0.00    -0.237 OA
ATOM     87  O   UNL     1       4.949 -18.511   2.900  1.00  0.00    -0.744 OA
ENDBRANCH  80  84
ENDBRANCH  53  77
BRANCH  65  88
ATOM     88  C   UNL     1      -3.240 -19.475  -2.742  1.00  0.00     0.023 A 
ATOM     89  C   UNL     1      -3.874 -19.907  -1.565  1.00  0.00     0.031 A 
ATOM     90  C   UNL     1      -3.026 -20.420  -3.763  1.00  0.00     0.131 A 
ATOM     91  C   UNL     1      -4.217 -21.259  -1.412  1.00  0.00     0.055 A 
ATOM     92  C   UNL     1      -3.433 -21.748  -3.633  1.00  0.00     0.041 A 
ATOM     93  F   UNL     1      -2.422 -20.064  -4.908  1.00  0.00    -0.206 F 
ATOM     94  C   UNL     1      -4.020 -22.177  -2.446  1.00  0.00     0.022 A 
BRANCH  91  95
ATOM     95  S   UNL     1      -4.833 -21.824   0.198  1.00  0.00     0.124 S 
ATOM     96  O   UNL     1      -3.737 -21.453   1.088  1.00  0.00    -0.237 OA
ATOM     97  O   UNL     1      -6.064 -21.057   0.348  1.00  0.00    -0.237 OA
ATOM     98  O   UNL     1      -5.018 -23.262   0.009  1.00  0.00    -0.744 OA
ENDBRANCH  91  95
ENDBRANCH  65  88
ENDBRANCH  39  40
ENDBRANCH  31  34
ENDBRANCH  29  30
ENDBRANCH   1  29
TORSDOF 19
