REMARK SMILES O=C(NCCCNC(=O)[C@H]1[C@H]2CC[C@H](C2)[C@@H]1C(=O)Nc1sc2c(c1C(=O)NC1CCCCC1)CCCC2)c1ccc(-c2c3nc(c(-c4cc(S(=O)(=O)[O-])ccc4F)c4ccc([nH]4)c(-c4cc(S(=O)(=O)[O-])ccc4F)c4nc(c(-c5cc(S(=O)(=O)[O-])ccc5F)c5ccc2[nH]5)C=C4)C=C3)cc1
REMARK SMILES IDX 5 1 4 2 3 3 1 4 2 5 38 7 39 8 100 9 40 10 99 11 41 12 42 13
REMARK SMILES IDX 43 14 93 15 44 16 98 17 92 18 94 19 45 20 97 21 91 22 90 23
REMARK SMILES IDX 46 25 78 26 58 27 77 28 59 29 62 30 76 31 95 32 60 33 61 34
REMARK SMILES IDX 75 36 96 37 63 38 47 39 48 40 56 41 49 42 55 43 57 44 54 45
REMARK SMILES IDX 50 46 51 47 52 48 53 49 79 50 80 51 88 52 81 53 87 54 89 55
REMARK SMILES IDX 86 56 82 57 83 58 84 59 85 60 64 61 65 62 73 63 66 64 72 65
REMARK SMILES IDX 74 66 71 67 67 68 68 69 69 70 70 71 6 72 7 73 8 74 9 76
REMARK SMILES IDX 10 77 11 78 16 79 12 80 15 81 14 82 13 83 17 84 18 85 19 86
REMARK SMILES IDX 20 88 21 89 24 90 22 91 23 92 37 93 34 94 36 95 35 96 25 97
REMARK SMILES IDX 26 98 27 99 28 101 29 102 33 103 30 104 32 105 31 106
REMARK H PARENT 3 6 94 24 62 35 7 75 19 87 27 100
REMARK Flexibility Score: inf
ROOT
ATOM      1  C   UNL     1       7.926   9.238  -2.865  1.00  0.00     0.042 C 
ENDROOT
BRANCH   1   2
ATOM      2  C   UNL     1       9.400   9.564  -2.973  1.00  0.00     0.118 C 
BRANCH   2   3
ATOM      3  N   UNL     1       9.756  10.199  -4.237  1.00  0.00    -0.352 N 
ATOM      4  O   UNL     1      10.169  11.876  -5.685  1.00  0.00    -0.269 OA
ATOM      5  C   UNL     1      10.065  11.512  -4.516  1.00  0.00     0.251 C 
ATOM      6  H   UNL     1       9.778   9.594  -5.013  1.00  0.00     0.163 HD
BRANCH   5   7
ATOM      7  C   UNL     1      10.244  12.484  -3.414  1.00  0.00     0.039 A 
ATOM      8  C   UNL     1      10.896  12.104  -2.244  1.00  0.00     0.014 A 
ATOM      9  C   UNL     1       9.758  13.789  -3.544  1.00  0.00     0.014 A 
ATOM     10  C   UNL     1      10.861  12.931  -1.134  1.00  0.00     0.010 A 
ATOM     11  C   UNL     1       9.867  14.682  -2.470  1.00  0.00     0.010 A 
ATOM     12  C   UNL     1      10.390  14.248  -1.243  1.00  0.00    -0.014 A 
BRANCH  12  13
ATOM     13  C   UNL     1      10.560  15.150  -0.074  1.00  0.00     0.031 A 
ATOM     14  C   UNL     1       9.382  15.775   0.618  1.00  0.00     0.074 A 
ATOM     15  C   UNL     1      11.811  15.338   0.397  1.00  0.00     0.049 A 
ATOM     16  N   UNL     1       9.366  16.551   1.671  1.00  0.00    -0.248 NA
ATOM     17  C   UNL     1       8.051  15.504   0.055  1.00  0.00     0.031 C 
ATOM     18  C   UNL     1      13.027  14.777  -0.205  1.00  0.00     0.029 A 
ATOM     19  N   UNL     1      12.273  16.006   1.500  1.00  0.00    -0.354 N 
ATOM     20  C   UNL     1       8.033  16.878   1.889  1.00  0.00     0.074 A 
ATOM     21  C   UNL     1       7.270  16.237   0.838  1.00  0.00     0.031 C 
ATOM     22  C   UNL     1      14.078  15.056   0.577  1.00  0.00     0.029 A 
ATOM     23  C   UNL     1      13.634  15.900   1.675  1.00  0.00     0.049 A 
ATOM     24  H   UNL     1      11.688  16.514   2.108  1.00  0.00     0.167 HD
ATOM     25  C   UNL     1       7.500  17.640   2.879  1.00  0.00     0.034 A 
ATOM     26  C   UNL     1      14.445  16.446   2.600  1.00  0.00     0.034 A 
ATOM     27  C   UNL     1       8.285  18.267   3.918  1.00  0.00     0.049 A 
ATOM     28  C   UNL     1      13.829  17.314   3.660  1.00  0.00     0.074 A 
ATOM     29  C   UNL     1       7.850  19.050   4.974  1.00  0.00     0.029 A 
ATOM     30  N   UNL     1       9.668  18.188   4.032  1.00  0.00    -0.354 N 
ATOM     31  N   UNL     1      12.564  17.614   3.846  1.00  0.00    -0.248 NA
ATOM     32  C   UNL     1      14.746  17.919   4.630  1.00  0.00     0.031 C 
ATOM     33  C   UNL     1       8.971  19.495   5.685  1.00  0.00     0.029 A 
ATOM     34  C   UNL     1      10.103  18.930   5.121  1.00  0.00     0.049 A 
ATOM     35  H   UNL     1      10.255  17.678   3.427  1.00  0.00     0.167 HD
ATOM     36  C   UNL     1      12.535  18.438   4.965  1.00  0.00     0.074 A 
ATOM     37  C   UNL     1      13.903  18.553   5.430  1.00  0.00     0.031 C 
ATOM     38  C   UNL     1      11.476  19.052   5.552  1.00  0.00     0.034 A 
BRANCH  25  39
ATOM     39  C   UNL     1       6.008  17.875   2.856  1.00  0.00     0.023 A 
ATOM     40  C   UNL     1       5.086  16.831   3.050  1.00  0.00     0.031 A 
ATOM     41  C   UNL     1       5.499  19.169   2.638  1.00  0.00     0.131 A 
ATOM     42  C   UNL     1       3.708  17.088   2.968  1.00  0.00     0.055 A 
ATOM     43  C   UNL     1       4.128  19.430   2.628  1.00  0.00     0.041 A 
ATOM     44  F   UNL     1       6.329  20.202   2.425  1.00  0.00    -0.206 F 
ATOM     45  C   UNL     1       3.222  18.385   2.783  1.00  0.00     0.022 A 
BRANCH  42  46
ATOM     46  S   UNL     1       2.558  15.685   2.993  1.00  0.00     0.124 S 
ATOM     47  O   UNL     1       2.997  14.918   1.829  1.00  0.00    -0.237 OA
ATOM     48  O   UNL     1       2.823  15.079   4.292  1.00  0.00    -0.237 OA
ATOM     49  O   UNL     1       1.245  16.313   2.854  1.00  0.00    -0.744 OA
ENDBRANCH  42  46
ENDBRANCH  25  39
BRANCH  26  50
ATOM     50  C   UNL     1      15.919  16.233   2.531  1.00  0.00     0.023 A 
ATOM     51  C   UNL     1      16.612  15.602   3.574  1.00  0.00     0.031 A 
ATOM     52  C   UNL     1      16.664  16.695   1.429  1.00  0.00     0.131 A 
ATOM     53  C   UNL     1      18.010  15.491   3.517  1.00  0.00     0.055 A 
ATOM     54  C   UNL     1      18.046  16.524   1.347  1.00  0.00     0.041 A 
ATOM     55  F   UNL     1      16.052  17.305   0.402  1.00  0.00    -0.206 F 
ATOM     56  C   UNL     1      18.730  15.932   2.403  1.00  0.00     0.022 A 
BRANCH  53  57
ATOM     57  S   UNL     1      18.889  14.854   4.969  1.00  0.00     0.124 S 
ATOM     58  O   UNL     1      18.410  15.744   6.021  1.00  0.00    -0.237 OA
ATOM     59  O   UNL     1      18.413  13.476   5.028  1.00  0.00    -0.237 OA
ATOM     60  O   UNL     1      20.297  15.011   4.610  1.00  0.00    -0.744 OA
ENDBRANCH  53  57
ENDBRANCH  26  50
BRANCH  38  61
ATOM     61  C   UNL     1      11.779  19.879   6.776  1.00  0.00     0.023 A 
ATOM     62  C   UNL     1      12.552  21.051   6.696  1.00  0.00     0.031 A 
ATOM     63  C   UNL     1      11.333  19.463   8.042  1.00  0.00     0.131 A 
ATOM     64  C   UNL     1      12.918  21.727   7.868  1.00  0.00     0.055 A 
ATOM     65  C   UNL     1      11.645  20.177   9.199  1.00  0.00     0.041 A 
ATOM     66  F   UNL     1      10.594  18.350   8.175  1.00  0.00    -0.206 F 
ATOM     67  C   UNL     1      12.457  21.306   9.118  1.00  0.00     0.022 A 
BRANCH  64  68
ATOM     68  S   UNL     1      14.100  23.097   7.747  1.00  0.00     0.124 S 
ATOM     69  O   UNL     1      15.253  22.449   7.130  1.00  0.00    -0.237 OA
ATOM     70  O   UNL     1      13.383  24.054   6.912  1.00  0.00    -0.237 OA
ATOM     71  O   UNL     1      14.290  23.508   9.137  1.00  0.00    -0.744 OA
ENDBRANCH  64  68
ENDBRANCH  38  61
ENDBRANCH  12  13
ENDBRANCH   5   7
ENDBRANCH   2   3
ENDBRANCH   1   2
BRANCH   1  72
ATOM     72  C   UNL     1       7.475   8.104  -3.757  1.00  0.00     0.117 C 
BRANCH  72  73
ATOM     73  N   UNL     1       8.102   6.833  -3.455  1.00  0.00    -0.356 N 
ATOM     74  C   UNL     1       7.584   5.575  -3.454  1.00  0.00     0.224 C 
ATOM     75  H   UNL     1       9.054   6.889  -3.212  1.00  0.00     0.163 HD
ATOM     76  O   UNL     1       8.366   4.657  -3.205  1.00  0.00    -0.275 OA
BRANCH  74  77
ATOM     77  C   UNL     1       6.090   5.331  -3.667  1.00  0.00     0.094 C 
ATOM     78  C   UNL     1       5.454   6.099  -4.865  1.00  0.00     0.002 C 
ATOM     79  C   UNL     1       5.801   3.847  -4.060  1.00  0.00     0.094 C 
ATOM     80  C   UNL     1       6.168   5.819  -6.189  1.00  0.00     0.005 C 
ATOM     81  C   UNL     1       4.171   5.328  -5.056  1.00  0.00     0.009 C 
ATOM     82  C   UNL     1       4.872   3.993  -5.282  1.00  0.00     0.002 C 
ATOM     83  C   UNL     1       5.747   4.375  -6.501  1.00  0.00     0.005 C 
BRANCH  79  84
ATOM     84  C   UNL     1       5.439   2.852  -2.935  1.00  0.00     0.229 C 
ATOM     85  O   UNL     1       6.191   1.878  -2.765  1.00  0.00    -0.274 OA
ATOM     86  N   UNL     1       4.436   2.980  -2.027  1.00  0.00    -0.317 N 
ATOM     87  H   UNL     1       4.576   2.469  -1.197  1.00  0.00     0.170 HD
BRANCH  86  88
ATOM     88  C   UNL     1       3.263   3.692  -2.058  1.00  0.00     0.108 A 
ATOM     89  S   UNL     1       2.214   3.406  -3.366  1.00  0.00    -0.122 S 
ATOM     90  C   UNL     1       2.613   4.367  -1.011  1.00  0.00     0.078 A 
ATOM     91  C   UNL     1       1.390   4.835  -2.984  1.00  0.00     0.011 A 
ATOM     92  C   UNL     1       1.552   5.180  -1.646  1.00  0.00    -0.019 A 
ATOM     93  C   UNL     1       0.599   5.582  -4.017  1.00  0.00     0.047 C 
ATOM     94  C   UNL     1       0.726   6.328  -1.125  1.00  0.00     0.037 C 
ATOM     95  C   UNL     1       0.303   6.998  -3.516  1.00  0.00     0.006 C 
ATOM     96  C   UNL     1      -0.290   6.914  -2.114  1.00  0.00     0.005 C 
BRANCH  90  97
ATOM     97  C   UNL     1       3.190   4.179   0.355  1.00  0.00     0.254 C 
ATOM     98  O   UNL     1       3.951   3.223   0.564  1.00  0.00    -0.269 OA
ATOM     99  N   UNL     1       2.987   4.950   1.470  1.00  0.00    -0.349 N 
ATOM    100  H   UNL     1       3.522   4.668   2.247  1.00  0.00     0.164 HD
BRANCH  99 101
ATOM    101  C   UNL     1       2.151   6.086   1.730  1.00  0.00     0.082 C 
ATOM    102  C   UNL     1       0.910   5.713   2.540  1.00  0.00     0.025 C 
ATOM    103  C   UNL     1       2.866   7.277   2.357  1.00  0.00     0.025 C 
ATOM    104  C   UNL     1      -0.069   6.885   2.591  1.00  0.00     0.002 C 
ATOM    105  C   UNL     1       1.918   8.480   2.308  1.00  0.00     0.002 C 
ATOM    106  C   UNL     1       0.593   8.197   3.019  1.00  0.00     0.000 C 
ENDBRANCH  99 101
ENDBRANCH  90  97
ENDBRANCH  86  88
ENDBRANCH  79  84
ENDBRANCH  74  77
ENDBRANCH  72  73
ENDBRANCH   1  72
TORSDOF 17
