REMARK SMILES CCc1ccc(C(=O)NCCCNC(=O)c2ccc(-c3c4nc(c(-c5cc(S(=O)(=O)[O-])ccc5F)c5ccc([nH]5)c(-c5cc(S(=O)(=O)[O-])ccc5F)c5nc(c(-c6cc(S(=O)(=O)[O-])ccc6F)c6ccc3[nH]6)C=C5)C=C4)cc2)cc1S(=O)(=O)C(CC)CC
REMARK SMILES IDX 11 1 10 2 9 3 7 4 8 5 6 7 3 8 4 9 80 10 5 11 79 12 2 13 1 14
REMARK SMILES IDX 81 15 82 16 83 17 84 18 85 19 86 20 87 21 88 22 12 23 13 24
REMARK SMILES IDX 14 25 15 27 16 28 17 29 78 30 18 31 77 32 19 33 20 34 21 35
REMARK SMILES IDX 71 36 22 37 76 38 70 39 72 40 23 41 75 42 69 43 68 44 24 46
REMARK SMILES IDX 56 47 36 48 55 49 37 50 40 51 54 52 73 53 38 54 39 55 53 57
REMARK SMILES IDX 74 58 41 59 25 60 26 61 34 62 27 63 33 64 35 65 32 66 28 67
REMARK SMILES IDX 29 68 30 69 31 70 57 71 58 72 66 73 59 74 65 75 67 76 64 77
REMARK SMILES IDX 60 78 61 79 62 80 63 81 42 82 43 83 51 84 44 85 50 86 52 87
REMARK SMILES IDX 49 88 45 89 46 90 47 91 48 92
REMARK H PARENT 9 6 13 26 72 45 40 56
REMARK Flexibility Score: inf
ROOT
ATOM      1  C   UNL     1       1.488   6.698  -4.684  1.00  0.00     0.042 C 
ENDROOT
BRANCH   1   2
ATOM      2  C   UNL     1       0.762   5.514  -5.325  1.00  0.00     0.118 C 
BRANCH   2   3
ATOM      3  N   UNL     1       1.700   4.544  -5.861  1.00  0.00    -0.352 N 
ATOM      4  C   UNL     1       2.226   3.372  -5.385  1.00  0.00     0.251 C 
ATOM      5  O   UNL     1       2.984   2.757  -6.139  1.00  0.00    -0.269 OA
ATOM      6  H   UNL     1       2.029   4.778  -6.759  1.00  0.00     0.163 HD
BRANCH   4   7
ATOM      7  C   UNL     1       1.922   2.783  -4.049  1.00  0.00     0.041 A 
ATOM      8  C   UNL     1       1.474   1.501  -1.519  1.00  0.00    -0.030 A 
ATOM      9  C   UNL     1       2.058   0.828  -2.613  1.00  0.00     0.006 A 
ATOM     10  C   UNL     1       1.054   2.823  -1.738  1.00  0.00     0.071 A 
ATOM     11  C   UNL     1       2.252   1.444  -3.854  1.00  0.00     0.014 A 
ATOM     12  C   UNL     1       1.362   3.458  -2.971  1.00  0.00     0.034 A 
BRANCH   8  13
ATOM     13  C   UNL     1       1.448   0.820  -0.181  1.00  0.00     0.033 C 
ATOM     14  C   UNL     1       1.730  -0.679  -0.117  1.00  0.00     0.009 C 
ENDBRANCH   8  13
BRANCH  10  15
ATOM     15  S   UNL     1       0.080   3.915  -0.696  1.00  0.00     0.181 S 
ATOM     16  O   UNL     1       1.018   4.942  -0.280  1.00  0.00    -0.223 OA
ATOM     17  O   UNL     1      -1.020   4.314  -1.566  1.00  0.00    -0.223 OA
BRANCH  15  18
ATOM     18  C   UNL     1      -0.713   3.276   0.749  1.00  0.00     0.113 C 
BRANCH  18  19
ATOM     19  C   UNL     1      -1.971   2.396   0.522  1.00  0.00     0.017 C 
ATOM     20  C   UNL     1      -1.984   1.327  -0.562  1.00  0.00     0.005 C 
ENDBRANCH  18  19
BRANCH  18  21
ATOM     21  C   UNL     1       0.117   2.897   1.990  1.00  0.00     0.017 C 
ATOM     22  C   UNL     1       1.223   3.871   2.375  1.00  0.00     0.005 C 
ENDBRANCH  18  21
ENDBRANCH  15  18
ENDBRANCH  10  15
ENDBRANCH   4   7
ENDBRANCH   2   3
ENDBRANCH   1   2
BRANCH   1  23
ATOM     23  C   UNL     1       2.125   7.641  -5.705  1.00  0.00     0.118 C 
BRANCH  23  24
ATOM     24  N   UNL     1       1.123   8.328  -6.507  1.00  0.00    -0.352 N 
ATOM     25  C   UNL     1       0.942   9.668  -6.734  1.00  0.00     0.251 C 
ATOM     26  H   UNL     1       0.473   7.739  -6.955  1.00  0.00     0.163 HD
ATOM     27  O   UNL     1      -0.108  10.049  -7.247  1.00  0.00    -0.269 OA
BRANCH  25  28
ATOM     28  C   UNL     1       1.987  10.648  -6.367  1.00  0.00     0.039 A 
ATOM     29  C   UNL     1       1.595  11.879  -5.830  1.00  0.00     0.014 A 
ATOM     30  C   UNL     1       3.340  10.390  -6.606  1.00  0.00     0.014 A 
ATOM     31  C   UNL     1       2.559  12.833  -5.499  1.00  0.00     0.010 A 
ATOM     32  C   UNL     1       4.305  11.318  -6.217  1.00  0.00     0.010 A 
ATOM     33  C   UNL     1       3.924  12.553  -5.671  1.00  0.00    -0.014 A 
BRANCH  33  34
ATOM     34  C   UNL     1       4.965  13.550  -5.308  1.00  0.00     0.031 A 
ATOM     35  C   UNL     1       5.832  14.154  -6.380  1.00  0.00     0.074 A 
ATOM     36  C   UNL     1       5.164  13.866  -4.014  1.00  0.00     0.049 A 
ATOM     37  N   UNL     1       6.849  14.969  -6.263  1.00  0.00    -0.248 NA
ATOM     38  C   UNL     1       5.530  13.765  -7.766  1.00  0.00     0.031 C 
ATOM     39  C   UNL     1       4.405  13.320  -2.886  1.00  0.00     0.029 A 
ATOM     40  N   UNL     1       6.070  14.711  -3.425  1.00  0.00    -0.354 N 
ATOM     41  C   UNL     1       7.320  15.177  -7.555  1.00  0.00     0.074 A 
ATOM     42  C   UNL     1       6.510  14.358  -8.432  1.00  0.00     0.031 C 
ATOM     43  C   UNL     1       4.866  13.858  -1.745  1.00  0.00     0.029 A 
ATOM     44  C   UNL     1       5.980  14.749  -2.053  1.00  0.00     0.049 A 
ATOM     45  H   UNL     1       6.723  15.241  -3.936  1.00  0.00     0.167 HD
ATOM     46  C   UNL     1       8.322  15.991  -7.972  1.00  0.00     0.034 A 
ATOM     47  C   UNL     1       6.721  15.415  -1.145  1.00  0.00     0.034 A 
ATOM     48  C   UNL     1       9.109  16.811  -7.083  1.00  0.00     0.049 A 
ATOM     49  C   UNL     1       7.840  16.302  -1.631  1.00  0.00     0.074 A 
ATOM     50  C   UNL     1      10.115  17.708  -7.399  1.00  0.00     0.029 A 
ATOM     51  N   UNL     1       8.982  16.833  -5.699  1.00  0.00    -0.354 N 
ATOM     52  N   UNL     1       8.247  16.519  -2.860  1.00  0.00    -0.248 NA
ATOM     53  C   UNL     1       8.589  17.042  -0.608  1.00  0.00     0.031 C 
ATOM     54  C   UNL     1      10.636  18.223  -6.206  1.00  0.00     0.029 A 
ATOM     55  C   UNL     1       9.907  17.706  -5.148  1.00  0.00     0.049 A 
ATOM     56  H   UNL     1       8.329  16.304  -5.185  1.00  0.00     0.167 HD
ATOM     57  C   UNL     1       9.279  17.448  -2.758  1.00  0.00     0.074 A 
ATOM     58  C   UNL     1       9.421  17.757  -1.350  1.00  0.00     0.031 C 
ATOM     59  C   UNL     1      10.039  17.999  -3.740  1.00  0.00     0.034 A 
BRANCH  46  60
ATOM     60  C   UNL     1       8.637  16.006  -9.450  1.00  0.00     0.023 A 
ATOM     61  C   UNL     1       7.698  16.441 -10.402  1.00  0.00     0.031 A 
ATOM     62  C   UNL     1       9.884  15.555  -9.918  1.00  0.00     0.131 A 
ATOM     63  C   UNL     1       7.989  16.343 -11.771  1.00  0.00     0.055 A 
ATOM     64  C   UNL     1      10.199  15.537 -11.279  1.00  0.00     0.041 A 
ATOM     65  F   UNL     1      10.816  15.109  -9.060  1.00  0.00    -0.206 F 
ATOM     66  C   UNL     1       9.243  15.918 -12.216  1.00  0.00     0.022 A 
BRANCH  63  67
ATOM     67  S   UNL     1       6.657  16.643 -12.965  1.00  0.00     0.124 S 
ATOM     68  O   UNL     1       5.679  15.630 -12.575  1.00  0.00    -0.237 OA
ATOM     69  O   UNL     1       6.289  18.026 -12.687  1.00  0.00    -0.237 OA
ATOM     70  O   UNL     1       7.297  16.415 -14.259  1.00  0.00    -0.744 OA
ENDBRANCH  63  67
ENDBRANCH  46  60
BRANCH  47  71
ATOM     71  C   UNL     1       6.443  15.268   0.313  1.00  0.00     0.023 A 
ATOM     72  C   UNL     1       6.004  16.359   1.079  1.00  0.00     0.031 A 
ATOM     73  C   UNL     1       6.652  14.042   0.970  1.00  0.00     0.131 A 
ATOM     74  C   UNL     1       5.834  16.217   2.465  1.00  0.00     0.055 A 
ATOM     75  C   UNL     1       6.430  13.892   2.340  1.00  0.00     0.041 A 
ATOM     76  F   UNL     1       7.066  12.965   0.283  1.00  0.00    -0.206 F 
ATOM     77  C   UNL     1       6.032  14.988   3.099  1.00  0.00     0.022 A 
BRANCH  74  78
ATOM     78  S   UNL     1       5.436  17.691   3.446  1.00  0.00     0.124 S 
ATOM     79  O   UNL     1       6.551  18.574   3.123  1.00  0.00    -0.237 OA
ATOM     80  O   UNL     1       4.136  18.073   2.903  1.00  0.00    -0.237 OA
ATOM     81  O   UNL     1       5.413  17.190   4.818  1.00  0.00    -0.744 OA
ENDBRANCH  74  78
ENDBRANCH  47  71
BRANCH  59  82
ATOM     82  C   UNL     1      11.053  19.034  -3.319  1.00  0.00     0.023 A 
ATOM     83  C   UNL     1      12.176  18.700  -2.542  1.00  0.00     0.031 A 
ATOM     84  C   UNL     1      10.883  20.379  -3.693  1.00  0.00     0.131 A 
ATOM     85  C   UNL     1      13.056  19.707  -2.117  1.00  0.00     0.055 A 
ATOM     86  C   UNL     1      11.793  21.367  -3.317  1.00  0.00     0.041 A 
ATOM     87  F   UNL     1       9.826  20.754  -4.432  1.00  0.00    -0.206 F 
ATOM     88  C   UNL     1      12.880  21.035  -2.514  1.00  0.00     0.022 A 
BRANCH  85  89
ATOM     89  S   UNL     1      14.385  19.273  -0.963  1.00  0.00     0.124 S 
ATOM     90  O   UNL     1      13.640  18.726   0.167  1.00  0.00    -0.237 OA
ATOM     91  O   UNL     1      15.168  18.313  -1.734  1.00  0.00    -0.237 OA
ATOM     92  O   UNL     1      15.049  20.550  -0.707  1.00  0.00    -0.744 OA
ENDBRANCH  85  89
ENDBRANCH  59  82
ENDBRANCH  33  34
ENDBRANCH  25  28
ENDBRANCH  23  24
ENDBRANCH   1  23
TORSDOF 18
