REMARK SMILES N#Cc1cc2c(nc1N(CC(=O)NCCCNC(=O)c1ccc(-c3c4nc(c(-c5cc(S(=O)(=O)[O-])ccc5F)c5ccc([nH]5)c(-c5cc(S(=O)(=O)[O-])ccc5F)c5nc(c(-c6cc(S(=O)(=O)[O-])ccc6F)c6ccc3[nH]6)C=C5)C=C4)cc1)CC(F)(F)F)CCC2
REMARK SMILES IDX 15 1 14 2 13 3 11 4 12 5 10 7 9 8 8 9 3 10 4 11 5 12 7 13
REMARK SMILES IDX 6 14 90 15 88 16 89 17 2 18 1 19 83 20 84 21 85 22 86 23
REMARK SMILES IDX 87 24 16 25 17 26 18 27 19 29 20 30 21 31 82 32 22 33 81 34
REMARK SMILES IDX 23 35 24 36 25 37 75 38 26 39 80 40 74 41 76 42 27 43 79 44
REMARK SMILES IDX 73 45 72 46 28 48 60 49 40 50 59 51 41 52 44 53 58 54 77 55
REMARK SMILES IDX 42 56 43 57 57 59 78 60 45 61 29 62 30 63 38 64 31 65 37 66
REMARK SMILES IDX 39 67 36 68 32 69 33 70 34 71 35 72 61 73 62 74 70 75 63 76
REMARK SMILES IDX 69 77 71 78 68 79 64 80 65 81 66 82 67 83 46 84 47 85 55 86
REMARK SMILES IDX 48 87 54 88 56 89 53 90 49 91 50 92 51 93 52 94
REMARK H PARENT 13 6 17 28 76 47 44 58
REMARK Flexibility Score: inf
ROOT
ATOM      1  C   UNL     1       4.461  -1.865   3.516  1.00  0.00     0.042 C 
ENDROOT
BRANCH   1   2
ATOM      2  C   UNL     1       5.336  -2.886   2.799  1.00  0.00     0.117 C 
BRANCH   2   3
ATOM      3  N   UNL     1       4.588  -4.048   2.355  1.00  0.00    -0.354 N 
ATOM      4  C   UNL     1       4.137  -4.351   1.103  1.00  0.00     0.239 C 
ATOM      5  O   UNL     1       3.482  -5.386   0.948  1.00  0.00    -0.273 OA
ATOM      6  H   UNL     1       4.375  -4.709   3.054  1.00  0.00     0.163 HD
BRANCH   4   7
ATOM      7  C   UNL     1       4.435  -3.422  -0.080  1.00  0.00     0.218 C 
BRANCH   7   8
ATOM      8  N   UNL     1       3.589  -2.200  -0.085  1.00  0.00    -0.337 N 
BRANCH   8   9
ATOM      9  C   UNL     1       4.223  -0.968  -0.146  1.00  0.00     0.147 A 
ATOM     10  C   UNL     1       3.610   0.303  -0.262  1.00  0.00     0.095 A 
ATOM     11  C   UNL     1       4.377   1.485  -0.168  1.00  0.00     0.029 A 
ATOM     12  C   UNL     1       5.740   1.378  -0.045  1.00  0.00    -0.025 A 
ATOM     13  N   UNL     1       5.584  -1.022  -0.065  1.00  0.00    -0.234 NA
ATOM     14  C   UNL     1       6.293   0.119  -0.028  1.00  0.00     0.046 A 
ATOM     15  C   UNL     1       6.780   2.434   0.105  1.00  0.00     0.038 C 
ATOM     16  C   UNL     1       7.790   0.188   0.085  1.00  0.00     0.057 C 
ATOM     17  C   UNL     1       8.043   1.655  -0.295  1.00  0.00     0.011 C 
BRANCH  10  18
ATOM     18  C   UNL     1       2.221   0.503  -0.546  1.00  0.00     0.103 C 
ATOM     19  N   UNL     1       1.107   0.664  -0.817  1.00  0.00    -0.192 NA
ENDBRANCH  10  18
ENDBRANCH   8   9
BRANCH   8  20
ATOM     20  C   UNL     1       2.118  -2.445  -0.072  1.00  0.00     0.234 C 
BRANCH  20  21
ATOM     21  C   UNL     1       1.374  -2.167   1.250  1.00  0.00     0.405 C 
ATOM     22  F   UNL     1       1.641  -0.940   1.748  1.00  0.00    -0.169 F 
ATOM     23  F   UNL     1       0.036  -2.251   1.066  1.00  0.00    -0.169 F 
ATOM     24  F   UNL     1       1.702  -3.065   2.207  1.00  0.00    -0.169 F 
ENDBRANCH  20  21
ENDBRANCH   8  20
ENDBRANCH   7   8
ENDBRANCH   4   7
ENDBRANCH   2   3
ENDBRANCH   1   2
BRANCH   1  25
ATOM     25  C   UNL     1       3.868  -2.384   4.822  1.00  0.00     0.118 C 
BRANCH  25  26
ATOM     26  N   UNL     1       4.894  -2.584   5.838  1.00  0.00    -0.352 N 
ATOM     27  C   UNL     1       5.078  -1.932   7.032  1.00  0.00     0.251 C 
ATOM     28  H   UNL     1       5.551  -3.291   5.639  1.00  0.00     0.163 HD
ATOM     29  O   UNL     1       6.146  -2.049   7.626  1.00  0.00    -0.269 OA
BRANCH  27  30
ATOM     30  C   UNL     1       4.002  -1.083   7.585  1.00  0.00     0.039 A 
ATOM     31  C   UNL     1       4.331   0.160   8.132  1.00  0.00     0.014 A 
ATOM     32  C   UNL     1       2.672  -1.516   7.579  1.00  0.00     0.014 A 
ATOM     33  C   UNL     1       3.318   0.992   8.612  1.00  0.00     0.010 A 
ATOM     34  C   UNL     1       1.657  -0.654   7.988  1.00  0.00     0.010 A 
ATOM     35  C   UNL     1       1.969   0.609   8.511  1.00  0.00    -0.014 A 
BRANCH  35  36
ATOM     36  C   UNL     1       0.881   1.520   8.957  1.00  0.00     0.031 A 
ATOM     37  C   UNL     1      -0.001   1.132  10.113  1.00  0.00     0.074 A 
ATOM     38  C   UNL     1       0.686   2.691   8.316  1.00  0.00     0.049 A 
ATOM     39  N   UNL     1      -1.013   1.782  10.628  1.00  0.00    -0.248 NA
ATOM     40  C   UNL     1       0.280  -0.155  10.773  1.00  0.00     0.031 C 
ATOM     41  C   UNL     1       1.470   3.170   7.174  1.00  0.00     0.029 A 
ATOM     42  N   UNL     1      -0.220   3.699   8.536  1.00  0.00    -0.354 N 
ATOM     43  C   UNL     1      -1.475   0.996  11.677  1.00  0.00     0.074 A 
ATOM     44  C   UNL     1      -0.680  -0.211  11.686  1.00  0.00     0.031 C 
ATOM     45  C   UNL     1       1.045   4.396   6.830  1.00  0.00     0.029 A 
ATOM     46  C   UNL     1      -0.076   4.773   7.686  1.00  0.00     0.049 A 
ATOM     47  H   UNL     1      -0.909   3.658   9.238  1.00  0.00     0.167 HD
ATOM     48  C   UNL     1      -2.448   1.274  12.575  1.00  0.00     0.034 A 
ATOM     49  C   UNL     1      -0.768   5.928   7.604  1.00  0.00     0.034 A 
ATOM     50  C   UNL     1      -3.226   2.485  12.574  1.00  0.00     0.049 A 
ATOM     51  C   UNL     1      -1.905   6.167   8.567  1.00  0.00     0.074 A 
ATOM     52  C   UNL     1      -4.228   2.858  13.452  1.00  0.00     0.029 A 
ATOM     53  N   UNL     1      -3.087   3.519  11.662  1.00  0.00    -0.354 N 
ATOM     54  N   UNL     1      -2.321   5.409   9.555  1.00  0.00    -0.248 NA
ATOM     55  C   UNL     1      -2.667   7.414   8.406  1.00  0.00     0.031 C 
ATOM     56  C   UNL     1      -4.736   4.090  13.037  1.00  0.00     0.029 A 
ATOM     57  C   UNL     1      -4.001   4.520  11.945  1.00  0.00     0.049 A 
ATOM     58  H   UNL     1      -2.436   3.540  10.924  1.00  0.00     0.167 HD
ATOM     59  C   UNL     1      -3.364   6.109  10.155  1.00  0.00     0.074 A 
ATOM     60  C   UNL     1      -3.513   7.349   9.425  1.00  0.00     0.031 C 
ATOM     61  C   UNL     1      -4.128   5.757  11.218  1.00  0.00     0.034 A 
BRANCH  48  62
ATOM     62  C   UNL     1      -2.723   0.270  13.661  1.00  0.00     0.023 A 
ATOM     63  C   UNL     1      -1.810   0.075  14.710  1.00  0.00     0.031 A 
ATOM     64  C   UNL     1      -3.948  -0.418  13.705  1.00  0.00     0.131 A 
ATOM     65  C   UNL     1      -2.132  -0.794  15.760  1.00  0.00     0.055 A 
ATOM     66  C   UNL     1      -4.285  -1.242  14.780  1.00  0.00     0.041 A 
ATOM     67  F   UNL     1      -4.848  -0.274  12.720  1.00  0.00    -0.206 F 
ATOM     68  C   UNL     1      -3.374  -1.433  15.816  1.00  0.00     0.022 A 
BRANCH  65  69
ATOM     69  S   UNL     1      -0.891  -1.101  17.045  1.00  0.00     0.124 S 
ATOM     70  O   UNL     1       0.155  -1.782  16.286  1.00  0.00    -0.237 OA
ATOM     71  O   UNL     1      -0.572   0.245  17.507  1.00  0.00    -0.237 OA
ATOM     72  O   UNL     1      -1.599  -1.939  18.011  1.00  0.00    -0.744 OA
ENDBRANCH  65  69
ENDBRANCH  48  62
BRANCH  49  73
ATOM     73  C   UNL     1      -0.422   6.957   6.580  1.00  0.00     0.023 A 
ATOM     74  C   UNL     1       0.004   8.238   6.967  1.00  0.00     0.031 A 
ATOM     75  C   UNL     1      -0.571   6.701   5.205  1.00  0.00     0.131 A 
ATOM     76  C   UNL     1       0.213   9.230   5.997  1.00  0.00     0.055 A 
ATOM     77  C   UNL     1      -0.305   7.674   4.240  1.00  0.00     0.041 A 
ATOM     78  F   UNL     1      -0.973   5.494   4.778  1.00  0.00    -0.206 F 
ATOM     79  C   UNL     1       0.075   8.953   4.636  1.00  0.00     0.022 A 
BRANCH  76  80
ATOM     80  S   UNL     1       0.582  10.918   6.549  1.00  0.00     0.124 S 
ATOM     81  O   UNL     1      -0.603  11.236   7.338  1.00  0.00    -0.237 OA
ATOM     82  O   UNL     1       1.821  10.729   7.296  1.00  0.00    -0.237 OA
ATOM     83  O   UNL     1       0.718  11.661   5.298  1.00  0.00    -0.744 OA
ENDBRANCH  76  80
ENDBRANCH  49  73
BRANCH  61  84
ATOM     84  C   UNL     1      -5.165   6.737  11.696  1.00  0.00     0.023 A 
ATOM     85  C   UNL     1      -6.327   6.998  10.953  1.00  0.00     0.031 A 
ATOM     86  C   UNL     1      -5.021   7.357  12.951  1.00  0.00     0.131 A 
ATOM     87  C   UNL     1      -7.295   7.874  11.463  1.00  0.00     0.055 A 
ATOM     88  C   UNL     1      -6.011   8.188  13.475  1.00  0.00     0.041 A 
ATOM     89  F   UNL     1      -3.930   7.135  13.702  1.00  0.00    -0.206 F 
ATOM     90  C   UNL     1      -7.154   8.454  12.727  1.00  0.00     0.022 A 
BRANCH  87  91
ATOM     91  S   UNL     1      -8.739   8.267  10.439  1.00  0.00     0.124 S 
ATOM     92  O   UNL     1      -8.127   8.944   9.300  1.00  0.00    -0.237 OA
ATOM     93  O   UNL     1      -9.302   6.948  10.169  1.00  0.00    -0.237 OA
ATOM     94  O   UNL     1      -9.552   9.120  11.304  1.00  0.00    -0.744 OA
ENDBRANCH  87  91
ENDBRANCH  61  84
ENDBRANCH  35  36
ENDBRANCH  27  30
ENDBRANCH  25  26
ENDBRANCH   1  25
TORSDOF 18
