REMARK SMILES COc1cccc(/C=C(/CC(=O)NCCCNC(=O)c2ccc(-c3c4nc(c(-c5cc(S(=O)(=O)[O-])ccc5F)c5ccc([nH]5)c(-c5cc(S(=O)(=O)[O-])ccc5F)c5nc(c(-c6cc(S(=O)(=O)[O-])ccc6F)c6ccc3[nH]6)C=C5)C=C4)cc2)c2nc3ccccc3o2)c1
REMARK SMILES IDX 15 1 14 2 13 3 11 4 12 5 10 7 9 8 8 9 7 10 3 11 4 12 92 13
REMARK SMILES IDX 5 14 6 15 2 16 1 17 83 18 84 19 91 20 85 21 90 22 86 23
REMARK SMILES IDX 89 24 87 25 88 26 16 27 17 28 18 29 19 31 20 32 21 33 82 34
REMARK SMILES IDX 22 35 81 36 23 37 24 38 25 39 75 40 26 41 80 42 74 43 76 44
REMARK SMILES IDX 27 45 79 46 73 47 72 48 28 50 60 51 40 52 59 53 41 54 44 55
REMARK SMILES IDX 58 56 77 57 42 58 43 59 57 61 78 62 45 63 29 64 30 65 38 66
REMARK SMILES IDX 31 67 37 68 39 69 36 70 32 71 33 72 34 73 35 74 61 75 62 76
REMARK SMILES IDX 70 77 63 78 69 79 71 80 68 81 64 82 65 83 66 84 67 85 46 86
REMARK SMILES IDX 47 87 55 88 48 89 54 90 56 91 53 92 49 93 50 94 51 95 52 96
REMARK H PARENT 13 6 17 30 76 49 44 60
REMARK Flexibility Score: inf
ROOT
ATOM      1  C   UNL     1       4.953   5.455   0.107  1.00  0.00     0.042 C 
ENDROOT
BRANCH   1   2
ATOM      2  C   UNL     1       6.132   4.790   0.811  1.00  0.00     0.117 C 
BRANCH   2   3
ATOM      3  N   UNL     1       6.697   5.595   1.877  1.00  0.00    -0.356 N 
ATOM      4  C   UNL     1       6.622   5.422   3.230  1.00  0.00     0.224 C 
ATOM      5  O   UNL     1       7.323   6.136   3.951  1.00  0.00    -0.275 OA
ATOM      6  H   UNL     1       7.209   6.382   1.582  1.00  0.00     0.163 HD
BRANCH   4   7
ATOM      7  C   UNL     1       5.752   4.311   3.819  1.00  0.00     0.141 C 
BRANCH   7   8
ATOM      8  C   UNL     1       4.254   4.551   3.622  1.00  0.00     0.025 C 
ATOM      9  C   UNL     1       3.555   3.606   2.943  1.00  0.00     0.018 C 
BRANCH   9  10
ATOM     10  C   UNL     1       2.187   3.459   2.377  1.00  0.00    -0.021 A 
ATOM     11  C   UNL     1       0.724   2.156   0.889  1.00  0.00     0.119 A 
ATOM     12  C   UNL     1      -0.304   3.068   1.098  1.00  0.00     0.046 A 
ATOM     13  C   UNL     1       1.956   2.350   1.527  1.00  0.00     0.054 A 
ATOM     14  C   UNL     1      -0.109   4.153   1.943  1.00  0.00     0.004 A 
ATOM     15  C   UNL     1       1.128   4.350   2.564  1.00  0.00     0.008 A 
BRANCH  11  16
ATOM     16  O   UNL     1       0.435   1.166  -0.008  1.00  0.00    -0.497 OA
ATOM     17  C   UNL     1       1.127  -0.063   0.155  1.00  0.00     0.278 C 
ENDBRANCH  11  16
ENDBRANCH   9  10
BRANCH   8  18
ATOM     18  C   UNL     1       3.681   5.772   4.113  1.00  0.00     0.223 A 
ATOM     19  N   UNL     1       4.277   6.955   4.017  1.00  0.00    -0.210 NA
ATOM     20  O   UNL     1       2.515   5.845   4.863  1.00  0.00    -0.436 OA
ATOM     21  C   UNL     1       3.473   7.833   4.685  1.00  0.00     0.110 A 
ATOM     22  C   UNL     1       2.370   7.165   5.175  1.00  0.00     0.155 A 
ATOM     23  C   UNL     1       3.604   9.207   4.919  1.00  0.00     0.032 A 
ATOM     24  C   UNL     1       1.323   7.769   5.859  1.00  0.00     0.049 A 
ATOM     25  C   UNL     1       2.574   9.856   5.615  1.00  0.00     0.003 A 
ATOM     26  C   UNL     1       1.449   9.150   6.063  1.00  0.00     0.004 A 
ENDBRANCH   8  18
ENDBRANCH   7   8
ENDBRANCH   4   7
ENDBRANCH   2   3
ENDBRANCH   1   2
BRANCH   1  27
ATOM     27  C   UNL     1       5.306   6.717  -0.676  1.00  0.00     0.118 C 
BRANCH  27  28
ATOM     28  N   UNL     1       6.269   6.471  -1.744  1.00  0.00    -0.352 N 
ATOM     29  C   UNL     1       6.166   6.643  -3.101  1.00  0.00     0.251 C 
ATOM     30  H   UNL     1       7.138   6.123  -1.439  1.00  0.00     0.163 HD
ATOM     31  O   UNL     1       7.054   6.184  -3.824  1.00  0.00    -0.269 OA
BRANCH  29  32
ATOM     32  C   UNL     1       5.010   7.341  -3.706  1.00  0.00     0.039 A 
ATOM     33  C   UNL     1       4.473   6.845  -4.898  1.00  0.00     0.014 A 
ATOM     34  C   UNL     1       4.472   8.497  -3.134  1.00  0.00     0.014 A 
ATOM     35  C   UNL     1       3.354   7.459  -5.470  1.00  0.00     0.010 A 
ATOM     36  C   UNL     1       3.312   9.063  -3.664  1.00  0.00     0.010 A 
ATOM     37  C   UNL     1       2.735   8.546  -4.834  1.00  0.00    -0.014 A 
BRANCH  37  38
ATOM     38  C   UNL     1       1.472   9.132  -5.363  1.00  0.00     0.031 A 
ATOM     39  C   UNL     1       1.429  10.563  -5.829  1.00  0.00     0.074 A 
ATOM     40  C   UNL     1       0.346   8.389  -5.363  1.00  0.00     0.049 A 
ATOM     41  N   UNL     1       0.408  11.266  -6.247  1.00  0.00    -0.248 NA
ATOM     42  C   UNL     1       2.697  11.306  -5.796  1.00  0.00     0.031 C 
ATOM     43  C   UNL     1       0.252   7.002  -4.902  1.00  0.00     0.029 A 
ATOM     44  N   UNL     1      -0.935   8.695  -5.750  1.00  0.00    -0.354 N 
ATOM     45  C   UNL     1       0.904  12.538  -6.515  1.00  0.00     0.074 A 
ATOM     46  C   UNL     1       2.308  12.520  -6.159  1.00  0.00     0.031 C 
ATOM     47  C   UNL     1      -1.010   6.571  -5.056  1.00  0.00     0.029 A 
ATOM     48  C   UNL     1      -1.829   7.663  -5.571  1.00  0.00     0.049 A 
ATOM     49  H   UNL     1      -1.191   9.570  -6.122  1.00  0.00     0.167 HD
ATOM     50  C   UNL     1       0.253  13.613  -7.027  1.00  0.00     0.034 A 
ATOM     51  C   UNL     1      -3.161   7.606  -5.775  1.00  0.00     0.034 A 
ATOM     52  C   UNL     1      -1.146  13.611  -7.381  1.00  0.00     0.049 A 
ATOM     53  C   UNL     1      -3.868   8.827  -6.307  1.00  0.00     0.074 A 
ATOM     54  C   UNL     1      -1.888  14.626  -7.963  1.00  0.00     0.029 A 
ATOM     55  N   UNL     1      -2.022  12.552  -7.175  1.00  0.00    -0.354 N 
ATOM     56  N   UNL     1      -3.371  10.005  -6.609  1.00  0.00    -0.248 NA
ATOM     57  C   UNL     1      -5.314   8.709  -6.533  1.00  0.00     0.031 C 
ATOM     58  C   UNL     1      -3.222  14.212  -8.032  1.00  0.00     0.029 A 
ATOM     59  C   UNL     1      -3.302  12.905  -7.579  1.00  0.00     0.049 A 
ATOM     60  H   UNL     1      -1.770  11.678  -6.798  1.00  0.00     0.167 HD
ATOM     61  C   UNL     1      -4.441  10.756  -7.090  1.00  0.00     0.074 A 
ATOM     62  C   UNL     1      -5.603   9.892  -7.054  1.00  0.00     0.031 C 
ATOM     63  C   UNL     1      -4.459  12.042  -7.525  1.00  0.00     0.034 A 
BRANCH  50  64
ATOM     64  C   UNL     1       1.042  14.890  -7.202  1.00  0.00     0.023 A 
ATOM     65  C   UNL     1       2.145  14.968  -8.071  1.00  0.00     0.031 A 
ATOM     66  C   UNL     1       0.692  16.047  -6.483  1.00  0.00     0.131 A 
ATOM     67  C   UNL     1       2.900  16.149  -8.144  1.00  0.00     0.055 A 
ATOM     68  C   UNL     1       1.396  17.245  -6.624  1.00  0.00     0.041 A 
ATOM     69  F   UNL     1      -0.338  16.032  -5.622  1.00  0.00    -0.206 F 
ATOM     70  C   UNL     1       2.516  17.297  -7.447  1.00  0.00     0.022 A 
BRANCH  67  71
ATOM     71  S   UNL     1       4.470  16.120  -9.052  1.00  0.00     0.124 S 
ATOM     72  O   UNL     1       5.194  15.059  -8.355  1.00  0.00    -0.237 OA
ATOM     73  O   UNL     1       4.043  15.816 -10.412  1.00  0.00    -0.237 OA
ATOM     74  O   UNL     1       5.006  17.465  -8.851  1.00  0.00    -0.744 OA
ENDBRANCH  67  71
ENDBRANCH  50  64
BRANCH  51  75
ATOM     75  C   UNL     1      -3.923   6.363  -5.456  1.00  0.00     0.023 A 
ATOM     76  C   UNL     1      -4.596   5.647  -6.459  1.00  0.00     0.031 A 
ATOM     77  C   UNL     1      -4.030   5.899  -4.132  1.00  0.00     0.131 A 
ATOM     78  C   UNL     1      -5.386   4.538  -6.117  1.00  0.00     0.055 A 
ATOM     79  C   UNL     1      -4.766   4.759  -3.806  1.00  0.00     0.041 A 
ATOM     80  F   UNL     1      -3.409   6.546  -3.133  1.00  0.00    -0.206 F 
ATOM     81  C   UNL     1      -5.463   4.080  -4.800  1.00  0.00     0.022 A 
BRANCH  78  82
ATOM     82  S   UNL     1      -6.395   3.760  -7.408  1.00  0.00     0.124 S 
ATOM     83  O   UNL     1      -7.206   4.882  -7.867  1.00  0.00    -0.237 OA
ATOM     84  O   UNL     1      -5.380   3.279  -8.339  1.00  0.00    -0.237 OA
ATOM     85  O   UNL     1      -7.122   2.717  -6.688  1.00  0.00    -0.744 OA
ENDBRANCH  78  82
ENDBRANCH  51  75
BRANCH  63  86
ATOM     86  C   UNL     1      -5.776  12.575  -8.039  1.00  0.00     0.023 A 
ATOM     87  C   UNL     1      -6.889  12.744  -7.197  1.00  0.00     0.031 A 
ATOM     88  C   UNL     1      -5.920  12.911  -9.398  1.00  0.00     0.131 A 
ATOM     89  C   UNL     1      -8.111  13.179  -7.732  1.00  0.00     0.055 A 
ATOM     90  C   UNL     1      -7.119  13.406  -9.911  1.00  0.00     0.041 A 
ATOM     91  F   UNL     1      -4.893  12.765 -10.251  1.00  0.00    -0.206 F 
ATOM     92  C   UNL     1      -8.228  13.530  -9.079  1.00  0.00     0.022 A 
BRANCH  89  93
ATOM     93  S   UNL     1      -9.577  13.186  -6.663  1.00  0.00     0.124 S 
ATOM     94  O   UNL     1      -9.657  11.789  -6.249  1.00  0.00    -0.237 OA
ATOM     95  O   UNL     1      -9.202  14.138  -5.623  1.00  0.00    -0.237 OA
ATOM     96  O   UNL     1     -10.649  13.631  -7.553  1.00  0.00    -0.744 OA
ENDBRANCH  89  93
ENDBRANCH  63  86
ENDBRANCH  37  38
ENDBRANCH  29  32
ENDBRANCH  27  28
ENDBRANCH   1  27
TORSDOF 17
