REMARK SMILES COc1ccc([C@H](C(=O)NCCCNC(=O)c2ccc(-c3c4nc(c(-c5cc(S(=O)(=O)[O-])ccc5F)c5ccc([nH]5)c(-c5cc(S(=O)(=O)[O-])ccc5F)c5nc(c(-c6cc(S(=O)(=O)[O-])ccc6F)c6ccc3[nH]6)C=C5)C=C4)cc2)[N@@H+]2CCC[N@H+](Cc3ccccn3)CC2)cn1
REMARK SMILES IDX 8 1 9 2 10 3 7 5 6 6 3 7 4 8 95 9 5 10 94 11 2 12 1 13 80 14
REMARK SMILES IDX 81 16 82 17 83 18 84 19 85 21 86 22 87 23 91 24 88 25 90 26
REMARK SMILES IDX 89 27 92 28 93 30 11 32 12 33 13 34 14 35 15 36 16 38 17 39
REMARK SMILES IDX 18 40 79 41 19 42 78 43 20 44 21 45 22 46 72 47 23 48 77 49
REMARK SMILES IDX 71 50 73 51 24 52 76 53 70 54 69 55 25 57 57 58 37 59 56 60
REMARK SMILES IDX 38 61 41 62 55 63 74 64 39 65 40 66 54 68 75 69 42 70 26 71
REMARK SMILES IDX 27 72 35 73 28 74 34 75 36 76 33 77 29 78 30 79 31 80 32 81
REMARK SMILES IDX 58 82 59 83 67 84 60 85 66 86 68 87 65 88 61 89 62 90 63 91
REMARK SMILES IDX 64 92 43 93 44 94 52 95 45 96 51 97 53 98 50 99 46 100
REMARK SMILES IDX 47 101 48 102 49 103
REMARK H PARENT 10 4 80 15 84 20 14 37 73 56 41 67
REMARK Flexibility Score: 80.00
ROOT
ATOM      1  C   UNL     1       0.677   5.582  -2.394  1.00  0.00     0.283 C 
ATOM      2  O   UNL     1       0.662   4.387  -2.708  1.00  0.00    -0.268 OA
ATOM      3  N   UNL     1      -0.351   6.392  -2.817  1.00  0.00    -0.351 N 
ATOM      4  H   UNL     1      -1.020   5.965  -3.399  1.00  0.00     0.163 HD
ENDROOT
BRANCH   1   5
ATOM      5  C   UNL     1       1.889   6.190  -1.565  1.00  0.00     0.307 C 
BRANCH   5   6
ATOM      6  C   UNL     1       2.602   7.091  -2.595  1.00  0.00     0.038 A 
ATOM      7  C   UNL     1       2.497   8.534  -4.906  1.00  0.00     0.212 A 
ATOM      8  C   UNL     1       2.526   9.215  -3.698  1.00  0.00     0.069 A 
ATOM      9  N   UNL     1       2.763   7.220  -5.028  1.00  0.00    -0.222 NA
ATOM     10  C   UNL     1       2.600   8.482  -2.515  1.00  0.00     0.017 A 
ATOM     11  C   UNL     1       2.849   6.531  -3.865  1.00  0.00     0.125 A 
BRANCH   7  12
ATOM     12  O   UNL     1       1.704   9.144  -5.861  1.00  0.00    -0.481 OA
ATOM     13  C   UNL     1       2.151   9.003  -7.195  1.00  0.00     0.280 C 
ENDBRANCH   7  12
ENDBRANCH   5   6
BRANCH   5  14
ATOM     14  N   UNL     1       1.369   6.824  -0.297  1.00  0.00    -0.316 N 
ATOM     15  H   UNL     1       0.965   7.718  -0.575  1.00  0.00     0.349 HD
BRANCH  14  16
ATOM     16  C   UNL     1       2.424   7.093   0.698  1.00  0.00     0.269 C 
BRANCH  16  17
ATOM     17  C   UNL     1       1.972   8.058   1.813  1.00  0.00     0.123 C 
BRANCH  17  18
ATOM     18  C   UNL     1       1.111   7.534   2.982  1.00  0.00     0.268 C 
BRANCH  18  19
ATOM     19  N   UNL     1      -0.025   6.673   2.739  1.00  0.00    -0.325 N 
ATOM     20  H   UNL     1      -0.720   7.243   3.222  1.00  0.00     0.348 HD
BRANCH  19  21
ATOM     21  C   UNL     1      -0.168   5.438   3.523  1.00  0.00     0.319 C 
BRANCH  21  22
ATOM     22  C   UNL     1       0.737   4.291   3.105  1.00  0.00     0.095 A 
ATOM     23  C   UNL     1       2.091   4.325   3.424  1.00  0.00     0.030 A 
ATOM     24  N   UNL     1       0.213   3.345   2.279  1.00  0.00    -0.255 NA
ATOM     25  C   UNL     1       2.954   3.429   2.802  1.00  0.00     0.004 A 
ATOM     26  C   UNL     1       1.073   2.482   1.693  1.00  0.00     0.111 A 
ATOM     27  C   UNL     1       2.441   2.503   1.903  1.00  0.00     0.020 A 
ENDBRANCH  21  22
ENDBRANCH  19  21
BRANCH  19  28
ATOM     28  C   UNL     1      -0.530   6.624   1.387  1.00  0.00     0.324 CG0
ATOM     29  G   UNL     1       0.353   5.942   0.331  1.00  0.00     0.000 G0
ENDBRANCH  19  28
ENDBRANCH  18  19
ENDBRANCH  17  18
ENDBRANCH  16  17
ENDBRANCH  14  16
BRANCH  14  30
ATOM     30  C   UNL     1       0.353   5.942   0.331  1.00  0.00     0.325 CG0
ATOM     31  G   UNL     1      -0.530   6.624   1.387  1.00  0.00     0.000 G0
ENDBRANCH  14  30
ENDBRANCH   5  14
ENDBRANCH   1   5
BRANCH   3  32
ATOM     32  C   UNL     1      -0.580   7.802  -2.516  1.00  0.00     0.118 C 
BRANCH  32  33
ATOM     33  C   UNL     1      -2.001   8.251  -2.791  1.00  0.00     0.042 C 
BRANCH  33  34
ATOM     34  C   UNL     1      -3.025   7.402  -2.054  1.00  0.00     0.118 C 
BRANCH  34  35
ATOM     35  N   UNL     1      -3.116   7.686  -0.623  1.00  0.00    -0.352 N 
ATOM     36  C   UNL     1      -3.800   8.662   0.085  1.00  0.00     0.251 C 
ATOM     37  H   UNL     1      -2.596   7.071  -0.058  1.00  0.00     0.163 HD
ATOM     38  O   UNL     1      -3.614   8.831   1.267  1.00  0.00    -0.269 OA
BRANCH  36  39
ATOM     39  C   UNL     1      -4.732   9.519  -0.671  1.00  0.00     0.039 A 
ATOM     40  C   UNL     1      -4.649  10.909  -0.588  1.00  0.00     0.014 A 
ATOM     41  C   UNL     1      -5.564   8.912  -1.596  1.00  0.00     0.014 A 
ATOM     42  C   UNL     1      -5.277  11.680  -1.570  1.00  0.00     0.010 A 
ATOM     43  C   UNL     1      -5.990   9.655  -2.674  1.00  0.00     0.010 A 
ATOM     44  C   UNL     1      -5.860  11.053  -2.682  1.00  0.00    -0.014 A 
BRANCH  44  45
ATOM     45  C   UNL     1      -6.359  11.780  -3.882  1.00  0.00     0.031 A 
ATOM     46  C   UNL     1      -7.710  11.395  -4.437  1.00  0.00     0.074 A 
ATOM     47  C   UNL     1      -5.555  12.621  -4.566  1.00  0.00     0.049 A 
ATOM     48  N   UNL     1      -8.186  11.544  -5.644  1.00  0.00    -0.248 NA
ATOM     49  C   UNL     1      -8.583  10.617  -3.541  1.00  0.00     0.031 C 
ATOM     50  C   UNL     1      -4.191  13.008  -4.191  1.00  0.00     0.029 A 
ATOM     51  N   UNL     1      -5.767  13.292  -5.743  1.00  0.00    -0.354 N 
ATOM     52  C   UNL     1      -9.353  10.784  -5.676  1.00  0.00     0.074 A 
ATOM     53  C   UNL     1      -9.446  10.105  -4.403  1.00  0.00     0.031 C 
ATOM     54  C   UNL     1      -3.716  13.888  -5.087  1.00  0.00     0.029 A 
ATOM     55  C   UNL     1      -4.707  14.079  -6.136  1.00  0.00     0.049 A 
ATOM     56  H   UNL     1      -6.601  13.218  -6.261  1.00  0.00     0.167 HD
ATOM     57  C   UNL     1     -10.281  10.697  -6.661  1.00  0.00     0.034 A 
ATOM     58  C   UNL     1      -4.562  14.858  -7.226  1.00  0.00     0.034 A 
ATOM     59  C   UNL     1     -10.223  11.507  -7.850  1.00  0.00     0.049 A 
ATOM     60  C   UNL     1      -5.696  14.896  -8.220  1.00  0.00     0.074 A 
ATOM     61  C   UNL     1     -11.128  11.593  -8.892  1.00  0.00     0.029 A 
ATOM     62  N   UNL     1      -9.216  12.426  -8.117  1.00  0.00    -0.354 N 
ATOM     63  N   UNL     1      -6.792  14.171  -8.247  1.00  0.00    -0.248 NA
ATOM     64  C   UNL     1      -5.590  15.866  -9.317  1.00  0.00     0.031 C 
ATOM     65  C   UNL     1     -10.670  12.568  -9.786  1.00  0.00     0.029 A 
ATOM     66  C   UNL     1      -9.499  13.114  -9.282  1.00  0.00     0.049 A 
ATOM     67  H   UNL     1      -8.417  12.566  -7.559  1.00  0.00     0.167 HD
ATOM     68  C   UNL     1      -7.522  14.627  -9.339  1.00  0.00     0.074 A 
ATOM     69  C   UNL     1      -6.748  15.695  -9.938  1.00  0.00     0.031 C 
ATOM     70  C   UNL     1      -8.719  14.202  -9.814  1.00  0.00     0.034 A 
BRANCH  57  71
ATOM     71  C   UNL     1     -11.427   9.732  -6.460  1.00  0.00     0.023 A 
ATOM     72  C   UNL     1     -12.290   9.841  -5.355  1.00  0.00     0.031 A 
ATOM     73  C   UNL     1     -11.621   8.648  -7.333  1.00  0.00     0.131 A 
ATOM     74  C   UNL     1     -13.210   8.821  -5.078  1.00  0.00     0.055 A 
ATOM     75  C   UNL     1     -12.617   7.692  -7.112  1.00  0.00     0.041 A 
ATOM     76  F   UNL     1     -10.827   8.479  -8.402  1.00  0.00    -0.206 F 
ATOM     77  C   UNL     1     -13.403   7.761  -5.965  1.00  0.00     0.022 A 
BRANCH  74  78
ATOM     78  S   UNL     1     -14.020   8.813  -3.455  1.00  0.00     0.124 S 
ATOM     79  O   UNL     1     -12.884   8.569  -2.568  1.00  0.00    -0.237 OA
ATOM     80  O   UNL     1     -14.607  10.146  -3.385  1.00  0.00    -0.237 OA
ATOM     81  O   UNL     1     -14.976   7.713  -3.555  1.00  0.00    -0.744 OA
ENDBRANCH  74  78
ENDBRANCH  57  71
BRANCH  58  82
ATOM     82  C   UNL     1      -3.340  15.689  -7.421  1.00  0.00     0.023 A 
ATOM     83  C   UNL     1      -3.423  17.092  -7.402  1.00  0.00     0.031 A 
ATOM     84  C   UNL     1      -2.083  15.112  -7.669  1.00  0.00     0.131 A 
ATOM     85  C   UNL     1      -2.291  17.869  -7.693  1.00  0.00     0.055 A 
ATOM     86  C   UNL     1      -0.946  15.890  -7.904  1.00  0.00     0.041 A 
ATOM     87  F   UNL     1      -1.939  13.777  -7.680  1.00  0.00    -0.206 F 
ATOM     88  C   UNL     1      -1.051  17.278  -7.935  1.00  0.00     0.022 A 
BRANCH  85  89
ATOM     89  S   UNL     1      -2.494  19.665  -7.859  1.00  0.00     0.124 S 
ATOM     90  O   UNL     1      -3.586  19.755  -8.821  1.00  0.00    -0.237 OA
ATOM     91  O   UNL     1      -2.809  20.059  -6.490  1.00  0.00    -0.237 OA
ATOM     92  O   UNL     1      -1.191  20.109  -8.351  1.00  0.00    -0.744 OA
ENDBRANCH  85  89
ENDBRANCH  58  82
BRANCH  70  93
ATOM     93  C   UNL     1      -9.294  14.960 -10.976  1.00  0.00     0.023 A 
ATOM     94  C   UNL     1      -8.761  14.840 -12.268  1.00  0.00     0.031 A 
ATOM     95  C   UNL     1     -10.405  15.798 -10.781  1.00  0.00     0.131 A 
ATOM     96  C   UNL     1      -9.316  15.584 -13.317  1.00  0.00     0.055 A 
ATOM     97  C   UNL     1     -10.981  16.502 -11.837  1.00  0.00     0.041 A 
ATOM     98  F   UNL     1     -10.949  15.939  -9.561  1.00  0.00    -0.206 F 
ATOM     99  C   UNL     1     -10.431  16.403 -13.113  1.00  0.00     0.022 A 
BRANCH  96 100
ATOM    100  S   UNL     1      -8.527  15.506 -14.946  1.00  0.00     0.124 S 
ATOM    101  O   UNL     1      -7.195  16.032 -14.665  1.00  0.00    -0.237 OA
ATOM    102  O   UNL     1      -8.597  14.082 -15.259  1.00  0.00    -0.237 OA
ATOM    103  O   UNL     1      -9.371  16.363 -15.777  1.00  0.00    -0.744 OA
ENDBRANCH  96 100
ENDBRANCH  70  93
ENDBRANCH  44  45
ENDBRANCH  36  39
ENDBRANCH  34  35
ENDBRANCH  33  34
ENDBRANCH  32  33
ENDBRANCH   3  32
TORSDOF 18
