REMARK SMILES O=C(NCCCNC(=O)c1[nH]ncc1C[N@H+]1CCC[C@H](C(=O)c2ccc3ccccc3c2)C1)c1ccc(-c2c3nc(c(-c4cc(S(=O)(=O)[O-])ccc4F)c4ccc([nH]4)c(-c4cc(S(=O)(=O)[O-])ccc4F)c4nc(c(-c5cc(S(=O)(=O)[O-])ccc5F)c5ccc2[nH]5)C=C4)C=C3)cc1
REMARK SMILES IDX 5 1 4 2 3 3 1 4 2 5 34 7 35 8 96 9 36 10 95 11 37 12 38 13
REMARK SMILES IDX 39 14 89 15 40 16 94 17 88 18 90 19 41 20 93 21 87 22 86 23
REMARK SMILES IDX 42 25 74 26 54 27 73 28 55 29 58 30 72 31 91 32 56 33 57 34
REMARK SMILES IDX 71 36 92 37 59 38 43 39 44 40 52 41 45 42 51 43 53 44 50 45
REMARK SMILES IDX 46 46 47 47 48 48 49 49 75 50 76 51 84 52 77 53 83 54 85 55
REMARK SMILES IDX 82 56 78 57 79 58 80 59 81 60 60 61 61 62 69 63 62 64 68 65
REMARK SMILES IDX 70 66 67 67 63 68 64 69 65 70 66 71 6 72 7 73 8 74 9 76
REMARK SMILES IDX 10 77 11 78 14 79 12 80 13 82 15 83 16 84 17 85 33 86 18 88
REMARK SMILES IDX 20 89 19 90 21 91 22 92 23 93 24 94 32 95 25 96 31 97 26 98
REMARK SMILES IDX 30 99 27 100 29 101 28 102
REMARK H PARENT 3 6 90 24 58 35 7 75 11 81 16 87
REMARK Flexibility Score: inf
ROOT
ATOM      1  C   UNL     1       5.180   1.607   1.722  1.00  0.00     0.042 C 
ENDROOT
BRANCH   1   2
ATOM      2  C   UNL     1       4.811   0.163   1.401  1.00  0.00     0.118 C 
BRANCH   2   3
ATOM      3  N   UNL     1       3.379  -0.021   1.208  1.00  0.00    -0.352 N 
ATOM      4  O   UNL     1       1.418  -0.123   0.127  1.00  0.00    -0.269 OA
ATOM      5  C   UNL     1       2.643  -0.209   0.063  1.00  0.00     0.251 C 
ATOM      6  H   UNL     1       2.850  -0.009   2.037  1.00  0.00     0.163 HD
BRANCH   5   7
ATOM      7  C   UNL     1       3.293  -0.498  -1.238  1.00  0.00     0.039 A 
ATOM      8  C   UNL     1       4.374  -1.375  -1.338  1.00  0.00     0.014 A 
ATOM      9  C   UNL     1       2.753   0.068  -2.400  1.00  0.00     0.014 A 
ATOM     10  C   UNL     1       4.994  -1.582  -2.569  1.00  0.00     0.010 A 
ATOM     11  C   UNL     1       3.329  -0.200  -3.647  1.00  0.00     0.010 A 
ATOM     12  C   UNL     1       4.474  -1.004  -3.739  1.00  0.00    -0.014 A 
BRANCH  12  13
ATOM     13  C   UNL     1       5.121  -1.294  -5.044  1.00  0.00     0.031 A 
ATOM     14  C   UNL     1       5.827  -0.213  -5.817  1.00  0.00     0.074 A 
ATOM     15  C   UNL     1       5.100  -2.555  -5.517  1.00  0.00     0.049 A 
ATOM     16  N   UNL     1       6.478  -0.300  -6.950  1.00  0.00    -0.248 NA
ATOM     17  C   UNL     1       5.782   1.143  -5.253  1.00  0.00     0.031 C 
ATOM     18  C   UNL     1       4.421  -3.686  -4.877  1.00  0.00     0.029 A 
ATOM     19  N   UNL     1       5.684  -3.105  -6.629  1.00  0.00    -0.354 N 
ATOM     20  C   UNL     1       6.896   0.991  -7.251  1.00  0.00     0.074 A 
ATOM     21  C   UNL     1       6.411   1.845  -6.186  1.00  0.00     0.031 C 
ATOM     22  C   UNL     1       4.671  -4.802  -5.579  1.00  0.00     0.029 A 
ATOM     23  C   UNL     1       5.495  -4.462  -6.734  1.00  0.00     0.049 A 
ATOM     24  H   UNL     1       6.189  -2.578  -7.290  1.00  0.00     0.167 HD
ATOM     25  C   UNL     1       7.620   1.424  -8.313  1.00  0.00     0.034 A 
ATOM     26  C   UNL     1       5.935  -5.338  -7.656  1.00  0.00     0.034 A 
ATOM     27  C   UNL     1       8.127   0.566  -9.355  1.00  0.00     0.049 A 
ATOM     28  C   UNL     1       6.768  -4.842  -8.800  1.00  0.00     0.074 A 
ATOM     29  C   UNL     1       8.918   0.898 -10.443  1.00  0.00     0.029 A 
ATOM     30  N   UNL     1       7.893  -0.799  -9.439  1.00  0.00    -0.354 N 
ATOM     31  N   UNL     1       7.155  -3.617  -9.065  1.00  0.00    -0.248 NA
ATOM     32  C   UNL     1       7.212  -5.846  -9.775  1.00  0.00     0.031 C 
ATOM     33  C   UNL     1       9.133  -0.260 -11.203  1.00  0.00     0.029 A 
ATOM     34  C   UNL     1       8.505  -1.320 -10.570  1.00  0.00     0.049 A 
ATOM     35  H   UNL     1       7.369  -1.323  -8.791  1.00  0.00     0.167 HD
ATOM     36  C   UNL     1       7.875  -3.700 -10.249  1.00  0.00     0.074 A 
ATOM     37  C   UNL     1       7.890  -5.098 -10.634  1.00  0.00     0.031 C 
ATOM     38  C   UNL     1       8.469  -2.708 -10.958  1.00  0.00     0.034 A 
BRANCH  25  39
ATOM     39  C   UNL     1       7.862   2.907  -8.414  1.00  0.00     0.023 A 
ATOM     40  C   UNL     1       8.729   3.573  -7.532  1.00  0.00     0.031 A 
ATOM     41  C   UNL     1       7.183   3.667  -9.383  1.00  0.00     0.131 A 
ATOM     42  C   UNL     1       8.850   4.970  -7.597  1.00  0.00     0.055 A 
ATOM     43  C   UNL     1       7.350   5.050  -9.480  1.00  0.00     0.041 A 
ATOM     44  F   UNL     1       6.329   3.080 -10.236  1.00  0.00    -0.206 F 
ATOM     45  C   UNL     1       8.178   5.710  -8.576  1.00  0.00     0.022 A 
BRANCH  42  46
ATOM     46  S   UNL     1       9.807   5.819  -6.310  1.00  0.00     0.124 S 
ATOM     47  O   UNL     1       9.095   5.421  -5.098  1.00  0.00    -0.237 OA
ATOM     48  O   UNL     1      11.140   5.252  -6.482  1.00  0.00    -0.237 OA
ATOM     49  O   UNL     1       9.679   7.231  -6.664  1.00  0.00    -0.744 OA
ENDBRANCH  42  46
ENDBRANCH  25  39
BRANCH  26  50
ATOM     50  C   UNL     1       5.566  -6.772  -7.543  1.00  0.00     0.023 A 
ATOM     51  C   UNL     1       6.502  -7.723  -7.100  1.00  0.00     0.031 A 
ATOM     52  C   UNL     1       4.261  -7.196  -7.860  1.00  0.00     0.131 A 
ATOM     53  C   UNL     1       6.120  -9.069  -6.992  1.00  0.00     0.055 A 
ATOM     54  C   UNL     1       3.880  -8.532  -7.735  1.00  0.00     0.041 A 
ATOM     55  F   UNL     1       3.337  -6.311  -8.270  1.00  0.00    -0.206 F 
ATOM     56  C   UNL     1       4.814  -9.476  -7.302  1.00  0.00     0.022 A 
BRANCH  53  57
ATOM     57  S   UNL     1       7.364 -10.285  -6.442  1.00  0.00     0.124 S 
ATOM     58  O   UNL     1       8.383 -10.175  -7.480  1.00  0.00    -0.237 OA
ATOM     59  O   UNL     1       7.733  -9.771  -5.126  1.00  0.00    -0.237 OA
ATOM     60  O   UNL     1       6.625 -11.545  -6.427  1.00  0.00    -0.744 OA
ENDBRANCH  53  57
ENDBRANCH  26  50
BRANCH  38  61
ATOM     61  C   UNL     1       9.164  -3.121 -12.223  1.00  0.00     0.023 A 
ATOM     62  C   UNL     1       8.428  -3.422 -13.383  1.00  0.00     0.031 A 
ATOM     63  C   UNL     1      10.562  -3.256 -12.256  1.00  0.00     0.131 A 
ATOM     64  C   UNL     1       9.094  -3.885 -14.527  1.00  0.00     0.055 A 
ATOM     65  C   UNL     1      11.224  -3.688 -13.405  1.00  0.00     0.041 A 
ATOM     66  F   UNL     1      11.301  -2.983 -11.168  1.00  0.00    -0.206 F 
ATOM     67  C   UNL     1      10.488  -4.013 -14.546  1.00  0.00     0.022 A 
BRANCH  64  68
ATOM     68  S   UNL     1       8.109  -4.368 -15.975  1.00  0.00     0.124 S 
ATOM     69  O   UNL     1       7.313  -5.473 -15.450  1.00  0.00    -0.237 OA
ATOM     70  O   UNL     1       7.376  -3.144 -16.283  1.00  0.00    -0.237 OA
ATOM     71  O   UNL     1       9.117  -4.748 -16.964  1.00  0.00    -0.744 OA
ENDBRANCH  64  68
ENDBRANCH  38  61
ENDBRANCH  12  13
ENDBRANCH   5   7
ENDBRANCH   2   3
ENDBRANCH   1   2
BRANCH   1  72
ATOM     72  C   UNL     1       4.616   2.122   3.041  1.00  0.00     0.118 C 
BRANCH  72  73
ATOM     73  N   UNL     1       5.138   1.395   4.190  1.00  0.00    -0.351 N 
ATOM     74  C   UNL     1       6.005   1.807   5.169  1.00  0.00     0.269 C 
ATOM     75  H   UNL     1       4.820   0.468   4.278  1.00  0.00     0.163 HD
ATOM     76  O   UNL     1       6.530   0.954   5.878  1.00  0.00    -0.268 OA
BRANCH  74  77
ATOM     77  C   UNL     1       6.298   3.204   5.318  1.00  0.00     0.131 A 
ATOM     78  N   UNL     1       7.578   3.651   5.504  1.00  0.00    -0.272 N 
ATOM     79  C   UNL     1       5.491   4.332   5.421  1.00  0.00     0.057 A 
ATOM     80  N   UNL     1       7.680   4.986   5.602  1.00  0.00    -0.183 NA
ATOM     81  H   UNL     1       8.354   3.048   5.561  1.00  0.00     0.190 HD
ATOM     82  C   UNL     1       6.414   5.399   5.537  1.00  0.00     0.145 A 
BRANCH  79  83
ATOM     83  C   UNL     1       3.998   4.399   5.399  1.00  0.00     0.303 C 
BRANCH  83  84
ATOM     84  N   UNL     1       3.381   4.824   6.657  1.00  0.00    -0.330 N 
ATOM     85  C   UNL     1       3.893   4.148   7.848  1.00  0.00     0.262 C 
ATOM     86  C   UNL     1       3.292   6.271   6.827  1.00  0.00     0.274 C 
ATOM     87  H   UNL     1       2.418   4.501   6.560  1.00  0.00     0.348 HD
ATOM     88  C   UNL     1       2.942   4.367   9.021  1.00  0.00     0.062 C 
ATOM     89  C   UNL     1       2.352   6.642   7.978  1.00  0.00     0.116 C 
ATOM     90  C   UNL     1       2.625   5.844   9.258  1.00  0.00     0.023 C 
BRANCH  89  91
ATOM     91  C   UNL     1       0.881   6.675   7.555  1.00  0.00     0.171 C 
ATOM     92  O   UNL     1       0.213   7.707   7.614  1.00  0.00    -0.294 OA
BRANCH  91  93
ATOM     93  C   UNL     1       0.211   5.455   7.061  1.00  0.00     0.019 A 
ATOM     94  C   UNL     1      -0.387   4.585   7.972  1.00  0.00     0.012 A 
ATOM     95  C   UNL     1       0.093   5.239   5.684  1.00  0.00     0.020 A 
ATOM     96  C   UNL     1      -1.056   3.452   7.505  1.00  0.00     0.009 A 
ATOM     97  C   UNL     1      -0.589   4.109   5.202  1.00  0.00    -0.018 A 
ATOM     98  C   UNL     1      -1.163   3.200   6.126  1.00  0.00    -0.018 A 
ATOM     99  C   UNL     1      -0.722   3.862   3.824  1.00  0.00     0.009 A 
ATOM    100  C   UNL     1      -1.842   2.068   5.645  1.00  0.00     0.009 A 
ATOM    101  C   UNL     1      -1.403   2.733   3.363  1.00  0.00     0.001 A 
ATOM    102  C   UNL     1      -1.960   1.837   4.273  1.00  0.00     0.001 A 
ENDBRANCH  91  93
ENDBRANCH  89  91
ENDBRANCH  83  84
ENDBRANCH  79  83
ENDBRANCH  74  77
ENDBRANCH  72  73
ENDBRANCH   1  72
TORSDOF 17
