REMARK SMILES O=C(NCCCNC(=O)[C@H](NC(=O)c1ccc(Br)nc1)c1ccccc1)c1ccc(-c2c3nc(c(-c4cc(S(=O)(=O)[O-])ccc4F)c4ccc([nH]4)c(-c4cc(S(=O)(=O)[O-])ccc4F)c4nc(c(-c5cc(S(=O)(=O)[O-])ccc5F)c5ccc2[nH]5)C=C4)C=C3)cc1
REMARK SMILES IDX 4 1 3 2 1 3 2 4 27 6 28 7 89 8 29 9 88 10 30 11 31 12 32 13
REMARK SMILES IDX 82 14 33 15 87 16 81 17 83 18 34 19 86 20 80 21 79 22 35 24
REMARK SMILES IDX 67 25 47 26 66 27 48 28 51 29 65 30 84 31 49 32 50 33 64 35
REMARK SMILES IDX 85 36 52 37 36 38 37 39 45 40 38 41 44 42 46 43 43 44 39 45
REMARK SMILES IDX 40 46 41 47 42 48 68 49 69 50 77 51 70 52 76 53 78 54 75 55
REMARK SMILES IDX 71 56 72 57 73 58 74 59 53 60 54 61 62 62 55 63 61 64 63 65
REMARK SMILES IDX 60 66 56 67 57 68 58 69 59 70 5 71 6 72 7 73 8 74 9 76 10 77
REMARK SMILES IDX 21 78 22 79 26 80 23 81 25 82 24 83 11 84 12 85 13 87 14 88
REMARK SMILES IDX 15 89 20 90 16 91 19 92 17 93 18 94
REMARK H PARENT 3 5 83 23 51 34 7 75 11 86
REMARK Flexibility Score: inf
ROOT
ATOM      1  C   UNL     1       5.742  -0.983   3.774  1.00  0.00     0.118 C 
ENDROOT
BRANCH   1   2
ATOM      2  N   UNL     1       5.921   0.235   2.998  1.00  0.00    -0.352 N 
ATOM      3  O   UNL     1       5.539   2.341   2.315  1.00  0.00    -0.269 OA
ATOM      4  C   UNL     1       5.415   1.496   3.202  1.00  0.00     0.251 C 
ATOM      5  H   UNL     1       6.495   0.141   2.203  1.00  0.00     0.163 HD
BRANCH   4   6
ATOM      6  C   UNL     1       4.716   1.839   4.461  1.00  0.00     0.039 A 
ATOM      7  C   UNL     1       5.184   1.376   5.692  1.00  0.00     0.014 A 
ATOM      8  C   UNL     1       3.596   2.675   4.417  1.00  0.00     0.014 A 
ATOM      9  C   UNL     1       4.454   1.617   6.850  1.00  0.00     0.010 A 
ATOM     10  C   UNL     1       2.924   3.007   5.599  1.00  0.00     0.010 A 
ATOM     11  C   UNL     1       3.334   2.461   6.825  1.00  0.00    -0.014 A 
BRANCH  11  12
ATOM     12  C   UNL     1       2.668   2.821   8.105  1.00  0.00     0.031 A 
ATOM     13  C   UNL     1       1.237   2.447   8.373  1.00  0.00     0.074 A 
ATOM     14  C   UNL     1       3.385   3.476   9.041  1.00  0.00     0.049 A 
ATOM     15  N   UNL     1       0.509   2.685   9.434  1.00  0.00    -0.248 NA
ATOM     16  C   UNL     1       0.529   1.720   7.310  1.00  0.00     0.031 C 
ATOM     17  C   UNL     1       4.782   3.893   8.888  1.00  0.00     0.029 A 
ATOM     18  N   UNL     1       3.054   3.892  10.305  1.00  0.00    -0.354 N 
ATOM     19  C   UNL     1      -0.747   2.150   9.167  1.00  0.00     0.074 A 
ATOM     20  C   UNL     1      -0.688   1.609   7.824  1.00  0.00     0.031 C 
ATOM     21  C   UNL     1       5.201   4.459  10.028  1.00  0.00     0.029 A 
ATOM     22  C   UNL     1       4.084   4.524  10.963  1.00  0.00     0.049 A 
ATOM     23  H   UNL     1       2.165   3.752  10.703  1.00  0.00     0.167 HD
ATOM     24  C   UNL     1      -1.839   2.107   9.971  1.00  0.00     0.034 A 
ATOM     25  C   UNL     1       4.123   5.119  12.170  1.00  0.00     0.034 A 
ATOM     26  C   UNL     1      -1.876   2.662  11.306  1.00  0.00     0.049 A 
ATOM     27  C   UNL     1       2.877   5.116  13.014  1.00  0.00     0.074 A 
ATOM     28  C   UNL     1      -2.920   2.649  12.215  1.00  0.00     0.029 A 
ATOM     29  N   UNL     1      -0.831   3.343  11.918  1.00  0.00    -0.354 N 
ATOM     30  N   UNL     1       1.705   4.585  12.754  1.00  0.00    -0.248 NA
ATOM     31  C   UNL     1       2.961   5.790  14.315  1.00  0.00     0.031 C 
ATOM     32  C   UNL     1      -2.536   3.390  13.338  1.00  0.00     0.029 A 
ATOM     33  C   UNL     1      -1.220   3.789  13.174  1.00  0.00     0.049 A 
ATOM     34  H   UNL     1       0.058   3.489  11.519  1.00  0.00     0.167 HD
ATOM     35  C   UNL     1       0.918   4.841  13.872  1.00  0.00     0.074 A 
ATOM     36  C   UNL     1       1.758   5.553  14.815  1.00  0.00     0.031 C 
ATOM     37  C   UNL     1      -0.380   4.515  14.100  1.00  0.00     0.034 A 
BRANCH  24  38
ATOM     38  C   UNL     1      -3.096   1.481   9.411  1.00  0.00     0.023 A 
ATOM     39  C   UNL     1      -3.151   0.126   9.042  1.00  0.00     0.031 A 
ATOM     40  C   UNL     1      -4.256   2.256   9.229  1.00  0.00     0.131 A 
ATOM     41  C   UNL     1      -4.310  -0.394   8.446  1.00  0.00     0.055 A 
ATOM     42  C   UNL     1      -5.434   1.713   8.713  1.00  0.00     0.041 A 
ATOM     43  F   UNL     1      -4.262   3.562   9.541  1.00  0.00    -0.206 F 
ATOM     44  C   UNL     1      -5.462   0.383   8.303  1.00  0.00     0.022 A 
BRANCH  41  45
ATOM     45  S   UNL     1      -4.242  -2.057   7.724  1.00  0.00     0.124 S 
ATOM     46  O   UNL     1      -3.138  -1.925   6.775  1.00  0.00    -0.237 OA
ATOM     47  O   UNL     1      -3.985  -2.897   8.887  1.00  0.00    -0.237 OA
ATOM     48  O   UNL     1      -5.560  -2.221   7.114  1.00  0.00    -0.744 OA
ENDBRANCH  41  45
ENDBRANCH  24  38
BRANCH  25  49
ATOM     49  C   UNL     1       5.366   5.801  12.632  1.00  0.00     0.023 A 
ATOM     50  C   UNL     1       6.046   5.369  13.780  1.00  0.00     0.031 A 
ATOM     51  C   UNL     1       5.874   6.920  11.946  1.00  0.00     0.131 A 
ATOM     52  C   UNL     1       7.168   6.079  14.235  1.00  0.00     0.055 A 
ATOM     53  C   UNL     1       7.027   7.583  12.366  1.00  0.00     0.041 A 
ATOM     54  F   UNL     1       5.263   7.375  10.841  1.00  0.00    -0.206 F 
ATOM     55  C   UNL     1       7.674   7.171  13.526  1.00  0.00     0.022 A 
BRANCH  52  56
ATOM     56  S   UNL     1       7.905   5.609  15.824  1.00  0.00     0.124 S 
ATOM     57  O   UNL     1       6.770   5.748  16.729  1.00  0.00    -0.237 OA
ATOM     58  O   UNL     1       8.352   4.245  15.559  1.00  0.00    -0.237 OA
ATOM     59  O   UNL     1       8.973   6.589  16.006  1.00  0.00    -0.744 OA
ENDBRANCH  52  56
ENDBRANCH  25  49
BRANCH  37  60
ATOM     60  C   UNL     1      -0.952   4.894  15.445  1.00  0.00     0.023 A 
ATOM     61  C   UNL     1      -1.111   6.236  15.832  1.00  0.00     0.031 A 
ATOM     62  C   UNL     1      -1.322   3.894  16.363  1.00  0.00     0.131 A 
ATOM     63  C   UNL     1      -1.564   6.543  17.124  1.00  0.00     0.055 A 
ATOM     64  C   UNL     1      -1.838   4.205  17.621  1.00  0.00     0.041 A 
ATOM     65  F   UNL     1      -1.186   2.595  16.051  1.00  0.00    -0.206 F 
ATOM     66  C   UNL     1      -1.948   5.536  18.014  1.00  0.00     0.022 A 
BRANCH  63  67
ATOM     67  S   UNL     1      -1.545   8.274  17.666  1.00  0.00     0.124 S 
ATOM     68  O   UNL     1      -0.137   8.624  17.507  1.00  0.00    -0.237 OA
ATOM     69  O   UNL     1      -2.469   8.905  16.730  1.00  0.00    -0.237 OA
ATOM     70  O   UNL     1      -2.015   8.205  19.049  1.00  0.00    -0.744 OA
ENDBRANCH  63  67
ENDBRANCH  37  60
ENDBRANCH  11  12
ENDBRANCH   4   6
ENDBRANCH   1   2
BRANCH   1  71
ATOM     71  C   UNL     1       4.965  -2.049   3.021  1.00  0.00     0.042 C 
BRANCH  71  72
ATOM     72  C   UNL     1       5.713  -2.651   1.837  1.00  0.00     0.117 C 
BRANCH  72  73
ATOM     73  N   UNL     1       6.840  -3.471   2.256  1.00  0.00    -0.354 N 
ATOM     74  C   UNL     1       7.014  -4.824   2.341  1.00  0.00     0.247 C 
ATOM     75  H   UNL     1       7.629  -2.951   2.532  1.00  0.00     0.163 HD
ATOM     76  O   UNL     1       8.016  -5.211   2.954  1.00  0.00    -0.272 OA
BRANCH  74  77
ATOM     77  C   UNL     1       5.988  -5.851   1.783  1.00  0.00     0.202 C 
BRANCH  77  78
ATOM     78  C   UNL     1       4.938  -6.221   2.816  1.00  0.00    -0.016 A 
ATOM     79  C   UNL     1       3.841  -5.399   3.109  1.00  0.00     0.006 A 
ATOM     80  C   UNL     1       5.047  -7.444   3.504  1.00  0.00     0.006 A 
ATOM     81  C   UNL     1       2.890  -5.775   4.061  1.00  0.00     0.000 A 
ATOM     82  C   UNL     1       4.078  -7.837   4.431  1.00  0.00     0.000 A 
ATOM     83  C   UNL     1       3.003  -6.998   4.714  1.00  0.00     0.000 A 
ENDBRANCH  77  78
BRANCH  77  84
ATOM     84  N   UNL     1       5.475  -5.462   0.464  1.00  0.00    -0.336 N 
ATOM     85  C   UNL     1       4.883  -6.232  -0.502  1.00  0.00     0.253 C 
ATOM     86  H   UNL     1       5.570  -4.508   0.240  1.00  0.00     0.165 HD
ATOM     87  O   UNL     1       4.863  -5.848  -1.668  1.00  0.00    -0.269 OA
BRANCH  85  88
ATOM     88  C   UNL     1       4.305  -7.537  -0.172  1.00  0.00     0.058 A 
ATOM     89  C   UNL     1       3.187  -7.662   0.646  1.00  0.00     0.018 A 
ATOM     90  C   UNL     1       4.839  -8.683  -0.737  1.00  0.00     0.126 A 
ATOM     91  C   UNL     1       2.717  -8.933   0.965  1.00  0.00     0.037 A 
ATOM     92  N   UNL     1       4.393  -9.933  -0.460  1.00  0.00    -0.249 NA
ATOM     93  C   UNL     1       3.352 -10.030   0.401  1.00  0.00     0.106 A 
ATOM     94  Br  UNL     1       2.745 -11.768   0.856  1.00  0.00    -0.029 Br
ENDBRANCH  85  88
ENDBRANCH  77  84
ENDBRANCH  74  77
ENDBRANCH  72  73
ENDBRANCH  71  72
ENDBRANCH   1  71
TORSDOF 16
