REMARK SMILES O=C(NCCCNC(=O)c1ccc(-c2c3nc(c(-c4cc(S(=O)(=O)[O-])ccc4F)c4ccc([nH]4)c(-c4cc(S(=O)(=O)[O-])ccc4F)c4nc(c(-c5cc(S(=O)(=O)[O-])ccc5F)c5ccc2[nH]5)C=C4)C=C3)cc1)C1=N[C@@H]2NC=NN2[C@@H]([C@H]2C=NN=C2c2ccc(F)cc2)C1
REMARK SMILES IDX 5 1 4 2 3 3 1 4 2 5 73 7 74 8 93 9 75 10 80 11 76 12 79 13
REMARK SMILES IDX 77 14 78 16 81 17 82 18 85 19 83 20 84 21 86 22 87 23 92 24
REMARK SMILES IDX 88 25 91 26 89 27 90 28 6 29 7 30 8 31 9 33 10 34 11 35
REMARK SMILES IDX 72 36 12 37 71 38 13 39 14 40 15 41 65 42 16 43 70 44 64 45
REMARK SMILES IDX 66 46 17 47 69 48 63 49 62 50 18 52 50 53 30 54 49 55 31 56
REMARK SMILES IDX 34 57 48 58 67 59 32 60 33 61 47 63 68 64 35 65 19 66 20 67
REMARK SMILES IDX 28 68 21 69 27 70 29 71 26 72 22 73 23 74 24 75 25 76 51 77
REMARK SMILES IDX 52 78 60 79 53 80 59 81 61 82 58 83 54 84 55 85 56 86 57 87
REMARK SMILES IDX 36 88 37 89 45 90 38 91 44 92 46 93 43 94 39 95 40 96 41 97
REMARK SMILES IDX 42 98
REMARK H PARENT 3 6 76 15 7 32 66 51 34 62
REMARK Flexibility Score: inf
ROOT
ATOM      1  C   UNL     1      11.808  -5.267  -0.009  1.00  0.00     0.042 C 
ENDROOT
BRANCH   1   2
ATOM      2  C   UNL     1      10.295  -5.250   0.140  1.00  0.00     0.118 C 
BRANCH   2   3
ATOM      3  N   UNL     1       9.795  -4.772   1.417  1.00  0.00    -0.351 N 
ATOM      4  O   UNL     1       8.291  -4.049   2.922  1.00  0.00    -0.268 OA
ATOM      5  C   UNL     1       8.624  -4.125   1.742  1.00  0.00     0.265 C 
ATOM      6  H   UNL     1      10.395  -4.939   2.179  1.00  0.00     0.163 HD
BRANCH   5   7
ATOM      7  C   UNL     1       7.752  -3.409   0.697  1.00  0.00     0.106 C 
ATOM      8  N   UNL     1       7.296  -2.250   1.028  1.00  0.00    -0.237 NA
ATOM      9  C   UNL     1       7.464  -4.078  -0.615  1.00  0.00     0.090 C 
ATOM     10  C   UNL     1       6.663  -1.426   0.028  1.00  0.00     0.319 C 
ATOM     11  C   UNL     1       6.314  -3.386  -1.333  1.00  0.00     0.127 C 
ATOM     12  N   UNL     1       5.357  -0.909   0.325  1.00  0.00    -0.335 N 
ATOM     13  N   UNL     1       6.538  -1.924  -1.365  1.00  0.00    -0.249 NA
ATOM     14  C   UNL     1       4.780  -0.752  -0.897  1.00  0.00     0.217 C 
ATOM     15  H   UNL     1       4.970  -0.713   1.208  1.00  0.00     0.165 HD
ATOM     16  N   UNL     1       5.423  -1.256  -1.918  1.00  0.00    -0.164 NA
BRANCH  11  17
ATOM     17  C   UNL     1       6.060  -3.893  -2.763  1.00  0.00     0.109 C 
ATOM     18  C   UNL     1       7.212  -3.690  -3.692  1.00  0.00     0.120 C 
ATOM     19  C   UNL     1       5.982  -5.384  -2.885  1.00  0.00     0.081 C 
ATOM     20  N   UNL     1       7.644  -4.790  -4.216  1.00  0.00    -0.162 NA
ATOM     21  N   UNL     1       6.871  -5.869  -3.698  1.00  0.00    -0.155 NA
BRANCH  19  22
ATOM     22  C   UNL     1       5.069  -6.202  -2.070  1.00  0.00    -0.001 A 
ATOM     23  C   UNL     1       3.905  -5.661  -1.511  1.00  0.00     0.013 A 
ATOM     24  C   UNL     1       5.475  -7.501  -1.741  1.00  0.00     0.013 A 
ATOM     25  C   UNL     1       3.185  -6.400  -0.572  1.00  0.00     0.040 A 
ATOM     26  C   UNL     1       4.749  -8.236  -0.805  1.00  0.00     0.040 A 
ATOM     27  C   UNL     1       3.621  -7.674  -0.219  1.00  0.00     0.123 A 
ATOM     28  F   UNL     1       2.948  -8.364   0.710  1.00  0.00    -0.207 F 
ENDBRANCH  19  22
ENDBRANCH  11  17
ENDBRANCH   5   7
ENDBRANCH   2   3
ENDBRANCH   1   2
BRANCH   1  29
ATOM     29  C   UNL     1      12.567  -6.148   0.968  1.00  0.00     0.118 C 
BRANCH  29  30
ATOM     30  N   UNL     1      12.373  -7.573   0.747  1.00  0.00    -0.352 N 
ATOM     31  C   UNL     1      13.189  -8.527   0.170  1.00  0.00     0.251 C 
ATOM     32  H   UNL     1      11.507  -7.918   1.063  1.00  0.00     0.163 HD
ATOM     33  O   UNL     1      12.742  -9.648  -0.019  1.00  0.00    -0.269 OA
BRANCH  31  34
ATOM     34  C   UNL     1      14.573  -8.195  -0.257  1.00  0.00     0.039 A 
ATOM     35  C   UNL     1      15.059  -8.723  -1.459  1.00  0.00     0.014 A 
ATOM     36  C   UNL     1      15.402  -7.387   0.517  1.00  0.00     0.014 A 
ATOM     37  C   UNL     1      16.328  -8.355  -1.925  1.00  0.00     0.010 A 
ATOM     38  C   UNL     1      16.612  -6.931   0.001  1.00  0.00     0.010 A 
ATOM     39  C   UNL     1      17.094  -7.410  -1.227  1.00  0.00    -0.014 A 
BRANCH  39  40
ATOM     40  C   UNL     1      18.411  -6.918  -1.723  1.00  0.00     0.031 A 
ATOM     41  C   UNL     1      19.640  -7.088  -0.868  1.00  0.00     0.074 A 
ATOM     42  C   UNL     1      18.491  -6.230  -2.880  1.00  0.00     0.049 A 
ATOM     43  N   UNL     1      20.832  -6.568  -1.009  1.00  0.00    -0.248 NA
ATOM     44  C   UNL     1      19.487  -7.923   0.333  1.00  0.00     0.031 C 
ATOM     45  C   UNL     1      17.377  -5.977  -3.796  1.00  0.00     0.029 A 
ATOM     46  N   UNL     1      19.556  -5.599  -3.476  1.00  0.00    -0.354 N 
ATOM     47  C   UNL     1      21.562  -6.987   0.100  1.00  0.00     0.074 A 
ATOM     48  C   UNL     1      20.652  -7.744   0.935  1.00  0.00     0.031 C 
ATOM     49  C   UNL     1      17.820  -5.264  -4.843  1.00  0.00     0.029 A 
ATOM     50  C   UNL     1      19.233  -4.953  -4.648  1.00  0.00     0.049 A 
ATOM     51  H   UNL     1      20.465  -5.607  -3.100  1.00  0.00     0.167 HD
ATOM     52  C   UNL     1      22.872  -6.782   0.385  1.00  0.00     0.034 A 
ATOM     53  C   UNL     1      19.980  -4.179  -5.461  1.00  0.00     0.034 A 
ATOM     54  C   UNL     1      23.770  -6.042  -0.468  1.00  0.00     0.049 A 
ATOM     55  C   UNL     1      21.425  -3.924  -5.106  1.00  0.00     0.074 A 
ATOM     56  C   UNL     1      25.124  -5.809  -0.300  1.00  0.00     0.029 A 
ATOM     57  N   UNL     1      23.404  -5.409  -1.650  1.00  0.00    -0.354 N 
ATOM     58  N   UNL     1      22.106  -4.341  -4.064  1.00  0.00    -0.248 NA
ATOM     59  C   UNL     1      22.202  -3.099  -6.040  1.00  0.00     0.031 C 
ATOM     60  C   UNL     1      25.559  -4.978  -1.338  1.00  0.00     0.029 A 
ATOM     61  C   UNL     1      24.499  -4.764  -2.205  1.00  0.00     0.049 A 
ATOM     62  H   UNL     1      22.498  -5.417  -2.037  1.00  0.00     0.167 HD
ATOM     63  C   UNL     1      23.403  -3.866  -4.242  1.00  0.00     0.074 A 
ATOM     64  C   UNL     1      23.407  -3.131  -5.490  1.00  0.00     0.031 C 
ATOM     65  C   UNL     1      24.494  -4.035  -3.452  1.00  0.00     0.034 A 
BRANCH  52  66
ATOM     66  C   UNL     1      23.395  -7.346   1.688  1.00  0.00     0.023 A 
ATOM     67  C   UNL     1      23.358  -8.725   1.963  1.00  0.00     0.031 A 
ATOM     68  C   UNL     1      23.890  -6.493   2.689  1.00  0.00     0.131 A 
ATOM     69  C   UNL     1      23.708  -9.196   3.237  1.00  0.00     0.055 A 
ATOM     70  C   UNL     1      24.332  -6.980   3.922  1.00  0.00     0.041 A 
ATOM     71  F   UNL     1      23.933  -5.165   2.498  1.00  0.00    -0.206 F 
ATOM     72  C   UNL     1      24.222  -8.337   4.210  1.00  0.00     0.022 A 
BRANCH  69  73
ATOM     73  S   UNL     1      23.306 -10.914   3.660  1.00  0.00     0.124 S 
ATOM     74  O   UNL     1      21.862 -10.941   3.436  1.00  0.00    -0.237 OA
ATOM     75  O   UNL     1      24.115 -11.670   2.712  1.00  0.00    -0.237 OA
ATOM     76  O   UNL     1      23.713 -11.026   5.059  1.00  0.00    -0.744 OA
ENDBRANCH  69  73
ENDBRANCH  52  66
BRANCH  53  77
ATOM     77  C   UNL     1      19.383  -3.576  -6.688  1.00  0.00     0.023 A 
ATOM     78  C   UNL     1      19.838  -3.943  -7.965  1.00  0.00     0.031 A 
ATOM     79  C   UNL     1      18.375  -2.599  -6.605  1.00  0.00     0.131 A 
ATOM     80  C   UNL     1      19.319  -3.308  -9.104  1.00  0.00     0.055 A 
ATOM     81  C   UNL     1      17.822  -2.010  -7.744  1.00  0.00     0.041 A 
ATOM     82  F   UNL     1      17.902  -2.211  -5.410  1.00  0.00    -0.206 F 
ATOM     83  C   UNL     1      18.303  -2.355  -9.003  1.00  0.00     0.022 A 
BRANCH  80  84
ATOM     84  S   UNL     1      20.052  -3.687 -10.719  1.00  0.00     0.124 S 
ATOM     85  O   UNL     1      21.444  -3.302 -10.509  1.00  0.00    -0.237 OA
ATOM     86  O   UNL     1      19.793  -5.117 -10.842  1.00  0.00    -0.237 OA
ATOM     87  O   UNL     1      19.302  -2.837 -11.641  1.00  0.00    -0.744 OA
ENDBRANCH  80  84
ENDBRANCH  53  77
BRANCH  65  88
ATOM     88  C   UNL     1      25.806  -3.477  -3.950  1.00  0.00     0.023 A 
ATOM     89  C   UNL     1      26.039  -2.096  -4.062  1.00  0.00     0.031 A 
ATOM     90  C   UNL     1      26.847  -4.355  -4.305  1.00  0.00     0.131 A 
ATOM     91  C   UNL     1      27.269  -1.634  -4.560  1.00  0.00     0.055 A 
ATOM     92  C   UNL     1      28.087  -3.889  -4.742  1.00  0.00     0.041 A 
ATOM     93  F   UNL     1      26.677  -5.685  -4.221  1.00  0.00    -0.206 F 
ATOM     94  C   UNL     1      28.300  -2.522  -4.881  1.00  0.00     0.022 A 
BRANCH  91  95
ATOM     95  S   UNL     1      27.480   0.143  -4.856  1.00  0.00     0.124 S 
ATOM     96  O   UNL     1      26.411   0.421  -5.810  1.00  0.00    -0.237 OA
ATOM     97  O   UNL     1      27.306   0.706  -3.521  1.00  0.00    -0.237 OA
ATOM     98  O   UNL     1      28.835   0.242  -5.397  1.00  0.00    -0.744 OA
ENDBRANCH  91  95
ENDBRANCH  65  88
ENDBRANCH  39  40
ENDBRANCH  31  34
ENDBRANCH  29  30
ENDBRANCH   1  29
TORSDOF 15
