REMARK SMILES CC1=C(CC(=O)NCCCNC(=O)c2ccc(-c3c4nc(c(-c5cc(S(=O)(=O)[O-])ccc5F)c5ccc([nH]5)c(-c5cc(S(=O)(=O)[O-])ccc5F)c5nc(c(-c6cc(S(=O)(=O)[O-])ccc6F)c6ccc3[nH]6)C=C5)C=C4)cc2)c2cc(F)ccc2/C1=C\c1cccc(OCc2ccccc2)c1
REMARK SMILES IDX 8 1 7 2 5 3 6 4 4 6 3 7 1 8 2 9 84 10 77 11 83 12 85 13
REMARK SMILES IDX 78 14 82 15 79 16 81 17 80 18 86 19 87 20 99 21 88 22 90 23
REMARK SMILES IDX 89 24 91 25 92 26 93 27 94 28 98 29 95 30 97 31 96 32 9 33
REMARK SMILES IDX 10 34 11 35 12 36 13 38 14 39 15 40 76 41 16 42 75 43 17 44
REMARK SMILES IDX 18 45 19 46 69 47 20 48 74 49 68 50 70 51 21 52 73 53 67 54
REMARK SMILES IDX 66 55 22 57 54 58 34 59 53 60 35 61 38 62 52 63 71 64 36 65
REMARK SMILES IDX 37 66 51 68 72 69 39 70 23 71 24 72 32 73 25 74 31 75 33 76
REMARK SMILES IDX 30 77 26 78 27 79 28 80 29 81 55 82 56 83 64 84 57 85 63 86
REMARK SMILES IDX 65 87 62 88 58 89 59 90 60 91 61 92 40 93 41 94 49 95 42 96
REMARK SMILES IDX 48 97 50 98 47 99 43 100 44 101 45 102 46 103
REMARK H PARENT 7 5 11 37 70 56 38 67
REMARK Flexibility Score: inf
ROOT
ATOM      1  C   UNL     1      -1.756  -2.442   0.336  1.00  0.00     0.117 C 
ENDROOT
BRANCH   1   2
ATOM      2  N   UNL     1      -1.573  -3.574  -0.553  1.00  0.00    -0.356 N 
ATOM      3  C   UNL     1      -0.546  -3.845  -1.408  1.00  0.00     0.224 C 
ATOM      4  O   UNL     1      -0.607  -4.874  -2.085  1.00  0.00    -0.275 OA
ATOM      5  H   UNL     1      -2.295  -4.243  -0.537  1.00  0.00     0.163 HD
BRANCH   3   6
ATOM      6  C   UNL     1       0.664  -2.919  -1.487  1.00  0.00     0.136 C 
BRANCH   6   7
ATOM      7  C   UNL     1       0.364  -1.610  -2.139  1.00  0.00    -0.027 C 
ATOM      8  C   UNL     1       0.992   0.059  -0.297  1.00  0.00     0.045 C 
ATOM      9  C   UNL     1       0.479  -0.358  -1.637  1.00  0.00    -0.039 C 
ATOM     10  C   UNL     1       0.017   0.615  -2.637  1.00  0.00    -0.014 C 
ATOM     11  C   UNL     1      -0.109  -1.493  -3.533  1.00  0.00    -0.011 A 
ATOM     12  C   UNL     1      -0.312  -0.139  -3.858  1.00  0.00    -0.010 A 
ATOM     13  C   UNL     1      -0.093   1.935  -2.413  1.00  0.00     0.017 C 
ATOM     14  C   UNL     1      -0.340  -2.485  -4.476  1.00  0.00     0.048 A 
ATOM     15  C   UNL     1      -0.739   0.233  -5.127  1.00  0.00     0.012 A 
ATOM     16  C   UNL     1      -0.781  -2.104  -5.741  1.00  0.00     0.123 A 
ATOM     17  C   UNL     1      -0.981  -0.764  -6.073  1.00  0.00     0.040 A 
ATOM     18  F   UNL     1      -1.012  -3.045  -6.666  1.00  0.00    -0.207 F 
BRANCH  13  19
ATOM     19  C   UNL     1      -0.499   2.934  -3.398  1.00  0.00    -0.021 A 
ATOM     20  C   UNL     1      -1.845   3.212  -3.652  1.00  0.00     0.008 A 
ATOM     21  C   UNL     1       0.503   3.612  -4.102  1.00  0.00     0.054 A 
ATOM     22  C   UNL     1      -2.185   4.140  -4.636  1.00  0.00     0.004 A 
ATOM     23  C   UNL     1       0.164   4.587  -5.037  1.00  0.00     0.120 A 
ATOM     24  C   UNL     1      -1.182   4.816  -5.332  1.00  0.00     0.046 A 
BRANCH  23  25
ATOM     25  O   UNL     1       1.045   5.428  -5.657  1.00  0.00    -0.489 OA
BRANCH  25  26
ATOM     26  C   UNL     1       2.335   5.617  -5.066  1.00  0.00     0.265 C 
BRANCH  26  27
ATOM     27  C   UNL     1       2.401   6.511  -3.836  1.00  0.00    -0.011 A 
ATOM     28  C   UNL     1       1.343   6.661  -2.927  1.00  0.00     0.007 A 
ATOM     29  C   UNL     1       3.605   7.178  -3.552  1.00  0.00     0.007 A 
ATOM     30  C   UNL     1       1.479   7.439  -1.775  1.00  0.00     0.000 A 
ATOM     31  C   UNL     1       3.738   7.970  -2.407  1.00  0.00     0.000 A 
ATOM     32  C   UNL     1       2.676   8.095  -1.516  1.00  0.00     0.000 A 
ENDBRANCH  26  27
ENDBRANCH  25  26
ENDBRANCH  23  25
ENDBRANCH  13  19
ENDBRANCH   6   7
ENDBRANCH   3   6
ENDBRANCH   1   2
BRANCH   1  33
ATOM     33  C   UNL     1      -2.688  -1.386  -0.246  1.00  0.00     0.042 C 
BRANCH  33  34
ATOM     34  C   UNL     1      -4.128  -1.858  -0.416  1.00  0.00     0.118 C 
BRANCH  34  35
ATOM     35  N   UNL     1      -4.788  -2.114   0.856  1.00  0.00    -0.352 N 
ATOM     36  C   UNL     1      -5.867  -1.489   1.439  1.00  0.00     0.251 C 
ATOM     37  H   UNL     1      -4.402  -2.851   1.383  1.00  0.00     0.163 HD
ATOM     38  O   UNL     1      -6.143  -1.733   2.606  1.00  0.00    -0.269 OA
BRANCH  36  39
ATOM     39  C   UNL     1      -6.665  -0.508   0.669  1.00  0.00     0.039 A 
ATOM     40  C   UNL     1      -7.028  -0.758  -0.656  1.00  0.00     0.014 A 
ATOM     41  C   UNL     1      -7.066   0.678   1.291  1.00  0.00     0.014 A 
ATOM     42  C   UNL     1      -7.641   0.241  -1.406  1.00  0.00     0.010 A 
ATOM     43  C   UNL     1      -7.758   1.647   0.559  1.00  0.00     0.010 A 
ATOM     44  C   UNL     1      -8.011   1.456  -0.808  1.00  0.00    -0.014 A 
BRANCH  44  45
ATOM     45  C   UNL     1      -8.680   2.506  -1.619  1.00  0.00     0.031 A 
ATOM     46  C   UNL     1      -8.007   3.827  -1.868  1.00  0.00     0.074 A 
ATOM     47  C   UNL     1      -9.890   2.251  -2.153  1.00  0.00     0.049 A 
ATOM     48  N   UNL     1      -8.449   4.862  -2.534  1.00  0.00    -0.248 NA
ATOM     49  C   UNL     1      -6.662   4.013  -1.298  1.00  0.00     0.031 C 
ATOM     50  C   UNL     1     -10.625   0.996  -1.991  1.00  0.00     0.029 A 
ATOM     51  N   UNL     1     -10.710   3.017  -2.945  1.00  0.00    -0.354 N 
ATOM     52  C   UNL     1      -7.451   5.826  -2.451  1.00  0.00     0.074 A 
ATOM     53  C   UNL     1      -6.390   5.264  -1.645  1.00  0.00     0.031 C 
ATOM     54  C   UNL     1     -11.764   1.061  -2.693  1.00  0.00     0.029 A 
ATOM     55  C   UNL     1     -11.884   2.388  -3.291  1.00  0.00     0.049 A 
ATOM     56  H   UNL     1     -10.479   3.928  -3.237  1.00  0.00     0.167 HD
ATOM     57  C   UNL     1      -7.422   7.059  -3.010  1.00  0.00     0.034 A 
ATOM     58  C   UNL     1     -12.951   2.833  -3.986  1.00  0.00     0.034 A 
ATOM     59  C   UNL     1      -8.483   7.594  -3.825  1.00  0.00     0.049 A 
ATOM     60  C   UNL     1     -12.921   4.232  -4.542  1.00  0.00     0.074 A 
ATOM     61  C   UNL     1      -8.527   8.816  -4.472  1.00  0.00     0.029 A 
ATOM     62  N   UNL     1      -9.680   6.951  -4.106  1.00  0.00    -0.354 N 
ATOM     63  N   UNL     1     -11.951   5.115  -4.492  1.00  0.00    -0.248 NA
ATOM     64  C   UNL     1     -14.125   4.704  -5.239  1.00  0.00     0.031 C 
ATOM     65  C   UNL     1      -9.772   8.940  -5.088  1.00  0.00     0.029 A 
ATOM     66  C   UNL     1     -10.484   7.767  -4.885  1.00  0.00     0.049 A 
ATOM     67  H   UNL     1      -9.922   6.048  -3.797  1.00  0.00     0.167 HD
ATOM     68  C   UNL     1     -12.424   6.243  -5.155  1.00  0.00     0.074 A 
ATOM     69  C   UNL     1     -13.755   5.920  -5.625  1.00  0.00     0.031 C 
ATOM     70  C   UNL     1     -11.811   7.438  -5.349  1.00  0.00     0.034 A 
BRANCH  57  71
ATOM     71  C   UNL     1      -6.213   7.931  -2.782  1.00  0.00     0.023 A 
ATOM     72  C   UNL     1      -6.347   9.148  -2.086  1.00  0.00     0.031 A 
ATOM     73  C   UNL     1      -4.969   7.630  -3.364  1.00  0.00     0.131 A 
ATOM     74  C   UNL     1      -5.265  10.035  -2.019  1.00  0.00     0.055 A 
ATOM     75  C   UNL     1      -3.882   8.501  -3.263  1.00  0.00     0.041 A 
ATOM     76  F   UNL     1      -4.792   6.481  -4.037  1.00  0.00    -0.206 F 
ATOM     77  C   UNL     1      -4.032   9.716  -2.600  1.00  0.00     0.022 A 
BRANCH  74  78
ATOM     78  S   UNL     1      -5.430  11.660  -1.230  1.00  0.00     0.124 S 
ATOM     79  O   UNL     1      -4.404  11.593  -0.191  1.00  0.00    -0.237 OA
ATOM     80  O   UNL     1      -5.140  12.568  -2.336  1.00  0.00    -0.237 OA
ATOM     81  O   UNL     1      -6.805  11.676  -0.743  1.00  0.00    -0.744 OA
ENDBRANCH  74  78
ENDBRANCH  57  71
BRANCH  58  82
ATOM     82  C   UNL     1     -14.109   1.917  -4.197  1.00  0.00     0.023 A 
ATOM     83  C   UNL     1     -14.821   1.390  -3.102  1.00  0.00     0.031 A 
ATOM     84  C   UNL     1     -14.436   1.452  -5.481  1.00  0.00     0.131 A 
ATOM     85  C   UNL     1     -15.757   0.368  -3.304  1.00  0.00     0.055 A 
ATOM     86  C   UNL     1     -15.425   0.488  -5.685  1.00  0.00     0.041 A 
ATOM     87  F   UNL     1     -13.781   1.918  -6.555  1.00  0.00    -0.206 F 
ATOM     88  C   UNL     1     -16.075  -0.075  -4.590  1.00  0.00     0.022 A 
BRANCH  85  89
ATOM     89  S   UNL     1     -16.473  -0.525  -1.895  1.00  0.00     0.124 S 
ATOM     90  O   UNL     1     -17.897  -0.252  -2.053  1.00  0.00    -0.237 OA
ATOM     91  O   UNL     1     -16.059  -1.899  -2.172  1.00  0.00    -0.237 OA
ATOM     92  O   UNL     1     -15.835   0.091  -0.736  1.00  0.00    -0.744 OA
ENDBRANCH  85  89
ENDBRANCH  58  82
BRANCH  70  93
ATOM     93  C   UNL     1     -12.561   8.521  -6.084  1.00  0.00     0.023 A 
ATOM     94  C   UNL     1     -12.076   9.004  -7.315  1.00  0.00     0.031 A 
ATOM     95  C   UNL     1     -13.646   9.185  -5.487  1.00  0.00     0.131 A 
ATOM     96  C   UNL     1     -12.642  10.153  -7.882  1.00  0.00     0.055 A 
ATOM     97  C   UNL     1     -14.237  10.301  -6.081  1.00  0.00     0.041 A 
ATOM     98  F   UNL     1     -14.138   8.765  -4.311  1.00  0.00    -0.206 F 
ATOM     99  C   UNL     1     -13.724  10.799  -7.276  1.00  0.00     0.022 A 
BRANCH  96 100
ATOM    100  S   UNL     1     -11.938  10.902  -9.377  1.00  0.00     0.124 S 
ATOM    101  O   UNL     1     -13.082  10.897 -10.286  1.00  0.00    -0.237 OA
ATOM    102  O   UNL     1     -11.529  12.219  -8.897  1.00  0.00    -0.237 OA
ATOM    103  O   UNL     1     -10.851  10.001  -9.744  1.00  0.00    -0.744 OA
ENDBRANCH  96 100
ENDBRANCH  70  93
ENDBRANCH  44  45
ENDBRANCH  36  39
ENDBRANCH  34  35
ENDBRANCH  33  34
ENDBRANCH   1  33
TORSDOF 18
