REMARK SMILES C[C@H](CC[NH+](C)C)[NH2+][C@H](C)[C@@H](C)C(=O)NCCCNC(=O)c1ccc(-c2c3nc(c(-c4cc(S(=O)(=O)[O-])ccc4F)c4ccc([nH]4)c(-c4cc(S(=O)(=O)[O-])ccc4F)c4nc(c(-c5cc(S(=O)(=O)[O-])ccc5F)c5ccc2[nH]5)C=C4)C=C3)cc1
REMARK SMILES IDX 13 1 14 2 15 3 11 5 12 6 9 7 10 8 8 9 2 12 1 13 3 14 4 15
REMARK SMILES IDX 5 16 6 17 7 18 16 20 17 21 18 22 19 23 20 24 21 26 22 27
REMARK SMILES IDX 23 28 84 29 24 30 83 31 25 32 26 33 27 34 77 35 28 36 82 37
REMARK SMILES IDX 76 38 78 39 29 40 81 41 75 42 74 43 30 45 62 46 42 47 61 48
REMARK SMILES IDX 43 49 46 50 60 51 79 52 44 53 45 54 59 56 80 57 47 58 31 59
REMARK SMILES IDX 32 60 40 61 33 62 39 63 41 64 38 65 34 66 35 67 36 68 37 69
REMARK SMILES IDX 63 70 64 71 72 72 65 73 71 74 73 75 70 76 66 77 67 78 68 79
REMARK SMILES IDX 69 80 48 81 49 82 57 83 50 84 56 85 58 86 55 87 51 88 52 89
REMARK SMILES IDX 53 90 54 91
REMARK H PARENT 15 4 8 10 8 11 5 19 19 25 78 44 46 55
REMARK Flexibility Score: inf
ROOT
ATOM      1  C   UNL     1      -3.736   2.292   3.442  1.00  0.00     0.228 C 
ATOM      2  O   UNL     1      -4.546   3.223   3.384  1.00  0.00    -0.275 OA
ATOM      3  N   UNL     1      -3.377   1.879   4.684  1.00  0.00    -0.356 N 
ATOM      4  H   UNL     1      -3.773   2.411   5.412  1.00  0.00     0.163 HD
ENDROOT
BRANCH   1   5
ATOM      5  C   UNL     1      -3.247   1.608   2.169  1.00  0.00     0.133 C 
ATOM      6  C   UNL     1      -3.880   0.208   2.097  1.00  0.00     0.024 C 
BRANCH   5   7
ATOM      7  C   UNL     1      -1.710   1.652   1.980  1.00  0.00     0.191 C 
ATOM      8  C   UNL     1      -1.232   0.659   0.905  1.00  0.00     0.076 C 
BRANCH   7   9
ATOM      9  N   UNL     1      -1.004   2.889   1.637  1.00  0.00    -0.341 N 
ATOM     10  H   UNL     1      -0.214   2.929   2.281  1.00  0.00     0.346 HD
ATOM     11  H   UNL     1      -0.898   2.749   0.632  1.00  0.00     0.346 HD
BRANCH   9  12
ATOM     12  C   UNL     1      -1.561   4.234   1.636  1.00  0.00     0.185 C 
ATOM     13  C   UNL     1      -2.821   4.454   0.795  1.00  0.00     0.075 C 
BRANCH  12  14
ATOM     14  C   UNL     1      -0.441   5.243   1.216  1.00  0.00     0.126 C 
BRANCH  14  15
ATOM     15  C   UNL     1       0.676   4.796   0.236  1.00  0.00     0.268 C 
BRANCH  15  16
ATOM     16  N   UNL     1       0.446   4.730  -1.222  1.00  0.00    -0.340 N 
ATOM     17  C   UNL     1       1.646   4.175  -1.863  1.00  0.00     0.332 C 
ATOM     18  C   UNL     1      -0.705   3.924  -1.606  1.00  0.00     0.332 C 
ATOM     19  H   UNL     1       0.250   5.683  -1.529  1.00  0.00     0.347 HD
ENDBRANCH  15  16
ENDBRANCH  14  15
ENDBRANCH  12  14
ENDBRANCH   9  12
ENDBRANCH   7   9
ENDBRANCH   5   7
ENDBRANCH   1   5
BRANCH   3  20
ATOM     20  C   UNL     1      -2.520   0.800   5.138  1.00  0.00     0.117 C 
BRANCH  20  21
ATOM     21  C   UNL     1      -1.243   1.319   5.784  1.00  0.00     0.042 C 
BRANCH  21  22
ATOM     22  C   UNL     1      -1.481   2.119   7.057  1.00  0.00     0.118 C 
BRANCH  22  23
ATOM     23  N   UNL     1      -2.147   1.336   8.088  1.00  0.00    -0.352 N 
ATOM     24  C   UNL     1      -1.698   0.930   9.321  1.00  0.00     0.251 C 
ATOM     25  H   UNL     1      -3.064   1.053   7.867  1.00  0.00     0.163 HD
ATOM     26  O   UNL     1      -2.324   0.071   9.933  1.00  0.00    -0.269 OA
BRANCH  24  27
ATOM     27  C   UNL     1      -0.462   1.509   9.892  1.00  0.00     0.039 A 
ATOM     28  C   UNL     1       0.417   0.679  10.592  1.00  0.00     0.014 A 
ATOM     29  C   UNL     1      -0.179   2.870   9.756  1.00  0.00     0.014 A 
ATOM     30  C   UNL     1       1.608   1.204  11.098  1.00  0.00     0.010 A 
ATOM     31  C   UNL     1       1.050   3.368  10.171  1.00  0.00     0.010 A 
ATOM     32  C   UNL     1       1.953   2.544  10.858  1.00  0.00    -0.014 A 
BRANCH  32  33
ATOM     33  C   UNL     1       3.239   3.112  11.338  1.00  0.00     0.031 A 
ATOM     34  C   UNL     1       3.238   4.248  12.325  1.00  0.00     0.074 A 
ATOM     35  C   UNL     1       4.402   2.648  10.843  1.00  0.00     0.049 A 
ATOM     36  N   UNL     1       4.246   4.927  12.811  1.00  0.00    -0.248 NA
ATOM     37  C   UNL     1       1.923   4.703  12.799  1.00  0.00     0.031 C 
ATOM     38  C   UNL     1       4.531   1.571   9.859  1.00  0.00     0.029 A 
ATOM     39  N   UNL     1       5.697   3.019  11.099  1.00  0.00    -0.354 N 
ATOM     40  C   UNL     1       3.685   5.893  13.641  1.00  0.00     0.074 A 
ATOM     41  C   UNL     1       2.249   5.764  13.518  1.00  0.00     0.031 C 
ATOM     42  C   UNL     1       5.833   1.340   9.630  1.00  0.00     0.029 A 
ATOM     43  C   UNL     1       6.630   2.285  10.405  1.00  0.00     0.049 A 
ATOM     44  H   UNL     1       5.936   3.744  11.721  1.00  0.00     0.167 HD
ATOM     45  C   UNL     1       4.308   6.781  14.457  1.00  0.00     0.034 A 
ATOM     46  C   UNL     1       7.975   2.367  10.393  1.00  0.00     0.034 A 
ATOM     47  C   UNL     1       5.743   6.897  14.560  1.00  0.00     0.049 A 
ATOM     48  C   UNL     1       8.648   3.405  11.254  1.00  0.00     0.074 A 
ATOM     49  C   UNL     1       6.486   7.737  15.372  1.00  0.00     0.029 A 
ATOM     50  N   UNL     1       6.657   6.158  13.817  1.00  0.00    -0.354 N 
ATOM     51  N   UNL     1       8.108   4.286  12.064  1.00  0.00    -0.248 NA
ATOM     52  C   UNL     1      10.114   3.451  11.204  1.00  0.00     0.031 C 
ATOM     53  C   UNL     1       7.840   7.561  15.064  1.00  0.00     0.029 A 
ATOM     54  C   UNL     1       7.952   6.547  14.126  1.00  0.00     0.049 A 
ATOM     55  H   UNL     1       6.418   5.459  13.165  1.00  0.00     0.167 HD
ATOM     56  C   UNL     1       9.173   4.965  12.650  1.00  0.00     0.074 A 
ATOM     57  C   UNL     1      10.383   4.384  12.105  1.00  0.00     0.031 C 
ATOM     58  C   UNL     1       9.153   5.970  13.564  1.00  0.00     0.034 A 
BRANCH  45  59
ATOM     59  C   UNL     1       3.426   7.706  15.267  1.00  0.00     0.023 A 
ATOM     60  C   UNL     1       2.478   7.205  16.178  1.00  0.00     0.031 A 
ATOM     61  C   UNL     1       3.478   9.098  15.079  1.00  0.00     0.131 A 
ATOM     62  C   UNL     1       1.548   8.071  16.773  1.00  0.00     0.055 A 
ATOM     63  C   UNL     1       2.618   9.966  15.757  1.00  0.00     0.041 A 
ATOM     64  F   UNL     1       4.345   9.640  14.210  1.00  0.00    -0.206 F 
ATOM     65  C   UNL     1       1.630   9.452  16.592  1.00  0.00     0.022 A 
BRANCH  62  66
ATOM     66  S   UNL     1       0.114   7.346  17.615  1.00  0.00     0.124 S 
ATOM     67  O   UNL     1      -0.463   6.521  16.555  1.00  0.00    -0.237 OA
ATOM     68  O   UNL     1       0.729   6.625  18.723  1.00  0.00    -0.237 OA
ATOM     69  O   UNL     1      -0.686   8.509  17.992  1.00  0.00    -0.744 OA
ENDBRANCH  62  66
ENDBRANCH  45  59
BRANCH  46  70
ATOM     70  C   UNL     1       8.777   1.434   9.552  1.00  0.00     0.023 A 
ATOM     71  C   UNL     1       9.641   0.500  10.145  1.00  0.00     0.031 A 
ATOM     72  C   UNL     1       8.713   1.476   8.148  1.00  0.00     0.131 A 
ATOM     73  C   UNL     1      10.436  -0.328   9.338  1.00  0.00     0.055 A 
ATOM     74  C   UNL     1       9.467   0.614   7.350  1.00  0.00     0.041 A 
ATOM     75  F   UNL     1       7.900   2.347   7.530  1.00  0.00    -0.206 F 
ATOM     76  C   UNL     1      10.344  -0.288   7.945  1.00  0.00     0.022 A 
BRANCH  73  77
ATOM     77  S   UNL     1      11.649  -1.412  10.139  1.00  0.00     0.124 S 
ATOM     78  O   UNL     1      12.488  -0.449  10.842  1.00  0.00    -0.237 OA
ATOM     79  O   UNL     1      10.799  -2.255  10.974  1.00  0.00    -0.237 OA
ATOM     80  O   UNL     1      12.288  -2.095   9.016  1.00  0.00    -0.744 OA
ENDBRANCH  73  77
ENDBRANCH  46  70
BRANCH  58  81
ATOM     81  C   UNL     1      10.487   6.467  14.069  1.00  0.00     0.023 A 
ATOM     82  C   UNL     1      11.408   7.116  13.227  1.00  0.00     0.031 A 
ATOM     83  C   UNL     1      10.848   6.273  15.415  1.00  0.00     0.131 A 
ATOM     84  C   UNL     1      12.666   7.491  13.724  1.00  0.00     0.055 A 
ATOM     85  C   UNL     1      12.072   6.712  15.920  1.00  0.00     0.041 A 
ATOM     86  F   UNL     1      10.011   5.655  16.264  1.00  0.00    -0.206 F 
ATOM     87  C   UNL     1      12.996   7.311  15.070  1.00  0.00     0.022 A 
BRANCH  84  88
ATOM     88  S   UNL     1      13.909   8.121  12.562  1.00  0.00     0.124 S 
ATOM     89  O   UNL     1      14.017   7.021  11.609  1.00  0.00    -0.237 OA
ATOM     90  O   UNL     1      13.280   9.339  12.062  1.00  0.00    -0.237 OA
ATOM     91  O   UNL     1      15.087   8.331  13.401  1.00  0.00    -0.744 OA
ENDBRANCH  84  88
ENDBRANCH  58  81
ENDBRANCH  32  33
ENDBRANCH  24  27
ENDBRANCH  22  23
ENDBRANCH  21  22
ENDBRANCH  20  21
ENDBRANCH   3  20
TORSDOF 19
