REMARK SMILES O=C(NCCCNC(=O)[C@@H]1CCCC[C@@H]1C(=O)Nc1nc(-c2ccc(Cl)c(Cl)c2)cs1)c1ccc(-c2c3nc(c(-c4cc(S(=O)(=O)[O-])ccc4F)c4ccc([nH]4)c(-c4cc(S(=O)(=O)[O-])ccc4F)c4nc(c(-c5cc(S(=O)(=O)[O-])ccc5F)c5ccc2[nH]5)C=C4)C=C3)cc1
REMARK SMILES IDX 5 1 4 2 3 3 1 4 2 5 32 7 33 8 94 9 34 10 93 11 35 12 36 13
REMARK SMILES IDX 37 14 87 15 38 16 92 17 86 18 88 19 39 20 91 21 85 22 84 23
REMARK SMILES IDX 40 25 72 26 52 27 71 28 53 29 56 30 70 31 89 32 54 33 55 34
REMARK SMILES IDX 69 36 90 37 57 38 41 39 42 40 50 41 43 42 49 43 51 44 48 45
REMARK SMILES IDX 44 46 45 47 46 48 47 49 73 50 74 51 82 52 75 53 81 54 83 55
REMARK SMILES IDX 80 56 76 57 77 58 78 59 79 60 58 61 59 62 67 63 60 64 66 65
REMARK SMILES IDX 68 66 65 67 61 68 62 69 63 70 64 71 6 72 7 73 8 74 9 76
REMARK SMILES IDX 10 77 11 78 15 79 12 80 14 81 13 82 16 83 17 84 18 85 19 87
REMARK SMILES IDX 20 88 31 89 21 90 30 91 22 92 23 93 29 94 24 95 27 96 25 97
REMARK SMILES IDX 28 98 26 99
REMARK H PARENT 3 6 88 24 56 35 7 75 18 86
REMARK Flexibility Score: inf
ROOT
ATOM      1  C   UNL     1       5.083   0.257   2.708  1.00  0.00     0.042 C 
ENDROOT
BRANCH   1   2
ATOM      2  C   UNL     1       4.042  -0.836   2.396  1.00  0.00     0.118 C 
BRANCH   2   3
ATOM      3  N   UNL     1       2.759  -0.438   1.802  1.00  0.00    -0.352 N 
ATOM      4  O   UNL     1       0.967  -0.194   0.498  1.00  0.00    -0.269 OA
ATOM      5  C   UNL     1       2.131  -0.595   0.576  1.00  0.00     0.251 C 
ATOM      6  H   UNL     1       2.203   0.070   2.437  1.00  0.00     0.163 HD
BRANCH   5   7
ATOM      7  C   UNL     1       2.791  -1.093  -0.675  1.00  0.00     0.039 A 
ATOM      8  C   UNL     1       3.810  -2.035  -0.691  1.00  0.00     0.014 A 
ATOM      9  C   UNL     1       2.387  -0.549  -1.914  1.00  0.00     0.014 A 
ATOM     10  C   UNL     1       4.500  -2.316  -1.884  1.00  0.00     0.010 A 
ATOM     11  C   UNL     1       3.024  -0.901  -3.127  1.00  0.00     0.010 A 
ATOM     12  C   UNL     1       4.111  -1.784  -3.134  1.00  0.00    -0.014 A 
BRANCH  12  13
ATOM     13  C   UNL     1       4.757  -2.308  -4.394  1.00  0.00     0.031 A 
ATOM     14  C   UNL     1       5.469  -1.443  -5.419  1.00  0.00     0.074 A 
ATOM     15  C   UNL     1       4.732  -3.643  -4.611  1.00  0.00     0.049 A 
ATOM     16  N   UNL     1       6.145  -1.819  -6.483  1.00  0.00    -0.248 NA
ATOM     17  C   UNL     1       5.425   0.013  -5.240  1.00  0.00     0.031 C 
ATOM     18  C   UNL     1       4.057  -4.616  -3.749  1.00  0.00     0.029 A 
ATOM     19  N   UNL     1       5.300  -4.420  -5.594  1.00  0.00    -0.354 N 
ATOM     20  C   UNL     1       6.616  -0.656  -7.092  1.00  0.00     0.074 A 
ATOM     21  C   UNL     1       6.136   0.444  -6.279  1.00  0.00     0.031 C 
ATOM     22  C   UNL     1       4.315  -5.852  -4.190  1.00  0.00     0.029 A 
ATOM     23  C   UNL     1       5.064  -5.768  -5.438  1.00  0.00     0.049 A 
ATOM     24  H   UNL     1       5.825  -4.048  -6.339  1.00  0.00     0.167 HD
ATOM     25  C   UNL     1       7.364  -0.515  -8.220  1.00  0.00     0.034 A 
ATOM     26  C   UNL     1       5.354  -6.832  -6.215  1.00  0.00     0.034 A 
ATOM     27  C   UNL     1       7.821  -1.609  -9.056  1.00  0.00     0.049 A 
ATOM     28  C   UNL     1       6.097  -6.635  -7.508  1.00  0.00     0.074 A 
ATOM     29  C   UNL     1       8.645  -1.547 -10.172  1.00  0.00     0.029 A 
ATOM     30  N   UNL     1       7.466  -2.943  -8.915  1.00  0.00    -0.354 N 
ATOM     31  N   UNL     1       6.588  -5.531  -8.014  1.00  0.00    -0.248 NA
ATOM     32  C   UNL     1       6.312  -7.827  -8.339  1.00  0.00     0.031 C 
ATOM     33  C   UNL     1       8.695  -2.814 -10.764  1.00  0.00     0.029 A 
ATOM     34  C   UNL     1       7.990  -3.694  -9.963  1.00  0.00     0.049 A 
ATOM     35  H   UNL     1       6.923  -3.306  -8.179  1.00  0.00     0.167 HD
ATOM     36  C   UNL     1       7.177  -5.900  -9.220  1.00  0.00     0.074 A 
ATOM     37  C   UNL     1       7.009  -7.330  -9.350  1.00  0.00     0.031 C 
ATOM     38  C   UNL     1       7.799  -5.115 -10.135  1.00  0.00     0.034 A 
BRANCH  25  39
ATOM     39  C   UNL     1       7.704   0.884  -8.696  1.00  0.00     0.023 A 
ATOM     40  C   UNL     1       8.601   1.722  -8.011  1.00  0.00     0.031 A 
ATOM     41  C   UNL     1       7.192   1.339  -9.929  1.00  0.00     0.131 A 
ATOM     42  C   UNL     1       8.945   2.974  -8.556  1.00  0.00     0.055 A 
ATOM     43  C   UNL     1       7.581   2.556 -10.491  1.00  0.00     0.041 A 
ATOM     44  F   UNL     1       6.323   0.588 -10.624  1.00  0.00    -0.206 F 
ATOM     45  C   UNL     1       8.460   3.383  -9.802  1.00  0.00     0.022 A 
BRANCH  42  46
ATOM     46  S   UNL     1       9.983   4.106  -7.589  1.00  0.00     0.124 S 
ATOM     47  O   UNL     1       9.221   4.228  -6.350  1.00  0.00    -0.237 OA
ATOM     48  O   UNL     1      11.244   3.379  -7.497  1.00  0.00    -0.237 OA
ATOM     49  O   UNL     1      10.023   5.319  -8.405  1.00  0.00    -0.744 OA
ENDBRANCH  42  46
ENDBRANCH  25  39
BRANCH  26  50
ATOM     50  C   UNL     1       4.843  -8.183  -5.838  1.00  0.00     0.023 A 
ATOM     51  C   UNL     1       5.712  -9.259  -5.605  1.00  0.00     0.031 A 
ATOM     52  C   UNL     1       3.457  -8.422  -5.751  1.00  0.00     0.131 A 
ATOM     53  C   UNL     1       5.184 -10.532  -5.339  1.00  0.00     0.055 A 
ATOM     54  C   UNL     1       2.942  -9.669  -5.407  1.00  0.00     0.041 A 
ATOM     55  F   UNL     1       2.580  -7.430  -5.978  1.00  0.00    -0.206 F 
ATOM     56  C   UNL     1       3.808 -10.738  -5.214  1.00  0.00     0.022 A 
BRANCH  53  57
ATOM     57  S   UNL     1       6.320 -11.944  -5.278  1.00  0.00     0.124 S 
ATOM     58  O   UNL     1       6.969 -11.858  -6.579  1.00  0.00    -0.237 OA
ATOM     59  O   UNL     1       7.146 -11.618  -4.122  1.00  0.00    -0.237 OA
ATOM     60  O   UNL     1       5.425 -13.089  -5.099  1.00  0.00    -0.744 OA
ENDBRANCH  53  57
ENDBRANCH  26  50
BRANCH  38  61
ATOM     61  C   UNL     1       8.364  -5.797 -11.361  1.00  0.00     0.023 A 
ATOM     62  C   UNL     1       7.532  -6.413 -12.314  1.00  0.00     0.031 A 
ATOM     63  C   UNL     1       9.754  -5.858 -11.566  1.00  0.00     0.131 A 
ATOM     64  C   UNL     1       8.097  -7.105 -13.398  1.00  0.00     0.055 A 
ATOM     65  C   UNL     1      10.309  -6.496 -12.679  1.00  0.00     0.041 A 
ATOM     66  F   UNL     1      10.601  -5.300 -10.686  1.00  0.00    -0.206 F 
ATOM     67  C   UNL     1       9.479  -7.135 -13.596  1.00  0.00     0.022 A 
BRANCH  64  68
ATOM     68  S   UNL     1       7.005  -8.044 -14.504  1.00  0.00     0.124 S 
ATOM     69  O   UNL     1       6.399  -9.004 -13.588  1.00  0.00    -0.237 OA
ATOM     70  O   UNL     1       6.117  -7.008 -15.022  1.00  0.00    -0.237 OA
ATOM     71  O   UNL     1       7.923  -8.618 -15.487  1.00  0.00    -0.744 OA
ENDBRANCH  64  68
ENDBRANCH  38  61
ENDBRANCH  12  13
ENDBRANCH   5   7
ENDBRANCH   2   3
ENDBRANCH   1   2
BRANCH   1  72
ATOM     72  C   UNL     1       4.617   1.476   3.491  1.00  0.00     0.117 C 
BRANCH  72  73
ATOM     73  N   UNL     1       5.003   1.441   4.882  1.00  0.00    -0.356 N 
ATOM     74  C   UNL     1       5.606   2.360   5.681  1.00  0.00     0.223 C 
ATOM     75  H   UNL     1       4.791   0.594   5.336  1.00  0.00     0.163 HD
ATOM     76  O   UNL     1       5.790   1.980   6.844  1.00  0.00    -0.275 OA
BRANCH  74  77
ATOM     77  C   UNL     1       6.156   3.723   5.182  1.00  0.00     0.091 C 
ATOM     78  C   UNL     1       6.778   4.415   6.425  1.00  0.00     0.014 C 
ATOM     79  C   UNL     1       5.221   4.654   4.352  1.00  0.00     0.091 C 
ATOM     80  C   UNL     1       7.255   5.835   6.196  1.00  0.00     0.001 C 
ATOM     81  C   UNL     1       5.590   6.158   4.374  1.00  0.00     0.014 C 
ATOM     82  C   UNL     1       6.097   6.682   5.713  1.00  0.00     0.001 C 
BRANCH  79  83
ATOM     83  C   UNL     1       3.746   4.529   4.704  1.00  0.00     0.230 C 
ATOM     84  O   UNL     1       3.385   4.623   5.883  1.00  0.00    -0.274 OA
ATOM     85  N   UNL     1       2.765   4.394   3.766  1.00  0.00    -0.302 N 
ATOM     86  H   UNL     1       1.850   4.516   4.110  1.00  0.00     0.172 HD
BRANCH  85  87
ATOM     87  C   UNL     1       2.837   4.117   2.426  1.00  0.00     0.189 A 
ATOM     88  N   UNL     1       3.865   3.955   1.631  1.00  0.00    -0.220 NA
ATOM     89  S   UNL     1       1.305   3.771   1.740  1.00  0.00    -0.105 S 
ATOM     90  C   UNL     1       3.442   3.418   0.412  1.00  0.00     0.084 A 
ATOM     91  C   UNL     1       2.079   3.216   0.310  1.00  0.00     0.097 A 
BRANCH  90  92
ATOM     92  C   UNL     1       4.401   2.869  -0.537  1.00  0.00     0.003 A 
ATOM     93  C   UNL     1       4.726   1.523  -0.419  1.00  0.00     0.012 A 
ATOM     94  C   UNL     1       5.078   3.618  -1.491  1.00  0.00     0.032 A 
ATOM     95  C   UNL     1       5.768   0.932  -1.130  1.00  0.00     0.023 A 
ATOM     96  C   UNL     1       6.103   3.023  -2.256  1.00  0.00     0.060 A 
ATOM     97  C   UNL     1       6.478   1.690  -2.045  1.00  0.00     0.059 A 
ATOM     98  Cl  UNL     1       6.878   3.999  -3.444  1.00  0.00    -0.083 Cl
ATOM     99  Cl  UNL     1       7.803   0.924  -2.838  1.00  0.00    -0.083 Cl
ENDBRANCH  90  92
ENDBRANCH  85  87
ENDBRANCH  79  83
ENDBRANCH  74  77
ENDBRANCH  72  73
ENDBRANCH   1  72
TORSDOF 16
