REMARK SMILES Cc1ccccc1C[C@H](C[C@@H]1Cc2ccccc21)C(=O)NCCCNC(=O)c1ccc(-c2c3nc(c(-c4cc(S(=O)(=O)[O-])ccc4F)c4ccc([nH]4)c(-c4cc(S(=O)(=O)[O-])ccc4F)c4nc(c(-c5cc(S(=O)(=O)[O-])ccc5F)c5ccc2[nH]5)C=C4)C=C3)cc1
REMARK SMILES IDX 23 1 22 2 21 3 19 4 20 5 9 7 8 8 7 9 1 10 2 11 3 12 4 13
REMARK SMILES IDX 6 14 5 15 10 16 11 17 12 18 18 19 13 20 17 21 14 22 16 23
REMARK SMILES IDX 15 24 24 25 25 26 26 27 27 29 28 30 29 31 90 32 30 33 89 34
REMARK SMILES IDX 31 35 32 36 33 37 83 38 34 39 88 40 82 41 84 42 35 43 87 44
REMARK SMILES IDX 81 45 80 46 36 48 68 49 48 50 67 51 49 52 52 53 66 54 85 55
REMARK SMILES IDX 50 56 51 57 65 59 86 60 53 61 37 62 38 63 46 64 39 65 45 66
REMARK SMILES IDX 47 67 44 68 40 69 41 70 42 71 43 72 69 73 70 74 78 75 71 76
REMARK SMILES IDX 77 77 79 78 76 79 72 80 73 81 74 82 75 83 54 84 55 85 63 86
REMARK SMILES IDX 56 87 62 88 64 89 61 90 57 91 58 92 59 93 60 94
REMARK H PARENT 21 6 25 28 84 47 52 58
REMARK Flexibility Score: inf
ROOT
ATOM      1  C   UNL     1      -1.766  -1.549   1.853  1.00  0.00     0.042 C 
ENDROOT
BRANCH   1   2
ATOM      2  C   UNL     1      -2.693  -0.479   2.405  1.00  0.00     0.117 C 
BRANCH   2   3
ATOM      3  N   UNL     1      -2.107   0.259   3.514  1.00  0.00    -0.356 N 
ATOM      4  C   UNL     1      -1.646   1.543   3.550  1.00  0.00     0.223 C 
ATOM      5  O   UNL     1      -1.372   2.027   4.652  1.00  0.00    -0.275 OA
ATOM      6  H   UNL     1      -2.033  -0.239   4.361  1.00  0.00     0.163 HD
BRANCH   4   7
ATOM      7  C   UNL     1      -1.413   2.360   2.273  1.00  0.00     0.083 C 
BRANCH   7   8
ATOM      8  C   UNL     1      -2.536   3.304   1.764  1.00  0.00     0.049 C 
BRANCH   8   9
ATOM      9  C   UNL     1      -4.003   3.340   2.172  1.00  0.00    -0.044 A 
ATOM     10  C   UNL     1      -4.212   5.731   1.247  1.00  0.00     0.044 C 
ATOM     11  C   UNL     1      -4.789   4.482   1.862  1.00  0.00    -0.048 A 
ATOM     12  C   UNL     1      -6.164   4.509   2.179  1.00  0.00     0.004 A 
ATOM     13  C   UNL     1      -6.790   3.410   2.751  1.00  0.00     0.000 A 
ATOM     14  C   UNL     1      -4.671   2.266   2.768  1.00  0.00     0.004 A 
ATOM     15  C   UNL     1      -6.042   2.286   3.041  1.00  0.00     0.000 A 
ENDBRANCH   8   9
ENDBRANCH   7   8
BRANCH   7  16
ATOM     16  C   UNL     1      -0.504   1.625   1.248  1.00  0.00     0.022 C 
BRANCH  16  17
ATOM     17  C   UNL     1      -0.842   1.706  -0.248  1.00  0.00     0.025 C 
ATOM     18  C   UNL     1      -2.168   1.131  -0.895  1.00  0.00     0.044 C 
ATOM     19  C   UNL     1      -0.146   0.586  -1.012  1.00  0.00    -0.041 A 
ATOM     20  C   UNL     1      -1.321   0.024  -1.445  1.00  0.00    -0.044 A 
ATOM     21  C   UNL     1       1.074  -0.004  -1.258  1.00  0.00     0.004 A 
ATOM     22  C   UNL     1      -1.358  -1.178  -2.115  1.00  0.00     0.004 A 
ATOM     23  C   UNL     1       1.073  -1.217  -1.954  1.00  0.00     0.000 A 
ATOM     24  C   UNL     1      -0.137  -1.807  -2.368  1.00  0.00     0.000 A 
ENDBRANCH  16  17
ENDBRANCH   7  16
ENDBRANCH   4   7
ENDBRANCH   2   3
ENDBRANCH   1   2
BRANCH   1  25
ATOM     25  C   UNL     1      -2.267  -2.940   2.160  1.00  0.00     0.118 C 
BRANCH  25  26
ATOM     26  N   UNL     1      -3.190  -3.515   1.189  1.00  0.00    -0.352 N 
ATOM     27  C   UNL     1      -3.907  -4.711   1.260  1.00  0.00     0.251 C 
ATOM     28  H   UNL     1      -3.326  -2.988   0.370  1.00  0.00     0.163 HD
ATOM     29  O   UNL     1      -4.497  -5.141   0.297  1.00  0.00    -0.269 OA
BRANCH  27  30
ATOM     30  C   UNL     1      -4.024  -5.391   2.582  1.00  0.00     0.039 A 
ATOM     31  C   UNL     1      -5.295  -5.796   3.011  1.00  0.00     0.014 A 
ATOM     32  C   UNL     1      -2.971  -5.345   3.479  1.00  0.00     0.014 A 
ATOM     33  C   UNL     1      -5.555  -5.880   4.378  1.00  0.00     0.010 A 
ATOM     34  C   UNL     1      -3.275  -5.207   4.809  1.00  0.00     0.010 A 
ATOM     35  C   UNL     1      -4.572  -5.454   5.264  1.00  0.00    -0.014 A 
BRANCH  35  36
ATOM     36  C   UNL     1      -4.771  -5.176   6.678  1.00  0.00     0.031 A 
ATOM     37  C   UNL     1      -4.040  -5.986   7.678  1.00  0.00     0.074 A 
ATOM     38  C   UNL     1      -5.444  -4.066   7.053  1.00  0.00     0.049 A 
ATOM     39  N   UNL     1      -4.317  -6.005   8.933  1.00  0.00    -0.248 NA
ATOM     40  C   UNL     1      -2.928  -6.870   7.333  1.00  0.00     0.031 C 
ATOM     41  C   UNL     1      -5.425  -3.414   8.361  1.00  0.00     0.029 A 
ATOM     42  N   UNL     1      -6.470  -3.420   6.361  1.00  0.00    -0.354 N 
ATOM     43  C   UNL     1      -3.288  -6.644   9.584  1.00  0.00     0.074 A 
ATOM     44  C   UNL     1      -2.462  -7.193   8.541  1.00  0.00     0.031 C 
ATOM     45  C   UNL     1      -6.534  -2.671   8.493  1.00  0.00     0.029 A 
ATOM     46  C   UNL     1      -7.369  -2.945   7.340  1.00  0.00     0.049 A 
ATOM     47  H   UNL     1      -6.551  -3.317   5.386  1.00  0.00     0.167 HD
ATOM     48  C   UNL     1      -3.196  -6.530  10.937  1.00  0.00     0.034 A 
ATOM     49  C   UNL     1      -8.646  -3.424   7.400  1.00  0.00     0.034 A 
ATOM     50  C   UNL     1      -4.324  -5.774  11.475  1.00  0.00     0.049 A 
ATOM     51  C   UNL     1      -8.968  -4.140   8.694  1.00  0.00     0.074 A 
ATOM     52  C   UNL     1      -4.483  -4.462  11.890  1.00  0.00     0.029 A 
ATOM     53  N   UNL     1      -5.601  -6.304  11.352  1.00  0.00    -0.354 N 
ATOM     54  N   UNL     1      -8.076  -4.540   9.560  1.00  0.00    -0.248 NA
ATOM     55  C   UNL     1     -10.326  -4.461   9.115  1.00  0.00     0.031 C 
ATOM     56  C   UNL     1      -5.878  -4.199  11.983  1.00  0.00     0.029 A 
ATOM     57  C   UNL     1      -6.559  -5.359  11.656  1.00  0.00     0.049 A 
ATOM     58  H   UNL     1      -5.797  -7.230  11.083  1.00  0.00     0.167 HD
ATOM     59  C   UNL     1      -8.693  -5.173  10.615  1.00  0.00     0.074 A 
ATOM     60  C   UNL     1     -10.106  -5.074  10.292  1.00  0.00     0.031 C 
ATOM     61  C   UNL     1      -7.970  -5.727  11.641  1.00  0.00     0.034 A 
BRANCH  48  62
ATOM     62  C   UNL     1      -1.972  -6.882  11.744  1.00  0.00     0.023 A 
ATOM     63  C   UNL     1      -1.730  -6.184  12.945  1.00  0.00     0.031 A 
ATOM     64  C   UNL     1      -1.006  -7.846  11.401  1.00  0.00     0.131 A 
ATOM     65  C   UNL     1      -0.553  -6.381  13.687  1.00  0.00     0.055 A 
ATOM     66  C   UNL     1       0.194  -8.006  12.108  1.00  0.00     0.041 A 
ATOM     67  F   UNL     1      -1.201  -8.718  10.403  1.00  0.00    -0.206 F 
ATOM     68  C   UNL     1       0.431  -7.264  13.254  1.00  0.00     0.022 A 
BRANCH  65  69
ATOM     69  S   UNL     1      -0.336  -5.471  15.239  1.00  0.00     0.124 S 
ATOM     70  O   UNL     1      -0.365  -4.083  14.790  1.00  0.00    -0.237 OA
ATOM     71  O   UNL     1      -1.480  -5.920  16.024  1.00  0.00    -0.237 OA
ATOM     72  O   UNL     1       0.963  -5.935  15.724  1.00  0.00    -0.744 OA
ENDBRANCH  65  69
ENDBRANCH  48  62
BRANCH  49  73
ATOM     73  C   UNL     1      -9.201  -3.727   6.049  1.00  0.00     0.023 A 
ATOM     74  C   UNL     1      -9.316  -2.638   5.156  1.00  0.00     0.031 A 
ATOM     75  C   UNL     1      -9.156  -5.019   5.507  1.00  0.00     0.131 A 
ATOM     76  C   UNL     1      -9.194  -2.843   3.774  1.00  0.00     0.055 A 
ATOM     77  C   UNL     1      -9.102  -5.222   4.121  1.00  0.00     0.041 A 
ATOM     78  F   UNL     1      -9.009  -6.088   6.303  1.00  0.00    -0.206 F 
ATOM     79  C   UNL     1      -9.066  -4.131   3.252  1.00  0.00     0.022 A 
BRANCH  76  80
ATOM     80  S   UNL     1      -8.921  -1.414   2.680  1.00  0.00     0.124 S 
ATOM     81  O   UNL     1     -10.236  -1.241   2.073  1.00  0.00    -0.237 OA
ATOM     82  O   UNL     1      -8.506  -0.359   3.602  1.00  0.00    -0.237 OA
ATOM     83  O   UNL     1      -7.864  -1.885   1.788  1.00  0.00    -0.744 OA
ENDBRANCH  76  80
ENDBRANCH  49  73
BRANCH  61  84
ATOM     84  C   UNL     1      -8.478  -6.635  12.758  1.00  0.00     0.023 A 
ATOM     85  C   UNL     1      -9.799  -7.085  12.867  1.00  0.00     0.031 A 
ATOM     86  C   UNL     1      -7.596  -7.137  13.755  1.00  0.00     0.131 A 
ATOM     87  C   UNL     1     -10.205  -7.940  13.913  1.00  0.00     0.055 A 
ATOM     88  C   UNL     1      -7.983  -8.037  14.754  1.00  0.00     0.041 A 
ATOM     89  F   UNL     1      -6.303  -6.788  13.810  1.00  0.00    -0.206 F 
ATOM     90  C   UNL     1      -9.301  -8.440  14.844  1.00  0.00     0.022 A 
BRANCH  87  91
ATOM     91  S   UNL     1     -11.966  -8.341  14.052  1.00  0.00     0.124 S 
ATOM     92  O   UNL     1     -12.559  -7.025  14.268  1.00  0.00    -0.237 OA
ATOM     93  O   UNL     1     -12.247  -8.957  12.759  1.00  0.00    -0.237 OA
ATOM     94  O   UNL     1     -12.025  -9.245  15.198  1.00  0.00    -0.744 OA
ENDBRANCH  87  91
ENDBRANCH  61  84
ENDBRANCH  35  36
ENDBRANCH  27  30
ENDBRANCH  25  26
ENDBRANCH   1  25
TORSDOF 17
