REMARK SMILES Cc1nc(C(=O)NCCCNC(=O)c2ccc(-c3c4nc(c(-c5cc(S(=O)(=O)[O-])ccc5F)c5ccc([nH]5)c(-c5cc(S(=O)(=O)[O-])ccc5F)c5nc(c(-c6cc(S(=O)(=O)[O-])ccc6F)c6ccc3[nH]6)C=C5)C=C4)cc2)nn1-c1cccc(C(F)(F)F)c1
REMARK SMILES IDX 9 1 8 2 7 3 5 4 6 5 4 7 1 8 2 9 3 10 78 11 77 12 79 13 80 14
REMARK SMILES IDX 88 15 81 16 83 17 82 18 84 19 85 20 86 21 87 22 10 23 11 24
REMARK SMILES IDX 12 25 13 27 14 28 15 29 76 30 16 31 75 32 17 33 18 34 19 35
REMARK SMILES IDX 69 36 20 37 74 38 68 39 70 40 21 41 73 42 67 43 66 44 22 46
REMARK SMILES IDX 54 47 34 48 53 49 35 50 38 51 52 52 71 53 36 54 37 55 51 57
REMARK SMILES IDX 72 58 39 59 23 60 24 61 32 62 25 63 31 64 33 65 30 66 26 67
REMARK SMILES IDX 27 68 28 69 29 70 55 71 56 72 64 73 57 74 63 75 65 76 62 77
REMARK SMILES IDX 58 78 59 79 60 80 61 81 40 82 41 83 49 84 42 85 48 86 50 87
REMARK SMILES IDX 47 88 43 89 44 90 45 91 46 92
REMARK H PARENT 7 6 11 26 70 45 38 56
REMARK Flexibility Score: inf
ROOT
ATOM      1  C   UNL     1      -0.103   7.068  -0.273  1.00  0.00     0.042 C 
ENDROOT
BRANCH   1   2
ATOM      2  C   UNL     1       0.223   6.414   1.073  1.00  0.00     0.118 C 
BRANCH   2   3
ATOM      3  N   UNL     1      -0.921   5.724   1.658  1.00  0.00    -0.349 N 
ATOM      4  C   UNL     1      -1.242   4.379   1.732  1.00  0.00     0.290 C 
ATOM      5  O   UNL     1      -2.318   4.090   2.260  1.00  0.00    -0.266 OA
ATOM      6  H   UNL     1      -1.583   6.321   2.075  1.00  0.00     0.163 HD
BRANCH   4   7
ATOM      7  C   UNL     1      -0.343   3.345   1.171  1.00  0.00     0.239 A 
ATOM      8  C   UNL     1       0.461   0.060  -0.005  1.00  0.00     0.090 C 
ATOM      9  C   UNL     1       0.293   1.495   0.319  1.00  0.00     0.130 A 
ATOM     10  N   UNL     1      -0.745   2.044   0.917  1.00  0.00    -0.207 NA
ATOM     11  N   UNL     1       1.260   2.460   0.139  1.00  0.00    -0.217 N 
ATOM     12  N   UNL     1       0.950   3.544   0.871  1.00  0.00    -0.140 NA
BRANCH  11  13
ATOM     13  C   UNL     1       2.368   2.518  -0.738  1.00  0.00     0.067 A 
ATOM     14  C   UNL     1       3.459   3.328  -0.393  1.00  0.00     0.028 A 
ATOM     15  C   UNL     1       2.317   1.902  -1.994  1.00  0.00     0.041 A 
ATOM     16  C   UNL     1       4.516   3.493  -1.285  1.00  0.00     0.003 A 
ATOM     17  C   UNL     1       3.352   2.117  -2.920  1.00  0.00     0.058 A 
ATOM     18  C   UNL     1       4.460   2.896  -2.543  1.00  0.00     0.013 A 
BRANCH  17  19
ATOM     19  C   UNL     1       3.269   1.572  -4.326  1.00  0.00     0.416 C 
ATOM     20  F   UNL     1       3.405   2.543  -5.270  1.00  0.00    -0.166 F 
ATOM     21  F   UNL     1       4.243   0.657  -4.585  1.00  0.00    -0.166 F 
ATOM     22  F   UNL     1       2.089   0.949  -4.597  1.00  0.00    -0.166 F 
ENDBRANCH  17  19
ENDBRANCH  11  13
ENDBRANCH   4   7
ENDBRANCH   2   3
ENDBRANCH   1   2
BRANCH   1  23
ATOM     23  C   UNL     1      -0.795   8.415  -0.093  1.00  0.00     0.118 C 
BRANCH  23  24
ATOM     24  N   UNL     1       0.110   9.430   0.441  1.00  0.00    -0.352 N 
ATOM     25  C   UNL     1      -0.126  10.772   0.662  1.00  0.00     0.251 C 
ATOM     26  H   UNL     1       1.012   9.113   0.677  1.00  0.00     0.163 HD
ATOM     27  O   UNL     1       0.817  11.531   0.826  1.00  0.00    -0.269 OA
BRANCH  25  28
ATOM     28  C   UNL     1      -1.515  11.279   0.660  1.00  0.00     0.039 A 
ATOM     29  C   UNL     1      -1.805  12.492   0.032  1.00  0.00     0.014 A 
ATOM     30  C   UNL     1      -2.530  10.542   1.270  1.00  0.00     0.014 A 
ATOM     31  C   UNL     1      -3.134  12.902  -0.069  1.00  0.00     0.010 A 
ATOM     32  C   UNL     1      -3.853  10.902   1.092  1.00  0.00     0.010 A 
ATOM     33  C   UNL     1      -4.165  12.084   0.425  1.00  0.00    -0.014 A 
BRANCH  33  34
ATOM     34  C   UNL     1      -5.556  12.366   0.045  1.00  0.00     0.031 A 
ATOM     35  C   UNL     1      -5.755  12.530  -1.422  1.00  0.00     0.074 A 
ATOM     36  C   UNL     1      -6.629  12.276   0.862  1.00  0.00     0.049 A 
ATOM     37  N   UNL     1      -6.084  13.604  -2.060  1.00  0.00    -0.248 NA
ATOM     38  C   UNL     1      -5.394  11.407  -2.304  1.00  0.00     0.031 C 
ATOM     39  C   UNL     1      -6.649  11.848   2.262  1.00  0.00     0.029 A 
ATOM     40  N   UNL     1      -7.956  12.446   0.578  1.00  0.00    -0.354 N 
ATOM     41  C   UNL     1      -6.225  13.230  -3.393  1.00  0.00     0.074 A 
ATOM     42  C   UNL     1      -5.586  11.947  -3.508  1.00  0.00     0.031 C 
ATOM     43  C   UNL     1      -7.920  11.579   2.636  1.00  0.00     0.029 A 
ATOM     44  C   UNL     1      -8.820  11.963   1.561  1.00  0.00     0.049 A 
ATOM     45  H   UNL     1      -8.275  12.873  -0.250  1.00  0.00     0.167 HD
ATOM     46  C   UNL     1      -7.082  13.894  -4.218  1.00  0.00     0.034 A 
ATOM     47  C   UNL     1     -10.176  11.869   1.512  1.00  0.00     0.034 A 
ATOM     48  C   UNL     1      -7.440  15.181  -3.657  1.00  0.00     0.049 A 
ATOM     49  C   UNL     1     -10.640  12.851   0.507  1.00  0.00     0.074 A 
ATOM     50  C   UNL     1      -6.732  16.292  -3.240  1.00  0.00     0.029 A 
ATOM     51  N   UNL     1      -8.692  15.312  -3.099  1.00  0.00    -0.354 N 
ATOM     52  N   UNL     1     -10.521  14.140   0.658  1.00  0.00    -0.248 NA
ATOM     53  C   UNL     1     -10.855  12.407  -0.861  1.00  0.00     0.031 C 
ATOM     54  C   UNL     1      -7.421  16.757  -2.080  1.00  0.00     0.029 A 
ATOM     55  C   UNL     1      -8.555  15.963  -1.899  1.00  0.00     0.049 A 
ATOM     56  H   UNL     1      -9.538  14.995  -3.492  1.00  0.00     0.167 HD
ATOM     57  C   UNL     1     -10.189  14.614  -0.598  1.00  0.00     0.074 A 
ATOM     58  C   UNL     1     -10.545  13.531  -1.512  1.00  0.00     0.031 C 
ATOM     59  C   UNL     1      -9.396  15.717  -0.742  1.00  0.00     0.034 A 
BRANCH  46  60
ATOM     60  C   UNL     1      -7.919  13.236  -5.304  1.00  0.00     0.023 A 
ATOM     61  C   UNL     1      -8.835  14.062  -5.988  1.00  0.00     0.031 A 
ATOM     62  C   UNL     1      -8.102  11.847  -5.490  1.00  0.00     0.131 A 
ATOM     63  C   UNL     1      -9.939  13.517  -6.666  1.00  0.00     0.055 A 
ATOM     64  C   UNL     1      -9.163  11.310  -6.228  1.00  0.00     0.041 A 
ATOM     65  F   UNL     1      -7.330  10.924  -4.909  1.00  0.00    -0.206 F 
ATOM     66  C   UNL     1     -10.114  12.144  -6.786  1.00  0.00     0.022 A 
BRANCH  63  67
ATOM     67  S   UNL     1     -11.249  14.645  -7.204  1.00  0.00     0.124 S 
ATOM     68  O   UNL     1     -11.581  15.315  -5.952  1.00  0.00    -0.237 OA
ATOM     69  O   UNL     1     -10.559  15.450  -8.205  1.00  0.00    -0.237 OA
ATOM     70  O   UNL     1     -12.275  13.746  -7.726  1.00  0.00    -0.744 OA
ENDBRANCH  63  67
ENDBRANCH  46  60
BRANCH  47  71
ATOM     71  C   UNL     1     -11.067  10.844   2.122  1.00  0.00     0.023 A 
ATOM     72  C   UNL     1     -12.456  11.041   2.295  1.00  0.00     0.031 A 
ATOM     73  C   UNL     1     -10.588   9.529   2.309  1.00  0.00     0.131 A 
ATOM     74  C   UNL     1     -13.297   9.952   2.628  1.00  0.00     0.055 A 
ATOM     75  C   UNL     1     -11.422   8.459   2.642  1.00  0.00     0.041 A 
ATOM     76  F   UNL     1      -9.301   9.220   2.085  1.00  0.00    -0.206 F 
ATOM     77  C   UNL     1     -12.784   8.664   2.791  1.00  0.00     0.022 A 
BRANCH  74  78
ATOM     78  S   UNL     1     -15.103  10.175   2.747  1.00  0.00     0.124 S 
ATOM     79  O   UNL     1     -15.242  10.949   3.975  1.00  0.00    -0.237 OA
ATOM     80  O   UNL     1     -15.418  10.867   1.503  1.00  0.00    -0.237 OA
ATOM     81  O   UNL     1     -15.612   8.805   2.826  1.00  0.00    -0.744 OA
ENDBRANCH  74  78
ENDBRANCH  47  71
BRANCH  59  82
ATOM     82  C   UNL     1      -9.222  16.637   0.451  1.00  0.00     0.023 A 
ATOM     83  C   UNL     1      -8.737  16.248   1.721  1.00  0.00     0.031 A 
ATOM     84  C   UNL     1      -9.486  18.003   0.246  1.00  0.00     0.131 A 
ATOM     85  C   UNL     1      -8.552  17.214   2.731  1.00  0.00     0.055 A 
ATOM     86  C   UNL     1      -9.278  18.959   1.239  1.00  0.00     0.041 A 
ATOM     87  F   UNL     1      -9.927  18.442  -0.945  1.00  0.00    -0.206 F 
ATOM     88  C   UNL     1      -8.817  18.566   2.489  1.00  0.00     0.022 A 
BRANCH  85  89
ATOM     89  S   UNL     1      -7.983  16.729   4.393  1.00  0.00     0.124 S 
ATOM     90  O   UNL     1      -8.834  15.594   4.730  1.00  0.00    -0.237 OA
ATOM     91  O   UNL     1      -6.572  16.426   4.169  1.00  0.00    -0.237 OA
ATOM     92  O   UNL     1      -8.223  17.928   5.198  1.00  0.00    -0.744 OA
ENDBRANCH  85  89
ENDBRANCH  59  82
ENDBRANCH  33  34
ENDBRANCH  25  28
ENDBRANCH  23  24
ENDBRANCH   1  23
TORSDOF 15
