REMARK SMILES Cc1cc(OCC(C)(C)C(=O)NCCCNC(=O)c2ccc(-c3c4nc(c(-c5cc(S(=O)(=O)[O-])ccc5F)c5ccc([nH]5)c(-c5cc(S(=O)(=O)[O-])ccc5F)c5nc(c(-c6cc(S(=O)(=O)[O-])ccc6F)c6ccc3[nH]6)C=C5)C=C4)cc2)cc(C(C)C)c1
REMARK SMILES IDX 13 1 12 2 10 3 11 4 7 6 8 7 9 8 6 9 5 10 4 11 1 12 2 13 3 14
REMARK SMILES IDX 87 15 83 16 82 17 84 18 85 19 86 20 14 21 15 22 16 23 17 24
REMARK SMILES IDX 18 26 19 27 20 28 81 29 21 30 80 31 22 32 23 33 24 34 74 35
REMARK SMILES IDX 25 36 79 37 73 38 75 39 26 40 78 41 72 42 71 43 27 45 59 46
REMARK SMILES IDX 39 47 58 48 40 49 43 50 57 51 76 52 41 53 42 54 56 56 77 57
REMARK SMILES IDX 44 58 28 59 29 60 37 61 30 62 36 63 38 64 35 65 31 66 32 67
REMARK SMILES IDX 33 68 34 69 60 70 61 71 69 72 62 73 68 74 70 75 67 76 63 77
REMARK SMILES IDX 64 78 65 79 66 80 45 81 46 82 54 83 47 84 53 85 55 86 52 87
REMARK SMILES IDX 48 88 49 89 50 90 51 91
REMARK H PARENT 12 5 16 25 75 44 43 55
REMARK Flexibility Score: inf
ROOT
ATOM      1  C   UNL     1      -4.706  -0.530   3.899  1.00  0.00     0.117 C 
ENDROOT
BRANCH   1   2
ATOM      2  N   UNL     1      -3.962  -1.745   3.560  1.00  0.00    -0.355 N 
ATOM      3  C   UNL     1      -3.483  -2.240   2.373  1.00  0.00     0.229 C 
ATOM      4  O   UNL     1      -2.908  -3.331   2.399  1.00  0.00    -0.274 OA
ATOM      5  H   UNL     1      -3.767  -2.319   4.336  1.00  0.00     0.163 HD
BRANCH   3   6
ATOM      6  C   UNL     1      -3.750  -1.516   1.043  1.00  0.00     0.077 C 
ATOM      7  C   UNL     1      -3.314  -0.060   1.126  1.00  0.00     0.025 C 
ATOM      8  C   UNL     1      -5.262  -1.635   0.751  1.00  0.00     0.025 C 
BRANCH   6   9
ATOM      9  C   UNL     1      -3.034  -2.217  -0.181  1.00  0.00     0.245 C 
BRANCH   9  10
ATOM     10  O   UNL     1      -1.601  -2.210  -0.282  1.00  0.00    -0.492 OA
BRANCH  10  11
ATOM     11  C   UNL     1      -0.901  -1.072  -0.573  1.00  0.00     0.119 A 
ATOM     12  C   UNL     1       2.644  -0.007   0.265  1.00  0.00     0.044 C 
ATOM     13  C   UNL     1       1.207   0.055  -0.153  1.00  0.00    -0.047 A 
ATOM     14  C   UNL     1       0.443  -1.115  -0.203  1.00  0.00     0.049 A 
ATOM     15  C   UNL     1       0.580   1.279  -0.409  1.00  0.00     0.007 A 
ATOM     16  C   UNL     1      -0.759   1.336  -0.829  1.00  0.00    -0.042 A 
ATOM     17  C   UNL     1      -1.437   0.125  -1.054  1.00  0.00     0.050 A 
BRANCH  16  18
ATOM     18  C   UNL     1      -1.462   2.692  -0.812  1.00  0.00     0.013 C 
ATOM     19  C   UNL     1      -2.598   2.850  -1.824  1.00  0.00     0.012 C 
ATOM     20  C   UNL     1      -1.988   3.022   0.598  1.00  0.00     0.012 C 
ENDBRANCH  16  18
ENDBRANCH  10  11
ENDBRANCH   9  10
ENDBRANCH   6   9
ENDBRANCH   3   6
ENDBRANCH   1   2
BRANCH   1  21
ATOM     21  C   UNL     1      -6.101  -0.790   4.424  1.00  0.00     0.042 C 
BRANCH  21  22
ATOM     22  C   UNL     1      -6.135  -0.960   5.923  1.00  0.00     0.118 C 
BRANCH  22  23
ATOM     23  N   UNL     1      -6.433   0.269   6.658  1.00  0.00    -0.352 N 
ATOM     24  C   UNL     1      -6.772   0.407   8.000  1.00  0.00     0.251 C 
ATOM     25  H   UNL     1      -6.387   1.103   6.138  1.00  0.00     0.163 HD
ATOM     26  O   UNL     1      -7.053   1.482   8.492  1.00  0.00    -0.269 OA
BRANCH  24  27
ATOM     27  C   UNL     1      -6.631  -0.793   8.862  1.00  0.00     0.039 A 
ATOM     28  C   UNL     1      -5.677  -0.722   9.881  1.00  0.00     0.014 A 
ATOM     29  C   UNL     1      -7.128  -2.018   8.435  1.00  0.00     0.014 A 
ATOM     30  C   UNL     1      -5.022  -1.885  10.271  1.00  0.00     0.010 A 
ATOM     31  C   UNL     1      -6.378  -3.145   8.706  1.00  0.00     0.010 A 
ATOM     32  C   UNL     1      -5.291  -3.068   9.583  1.00  0.00    -0.014 A 
BRANCH  32  33
ATOM     33  C   UNL     1      -4.412  -4.230   9.646  1.00  0.00     0.031 A 
ATOM     34  C   UNL     1      -4.850  -5.448  10.351  1.00  0.00     0.074 A 
ATOM     35  C   UNL     1      -3.191  -4.207   9.068  1.00  0.00     0.049 A 
ATOM     36  N   UNL     1      -4.061  -6.230  11.008  1.00  0.00    -0.248 NA
ATOM     37  C   UNL     1      -6.246  -5.861  10.399  1.00  0.00     0.031 C 
ATOM     38  C   UNL     1      -2.265  -5.325   8.907  1.00  0.00     0.029 A 
ATOM     39  N   UNL     1      -2.443  -3.084   8.722  1.00  0.00    -0.354 N 
ATOM     40  C   UNL     1      -4.766  -7.377  11.292  1.00  0.00     0.074 A 
ATOM     41  C   UNL     1      -6.138  -7.064  10.965  1.00  0.00     0.031 C 
ATOM     42  C   UNL     1      -1.022  -4.839   8.761  1.00  0.00     0.029 A 
ATOM     43  C   UNL     1      -1.090  -3.400   8.942  1.00  0.00     0.049 A 
ATOM     44  H   UNL     1      -2.795  -2.228   8.386  1.00  0.00     0.167 HD
ATOM     45  C   UNL     1      -4.102  -8.522  11.617  1.00  0.00     0.034 A 
ATOM     46  C   UNL     1      -0.333  -2.668   9.810  1.00  0.00     0.034 A 
ATOM     47  C   UNL     1      -2.652  -8.321  11.631  1.00  0.00     0.049 A 
ATOM     48  C   UNL     1       0.189  -3.480  10.976  1.00  0.00     0.074 A 
ATOM     49  C   UNL     1      -1.660  -8.628  10.713  1.00  0.00     0.029 A 
ATOM     50  N   UNL     1      -2.073  -7.463  12.560  1.00  0.00    -0.354 N 
ATOM     51  N   UNL     1      -0.244  -4.670  11.294  1.00  0.00    -0.248 NA
ATOM     52  C   UNL     1       1.221  -3.004  11.892  1.00  0.00     0.031 C 
ATOM     53  C   UNL     1      -0.494  -7.903  11.066  1.00  0.00     0.029 A 
ATOM     54  C   UNL     1      -0.765  -7.177  12.213  1.00  0.00     0.049 A 
ATOM     55  H   UNL     1      -2.531  -7.108  13.356  1.00  0.00     0.167 HD
ATOM     56  C   UNL     1       0.380  -5.101  12.439  1.00  0.00     0.074 A 
ATOM     57  C   UNL     1       1.315  -4.034  12.752  1.00  0.00     0.031 C 
ATOM     58  C   UNL     1       0.053  -6.291  13.032  1.00  0.00     0.034 A 
BRANCH  45  59
ATOM     59  C   UNL     1      -4.753  -9.888  11.566  1.00  0.00     0.023 A 
ATOM     60  C   UNL     1      -3.983 -11.010  11.197  1.00  0.00     0.031 A 
ATOM     61  C   UNL     1      -6.115 -10.148  11.810  1.00  0.00     0.131 A 
ATOM     62  C   UNL     1      -4.576 -12.262  10.957  1.00  0.00     0.055 A 
ATOM     63  C   UNL     1      -6.721 -11.374  11.504  1.00  0.00     0.041 A 
ATOM     64  F   UNL     1      -6.906  -9.243  12.404  1.00  0.00    -0.206 F 
ATOM     65  C   UNL     1      -5.953 -12.437  11.056  1.00  0.00     0.022 A 
BRANCH  62  66
ATOM     66  S   UNL     1      -3.515 -13.670  10.532  1.00  0.00     0.124 S 
ATOM     67  O   UNL     1      -2.878 -13.218   9.300  1.00  0.00    -0.237 OA
ATOM     68  O   UNL     1      -2.655 -13.771  11.706  1.00  0.00    -0.237 OA
ATOM     69  O   UNL     1      -4.463 -14.771  10.368  1.00  0.00    -0.744 OA
ENDBRANCH  62  66
ENDBRANCH  45  59
BRANCH  46  70
ATOM     70  C   UNL     1      -0.727  -1.228   9.851  1.00  0.00     0.023 A 
ATOM     71  C   UNL     1      -0.717  -0.525   8.624  1.00  0.00     0.031 A 
ATOM     72  C   UNL     1      -1.466  -0.685  10.908  1.00  0.00     0.131 A 
ATOM     73  C   UNL     1      -1.576   0.565   8.424  1.00  0.00     0.055 A 
ATOM     74  C   UNL     1      -2.258   0.458  10.727  1.00  0.00     0.041 A 
ATOM     75  F   UNL     1      -1.544  -1.319  12.086  1.00  0.00    -0.206 F 
ATOM     76  C   UNL     1      -2.355   1.058   9.470  1.00  0.00     0.022 A 
BRANCH  73  77
ATOM     77  S   UNL     1      -1.890   1.125   6.720  1.00  0.00     0.124 S 
ATOM     78  O   UNL     1      -0.882   2.164   6.547  1.00  0.00    -0.237 OA
ATOM     79  O   UNL     1      -1.696  -0.095   5.939  1.00  0.00    -0.237 OA
ATOM     80  O   UNL     1      -3.277   1.587   6.755  1.00  0.00    -0.744 OA
ENDBRANCH  73  77
ENDBRANCH  46  70
BRANCH  58  81
ATOM     81  C   UNL     1       0.534  -6.779  14.387  1.00  0.00     0.023 A 
ATOM     82  C   UNL     1       1.126  -5.948  15.350  1.00  0.00     0.031 A 
ATOM     83  C   UNL     1       0.343  -8.127  14.785  1.00  0.00     0.131 A 
ATOM     84  C   UNL     1       1.574  -6.460  16.583  1.00  0.00     0.055 A 
ATOM     85  C   UNL     1       0.715  -8.616  16.042  1.00  0.00     0.041 A 
ATOM     86  F   UNL     1      -0.221  -9.033  13.973  1.00  0.00    -0.206 F 
ATOM     87  C   UNL     1       1.352  -7.784  16.947  1.00  0.00     0.022 A 
BRANCH  84  88
ATOM     88  S   UNL     1       2.519  -5.364  17.675  1.00  0.00     0.124 S 
ATOM     89  O   UNL     1       3.677  -5.040  16.846  1.00  0.00    -0.237 OA
ATOM     90  O   UNL     1       1.582  -4.271  17.910  1.00  0.00    -0.237 OA
ATOM     91  O   UNL     1       2.806  -6.199  18.840  1.00  0.00    -0.744 OA
ENDBRANCH  84  88
ENDBRANCH  58  81
ENDBRANCH  32  33
ENDBRANCH  24  27
ENDBRANCH  22  23
ENDBRANCH  21  22
ENDBRANCH   1  21
TORSDOF 17
