REMARK SMILES CC[N@@H+](C/C(Cl)=C/Cl)C[C@@H](C)C(=O)NCCCNC(=O)c1ccc(-c2c3nc(c(-c4cc(S(=O)(=O)[O-])ccc4F)c4ccc([nH]4)c(-c4cc(S(=O)(=O)[O-])ccc4F)c4nc(c(-c5cc(S(=O)(=O)[O-])ccc5F)c5ccc2[nH]5)C=C4)C=C3)cc1
REMARK SMILES IDX 15 1 14 2 12 3 13 4 10 6 11 7 9 8 3 9 2 11 1 12 4 13 5 14
REMARK SMILES IDX 6 15 7 16 8 17 16 18 17 19 18 20 19 21 20 23 21 24 22 25
REMARK SMILES IDX 83 26 23 27 82 28 24 29 25 30 26 31 76 32 27 33 81 34 75 35
REMARK SMILES IDX 77 36 28 37 80 38 74 39 73 40 29 42 61 43 41 44 60 45 42 46
REMARK SMILES IDX 45 47 59 48 78 49 43 50 44 51 58 53 79 54 46 55 30 56 31 57
REMARK SMILES IDX 39 58 32 59 38 60 40 61 37 62 33 63 34 64 35 65 36 66 62 67
REMARK SMILES IDX 63 68 71 69 64 70 70 71 72 72 69 73 65 74 66 75 67 76 68 77
REMARK SMILES IDX 47 78 48 79 56 80 49 81 55 82 57 83 54 84 50 85 51 86 52 87
REMARK SMILES IDX 53 88
REMARK H PARENT 14 5 3 10 18 22 77 41 45 52
REMARK Flexibility Score: inf
ROOT
ATOM      1  C   UNL     1       4.761  -0.356   0.336  1.00  0.00     0.117 C 
ENDROOT
BRANCH   1   2
ATOM      2  N   UNL     1       5.265   0.106   1.616  1.00  0.00    -0.356 N 
ATOM      3  C   UNL     1       4.622   0.397   2.777  1.00  0.00     0.228 C 
ATOM      4  O   UNL     1       5.307   0.809   3.716  1.00  0.00    -0.275 OA
ATOM      5  H   UNL     1       6.241   0.230   1.648  1.00  0.00     0.163 HD
BRANCH   3   6
ATOM      6  C   UNL     1       3.117   0.211   2.939  1.00  0.00     0.130 C 
ATOM      7  C   UNL     1       2.730  -1.255   2.756  1.00  0.00     0.024 C 
BRANCH   6   8
ATOM      8  C   UNL     1       2.354   1.272   2.119  1.00  0.00     0.275 C 
BRANCH   8   9
ATOM      9  N   UNL     1       0.890   1.304   2.123  1.00  0.00    -0.330 N 
ATOM     10  H   UNL     1       0.772   2.072   1.462  1.00  0.00     0.348 HD
BRANCH   9  11
ATOM     11  C   UNL     1       0.155   0.288   1.384  1.00  0.00     0.259 C 
ATOM     12  C   UNL     1       0.541   0.197  -0.090  1.00  0.00     0.071 C 
ENDBRANCH   9  11
BRANCH   9  13
ATOM     13  C   UNL     1       0.247   1.820   3.333  1.00  0.00     0.312 C 
BRANCH  13  14
ATOM     14  C   UNL     1       0.367   1.026   4.612  1.00  0.00     0.083 C 
ATOM     15  Cl  UNL     1       1.208   1.843   5.898  1.00  0.00    -0.082 Cl
ATOM     16  C   UNL     1      -0.167  -0.189   4.787  1.00  0.00     0.102 C 
ATOM     17  Cl  UNL     1      -0.053  -1.149   6.203  1.00  0.00    -0.091 Cl
ENDBRANCH  13  14
ENDBRANCH   9  13
ENDBRANCH   8   9
ENDBRANCH   6   8
ENDBRANCH   3   6
ENDBRANCH   1   2
BRANCH   1  18
ATOM     18  C   UNL     1       5.001   0.658  -0.772  1.00  0.00     0.042 C 
BRANCH  18  19
ATOM     19  C   UNL     1       6.471   0.825  -1.127  1.00  0.00     0.118 C 
BRANCH  19  20
ATOM     20  N   UNL     1       7.045  -0.389  -1.692  1.00  0.00    -0.352 N 
ATOM     21  C   UNL     1       7.632  -0.582  -2.922  1.00  0.00     0.251 C 
ATOM     22  H   UNL     1       7.009  -1.184  -1.113  1.00  0.00     0.163 HD
ATOM     23  O   UNL     1       7.873  -1.716  -3.314  1.00  0.00    -0.269 OA
BRANCH  21  24
ATOM     24  C   UNL     1       7.940   0.593  -3.764  1.00  0.00     0.039 A 
ATOM     25  C   UNL     1       7.591   0.579  -5.116  1.00  0.00     0.014 A 
ATOM     26  C   UNL     1       8.543   1.719  -3.200  1.00  0.00     0.014 A 
ATOM     27  C   UNL     1       7.776   1.730  -5.886  1.00  0.00     0.010 A 
ATOM     28  C   UNL     1       8.645   2.887  -3.942  1.00  0.00     0.010 A 
ATOM     29  C   UNL     1       8.264   2.905  -5.294  1.00  0.00    -0.014 A 
BRANCH  29  30
ATOM     30  C   UNL     1       8.420   4.172  -6.054  1.00  0.00     0.031 A 
ATOM     31  C   UNL     1       9.788   4.782  -6.190  1.00  0.00     0.074 A 
ATOM     32  C   UNL     1       7.333   4.821  -6.515  1.00  0.00     0.049 A 
ATOM     33  N   UNL     1      10.130   5.967  -6.622  1.00  0.00    -0.248 NA
ATOM     34  C   UNL     1      10.917   3.957  -5.732  1.00  0.00     0.031 C 
ATOM     35  C   UNL     1       5.952   4.343  -6.414  1.00  0.00     0.029 A 
ATOM     36  N   UNL     1       7.216   6.038  -7.139  1.00  0.00    -0.354 N 
ATOM     37  C   UNL     1      11.509   6.045  -6.453  1.00  0.00     0.074 A 
ATOM     38  C   UNL     1      11.926   4.808  -5.828  1.00  0.00     0.031 C 
ATOM     39  C   UNL     1       5.131   5.251  -6.966  1.00  0.00     0.029 A 
ATOM     40  C   UNL     1       5.916   6.398  -7.410  1.00  0.00     0.049 A 
ATOM     41  H   UNL     1       7.990   6.601  -7.371  1.00  0.00     0.167 HD
ATOM     42  C   UNL     1      12.350   7.050  -6.803  1.00  0.00     0.034 A 
ATOM     43  C   UNL     1       5.414   7.534  -7.933  1.00  0.00     0.034 A 
ATOM     44  C   UNL     1      11.914   8.261  -7.453  1.00  0.00     0.049 A 
ATOM     45  C   UNL     1       6.366   8.639  -8.319  1.00  0.00     0.074 A 
ATOM     46  C   UNL     1      12.679   9.323  -7.901  1.00  0.00     0.029 A 
ATOM     47  N   UNL     1      10.592   8.569  -7.751  1.00  0.00    -0.354 N 
ATOM     48  N   UNL     1       7.670   8.691  -8.175  1.00  0.00    -0.248 NA
ATOM     49  C   UNL     1       5.781   9.832  -8.944  1.00  0.00     0.031 C 
ATOM     50  C   UNL     1      11.817  10.295  -8.421  1.00  0.00     0.029 A 
ATOM     51  C   UNL     1      10.520   9.810  -8.362  1.00  0.00     0.049 A 
ATOM     52  H   UNL     1       9.820   7.990  -7.556  1.00  0.00     0.167 HD
ATOM     53  C   UNL     1       8.064   9.905  -8.729  1.00  0.00     0.074 A 
ATOM     54  C   UNL     1       6.861  10.554  -9.208  1.00  0.00     0.031 C 
ATOM     55  C   UNL     1       9.309  10.433  -8.841  1.00  0.00     0.034 A 
BRANCH  42  56
ATOM     56  C   UNL     1      13.811   6.881  -6.464  1.00  0.00     0.023 A 
ATOM     57  C   UNL     1      14.580   5.838  -7.010  1.00  0.00     0.031 A 
ATOM     58  C   UNL     1      14.435   7.747  -5.550  1.00  0.00     0.131 A 
ATOM     59  C   UNL     1      15.896   5.633  -6.571  1.00  0.00     0.055 A 
ATOM     60  C   UNL     1      15.774   7.592  -5.184  1.00  0.00     0.041 A 
ATOM     61  F   UNL     1      13.749   8.750  -4.979  1.00  0.00    -0.206 F 
ATOM     62  C   UNL     1      16.508   6.519  -5.682  1.00  0.00     0.022 A 
BRANCH  59  63
ATOM     63  S   UNL     1      16.742   4.106  -7.061  1.00  0.00     0.124 S 
ATOM     64  O   UNL     1      15.853   3.087  -6.506  1.00  0.00    -0.237 OA
ATOM     65  O   UNL     1      16.764   4.209  -8.516  1.00  0.00    -0.237 OA
ATOM     66  O   UNL     1      18.044   4.210  -6.407  1.00  0.00    -0.744 OA
ENDBRANCH  59  63
ENDBRANCH  42  56
BRANCH  43  67
ATOM     67  C   UNL     1       3.944   7.696  -8.117  1.00  0.00     0.023 A 
ATOM     68  C   UNL     1       3.384   7.793  -9.400  1.00  0.00     0.031 A 
ATOM     69  C   UNL     1       3.079   7.789  -7.012  1.00  0.00     0.131 A 
ATOM     70  C   UNL     1       2.007   8.021  -9.549  1.00  0.00     0.055 A 
ATOM     71  C   UNL     1       1.703   7.966  -7.165  1.00  0.00     0.041 A 
ATOM     72  F   UNL     1       3.561   7.693  -5.762  1.00  0.00    -0.206 F 
ATOM     73  C   UNL     1       1.161   8.097  -8.440  1.00  0.00     0.022 A 
BRANCH  70  74
ATOM     74  S   UNL     1       1.348   8.294 -11.216  1.00  0.00     0.124 S 
ATOM     75  O   UNL     1       2.126   9.447 -11.658  1.00  0.00    -0.237 OA
ATOM     76  O   UNL     1       1.650   7.026 -11.872  1.00  0.00    -0.237 OA
ATOM     77  O   UNL     1      -0.071   8.551 -10.982  1.00  0.00    -0.744 OA
ENDBRANCH  70  74
ENDBRANCH  43  67
BRANCH  55  78
ATOM     78  C   UNL     1       9.438  11.742  -9.576  1.00  0.00     0.023 A 
ATOM     79  C   UNL     1       8.965  12.950  -9.036  1.00  0.00     0.031 A 
ATOM     80  C   UNL     1      10.062  11.776 -10.836  1.00  0.00     0.131 A 
ATOM     81  C   UNL     1       9.090  14.137  -9.773  1.00  0.00     0.055 A 
ATOM     82  C   UNL     1      10.228  12.967 -11.542  1.00  0.00     0.041 A 
ATOM     83  F   UNL     1      10.530  10.648 -11.396  1.00  0.00    -0.206 F 
ATOM     84  C   UNL     1       9.733  14.156 -11.014  1.00  0.00     0.022 A 
BRANCH  81  85
ATOM     85  S   UNL     1       8.348  15.655  -9.114  1.00  0.00     0.124 S 
ATOM     86  O   UNL     1       6.936  15.295  -9.038  1.00  0.00    -0.237 OA
ATOM     87  O   UNL     1       9.036  15.812  -7.837  1.00  0.00    -0.237 OA
ATOM     88  O   UNL     1       8.677  16.663 -10.121  1.00  0.00    -0.744 OA
ENDBRANCH  81  85
ENDBRANCH  55  78
ENDBRANCH  29  30
ENDBRANCH  21  24
ENDBRANCH  19  20
ENDBRANCH  18  19
ENDBRANCH   1  18
TORSDOF 18
