REMARK SMILES Cc1c(-c2ccc(O)cc2)nc(N)c(C#N)c1-c1ccccc1OCC(=O)NCCCNC(=O)c1ccc(-c2c3nc(c(-c4cc(S(=O)(=O)[O-])ccc4F)c4ccc([nH]4)c(-c4cc(S(=O)(=O)[O-])ccc4F)c4nc(c(-c5cc(S(=O)(=O)[O-])ccc5F)c5ccc2[nH]5)C=C4)C=C3)cc1
REMARK SMILES IDX 29 1 28 2 26 3 27 4 25 6 24 7 23 8 18 9 19 10 20 11 22 12
REMARK SMILES IDX 21 13 17 14 1 15 2 16 3 17 11 18 14 19 12 20 4 21 5 22 10 23
REMARK SMILES IDX 6 24 9 25 7 26 8 27 15 29 16 30 13 31 30 34 31 35 32 36
REMARK SMILES IDX 33 37 34 39 35 40 36 41 97 42 37 43 96 44 38 45 39 46 40 47
REMARK SMILES IDX 90 48 41 49 95 50 89 51 91 52 42 53 94 54 88 55 87 56 43 58
REMARK SMILES IDX 75 59 55 60 74 61 56 62 59 63 73 64 92 65 57 66 58 67 72 69
REMARK SMILES IDX 93 70 60 71 44 72 45 73 53 74 46 75 52 76 54 77 51 78 47 79
REMARK SMILES IDX 48 80 49 81 50 82 76 83 77 84 85 85 78 86 84 87 86 88 83 89
REMARK SMILES IDX 79 90 80 91 81 92 82 93 61 94 62 95 70 96 63 97 69 98 71 99
REMARK SMILES IDX 68 100 64 101 65 102 66 103 67 104
REMARK H PARENT 28 5 8 28 13 32 13 33 32 38 91 57 59 68
REMARK Flexibility Score: inf
ROOT
ATOM      1  C   UNL     1       1.400   2.002  -2.424  1.00  0.00     0.117 C 
ENDROOT
BRANCH   1   2
ATOM      2  N   UNL     1       1.725   0.632  -2.068  1.00  0.00    -0.353 N 
ATOM      3  C   UNL     1       1.027  -0.496  -2.409  1.00  0.00     0.257 C 
ATOM      4  O   UNL     1       1.660  -1.536  -2.606  1.00  0.00    -0.271 OA
ATOM      5  H   UNL     1       2.534   0.499  -1.523  1.00  0.00     0.163 HD
BRANCH   3   6
ATOM      6  C   UNL     1      -0.492  -0.481  -2.588  1.00  0.00     0.329 C 
BRANCH   6   7
ATOM      7  O   UNL     1      -1.170   0.549  -1.911  1.00  0.00    -0.483 OA
BRANCH   7   8
ATOM      8  C   UNL     1      -2.013   0.333  -0.858  1.00  0.00     0.127 A 
ATOM      9  C   UNL     1      -1.960  -0.635   0.173  1.00  0.00     0.026 A 
ATOM     10  C   UNL     1      -2.878  -0.495   1.242  1.00  0.00     0.012 A 
ATOM     11  C   UNL     1      -3.817   0.538   1.286  1.00  0.00     0.001 A 
ATOM     12  C   UNL     1      -2.970   1.363  -0.797  1.00  0.00     0.047 A 
ATOM     13  C   UNL     1      -3.869   1.466   0.259  1.00  0.00     0.004 A 
BRANCH   9  14
ATOM     14  C   UNL     1      -0.985  -1.754   0.268  1.00  0.00     0.012 A 
ATOM     15  C   UNL     1       0.800  -0.148   1.038  1.00  0.00     0.047 C 
ATOM     16  C   UNL     1       0.378  -1.516   0.577  1.00  0.00    -0.015 A 
ATOM     17  C   UNL     1       1.283  -2.594   0.495  1.00  0.00     0.076 A 
ATOM     18  N   UNL     1       0.860  -3.866   0.276  1.00  0.00    -0.230 NA
ATOM     19  C   UNL     1      -1.398  -3.090   0.067  1.00  0.00     0.102 A 
ATOM     20  C   UNL     1      -0.450  -4.109   0.111  1.00  0.00     0.142 A 
BRANCH  17  21
ATOM     21  C   UNL     1       2.758  -2.442   0.413  1.00  0.00     0.001 A 
ATOM     22  C   UNL     1       3.433  -2.961  -0.712  1.00  0.00     0.014 A 
ATOM     23  C   UNL     1       3.527  -1.726   1.345  1.00  0.00     0.014 A 
ATOM     24  C   UNL     1       4.779  -2.682  -0.959  1.00  0.00     0.047 A 
ATOM     25  C   UNL     1       4.875  -1.430   1.098  1.00  0.00     0.047 A 
ATOM     26  C   UNL     1       5.483  -1.893  -0.065  1.00  0.00     0.115 A 
BRANCH  26  27
ATOM     27  O   UNL     1       6.773  -1.582  -0.371  1.00  0.00    -0.508 OA
ATOM     28  H   UNL     1       7.158  -1.907  -1.161  1.00  0.00     0.293 HD
ENDBRANCH  26  27
ENDBRANCH  17  21
BRANCH  19  29
ATOM     29  C   UNL     1      -2.775  -3.429  -0.142  1.00  0.00     0.104 C 
ATOM     30  N   UNL     1      -3.891  -3.737  -0.262  1.00  0.00    -0.192 NA
ENDBRANCH  19  29
BRANCH  20  31
ATOM     31  N   UNL     1      -0.757  -5.442  -0.099  1.00  0.00    -0.383 N 
ATOM     32  H   UNL     1      -0.048  -6.123  -0.058  1.00  0.00     0.158 HD
ATOM     33  H   UNL     1      -1.686  -5.708  -0.291  1.00  0.00     0.158 HD
ENDBRANCH  20  31
ENDBRANCH   9  14
ENDBRANCH   7   8
ENDBRANCH   6   7
ENDBRANCH   3   6
ENDBRANCH   1   2
BRANCH   1  34
ATOM     34  C   UNL     1       1.001   2.925  -1.276  1.00  0.00     0.042 C 
BRANCH  34  35
ATOM     35  C   UNL     1       1.999   3.067  -0.132  1.00  0.00     0.118 C 
BRANCH  35  36
ATOM     36  N   UNL     1       3.321   3.514  -0.533  1.00  0.00    -0.352 N 
ATOM     37  C   UNL     1       3.975   4.702  -0.315  1.00  0.00     0.251 C 
ATOM     38  H   UNL     1       3.837   2.852  -1.048  1.00  0.00     0.163 HD
ATOM     39  O   UNL     1       5.072   4.886  -0.835  1.00  0.00    -0.269 OA
BRANCH  37  40
ATOM     40  C   UNL     1       3.351   5.771   0.495  1.00  0.00     0.039 A 
ATOM     41  C   UNL     1       3.343   7.072  -0.014  1.00  0.00     0.014 A 
ATOM     42  C   UNL     1       2.776   5.508   1.741  1.00  0.00     0.014 A 
ATOM     43  C   UNL     1       2.674   8.083   0.678  1.00  0.00     0.010 A 
ATOM     44  C   UNL     1       2.038   6.499   2.390  1.00  0.00     0.010 A 
ATOM     45  C   UNL     1       1.965   7.794   1.857  1.00  0.00    -0.014 A 
BRANCH  45  46
ATOM     46  C   UNL     1       1.118   8.834   2.504  1.00  0.00     0.031 A 
ATOM     47  C   UNL     1       1.427   9.329   3.890  1.00  0.00     0.074 A 
ATOM     48  C   UNL     1       0.052   9.325   1.836  1.00  0.00     0.049 A 
ATOM     49  N   UNL     1       0.806  10.241   4.594  1.00  0.00    -0.248 NA
ATOM     50  C   UNL     1       2.568   8.711   4.585  1.00  0.00     0.031 C 
ATOM     51  C   UNL     1      -0.371   8.899   0.499  1.00  0.00     0.029 A 
ATOM     52  N   UNL     1      -0.858  10.296   2.174  1.00  0.00    -0.354 N 
ATOM     53  C   UNL     1       1.486  10.317   5.803  1.00  0.00     0.074 A 
ATOM     54  C   UNL     1       2.523   9.309   5.767  1.00  0.00     0.031 C 
ATOM     55  C   UNL     1      -1.415   9.646   0.109  1.00  0.00     0.029 A 
ATOM     56  C   UNL     1      -1.775  10.567   1.182  1.00  0.00     0.049 A 
ATOM     57  H   UNL     1      -0.856  10.756   3.045  1.00  0.00     0.167 HD
ATOM     58  C   UNL     1       1.284  11.171   6.835  1.00  0.00     0.034 A 
ATOM     59  C   UNL     1      -2.788  11.456   1.135  1.00  0.00     0.034 A 
ATOM     60  C   UNL     1       0.254  12.177   6.859  1.00  0.00     0.049 A 
ATOM     61  C   UNL     1      -3.028  12.355   2.320  1.00  0.00     0.074 A 
ATOM     62  C   UNL     1      -0.008  13.111   7.846  1.00  0.00     0.029 A 
ATOM     63  N   UNL     1      -0.685  12.382   5.858  1.00  0.00    -0.354 N 
ATOM     64  N   UNL     1      -2.357  12.425   3.446  1.00  0.00    -0.248 NA
ATOM     65  C   UNL     1      -4.157  13.292   2.232  1.00  0.00     0.031 C 
ATOM     66  C   UNL     1      -1.148  13.828   7.478  1.00  0.00     0.029 A 
ATOM     67  C   UNL     1      -1.548  13.403   6.221  1.00  0.00     0.049 A 
ATOM     68  H   UNL     1      -0.731  11.876   5.014  1.00  0.00     0.167 HD
ATOM     69  C   UNL     1      -2.963  13.436   4.186  1.00  0.00     0.074 A 
ATOM     70  C   UNL     1      -4.055  13.945   3.383  1.00  0.00     0.031 C 
ATOM     71  C   UNL     1      -2.635  13.903   5.416  1.00  0.00     0.034 A 
BRANCH  58  72
ATOM     72  C   UNL     1       2.197  11.062   8.029  1.00  0.00     0.023 A 
ATOM     73  C   UNL     1       3.561  11.383   7.936  1.00  0.00     0.031 A 
ATOM     74  C   UNL     1       1.690  10.683   9.285  1.00  0.00     0.131 A 
ATOM     75  C   UNL     1       4.381  11.285   9.069  1.00  0.00     0.055 A 
ATOM     76  C   UNL     1       2.497  10.651  10.423  1.00  0.00     0.041 A 
ATOM     77  F   UNL     1       0.397  10.350   9.427  1.00  0.00    -0.206 F 
ATOM     78  C   UNL     1       3.853  10.947  10.318  1.00  0.00     0.022 A 
BRANCH  75  79
ATOM     79  S   UNL     1       6.166  11.532   8.872  1.00  0.00     0.124 S 
ATOM     80  O   UNL     1       6.516  10.439   7.968  1.00  0.00    -0.237 OA
ATOM     81  O   UNL     1       6.239  12.875   8.309  1.00  0.00    -0.237 OA
ATOM     82  O   UNL     1       6.683  11.397  10.232  1.00  0.00    -0.744 OA
ENDBRANCH  75  79
ENDBRANCH  58  72
BRANCH  59  83
ATOM     83  C   UNL     1      -3.643  11.546  -0.083  1.00  0.00     0.023 A 
ATOM     84  C   UNL     1      -3.622  12.690  -0.896  1.00  0.00     0.031 A 
ATOM     85  C   UNL     1      -4.486  10.484  -0.458  1.00  0.00     0.131 A 
ATOM     86  C   UNL     1      -4.443  12.754  -2.033  1.00  0.00     0.055 A 
ATOM     87  C   UNL     1      -5.267  10.535  -1.613  1.00  0.00     0.041 A 
ATOM     88  F   UNL     1      -4.537   9.365   0.282  1.00  0.00    -0.206 F 
ATOM     89  C   UNL     1      -5.253  11.678  -2.406  1.00  0.00     0.022 A 
BRANCH  86  90
ATOM     90  S   UNL     1      -4.466  14.284  -3.007  1.00  0.00     0.124 S 
ATOM     91  O   UNL     1      -4.984  15.243  -2.038  1.00  0.00    -0.237 OA
ATOM     92  O   UNL     1      -3.062  14.433  -3.374  1.00  0.00    -0.237 OA
ATOM     93  O   UNL     1      -5.365  13.967  -4.115  1.00  0.00    -0.744 OA
ENDBRANCH  86  90
ENDBRANCH  59  83
BRANCH  71  94
ATOM     94  C   UNL     1      -3.434  15.051   5.975  1.00  0.00     0.023 A 
ATOM     95  C   UNL     1      -4.752  14.880   6.426  1.00  0.00     0.031 A 
ATOM     96  C   UNL     1      -2.827  16.308   6.148  1.00  0.00     0.131 A 
ATOM     97  C   UNL     1      -5.427  15.956   7.023  1.00  0.00     0.055 A 
ATOM     98  C   UNL     1      -3.486  17.360   6.785  1.00  0.00     0.041 A 
ATOM     99  F   UNL     1      -1.565  16.519   5.738  1.00  0.00    -0.206 F 
ATOM    100  C   UNL     1      -4.795  17.186   7.225  1.00  0.00     0.022 A 
BRANCH  97 101
ATOM    101  S   UNL     1      -7.153  15.730   7.529  1.00  0.00     0.124 S 
ATOM    102  O   UNL     1      -7.816  15.507   6.248  1.00  0.00    -0.237 OA
ATOM    103  O   UNL     1      -7.075  14.574   8.416  1.00  0.00    -0.237 OA
ATOM    104  O   UNL     1      -7.486  16.992   8.188  1.00  0.00    -0.744 OA
ENDBRANCH  97 101
ENDBRANCH  71  94
ENDBRANCH  45  46
ENDBRANCH  37  40
ENDBRANCH  35  36
ENDBRANCH  34  35
ENDBRANCH   1  34
TORSDOF 20
