REMARK SMILES CCCC1CN(c2cc(C(=O)NCCCNC(=O)c3ccc(-c4c5nc(c(-c6cc(S(=O)(=O)[O-])ccc6F)c6ccc([nH]6)c(-c6cc(S(=O)(=O)[O-])ccc6F)c6nc(c(-c7cc(S(=O)(=O)[O-])ccc7F)c7ccc4[nH]7)C=C6)C=C5)cc3)ccc2F)C1
REMARK SMILES IDX 14 1 13 2 12 3 10 4 11 5 9 7 7 8 8 9 84 10 83 11 85 12 82 13
REMARK SMILES IDX 6 14 4 15 5 16 86 17 3 18 2 19 1 20 15 21 16 22 17 23 18 25
REMARK SMILES IDX 19 26 20 27 81 28 21 29 80 30 22 31 23 32 24 33 74 34 25 35
REMARK SMILES IDX 79 36 73 37 75 38 26 39 78 40 72 41 71 42 27 44 59 45 39 46
REMARK SMILES IDX 58 47 40 48 43 49 57 50 76 51 41 52 42 53 56 55 77 56 44 57
REMARK SMILES IDX 28 58 29 59 37 60 30 61 36 62 38 63 35 64 31 65 32 66 33 67
REMARK SMILES IDX 34 68 60 69 61 70 69 71 62 72 68 73 70 74 67 75 63 76 64 77
REMARK SMILES IDX 65 78 66 79 45 80 46 81 54 82 47 83 53 84 55 85 52 86 48 87
REMARK SMILES IDX 49 88 50 89 51 90
REMARK H PARENT 12 6 16 24 75 43 43 54
REMARK Flexibility Score: inf
ROOT
ATOM      1  C   UNL     1      -3.567   9.810   5.290  1.00  0.00     0.042 C 
ENDROOT
BRANCH   1   2
ATOM      2  C   UNL     1      -2.059   9.559   5.314  1.00  0.00     0.118 C 
BRANCH   2   3
ATOM      3  N   UNL     1      -1.730   8.445   6.186  1.00  0.00    -0.352 N 
ATOM      4  C   UNL     1      -1.401   7.136   5.958  1.00  0.00     0.251 C 
ATOM      5  O   UNL     1      -1.137   6.447   6.945  1.00  0.00    -0.269 OA
ATOM      6  H   UNL     1      -1.745   8.682   7.142  1.00  0.00     0.163 HD
BRANCH   4   7
ATOM      7  C   UNL     1      -1.298   6.519   4.604  1.00  0.00     0.042 A 
ATOM      8  C   UNL     1      -0.279   4.716   3.274  1.00  0.00     0.074 A 
ATOM      9  C   UNL     1      -0.471   5.384   4.495  1.00  0.00     0.042 A 
ATOM     10  C   UNL     1      -0.927   5.225   2.144  1.00  0.00     0.146 A 
ATOM     11  C   UNL     1      -1.784   6.320   2.239  1.00  0.00     0.042 A 
ATOM     12  F   UNL     1      -0.801   4.629   0.949  1.00  0.00    -0.205 F 
ATOM     13  C   UNL     1      -1.990   6.948   3.471  1.00  0.00     0.017 A 
BRANCH   8  14
ATOM     14  N   UNL     1       0.516   3.548   3.267  1.00  0.00    -0.368 N 
ATOM     15  C   UNL     1       0.341   1.647   2.456  1.00  0.00     0.028 C 
ATOM     16  C   UNL     1       0.056   2.299   3.820  1.00  0.00     0.122 C 
ATOM     17  C   UNL     1       1.180   2.904   2.170  1.00  0.00     0.122 C 
BRANCH  15  18
ATOM     18  C   UNL     1       1.057   0.302   2.500  1.00  0.00     0.007 C 
BRANCH  18  19
ATOM     19  C   UNL     1       0.691  -0.577   1.303  1.00  0.00    -0.003 C 
ATOM     20  C   UNL     1       1.211  -0.048  -0.024  1.00  0.00     0.004 C 
ENDBRANCH  18  19
ENDBRANCH  15  18
ENDBRANCH   8  14
ENDBRANCH   4   7
ENDBRANCH   2   3
ENDBRANCH   1   2
BRANCH   1  21
ATOM     21  C   UNL     1      -4.096  10.454   6.574  1.00  0.00     0.118 C 
BRANCH  21  22
ATOM     22  N   UNL     1      -3.629  11.825   6.724  1.00  0.00    -0.352 N 
ATOM     23  C   UNL     1      -4.336  12.998   6.818  1.00  0.00     0.251 C 
ATOM     24  H   UNL     1      -2.650  11.928   6.765  1.00  0.00     0.163 HD
ATOM     25  O   UNL     1      -3.740  14.063   6.689  1.00  0.00    -0.269 OA
BRANCH  23  26
ATOM     26  C   UNL     1      -5.797  12.990   7.063  1.00  0.00     0.039 A 
ATOM     27  C   UNL     1      -6.596  13.920   6.391  1.00  0.00     0.014 A 
ATOM     28  C   UNL     1      -6.375  12.117   7.989  1.00  0.00     0.014 A 
ATOM     29  C   UNL     1      -7.977  13.937   6.606  1.00  0.00     0.010 A 
ATOM     30  C   UNL     1      -7.759  12.094   8.158  1.00  0.00     0.010 A 
ATOM     31  C   UNL     1      -8.575  13.004   7.468  1.00  0.00    -0.014 A 
BRANCH  31  32
ATOM     32  C   UNL     1     -10.050  12.964   7.658  1.00  0.00     0.031 A 
ATOM     33  C   UNL     1     -10.650  13.279   9.002  1.00  0.00     0.074 A 
ATOM     34  C   UNL     1     -10.844  12.603   6.630  1.00  0.00     0.049 A 
ATOM     35  N   UNL     1     -11.898  13.200   9.386  1.00  0.00    -0.248 NA
ATOM     36  C   UNL     1      -9.725  13.721  10.058  1.00  0.00     0.031 C 
ATOM     37  C   UNL     1     -10.379  12.262   5.283  1.00  0.00     0.029 A 
ATOM     38  N   UNL     1     -12.207  12.459   6.554  1.00  0.00    -0.354 N 
ATOM     39  C   UNL     1     -11.908  13.572  10.726  1.00  0.00     0.074 A 
ATOM     40  C   UNL     1     -10.536  13.835  11.100  1.00  0.00     0.031 C 
ATOM     41  C   UNL     1     -11.439  11.979   4.509  1.00  0.00     0.029 A 
ATOM     42  C   UNL     1     -12.655  12.067   5.313  1.00  0.00     0.049 A 
ATOM     43  H   UNL     1     -12.809  12.621   7.316  1.00  0.00     0.167 HD
ATOM     44  C   UNL     1     -12.968  13.699  11.560  1.00  0.00     0.034 A 
ATOM     45  C   UNL     1     -13.900  11.796   4.873  1.00  0.00     0.034 A 
ATOM     46  C   UNL     1     -14.335  13.462  11.171  1.00  0.00     0.049 A 
ATOM     47  C   UNL     1     -15.056  11.915   5.830  1.00  0.00     0.074 A 
ATOM     48  C   UNL     1     -15.481  13.600  11.934  1.00  0.00     0.029 A 
ATOM     49  N   UNL     1     -14.742  13.046   9.912  1.00  0.00    -0.354 N 
ATOM     50  N   UNL     1     -15.043  12.258   7.097  1.00  0.00    -0.248 NA
ATOM     51  C   UNL     1     -16.393  11.610   5.303  1.00  0.00     0.031 C 
ATOM     52  C   UNL     1     -16.576  13.218  11.154  1.00  0.00     0.029 A 
ATOM     53  C   UNL     1     -16.120  12.904   9.884  1.00  0.00     0.049 A 
ATOM     54  H   UNL     1     -14.142  12.877   9.150  1.00  0.00     0.167 HD
ATOM     55  C   UNL     1     -16.371  12.232   7.510  1.00  0.00     0.074 A 
ATOM     56  C   UNL     1     -17.160  11.846   6.359  1.00  0.00     0.031 C 
ATOM     57  C   UNL     1     -16.890  12.511   8.731  1.00  0.00     0.034 A 
BRANCH  44  58
ATOM     58  C   UNL     1     -12.699  14.107  12.984  1.00  0.00     0.023 A 
ATOM     59  C   UNL     1     -12.274  15.406  13.306  1.00  0.00     0.031 A 
ATOM     60  C   UNL     1     -12.921  13.200  14.036  1.00  0.00     0.131 A 
ATOM     61  C   UNL     1     -12.054  15.755  14.646  1.00  0.00     0.055 A 
ATOM     62  C   UNL     1     -12.755  13.571  15.371  1.00  0.00     0.041 A 
ATOM     63  F   UNL     1     -13.314  11.942  13.780  1.00  0.00    -0.206 F 
ATOM     64  C   UNL     1     -12.316  14.854  15.682  1.00  0.00     0.022 A 
BRANCH  61  65
ATOM     65  S   UNL     1     -11.370  17.392  15.019  1.00  0.00     0.124 S 
ATOM     66  O   UNL     1     -10.024  17.281  14.462  1.00  0.00    -0.237 OA
ATOM     67  O   UNL     1     -12.280  18.287  14.314  1.00  0.00    -0.237 OA
ATOM     68  O   UNL     1     -11.432  17.465  16.477  1.00  0.00    -0.744 OA
ENDBRANCH  61  65
ENDBRANCH  44  58
BRANCH  45  69
ATOM     69  C   UNL     1     -14.120  11.370   3.463  1.00  0.00     0.023 A 
ATOM     70  C   UNL     1     -14.806  12.198   2.560  1.00  0.00     0.031 A 
ATOM     71  C   UNL     1     -13.662  10.123   3.002  1.00  0.00     0.131 A 
ATOM     72  C   UNL     1     -15.040  11.756   1.248  1.00  0.00     0.055 A 
ATOM     73  C   UNL     1     -13.861   9.706   1.685  1.00  0.00     0.041 A 
ATOM     74  F   UNL     1     -12.995   9.299   3.825  1.00  0.00    -0.206 F 
ATOM     75  C   UNL     1     -14.562  10.522   0.802  1.00  0.00     0.022 A 
BRANCH  72  76
ATOM     76  S   UNL     1     -16.023  12.803   0.140  1.00  0.00     0.124 S 
ATOM     77  O   UNL     1     -17.308  12.836   0.827  1.00  0.00    -0.237 OA
ATOM     78  O   UNL     1     -15.260  14.047   0.142  1.00  0.00    -0.237 OA
ATOM     79  O   UNL     1     -16.007  12.069  -1.123  1.00  0.00    -0.744 OA
ENDBRANCH  72  76
ENDBRANCH  45  69
BRANCH  57  80
ATOM     80  C   UNL     1     -18.386  12.444   8.880  1.00  0.00     0.023 A 
ATOM     81  C   UNL     1     -19.067  11.217   8.903  1.00  0.00     0.031 A 
ATOM     82  C   UNL     1     -19.129  13.625   9.053  1.00  0.00     0.131 A 
ATOM     83  C   UNL     1     -20.460  11.199   9.071  1.00  0.00     0.055 A 
ATOM     84  C   UNL     1     -20.508  13.599   9.263  1.00  0.00     0.041 A 
ATOM     85  F   UNL     1     -18.520  14.822   9.042  1.00  0.00    -0.206 F 
ATOM     86  C   UNL     1     -21.181  12.380   9.268  1.00  0.00     0.022 A 
BRANCH  83  87
ATOM     87  S   UNL     1     -21.326   9.607   9.003  1.00  0.00     0.124 S 
ATOM     88  O   UNL     1     -21.106   9.203   7.618  1.00  0.00    -0.237 OA
ATOM     89  O   UNL     1     -20.627   8.822  10.014  1.00  0.00    -0.237 OA
ATOM     90  O   UNL     1     -22.707   9.954   9.336  1.00  0.00    -0.744 OA
ENDBRANCH  83  87
ENDBRANCH  57  80
ENDBRANCH  31  32
ENDBRANCH  23  26
ENDBRANCH  21  22
ENDBRANCH   1  21
TORSDOF 16
