REMARK SMILES O=C(NCCCNC(=O)[C@@H]1CN(C(=O)C2CCCC2)C[C@H]1c1ccccc1)c1ccc(-c2c3nc(c(-c4cc(S(=O)(=O)[O-])ccc4F)c4ccc([nH]4)c(-c4cc(S(=O)(=O)[O-])ccc4F)c4nc(c(-c5cc(S(=O)(=O)[O-])ccc5F)c5ccc2[nH]5)C=C4)C=C3)cc1
REMARK SMILES IDX 4 1 3 2 1 3 2 4 28 6 29 7 90 8 30 9 89 10 31 11 32 12 33 13
REMARK SMILES IDX 83 14 34 15 88 16 82 17 84 18 35 19 87 20 81 21 80 22 36 24
REMARK SMILES IDX 68 25 48 26 67 27 49 28 52 29 66 30 85 31 50 32 51 33 65 35
REMARK SMILES IDX 86 36 53 37 37 38 38 39 46 40 39 41 45 42 47 43 44 44 40 45
REMARK SMILES IDX 41 46 42 47 43 48 69 49 70 50 78 51 71 52 77 53 79 54 76 55
REMARK SMILES IDX 72 56 73 57 74 58 75 59 54 60 55 61 63 62 56 63 62 64 64 65
REMARK SMILES IDX 61 66 57 67 58 68 59 69 60 70 5 71 6 72 7 73 8 74 9 76 10 77
REMARK SMILES IDX 11 78 21 79 12 80 20 81 22 82 23 83 27 84 24 85 26 86 25 87
REMARK SMILES IDX 13 88 14 89 15 90 16 91 19 92 17 93 18 94
REMARK H PARENT 3 5 84 23 52 34 7 75
REMARK Flexibility Score: inf
ROOT
ATOM      1  C   UNL     1       4.413   0.183  -1.405  1.00  0.00     0.118 C 
ENDROOT
BRANCH   1   2
ATOM      2  N   UNL     1       3.006   0.400  -1.095  1.00  0.00    -0.352 N 
ATOM      3  O   UNL     1       1.100   0.182   0.080  1.00  0.00    -0.269 OA
ATOM      4  C   UNL     1       2.330   0.174   0.078  1.00  0.00     0.251 C 
ATOM      5  H   UNL     1       2.462   0.761  -1.833  1.00  0.00     0.163 HD
BRANCH   4   6
ATOM      6  C   UNL     1       3.081  -0.076   1.325  1.00  0.00     0.039 A 
ATOM      7  C   UNL     1       4.228   0.665   1.616  1.00  0.00     0.014 A 
ATOM      8  C   UNL     1       2.623  -1.041   2.227  1.00  0.00     0.014 A 
ATOM      9  C   UNL     1       4.996   0.346   2.726  1.00  0.00     0.010 A 
ATOM     10  C   UNL     1       3.340  -1.285   3.402  1.00  0.00     0.010 A 
ATOM     11  C   UNL     1       4.543  -0.606   3.652  1.00  0.00    -0.014 A 
BRANCH  11  12
ATOM     12  C   UNL     1       5.307  -0.802   4.910  1.00  0.00     0.031 A 
ATOM     13  C   UNL     1       5.949  -2.120   5.234  1.00  0.00     0.074 A 
ATOM     14  C   UNL     1       5.443   0.249   5.744  1.00  0.00     0.049 A 
ATOM     15  N   UNL     1       6.649  -2.457   6.287  1.00  0.00    -0.248 NA
ATOM     16  C   UNL     1       5.777  -3.203   4.254  1.00  0.00     0.031 C 
ATOM     17  C   UNL     1       4.861   1.577   5.524  1.00  0.00     0.029 A 
ATOM     18  N   UNL     1       6.123   0.381   6.926  1.00  0.00    -0.354 N 
ATOM     19  C   UNL     1       6.998  -3.791   6.103  1.00  0.00     0.074 A 
ATOM     20  C   UNL     1       6.392  -4.211   4.856  1.00  0.00     0.031 C 
ATOM     21  C   UNL     1       5.252   2.399   6.507  1.00  0.00     0.029 A 
ATOM     22  C   UNL     1       6.036   1.641   7.472  1.00  0.00     0.049 A 
ATOM     23  H   UNL     1       6.626  -0.354   7.345  1.00  0.00     0.167 HD
ATOM     24  C   UNL     1       7.764  -4.581   6.897  1.00  0.00     0.034 A 
ATOM     25  C   UNL     1       6.506   2.127   8.636  1.00  0.00     0.034 A 
ATOM     26  C   UNL     1       8.348  -4.141   8.143  1.00  0.00     0.049 A 
ATOM     27  C   UNL     1       7.290   1.206   9.532  1.00  0.00     0.074 A 
ATOM     28  C   UNL     1       9.143  -4.855   9.024  1.00  0.00     0.029 A 
ATOM     29  N   UNL     1       8.194  -2.873   8.693  1.00  0.00    -0.354 N 
ATOM     30  N   UNL     1       7.618  -0.051   9.338  1.00  0.00    -0.248 NA
ATOM     31  C   UNL     1       7.771   1.769  10.798  1.00  0.00     0.031 C 
ATOM     32  C   UNL     1       9.407  -4.046  10.135  1.00  0.00     0.029 A 
ATOM     33  C   UNL     1       8.852  -2.796   9.913  1.00  0.00     0.049 A 
ATOM     34  H   UNL     1       7.691  -2.135   8.277  1.00  0.00     0.167 HD
ATOM     35  C   UNL     1       8.368  -0.420  10.450  1.00  0.00     0.074 A 
ATOM     36  C   UNL     1       8.463   0.755  11.293  1.00  0.00     0.031 C 
ATOM     37  C   UNL     1       8.928  -1.620  10.748  1.00  0.00     0.034 A 
BRANCH  24  38
ATOM     38  C   UNL     1       7.978  -6.011   6.458  1.00  0.00     0.023 A 
ATOM     39  C   UNL     1       8.655  -6.326   5.267  1.00  0.00     0.031 A 
ATOM     40  C   UNL     1       7.485  -7.077   7.233  1.00  0.00     0.131 A 
ATOM     41  C   UNL     1       8.760  -7.662   4.850  1.00  0.00     0.055 A 
ATOM     42  C   UNL     1       7.665  -8.410   6.854  1.00  0.00     0.041 A 
ATOM     43  F   UNL     1       6.811  -6.842   8.369  1.00  0.00    -0.206 F 
ATOM     44  C   UNL     1       8.293  -8.708   5.649  1.00  0.00     0.022 A 
BRANCH  41  45
ATOM     45  S   UNL     1       9.387  -8.002   3.182  1.00  0.00     0.124 S 
ATOM     46  O   UNL     1       8.445  -7.254   2.353  1.00  0.00    -0.237 OA
ATOM     47  O   UNL     1      10.745  -7.474   3.241  1.00  0.00    -0.237 OA
ATOM     48  O   UNL     1       9.287  -9.456   3.068  1.00  0.00    -0.744 OA
ENDBRANCH  41  45
ENDBRANCH  24  38
BRANCH  25  49
ATOM     49  C   UNL     1       6.215   3.532   9.041  1.00  0.00     0.023 A 
ATOM     50  C   UNL     1       7.250   4.454   9.256  1.00  0.00     0.031 A 
ATOM     51  C   UNL     1       4.893   3.961   9.266  1.00  0.00     0.131 A 
ATOM     52  C   UNL     1       6.952   5.739   9.736  1.00  0.00     0.055 A 
ATOM     53  C   UNL     1       4.598   5.261   9.677  1.00  0.00     0.041 A 
ATOM     54  F   UNL     1       3.863   3.122   9.075  1.00  0.00    -0.206 F 
ATOM     55  C   UNL     1       5.633   6.154   9.932  1.00  0.00     0.022 A 
BRANCH  52  56
ATOM     56  S   UNL     1       8.325   6.824  10.211  1.00  0.00     0.124 S 
ATOM     57  O   UNL     1       9.034   5.998  11.182  1.00  0.00    -0.237 OA
ATOM     58  O   UNL     1       8.999   7.034   8.934  1.00  0.00    -0.237 OA
ATOM     59  O   UNL     1       7.654   7.999  10.762  1.00  0.00    -0.744 OA
ENDBRANCH  52  56
ENDBRANCH  25  49
BRANCH  37  60
ATOM     60  C   UNL     1       9.733  -1.695  12.023  1.00  0.00     0.023 A 
ATOM     61  C   UNL     1       9.137  -1.538  13.287  1.00  0.00     0.031 A 
ATOM     62  C   UNL     1      11.124  -1.895  11.969  1.00  0.00     0.131 A 
ATOM     63  C   UNL     1       9.937  -1.517  14.439  1.00  0.00     0.055 A 
ATOM     64  C   UNL     1      11.906  -1.943  13.124  1.00  0.00     0.041 A 
ATOM     65  F   UNL     1      11.748  -2.046  10.789  1.00  0.00    -0.206 F 
ATOM     66  C   UNL     1      11.315  -1.737  14.367  1.00  0.00     0.022 A 
BRANCH  63  67
ATOM     67  S   UNL     1       9.168  -1.087  16.024  1.00  0.00     0.124 S 
ATOM     68  O   UNL     1       8.613   0.233  15.744  1.00  0.00    -0.237 OA
ATOM     69  O   UNL     1       8.197  -2.162  16.202  1.00  0.00    -0.237 OA
ATOM     70  O   UNL     1      10.288  -1.103  16.964  1.00  0.00    -0.744 OA
ENDBRANCH  63  67
ENDBRANCH  37  60
ENDBRANCH  11  12
ENDBRANCH   4   6
ENDBRANCH   1   2
BRANCH   1  71
ATOM     71  C   UNL     1       4.606  -0.933  -2.419  1.00  0.00     0.042 C 
BRANCH  71  72
ATOM     72  C   UNL     1       4.068  -0.581  -3.799  1.00  0.00     0.117 C 
BRANCH  72  73
ATOM     73  N   UNL     1       4.835   0.494  -4.407  1.00  0.00    -0.356 N 
ATOM     74  C   UNL     1       5.867   0.487  -5.286  1.00  0.00     0.225 C 
ATOM     75  H   UNL     1       4.551   1.395  -4.130  1.00  0.00     0.163 HD
ATOM     76  O   UNL     1       6.363   1.583  -5.567  1.00  0.00    -0.275 OA
BRANCH  74  77
ATOM     77  C   UNL     1       6.354  -0.761  -5.995  1.00  0.00     0.107 C 
ATOM     78  C   UNL     1       5.277  -1.206  -6.968  1.00  0.00     0.133 C 
ATOM     79  C   UNL     1       6.707  -2.025  -5.188  1.00  0.00     0.053 C 
ATOM     80  N   UNL     1       5.582  -2.589  -7.252  1.00  0.00    -0.341 N 
ATOM     81  C   UNL     1       6.419  -3.156  -6.202  1.00  0.00     0.128 C 
BRANCH  79  82
ATOM     82  C   UNL     1       8.087  -2.022  -4.543  1.00  0.00    -0.042 A 
ATOM     83  C   UNL     1       8.890  -3.174  -4.501  1.00  0.00     0.004 A 
ATOM     84  C   UNL     1       8.553  -0.884  -3.860  1.00  0.00     0.004 A 
ATOM     85  C   UNL     1      10.121  -3.175  -3.838  1.00  0.00     0.000 A 
ATOM     86  C   UNL     1       9.780  -0.888  -3.190  1.00  0.00     0.000 A 
ATOM     87  C   UNL     1      10.567  -2.033  -3.183  1.00  0.00     0.000 A 
ENDBRANCH  79  82
BRANCH  80  88
ATOM     88  C   UNL     1       5.201  -3.361  -8.323  1.00  0.00     0.225 C 
ATOM     89  O   UNL     1       5.476  -4.565  -8.361  1.00  0.00    -0.275 OA
BRANCH  88  90
ATOM     90  C   UNL     1       4.483  -2.737  -9.517  1.00  0.00     0.078 C 
ATOM     91  C   UNL     1       3.140  -2.074  -9.234  1.00  0.00     0.013 C 
ATOM     92  C   UNL     1       5.323  -1.707 -10.277  1.00  0.00     0.013 C 
ATOM     93  C   UNL     1       2.958  -1.103 -10.388  1.00  0.00     0.001 C 
ATOM     94  C   UNL     1       4.359  -0.614 -10.729  1.00  0.00     0.001 C 
ENDBRANCH  88  90
ENDBRANCH  80  88
ENDBRANCH  74  77
ENDBRANCH  72  73
ENDBRANCH  71  72
ENDBRANCH   1  71
TORSDOF 16
