REMARK SMILES C[N@@H+]1CCN(C(=O)c2cnn3c2CCCC3)C[C@@H]1C(=O)NCCCNC(=O)c1ccc(-c2c3nc(c(-c4cc(S(=O)(=O)[O-])ccc4F)c4ccc([nH]4)c(-c4cc(S(=O)(=O)[O-])ccc4F)c4nc(c(-c5cc(S(=O)(=O)[O-])ccc5F)c5ccc2[nH]5)C=C4)C=C3)cc1
REMARK SMILES IDX 23 1 22 2 21 3 19 4 20 5 18 7 1 8 2 9 3 10 4 12 17 13 5 14
REMARK SMILES IDX 6 15 7 16 8 17 9 18 12 19 10 20 11 21 13 22 16 23 14 24
REMARK SMILES IDX 15 25 24 26 25 27 26 28 27 30 28 31 29 32 90 33 30 34 89 35
REMARK SMILES IDX 31 36 32 37 33 38 83 39 34 40 88 41 82 42 84 43 35 44 87 45
REMARK SMILES IDX 81 46 80 47 36 49 68 50 48 51 67 52 49 53 52 54 66 55 85 56
REMARK SMILES IDX 50 57 51 58 65 60 86 61 53 62 37 63 38 64 46 65 39 66 45 67
REMARK SMILES IDX 47 68 44 69 40 70 41 71 42 72 43 73 69 74 70 75 78 76 71 77
REMARK SMILES IDX 77 78 79 79 76 80 72 81 73 82 74 83 75 84 54 85 55 86 63 87
REMARK SMILES IDX 56 88 62 89 64 90 61 91 57 92 58 93 59 94 60 95
REMARK H PARENT 21 6 2 11 25 29 84 48 52 59
REMARK Flexibility Score: inf
ROOT
ATOM      1  C   UNL     1       4.031  -2.177   1.623  1.00  0.00     0.042 C 
ENDROOT
BRANCH   1   2
ATOM      2  C   UNL     1       2.623  -2.761   1.471  1.00  0.00     0.118 C 
BRANCH   2   3
ATOM      3  N   UNL     1       1.590  -1.977   2.129  1.00  0.00    -0.351 N 
ATOM      4  C   UNL     1       0.528  -1.276   1.632  1.00  0.00     0.280 C 
ATOM      5  O   UNL     1      -0.260  -0.817   2.463  1.00  0.00    -0.268 OA
ATOM      6  H   UNL     1       1.670  -1.945   3.110  1.00  0.00     0.163 HD
BRANCH   4   7
ATOM      7  C   UNL     1       0.340  -1.072   0.110  1.00  0.00     0.293 C 
ATOM      8  C   UNL     1       2.332   0.364  -0.170  1.00  0.00     0.333 C 
ATOM      9  N   UNL     1       0.906   0.213  -0.400  1.00  0.00    -0.324 N 
ATOM     10  C   UNL     1       0.166   1.375   0.131  1.00  0.00     0.284 C 
ATOM     11  H   UNL     1       0.787   0.176  -1.412  1.00  0.00     0.348 HD
ATOM     12  C   UNL     1      -1.328   1.310  -0.217  1.00  0.00     0.181 C 
ATOM     13  C   UNL     1      -1.173  -1.155  -0.228  1.00  0.00     0.195 C 
ATOM     14  N   UNL     1      -1.931   0.040   0.172  1.00  0.00    -0.326 N 
BRANCH  14  15
ATOM     15  C   UNL     1      -3.199   0.060   0.742  1.00  0.00     0.257 C 
ATOM     16  O   UNL     1      -3.830   1.105   0.892  1.00  0.00    -0.269 OA
BRANCH  15  17
ATOM     17  C   UNL     1      -3.826  -1.210   1.047  1.00  0.00     0.081 A 
ATOM     18  C   UNL     1      -3.450  -2.241   1.939  1.00  0.00     0.149 A 
ATOM     19  C   UNL     1      -5.034  -1.639   0.530  1.00  0.00     0.051 A 
ATOM     20  N   UNL     1      -4.302  -3.275   1.922  1.00  0.00    -0.180 NA
ATOM     21  N   UNL     1      -5.279  -2.854   1.103  1.00  0.00    -0.269 N 
ATOM     22  C   UNL     1      -5.992  -0.996  -0.408  1.00  0.00     0.057 C 
ATOM     23  C   UNL     1      -6.432  -3.688   0.826  1.00  0.00     0.144 C 
ATOM     24  C   UNL     1      -6.994  -2.007  -0.970  1.00  0.00     0.008 C 
ATOM     25  C   UNL     1      -7.552  -2.899   0.142  1.00  0.00     0.024 C 
ENDBRANCH  15  17
ENDBRANCH  14  15
ENDBRANCH   4   7
ENDBRANCH   2   3
ENDBRANCH   1   2
BRANCH   1  26
ATOM     26  C   UNL     1       4.526  -2.140   3.058  1.00  0.00     0.118 C 
BRANCH  26  27
ATOM     27  N   UNL     1       4.871  -3.458   3.583  1.00  0.00    -0.352 N 
ATOM     28  C   UNL     1       5.467  -3.744   4.803  1.00  0.00     0.251 C 
ATOM     29  H   UNL     1       4.657  -4.228   3.009  1.00  0.00     0.163 HD
ATOM     30  O   UNL     1       6.039  -4.804   4.978  1.00  0.00    -0.269 OA
BRANCH  28  31
ATOM     31  C   UNL     1       5.390  -2.725   5.872  1.00  0.00     0.039 A 
ATOM     32  C   UNL     1       6.480  -2.444   6.700  1.00  0.00     0.014 A 
ATOM     33  C   UNL     1       4.199  -2.017   6.002  1.00  0.00     0.014 A 
ATOM     34  C   UNL     1       6.379  -1.389   7.607  1.00  0.00     0.010 A 
ATOM     35  C   UNL     1       4.161  -0.881   6.767  1.00  0.00     0.010 A 
ATOM     36  C   UNL     1       5.218  -0.599   7.623  1.00  0.00    -0.014 A 
BRANCH  36  37
ATOM     37  C   UNL     1       5.116   0.598   8.455  1.00  0.00     0.031 A 
ATOM     38  C   UNL     1       6.172   1.617   8.205  1.00  0.00     0.074 A 
ATOM     39  C   UNL     1       4.014   0.878   9.188  1.00  0.00     0.049 A 
ATOM     40  N   UNL     1       7.117   1.997   8.999  1.00  0.00    -0.248 NA
ATOM     41  C   UNL     1       6.289   2.175   6.847  1.00  0.00     0.031 C 
ATOM     42  C   UNL     1       2.755   0.124   9.254  1.00  0.00     0.029 A 
ATOM     43  N   UNL     1       3.733   1.978   9.936  1.00  0.00    -0.354 N 
ATOM     44  C   UNL     1       7.796   3.017   8.335  1.00  0.00     0.074 A 
ATOM     45  C   UNL     1       7.391   2.920   6.960  1.00  0.00     0.031 C 
ATOM     46  C   UNL     1       1.784   0.902   9.781  1.00  0.00     0.029 A 
ATOM     47  C   UNL     1       2.386   2.132  10.261  1.00  0.00     0.049 A 
ATOM     48  H   UNL     1       4.425   2.615  10.225  1.00  0.00     0.167 HD
ATOM     49  C   UNL     1       8.442   4.002   9.024  1.00  0.00     0.034 A 
ATOM     50  C   UNL     1       1.795   3.201  10.857  1.00  0.00     0.034 A 
ATOM     51  C   UNL     1       8.602   3.626  10.413  1.00  0.00     0.049 A 
ATOM     52  C   UNL     1       2.878   3.954  11.538  1.00  0.00     0.074 A 
ATOM     53  C   UNL     1       9.217   2.573  11.064  1.00  0.00     0.029 A 
ATOM     54  N   UNL     1       7.730   4.170  11.332  1.00  0.00    -0.354 N 
ATOM     55  N   UNL     1       3.572   3.468  12.532  1.00  0.00    -0.248 NA
ATOM     56  C   UNL     1       3.528   5.026  10.798  1.00  0.00     0.031 C 
ATOM     57  C   UNL     1       8.320   2.226  12.118  1.00  0.00     0.029 A 
ATOM     58  C   UNL     1       7.266   3.143  12.117  1.00  0.00     0.049 A 
ATOM     59  H   UNL     1       7.486   5.120  11.411  1.00  0.00     0.167 HD
ATOM     60  C   UNL     1       4.881   3.849  12.278  1.00  0.00     0.074 A 
ATOM     61  C   UNL     1       4.778   4.887  11.252  1.00  0.00     0.031 C 
ATOM     62  C   UNL     1       5.938   3.095  12.704  1.00  0.00     0.034 A 
BRANCH  49  63
ATOM     63  C   UNL     1       8.602   5.441   8.570  1.00  0.00     0.023 A 
ATOM     64  C   UNL     1       9.234   6.327   9.469  1.00  0.00     0.031 A 
ATOM     65  C   UNL     1       7.947   6.053   7.479  1.00  0.00     0.131 A 
ATOM     66  C   UNL     1       9.090   7.719   9.343  1.00  0.00     0.055 A 
ATOM     67  C   UNL     1       7.864   7.441   7.321  1.00  0.00     0.041 A 
ATOM     68  F   UNL     1       7.278   5.364   6.550  1.00  0.00    -0.206 F 
ATOM     69  C   UNL     1       8.404   8.284   8.275  1.00  0.00     0.022 A 
BRANCH  66  70
ATOM     70  S   UNL     1       9.654   8.767  10.709  1.00  0.00     0.124 S 
ATOM     71  O   UNL     1       8.969   8.159  11.845  1.00  0.00    -0.237 OA
ATOM     72  O   UNL     1      11.100   8.581  10.651  1.00  0.00    -0.237 OA
ATOM     73  O   UNL     1       9.179  10.096  10.333  1.00  0.00    -0.744 OA
ENDBRANCH  66  70
ENDBRANCH  49  63
BRANCH  50  74
ATOM     74  C   UNL     1       0.438   3.754  10.578  1.00  0.00     0.023 A 
ATOM     75  C   UNL     1      -0.285   4.550  11.493  1.00  0.00     0.031 A 
ATOM     76  C   UNL     1      -0.077   3.680   9.263  1.00  0.00     0.131 A 
ATOM     77  C   UNL     1      -1.464   5.221  11.081  1.00  0.00     0.055 A 
ATOM     78  C   UNL     1      -1.241   4.340   8.862  1.00  0.00     0.041 A 
ATOM     79  F   UNL     1       0.585   3.022   8.297  1.00  0.00    -0.206 F 
ATOM     80  C   UNL     1      -1.937   5.122   9.770  1.00  0.00     0.022 A 
BRANCH  77  81
ATOM     81  S   UNL     1      -2.373   6.302  12.236  1.00  0.00     0.124 S 
ATOM     82  O   UNL     1      -2.815   5.365  13.261  1.00  0.00    -0.237 OA
ATOM     83  O   UNL     1      -1.350   7.263  12.633  1.00  0.00    -0.237 OA
ATOM     84  O   UNL     1      -3.447   6.861  11.412  1.00  0.00    -0.744 OA
ENDBRANCH  77  81
ENDBRANCH  50  74
BRANCH  62  85
ATOM     85  C   UNL     1       5.694   1.994  13.717  1.00  0.00     0.023 A 
ATOM     86  C   UNL     1       4.867   0.865  13.515  1.00  0.00     0.031 A 
ATOM     87  C   UNL     1       6.479   2.028  14.883  1.00  0.00     0.131 A 
ATOM     88  C   UNL     1       4.858  -0.177  14.467  1.00  0.00     0.055 A 
ATOM     89  C   UNL     1       6.485   0.987  15.808  1.00  0.00     0.041 A 
ATOM     90  F   UNL     1       7.304   3.063  15.117  1.00  0.00    -0.206 F 
ATOM     91  C   UNL     1       5.672  -0.120  15.604  1.00  0.00     0.022 A 
BRANCH  88  92
ATOM     92  S   UNL     1       3.787  -1.638  14.250  1.00  0.00     0.124 S 
ATOM     93  O   UNL     1       2.477  -1.061  13.976  1.00  0.00    -0.237 OA
ATOM     94  O   UNL     1       4.425  -2.338  13.138  1.00  0.00    -0.237 OA
ATOM     95  O   UNL     1       3.889  -2.330  15.537  1.00  0.00    -0.744 OA
ENDBRANCH  88  92
ENDBRANCH  62  85
ENDBRANCH  36  37
ENDBRANCH  28  31
ENDBRANCH  26  27
ENDBRANCH   1  26
TORSDOF 15
