REMARK SMILES C[C@@H](C(=O)NCCCNC(=O)c1ccc(-c2c3nc(c(-c4cc(S(=O)(=O)[O-])ccc4F)c4ccc([nH]4)c(-c4cc(S(=O)(=O)[O-])ccc4F)c4nc(c(-c5cc(S(=O)(=O)[O-])ccc5F)c5ccc2[nH]5)C=C4)C=C3)cc1)c1ccc(C(=O)c2cccs2)cc1
REMARK SMILES IDX 7 1 6 2 5 3 3 4 4 5 2 7 1 8 75 9 76 10 87 11 77 12 86 13
REMARK SMILES IDX 78 14 79 15 80 16 81 17 82 18 85 19 83 20 84 21 8 22 9 23
REMARK SMILES IDX 10 24 11 26 12 27 13 28 74 29 14 30 73 31 15 32 16 33 17 34
REMARK SMILES IDX 67 35 18 36 72 37 66 38 68 39 19 40 71 41 65 42 64 43 20 45
REMARK SMILES IDX 52 46 32 47 51 48 33 49 36 50 50 51 69 52 34 53 35 54 49 56
REMARK SMILES IDX 70 57 37 58 21 59 22 60 30 61 23 62 29 63 31 64 28 65 24 66
REMARK SMILES IDX 25 67 26 68 27 69 53 70 54 71 62 72 55 73 61 74 63 75 60 76
REMARK SMILES IDX 56 77 57 78 58 79 59 80 38 81 39 82 47 83 40 84 46 85 48 86
REMARK SMILES IDX 45 87 41 88 42 89 43 90 44 91
REMARK H PARENT 5 6 9 25 68 44 36 55
REMARK Flexibility Score: inf
ROOT
ATOM      1  C   UNL     1       4.332  -0.653   1.135  1.00  0.00     0.042 C 
ENDROOT
BRANCH   1   2
ATOM      2  C   UNL     1       3.434  -1.857   0.860  1.00  0.00     0.117 C 
BRANCH   2   3
ATOM      3  N   UNL     1       2.363  -1.954   1.833  1.00  0.00    -0.356 N 
ATOM      4  C   UNL     1       1.054  -1.580   1.753  1.00  0.00     0.227 C 
ATOM      5  O   UNL     1       0.386  -1.683   2.784  1.00  0.00    -0.274 OA
ATOM      6  H   UNL     1       2.624  -2.357   2.693  1.00  0.00     0.163 HD
BRANCH   4   7
ATOM      7  C   UNL     1       0.459  -1.110   0.413  1.00  0.00     0.105 C 
ATOM      8  C   UNL     1       0.994   0.268   0.008  1.00  0.00     0.023 C 
BRANCH   7   9
ATOM      9  C   UNL     1      -1.071  -1.168   0.446  1.00  0.00    -0.036 A 
ATOM     10  C   UNL     1      -1.868  -0.029   0.623  1.00  0.00     0.005 A 
ATOM     11  C   UNL     1      -1.709  -2.415   0.342  1.00  0.00     0.005 A 
ATOM     12  C   UNL     1      -3.261  -0.131   0.677  1.00  0.00     0.012 A 
ATOM     13  C   UNL     1      -3.104  -2.519   0.398  1.00  0.00     0.012 A 
ATOM     14  C   UNL     1      -3.894  -1.375   0.570  1.00  0.00     0.023 A 
BRANCH  14  15
ATOM     15  C   UNL     1      -5.393  -1.410   0.597  1.00  0.00     0.202 C 
ATOM     16  O   UNL     1      -6.000  -0.340   0.585  1.00  0.00    -0.288 OA
BRANCH  15  17
ATOM     17  C   UNL     1      -6.078  -2.689   0.600  1.00  0.00     0.075 A 
ATOM     18  C   UNL     1      -6.007  -3.727   1.509  1.00  0.00     0.024 A 
ATOM     19  S   UNL     1      -7.184  -3.026  -0.663  1.00  0.00    -0.140 S 
ATOM     20  C   UNL     1      -6.840  -4.824   1.137  1.00  0.00     0.012 A 
ATOM     21  C   UNL     1      -7.527  -4.577  -0.031  1.00  0.00     0.065 A 
ENDBRANCH  15  17
ENDBRANCH  14  15
ENDBRANCH   7   9
ENDBRANCH   4   7
ENDBRANCH   2   3
ENDBRANCH   1   2
BRANCH   1  22
ATOM     22  C   UNL     1       5.090  -0.729   2.457  1.00  0.00     0.118 C 
BRANCH  22  23
ATOM     23  N   UNL     1       6.066  -1.806   2.476  1.00  0.00    -0.352 N 
ATOM     24  C   UNL     1       7.419  -1.762   2.693  1.00  0.00     0.251 C 
ATOM     25  H   UNL     1       5.699  -2.704   2.308  1.00  0.00     0.163 HD
ATOM     26  O   UNL     1       8.091  -2.768   2.451  1.00  0.00    -0.269 OA
BRANCH  24  27
ATOM     27  C   UNL     1       8.075  -0.532   3.189  1.00  0.00     0.039 A 
ATOM     28  C   UNL     1       9.333  -0.188   2.683  1.00  0.00     0.014 A 
ATOM     29  C   UNL     1       7.489   0.259   4.182  1.00  0.00     0.014 A 
ATOM     30  C   UNL     1       9.979   0.964   3.141  1.00  0.00     0.010 A 
ATOM     31  C   UNL     1       8.098   1.448   4.580  1.00  0.00     0.010 A 
ATOM     32  C   UNL     1       9.358   1.805   4.077  1.00  0.00    -0.014 A 
BRANCH  32  33
ATOM     33  C   UNL     1      10.032   3.033   4.577  1.00  0.00     0.031 A 
ATOM     34  C   UNL     1      10.406   3.146   6.032  1.00  0.00     0.074 A 
ATOM     35  C   UNL     1      10.264   4.063   3.739  1.00  0.00     0.049 A 
ATOM     36  N   UNL     1      10.933   4.154   6.679  1.00  0.00    -0.248 NA
ATOM     37  C   UNL     1      10.116   1.977   6.877  1.00  0.00     0.031 C 
ATOM     38  C   UNL     1       9.919   4.088   2.316  1.00  0.00     0.029 A 
ATOM     39  N   UNL     1      10.838   5.289   3.962  1.00  0.00    -0.354 N 
ATOM     40  C   UNL     1      11.018   3.750   8.009  1.00  0.00     0.074 A 
ATOM     41  C   UNL     1      10.429   2.430   8.081  1.00  0.00     0.031 C 
ATOM     42  C   UNL     1      10.313   5.258   1.789  1.00  0.00     0.029 A 
ATOM     43  C   UNL     1      10.897   6.085   2.841  1.00  0.00     0.049 A 
ATOM     44  H   UNL     1      11.176   5.574   4.841  1.00  0.00     0.167 HD
ATOM     45  C   UNL     1      11.556   4.409   9.066  1.00  0.00     0.034 A 
ATOM     46  C   UNL     1      11.363   7.340   2.680  1.00  0.00     0.034 A 
ATOM     47  C   UNL     1      12.157   5.718   8.971  1.00  0.00     0.049 A 
ATOM     48  C   UNL     1      11.949   8.057   3.871  1.00  0.00     0.074 A 
ATOM     49  C   UNL     1      12.778   6.456   9.964  1.00  0.00     0.029 A 
ATOM     50  N   UNL     1      12.209   6.488   7.815  1.00  0.00    -0.354 N 
ATOM     51  N   UNL     1      12.063   7.644   5.112  1.00  0.00    -0.248 NA
ATOM     52  C   UNL     1      12.484   9.404   3.633  1.00  0.00     0.031 C 
ATOM     53  C   UNL     1      13.145   7.695   9.426  1.00  0.00     0.029 A 
ATOM     54  C   UNL     1      12.828   7.701   8.077  1.00  0.00     0.049 A 
ATOM     55  H   UNL     1      11.857   6.213   6.938  1.00  0.00     0.167 HD
ATOM     56  C   UNL     1      12.723   8.665   5.792  1.00  0.00     0.074 A 
ATOM     57  C   UNL     1      12.988   9.706   4.820  1.00  0.00     0.031 C 
ATOM     58  C   UNL     1      13.086   8.732   7.099  1.00  0.00     0.034 A 
BRANCH  45  59
ATOM     59  C   UNL     1      11.486   3.732  10.416  1.00  0.00     0.023 A 
ATOM     60  C   UNL     1      12.116   2.498  10.660  1.00  0.00     0.031 A 
ATOM     61  C   UNL     1      10.748   4.308  11.465  1.00  0.00     0.131 A 
ATOM     62  C   UNL     1      11.924   1.841  11.885  1.00  0.00     0.055 A 
ATOM     63  C   UNL     1      10.636   3.692  12.713  1.00  0.00     0.041 A 
ATOM     64  F   UNL     1      10.107   5.474  11.290  1.00  0.00    -0.206 F 
ATOM     65  C   UNL     1      11.210   2.442  12.923  1.00  0.00     0.022 A 
BRANCH  62  66
ATOM     66  S   UNL     1      12.483   0.123  12.042  1.00  0.00     0.124 S 
ATOM     67  O   UNL     1      11.743  -0.528  10.963  1.00  0.00    -0.237 OA
ATOM     68  O   UNL     1      13.924   0.240  11.849  1.00  0.00    -0.237 OA
ATOM     69  O   UNL     1      12.062  -0.253  13.390  1.00  0.00    -0.744 OA
ENDBRANCH  62  66
ENDBRANCH  45  59
BRANCH  46  70
ATOM     70  C   UNL     1      11.304   8.005   1.347  1.00  0.00     0.023 A 
ATOM     71  C   UNL     1      12.479   8.353   0.662  1.00  0.00     0.031 A 
ATOM     72  C   UNL     1      10.073   8.342   0.757  1.00  0.00     0.131 A 
ATOM     73  C   UNL     1      12.402   9.063  -0.546  1.00  0.00     0.055 A 
ATOM     74  C   UNL     1      10.000   9.001  -0.472  1.00  0.00     0.041 A 
ATOM     75  F   UNL     1       8.919   8.026   1.365  1.00  0.00    -0.206 F 
ATOM     76  C   UNL     1      11.170   9.378  -1.124  1.00  0.00     0.022 A 
BRANCH  73  77
ATOM     77  S   UNL     1      13.940   9.646  -1.310  1.00  0.00     0.124 S 
ATOM     78  O   UNL     1      14.504  10.472  -0.249  1.00  0.00    -0.237 OA
ATOM     79  O   UNL     1      14.634   8.393  -1.586  1.00  0.00    -0.237 OA
ATOM     80  O   UNL     1      13.478  10.373  -2.491  1.00  0.00    -0.744 OA
ENDBRANCH  73  77
ENDBRANCH  46  70
BRANCH  58  81
ATOM     81  C   UNL     1      13.871   9.948   7.532  1.00  0.00     0.023 A 
ATOM     82  C   UNL     1      13.312  11.238   7.530  1.00  0.00     0.031 A 
ATOM     83  C   UNL     1      15.212   9.810   7.936  1.00  0.00     0.131 A 
ATOM     84  C   UNL     1      14.108  12.345   7.862  1.00  0.00     0.055 A 
ATOM     85  C   UNL     1      15.979  10.907   8.328  1.00  0.00     0.041 A 
ATOM     86  F   UNL     1      15.799   8.602   7.956  1.00  0.00    -0.206 F 
ATOM     87  C   UNL     1      15.432  12.186   8.278  1.00  0.00     0.022 A 
BRANCH  84  88
ATOM     88  S   UNL     1      13.421  14.009   7.642  1.00  0.00     0.124 S 
ATOM     89  O   UNL     1      13.046  13.999   6.231  1.00  0.00    -0.237 OA
ATOM     90  O   UNL     1      12.316  14.019   8.595  1.00  0.00    -0.237 OA
ATOM     91  O   UNL     1      14.538  14.889   7.980  1.00  0.00    -0.744 OA
ENDBRANCH  84  88
ENDBRANCH  58  81
ENDBRANCH  32  33
ENDBRANCH  24  27
ENDBRANCH  22  23
ENDBRANCH   1  22
TORSDOF 16
