REMARK SMILES CC(=O)N1CCC(C(=O)Nc2sccc2C(=O)NCCCNC(=O)c2ccc(-c3c4nc(c(-c5cc(S(=O)(=O)[O-])ccc5F)c5ccc([nH]5)c(-c5cc(S(=O)(=O)[O-])ccc5F)c5nc(c(-c6cc(S(=O)(=O)[O-])ccc6F)c6ccc3[nH]6)C=C5)C=C4)cc2)CC1
REMARK SMILES IDX 20 1 19 2 18 3 16 4 17 5 15 7 11 8 12 9 13 10 14 11 10 12
REMARK SMILES IDX 8 13 9 14 7 16 1 17 2 18 3 19 4 20 5 21 89 22 6 23 88 24
REMARK SMILES IDX 21 25 22 26 23 27 24 29 25 30 26 31 87 32 27 33 86 34 28 35
REMARK SMILES IDX 29 36 30 37 80 38 31 39 85 40 79 41 81 42 32 43 84 44 78 45
REMARK SMILES IDX 77 46 33 48 65 49 45 50 64 51 46 52 49 53 63 54 82 55 47 56
REMARK SMILES IDX 48 57 62 59 83 60 50 61 34 62 35 63 43 64 36 65 42 66 44 67
REMARK SMILES IDX 41 68 37 69 38 70 39 71 40 72 66 73 67 74 75 75 68 76 74 77
REMARK SMILES IDX 76 78 73 79 69 80 70 81 71 82 72 83 51 84 52 85 60 86 53 87
REMARK SMILES IDX 59 88 61 89 58 90 54 91 55 92 56 93 57 94
REMARK H PARENT 18 6 10 15 22 28 81 47 49 58
REMARK Flexibility Score: inf
ROOT
ATOM      1  C   UNL     1       0.292   8.995  -2.146  1.00  0.00     0.042 C 
ENDROOT
BRANCH   1   2
ATOM      2  C   UNL     1       0.754   7.545  -2.119  1.00  0.00     0.118 C 
BRANCH   2   3
ATOM      3  N   UNL     1      -0.349   6.604  -2.165  1.00  0.00    -0.352 N 
ATOM      4  C   UNL     1      -0.427   5.297  -2.553  1.00  0.00     0.254 C 
ATOM      5  O   UNL     1      -1.554   4.797  -2.522  1.00  0.00    -0.269 OA
ATOM      6  H   UNL     1      -1.205   6.980  -1.858  1.00  0.00     0.163 HD
BRANCH   4   7
ATOM      7  C   UNL     1       0.720   4.513  -3.027  1.00  0.00     0.074 A 
ATOM      8  C   UNL     1       2.083   4.639  -2.813  1.00  0.00     0.108 A 
ATOM      9  S   UNL     1       3.008   3.686  -3.894  1.00  0.00    -0.126 S 
ATOM     10  C   UNL     1       1.639   2.801  -4.380  1.00  0.00     0.068 A 
ATOM     11  C   UNL     1       0.490   3.347  -3.862  1.00  0.00     0.028 A 
BRANCH   8  12
ATOM     12  N   UNL     1       2.897   5.427  -2.040  1.00  0.00    -0.317 N 
ATOM     13  C   UNL     1       2.985   5.564  -0.687  1.00  0.00     0.228 C 
ATOM     14  O   UNL     1       3.697   6.486  -0.269  1.00  0.00    -0.274 OA
ATOM     15  H   UNL     1       3.524   5.989  -2.549  1.00  0.00     0.170 HD
BRANCH  13  16
ATOM     16  C   UNL     1       2.419   4.567   0.322  1.00  0.00     0.082 C 
ATOM     17  C   UNL     1       1.272  -0.145  -0.127  1.00  0.00     0.114 C 
ATOM     18  C   UNL     1       0.477   1.096   0.194  1.00  0.00     0.219 C 
ATOM     19  O   UNL     1      -0.699   1.178  -0.157  1.00  0.00    -0.275 OA
ATOM     20  N   UNL     1       1.125   2.091   0.911  1.00  0.00    -0.343 N 
ATOM     21  C   UNL     1       0.409   3.312   1.265  1.00  0.00     0.120 C 
ATOM     22  C   UNL     1       2.565   2.170   1.112  1.00  0.00     0.120 C 
ATOM     23  C   UNL     1       0.896   4.467   0.396  1.00  0.00     0.035 C 
ATOM     24  C   UNL     1       3.130   3.212   0.157  1.00  0.00     0.035 C 
ENDBRANCH  13  16
ENDBRANCH   8  12
ENDBRANCH   4   7
ENDBRANCH   2   3
ENDBRANCH   1   2
BRANCH   1  25
ATOM     25  C   UNL     1      -0.469   9.401  -0.886  1.00  0.00     0.118 C 
BRANCH  25  26
ATOM     26  N   UNL     1       0.393   9.681   0.257  1.00  0.00    -0.352 N 
ATOM     27  C   UNL     1       0.860  10.876   0.761  1.00  0.00     0.251 C 
ATOM     28  H   UNL     1       0.691   8.884   0.751  1.00  0.00     0.163 HD
ATOM     29  O   UNL     1       1.664  10.872   1.690  1.00  0.00    -0.269 OA
BRANCH  27  30
ATOM     30  C   UNL     1       0.446  12.156   0.147  1.00  0.00     0.039 A 
ATOM     31  C   UNL     1       1.423  13.104  -0.169  1.00  0.00     0.014 A 
ATOM     32  C   UNL     1      -0.888  12.405  -0.167  1.00  0.00     0.014 A 
ATOM     33  C   UNL     1       1.079  14.229  -0.924  1.00  0.00     0.010 A 
ATOM     34  C   UNL     1      -1.210  13.460  -1.012  1.00  0.00     0.010 A 
ATOM     35  C   UNL     1      -0.226  14.372  -1.423  1.00  0.00    -0.014 A 
BRANCH  35  36
ATOM     36  C   UNL     1      -0.585  15.429  -2.409  1.00  0.00     0.031 A 
ATOM     37  C   UNL     1      -1.697  16.396  -2.108  1.00  0.00     0.074 A 
ATOM     38  C   UNL     1       0.004  15.436  -3.624  1.00  0.00     0.049 A 
ATOM     39  N   UNL     1      -2.286  17.257  -2.898  1.00  0.00    -0.248 NA
ATOM     40  C   UNL     1      -2.249  16.354  -0.746  1.00  0.00     0.031 C 
ATOM     41  C   UNL     1       1.062  14.520  -4.060  1.00  0.00     0.029 A 
ATOM     42  N   UNL     1      -0.216  16.227  -4.724  1.00  0.00    -0.354 N 
ATOM     43  C   UNL     1      -3.297  17.836  -2.140  1.00  0.00     0.074 A 
ATOM     44  C   UNL     1      -3.279  17.179  -0.850  1.00  0.00     0.031 C 
ATOM     45  C   UNL     1       1.415  14.820  -5.320  1.00  0.00     0.029 A 
ATOM     46  C   UNL     1       0.570  15.903  -5.806  1.00  0.00     0.049 A 
ATOM     47  H   UNL     1      -0.875  16.959  -4.738  1.00  0.00     0.167 HD
ATOM     48  C   UNL     1      -4.145  18.840  -2.479  1.00  0.00     0.034 A 
ATOM     49  C   UNL     1       0.592  16.402  -7.059  1.00  0.00     0.034 A 
ATOM     50  C   UNL     1      -4.128  19.504  -3.759  1.00  0.00     0.049 A 
ATOM     51  C   UNL     1      -0.382  17.491  -7.426  1.00  0.00     0.074 A 
ATOM     52  C   UNL     1      -4.877  20.589  -4.179  1.00  0.00     0.029 A 
ATOM     53  N   UNL     1      -3.323  19.139  -4.831  1.00  0.00    -0.354 N 
ATOM     54  N   UNL     1      -1.300  18.061  -6.681  1.00  0.00    -0.248 NA
ATOM     55  C   UNL     1      -0.321  17.997  -8.803  1.00  0.00     0.031 C 
ATOM     56  C   UNL     1      -4.572  20.840  -5.522  1.00  0.00     0.029 A 
ATOM     57  C   UNL     1      -3.587  19.952  -5.923  1.00  0.00     0.049 A 
ATOM     58  H   UNL     1      -2.663  18.410  -4.818  1.00  0.00     0.167 HD
ATOM     59  C   UNL     1      -1.917  19.004  -7.497  1.00  0.00     0.074 A 
ATOM     60  C   UNL     1      -1.255  18.937  -8.784  1.00  0.00     0.031 C 
ATOM     61  C   UNL     1      -2.936  19.852  -7.208  1.00  0.00     0.034 A 
BRANCH  48  62
ATOM     62  C   UNL     1      -5.169  19.257  -1.449  1.00  0.00     0.023 A 
ATOM     63  C   UNL     1      -4.788  19.776  -0.200  1.00  0.00     0.031 A 
ATOM     64  C   UNL     1      -6.543  19.089  -1.698  1.00  0.00     0.131 A 
ATOM     65  C   UNL     1      -5.756  20.014   0.786  1.00  0.00     0.055 A 
ATOM     66  C   UNL     1      -7.509  19.414  -0.743  1.00  0.00     0.041 A 
ATOM     67  F   UNL     1      -6.970  18.583  -2.866  1.00  0.00    -0.206 F 
ATOM     68  C   UNL     1      -7.117  19.861   0.515  1.00  0.00     0.022 A 
BRANCH  65  69
ATOM     69  S   UNL     1      -5.197  20.366   2.475  1.00  0.00     0.124 S 
ATOM     70  O   UNL     1      -4.402  19.177   2.775  1.00  0.00    -0.237 OA
ATOM     71  O   UNL     1      -4.452  21.608   2.309  1.00  0.00    -0.237 OA
ATOM     72  O   UNL     1      -6.442  20.480   3.232  1.00  0.00    -0.744 OA
ENDBRANCH  65  69
ENDBRANCH  48  62
BRANCH  49  73
ATOM     73  C   UNL     1       1.545  15.862  -8.069  1.00  0.00     0.023 A 
ATOM     74  C   UNL     1       2.585  16.659  -8.572  1.00  0.00     0.031 A 
ATOM     75  C   UNL     1       1.417  14.552  -8.564  1.00  0.00     0.131 A 
ATOM     76  C   UNL     1       3.436  16.152  -9.566  1.00  0.00     0.055 A 
ATOM     77  C   UNL     1       2.294  14.037  -9.520  1.00  0.00     0.041 A 
ATOM     78  F   UNL     1       0.444  13.747  -8.110  1.00  0.00    -0.206 F 
ATOM     79  C   UNL     1       3.306  14.842 -10.035  1.00  0.00     0.022 A 
BRANCH  76  80
ATOM     80  S   UNL     1       4.685  17.253 -10.286  1.00  0.00     0.124 S 
ATOM     81  O   UNL     1       3.857  18.320 -10.839  1.00  0.00    -0.237 OA
ATOM     82  O   UNL     1       5.488  17.604  -9.120  1.00  0.00    -0.237 OA
ATOM     83  O   UNL     1       5.356  16.409 -11.271  1.00  0.00    -0.744 OA
ENDBRANCH  76  80
ENDBRANCH  49  73
BRANCH  61  84
ATOM     84  C   UNL     1      -3.377  20.785  -8.306  1.00  0.00     0.023 A 
ATOM     85  C   UNL     1      -4.058  20.311  -9.440  1.00  0.00     0.031 A 
ATOM     86  C   UNL     1      -3.115  22.163  -8.214  1.00  0.00     0.131 A 
ATOM     87  C   UNL     1      -4.419  21.204 -10.460  1.00  0.00     0.055 A 
ATOM     88  C   UNL     1      -3.522  23.053  -9.208  1.00  0.00     0.041 A 
ATOM     89  F   UNL     1      -2.466  22.665  -7.152  1.00  0.00    -0.206 F 
ATOM     90  C   UNL     1      -4.170  22.574 -10.343  1.00  0.00     0.022 A 
BRANCH  87  91
ATOM     91  S   UNL     1      -5.168  20.543 -11.973  1.00  0.00     0.124 S 
ATOM     92  O   UNL     1      -4.100  19.698 -12.496  1.00  0.00    -0.237 OA
ATOM     93  O   UNL     1      -6.343  19.843 -11.463  1.00  0.00    -0.237 OA
ATOM     94  O   UNL     1      -5.456  21.739 -12.764  1.00  0.00    -0.744 OA
ENDBRANCH  87  91
ENDBRANCH  61  84
ENDBRANCH  35  36
ENDBRANCH  27  30
ENDBRANCH  25  26
ENDBRANCH   1  25
TORSDOF 15
