REMARK SMILES Cc1ccc(-c2cc(Cl)ccc2Cl)c(C(=O)NCCCNC(=O)c2ccc(-c3c4nc(c(-c5cc(S(=O)(=O)[O-])ccc5F)c5ccc([nH]5)c(-c5cc(S(=O)(=O)[O-])ccc5F)c5nc(c(-c6cc(S(=O)(=O)[O-])ccc6F)c6ccc3[nH]6)C=C5)C=C4)cc2)c1
REMARK SMILES IDX 20 1 19 2 18 3 17 4 15 5 16 6 14 8 1 9 2 10 3 11 87 12 4 13
REMARK SMILES IDX 5 14 6 15 7 16 12 17 8 18 11 19 13 20 9 21 10 22 21 23 22 24
REMARK SMILES IDX 23 26 24 27 25 28 86 29 26 30 85 31 27 32 28 33 29 34 79 35
REMARK SMILES IDX 30 36 84 37 78 38 80 39 31 40 83 41 77 42 76 43 32 45 64 46
REMARK SMILES IDX 44 47 63 48 45 49 48 50 62 51 81 52 46 53 47 54 61 56 82 57
REMARK SMILES IDX 49 58 33 59 34 60 42 61 35 62 41 63 43 64 40 65 36 66 37 67
REMARK SMILES IDX 38 68 39 69 65 70 66 71 74 72 67 73 73 74 75 75 72 76 68 77
REMARK SMILES IDX 69 78 70 79 71 80 50 81 51 82 59 83 52 84 58 85 60 86 57 87
REMARK SMILES IDX 53 88 54 89 55 90 56 91
REMARK H PARENT 17 7 21 25 80 44 48 55
REMARK Flexibility Score: inf
ROOT
ATOM      1  C   UNL     1       1.383   5.489  -0.807  1.00  0.00     0.118 C 
ENDROOT
BRANCH   1   2
ATOM      2  C   UNL     1       1.381   4.036  -0.346  1.00  0.00     0.042 C 
BRANCH   2   3
ATOM      3  C   UNL     1       0.464   3.778   0.853  1.00  0.00     0.118 C 
BRANCH   3   4
ATOM      4  N   UNL     1      -0.906   3.500   0.441  1.00  0.00    -0.352 N 
ATOM      5  C   UNL     1      -1.611   2.369   0.101  1.00  0.00     0.251 C 
ATOM      6  O   UNL     1      -2.804   2.548  -0.148  1.00  0.00    -0.269 OA
ATOM      7  H   UNL     1      -1.458   4.314   0.395  1.00  0.00     0.163 HD
BRANCH   5   8
ATOM      8  C   UNL     1      -1.028   0.976   0.012  1.00  0.00     0.047 A 
ATOM      9  C   UNL     1       2.443  -0.638  -0.192  1.00  0.00     0.044 C 
ATOM     10  C   UNL     1       0.950  -0.498  -0.137  1.00  0.00    -0.050 A 
ATOM     11  C   UNL     1       0.131  -1.618  -0.140  1.00  0.00     0.004 A 
ATOM     12  C   UNL     1       0.360   0.772  -0.079  1.00  0.00     0.018 A 
ATOM     13  C   UNL     1      -1.252  -1.457  -0.097  1.00  0.00     0.010 A 
ATOM     14  C   UNL     1      -1.860  -0.178  -0.021  1.00  0.00    -0.004 A 
BRANCH  14  15
ATOM     15  C   UNL     1      -3.340  -0.160  -0.005  1.00  0.00     0.003 A 
ATOM     16  C   UNL     1      -4.037   0.195  -1.179  1.00  0.00     0.030 A 
ATOM     17  C   UNL     1      -4.101  -0.536   1.121  1.00  0.00     0.049 A 
ATOM     18  C   UNL     1      -5.432   0.213  -1.210  1.00  0.00     0.041 A 
ATOM     19  C   UNL     1      -5.501  -0.533   1.077  1.00  0.00     0.023 A 
ATOM     20  Cl  UNL     1      -3.359  -1.048   2.600  1.00  0.00    -0.084 Cl
ATOM     21  Cl  UNL     1      -6.251   0.673  -2.652  1.00  0.00    -0.084 Cl
ATOM     22  C   UNL     1      -6.167  -0.151  -0.087  1.00  0.00     0.022 A 
ENDBRANCH  14  15
ENDBRANCH   5   8
ENDBRANCH   3   4
ENDBRANCH   2   3
ENDBRANCH   1   2
BRANCH   1  23
ATOM     23  N   UNL     1       2.658   6.165  -0.571  1.00  0.00    -0.352 N 
ATOM     24  C   UNL     1       3.047   7.429  -0.978  1.00  0.00     0.251 C 
ATOM     25  H   UNL     1       3.325   5.655  -0.057  1.00  0.00     0.163 HD
ATOM     26  O   UNL     1       4.160   7.874  -0.744  1.00  0.00    -0.269 OA
BRANCH  24  27
ATOM     27  C   UNL     1       2.020   8.290  -1.600  1.00  0.00     0.039 A 
ATOM     28  C   UNL     1       1.642   9.437  -0.894  1.00  0.00     0.014 A 
ATOM     29  C   UNL     1       1.267   7.824  -2.674  1.00  0.00     0.014 A 
ATOM     30  C   UNL     1       0.387   9.990  -1.124  1.00  0.00     0.010 A 
ATOM     31  C   UNL     1      -0.013   8.316  -2.839  1.00  0.00     0.010 A 
ATOM     32  C   UNL     1      -0.474   9.357  -2.021  1.00  0.00    -0.014 A 
BRANCH  32  33
ATOM     33  C   UNL     1      -1.909   9.627  -2.056  1.00  0.00     0.031 A 
ATOM     34  C   UNL     1      -2.510  10.377  -3.176  1.00  0.00     0.074 A 
ATOM     35  C   UNL     1      -2.703   9.165  -1.066  1.00  0.00     0.049 A 
ATOM     36  N   UNL     1      -3.614  11.041  -3.100  1.00  0.00    -0.248 NA
ATOM     37  C   UNL     1      -1.866  10.479  -4.480  1.00  0.00     0.031 C 
ATOM     38  C   UNL     1      -4.162   9.114  -1.048  1.00  0.00     0.029 A 
ATOM     39  N   UNL     1      -2.328   8.888   0.248  1.00  0.00    -0.354 N 
ATOM     40  C   UNL     1      -3.968  11.414  -4.376  1.00  0.00     0.074 A 
ATOM     41  C   UNL     1      -2.816  11.095  -5.189  1.00  0.00     0.031 C 
ATOM     42  C   UNL     1      -4.578   9.088   0.227  1.00  0.00     0.029 A 
ATOM     43  C   UNL     1      -3.407   9.263   1.067  1.00  0.00     0.049 A 
ATOM     44  H   UNL     1      -1.471   8.503   0.545  1.00  0.00     0.167 HD
ATOM     45  C   UNL     1      -5.243  11.824  -4.632  1.00  0.00     0.034 A 
ATOM     46  C   UNL     1      -3.266  10.210   2.039  1.00  0.00     0.034 A 
ATOM     47  C   UNL     1      -6.052  11.878  -3.416  1.00  0.00     0.049 A 
ATOM     48  C   UNL     1      -4.197  11.388   1.874  1.00  0.00     0.074 A 
ATOM     49  C   UNL     1      -6.976  11.007  -2.862  1.00  0.00     0.029 A 
ATOM     50  N   UNL     1      -5.758  12.817  -2.433  1.00  0.00    -0.354 N 
ATOM     51  N   UNL     1      -4.811  11.684   0.762  1.00  0.00    -0.248 NA
ATOM     52  C   UNL     1      -4.497  12.331   2.946  1.00  0.00     0.031 C 
ATOM     53  C   UNL     1      -7.192  11.395  -1.514  1.00  0.00     0.029 A 
ATOM     54  C   UNL     1      -6.427  12.521  -1.261  1.00  0.00     0.049 A 
ATOM     55  H   UNL     1      -5.157  13.587  -2.555  1.00  0.00     0.167 HD
ATOM     56  C   UNL     1      -5.560  12.820   0.938  1.00  0.00     0.074 A 
ATOM     57  C   UNL     1      -5.347  13.172   2.331  1.00  0.00     0.031 C 
ATOM     58  C   UNL     1      -6.284  13.371  -0.085  1.00  0.00     0.034 A 
BRANCH  45  59
ATOM     59  C   UNL     1      -5.833  11.864  -6.024  1.00  0.00     0.023 A 
ATOM     60  C   UNL     1      -7.198  11.558  -6.210  1.00  0.00     0.031 A 
ATOM     61  C   UNL     1      -5.111  12.139  -7.200  1.00  0.00     0.131 A 
ATOM     62  C   UNL     1      -7.750  11.417  -7.497  1.00  0.00     0.055 A 
ATOM     63  C   UNL     1      -5.638  11.931  -8.482  1.00  0.00     0.041 A 
ATOM     64  F   UNL     1      -3.880  12.669  -7.158  1.00  0.00    -0.206 F 
ATOM     65  C   UNL     1      -6.962  11.550  -8.636  1.00  0.00     0.022 A 
BRANCH  62  66
ATOM     66  S   UNL     1      -9.523  11.069  -7.666  1.00  0.00     0.124 S 
ATOM     67  O   UNL     1      -9.671   9.824  -6.921  1.00  0.00    -0.237 OA
ATOM     68  O   UNL     1     -10.127  12.256  -7.070  1.00  0.00    -0.237 OA
ATOM     69  O   UNL     1      -9.708  10.947  -9.112  1.00  0.00    -0.744 OA
ENDBRANCH  62  66
ENDBRANCH  45  59
BRANCH  46  70
ATOM     70  C   UNL     1      -1.898  10.254   2.631  1.00  0.00     0.023 A 
ATOM     71  C   UNL     1      -1.405   9.050   3.179  1.00  0.00     0.031 A 
ATOM     72  C   UNL     1      -0.974  11.257   2.315  1.00  0.00     0.131 A 
ATOM     73  C   UNL     1      -0.027   8.800   3.211  1.00  0.00     0.055 A 
ATOM     74  C   UNL     1       0.406  11.034   2.432  1.00  0.00     0.041 A 
ATOM     75  F   UNL     1      -1.378  12.414   1.773  1.00  0.00    -0.206 F 
ATOM     76  C   UNL     1       0.885   9.785   2.832  1.00  0.00     0.022 A 
BRANCH  73  77
ATOM     77  S   UNL     1       0.534   7.088   3.447  1.00  0.00     0.124 S 
ATOM     78  O   UNL     1       0.815   7.046   4.877  1.00  0.00    -0.237 OA
ATOM     79  O   UNL     1      -0.617   6.304   3.002  1.00  0.00    -0.237 OA
ATOM     80  O   UNL     1       1.698   6.980   2.570  1.00  0.00    -0.744 OA
ENDBRANCH  73  77
ENDBRANCH  46  70
BRANCH  58  81
ATOM     81  C   UNL     1      -6.997  14.709  -0.059  1.00  0.00     0.023 A 
ATOM     82  C   UNL     1      -6.742  15.709   0.892  1.00  0.00     0.031 A 
ATOM     83  C   UNL     1      -7.930  15.055  -1.069  1.00  0.00     0.131 A 
ATOM     84  C   UNL     1      -7.443  16.930   0.875  1.00  0.00     0.055 A 
ATOM     85  C   UNL     1      -8.567  16.299  -1.130  1.00  0.00     0.041 A 
ATOM     86  F   UNL     1      -8.260  14.204  -2.051  1.00  0.00    -0.206 F 
ATOM     87  C   UNL     1      -8.338  17.242  -0.143  1.00  0.00     0.022 A 
BRANCH  84  88
ATOM     88  S   UNL     1      -7.194  18.083   2.251  1.00  0.00     0.124 S 
ATOM     89  O   UNL     1      -7.721  17.320   3.380  1.00  0.00    -0.237 OA
ATOM     90  O   UNL     1      -5.748  18.279   2.241  1.00  0.00    -0.237 OA
ATOM     91  O   UNL     1      -7.983  19.253   1.871  1.00  0.00    -0.744 OA
ENDBRANCH  84  88
ENDBRANCH  58  81
ENDBRANCH  32  33
ENDBRANCH  24  27
ENDBRANCH   1  23
TORSDOF 14
