REMARK SMILES CC(C)(C)c1ccc(C(=O)N/C(=C/c2ccc(O)cc2)C(=O)NCCCNC(=O)c2ccc(-c3c4nc(c(-c5cc(S(=O)(=O)[O-])ccc5F)c5ccc([nH]5)c(-c5cc(S(=O)(=O)[O-])ccc5F)c5nc(c(-c6cc(S(=O)(=O)[O-])ccc6F)c6ccc3[nH]6)C=C5)C=C4)cc2)cc1
REMARK SMILES IDX 25 1 24 2 23 3 21 4 22 5 12 7 13 8 11 9 9 10 10 11 8 13 5 14
REMARK SMILES IDX 6 15 94 16 7 17 93 18 2 19 1 20 3 21 4 22 14 23 15 24 20 25
REMARK SMILES IDX 16 26 19 27 17 28 18 29 26 31 27 32 28 33 29 35 30 36 31 37
REMARK SMILES IDX 92 38 32 39 91 40 33 41 34 42 35 43 85 44 36 45 90 46 84 47
REMARK SMILES IDX 86 48 37 49 89 50 83 51 82 52 38 54 70 55 50 56 69 57 51 58
REMARK SMILES IDX 54 59 68 60 87 61 52 62 53 63 67 65 88 66 55 67 39 68 40 69
REMARK SMILES IDX 48 70 41 71 47 72 49 73 46 74 42 75 43 76 44 77 45 78 71 79
REMARK SMILES IDX 72 80 80 81 73 82 79 83 81 84 78 85 74 86 75 87 76 88 77 89
REMARK SMILES IDX 56 90 57 91 65 92 58 93 64 94 66 95 63 96 59 97 60 98 61 99
REMARK SMILES IDX 62 100
REMARK H PARENT 23 6 11 12 18 30 27 34 86 53 54 64
REMARK Flexibility Score: inf
ROOT
ATOM      1  C   UNL     1       1.715   3.050  -4.917  1.00  0.00     0.042 C 
ENDROOT
BRANCH   1   2
ATOM      2  C   UNL     1       2.626   1.847  -5.043  1.00  0.00     0.118 C 
BRANCH   2   3
ATOM      3  N   UNL     1       1.998   0.596  -4.733  1.00  0.00    -0.351 N 
ATOM      4  C   UNL     1       1.907  -0.470  -5.575  1.00  0.00     0.267 C 
ATOM      5  O   UNL     1       0.803  -1.020  -5.649  1.00  0.00    -0.268 OA
ATOM      6  H   UNL     1       1.601   0.499  -3.837  1.00  0.00     0.163 HD
BRANCH   4   7
ATOM      7  C   UNL     1       3.114  -1.136  -6.249  1.00  0.00     0.107 C 
ATOM      8  C   UNL     1       4.178  -0.616  -6.912  1.00  0.00     0.040 C 
BRANCH   7   9
ATOM      9  N   UNL     1       3.087  -2.534  -6.231  1.00  0.00    -0.317 N 
ATOM     10  C   UNL     1       2.527  -3.437  -5.341  1.00  0.00     0.255 C 
ATOM     11  O   UNL     1       2.442  -4.620  -5.674  1.00  0.00    -0.269 OA
ATOM     12  H   UNL     1       3.550  -2.955  -6.990  1.00  0.00     0.170 HD
BRANCH  10  13
ATOM     13  C   UNL     1       2.133  -3.057  -3.954  1.00  0.00     0.040 A 
ATOM     14  C   UNL     1       1.158  -2.218  -1.423  1.00  0.00    -0.043 A 
ATOM     15  C   UNL     1       0.563  -3.286  -2.119  1.00  0.00     0.005 A 
ATOM     16  C   UNL     1       2.341  -1.686  -1.963  1.00  0.00     0.005 A 
ATOM     17  C   UNL     1       1.035  -3.693  -3.374  1.00  0.00     0.014 A 
ATOM     18  C   UNL     1       2.837  -2.116  -3.201  1.00  0.00     0.014 A 
BRANCH  14  19
ATOM     19  C   UNL     1       0.529  -1.663  -0.130  1.00  0.00    -0.013 C 
ATOM     20  C   UNL     1       0.943  -0.200   0.158  1.00  0.00     0.016 C 
ATOM     21  C   UNL     1       0.967  -2.536   1.059  1.00  0.00     0.016 C 
ATOM     22  C   UNL     1      -1.017  -1.661  -0.208  1.00  0.00     0.016 C 
ENDBRANCH  14  19
ENDBRANCH  10  13
ENDBRANCH   7   9
BRANCH   8  23
ATOM     23  C   UNL     1       4.708   0.749  -7.003  1.00  0.00    -0.023 A 
ATOM     24  C   UNL     1       4.281   1.677  -7.962  1.00  0.00     0.012 A 
ATOM     25  C   UNL     1       5.614   1.155  -6.006  1.00  0.00     0.012 A 
ATOM     26  C   UNL     1       4.630   3.029  -7.817  1.00  0.00     0.047 A 
ATOM     27  C   UNL     1       5.957   2.502  -5.864  1.00  0.00     0.047 A 
ATOM     28  C   UNL     1       5.415   3.434  -6.739  1.00  0.00     0.115 A 
BRANCH  28  29
ATOM     29  O   UNL     1       5.591   4.769  -6.532  1.00  0.00    -0.508 OA
ATOM     30  H   UNL     1       5.220   5.389  -7.130  1.00  0.00     0.293 HD
ENDBRANCH  28  29
ENDBRANCH   8  23
ENDBRANCH   4   7
ENDBRANCH   2   3
ENDBRANCH   1   2
BRANCH   1  31
ATOM     31  C   UNL     1       1.701   3.613  -3.512  1.00  0.00     0.118 C 
BRANCH  31  32
ATOM     32  N   UNL     1       2.973   4.252  -3.170  1.00  0.00    -0.352 N 
ATOM     33  C   UNL     1       3.410   5.547  -3.353  1.00  0.00     0.251 C 
ATOM     34  H   UNL     1       3.627   3.656  -2.737  1.00  0.00     0.163 HD
ATOM     35  O   UNL     1       4.620   5.759  -3.373  1.00  0.00    -0.269 OA
BRANCH  33  36
ATOM     36  C   UNL     1       2.438   6.649  -3.577  1.00  0.00     0.039 A 
ATOM     37  C   UNL     1       2.801   7.757  -4.347  1.00  0.00     0.014 A 
ATOM     38  C   UNL     1       1.153   6.587  -3.046  1.00  0.00     0.014 A 
ATOM     39  C   UNL     1       1.839   8.718  -4.679  1.00  0.00     0.010 A 
ATOM     40  C   UNL     1       0.164   7.436  -3.519  1.00  0.00     0.010 A 
ATOM     41  C   UNL     1       0.491   8.524  -4.335  1.00  0.00    -0.014 A 
BRANCH  41  42
ATOM     42  C   UNL     1      -0.595   9.434  -4.796  1.00  0.00     0.031 A 
ATOM     43  C   UNL     1      -1.531  10.061  -3.791  1.00  0.00     0.074 A 
ATOM     44  C   UNL     1      -0.806   9.611  -6.117  1.00  0.00     0.049 A 
ATOM     45  N   UNL     1      -2.619  10.761  -3.992  1.00  0.00    -0.248 NA
ATOM     46  C   UNL     1      -1.234   9.821  -2.370  1.00  0.00     0.031 C 
ATOM     47  C   UNL     1      -0.015   9.005  -7.191  1.00  0.00     0.029 A 
ATOM     48  N   UNL     1      -1.754  10.345  -6.785  1.00  0.00    -0.354 N 
ATOM     49  C   UNL     1      -3.147  11.012  -2.729  1.00  0.00     0.074 A 
ATOM     50  C   UNL     1      -2.311  10.312  -1.779  1.00  0.00     0.031 C 
ATOM     51  C   UNL     1      -0.478   9.430  -8.377  1.00  0.00     0.029 A 
ATOM     52  C   UNL     1      -1.638  10.286  -8.156  1.00  0.00     0.049 A 
ATOM     53  H   UNL     1      -2.453  10.866  -6.327  1.00  0.00     0.167 HD
ATOM     54  C   UNL     1      -4.207  11.785  -2.386  1.00  0.00     0.034 A 
ATOM     55  C   UNL     1      -2.387  10.847  -9.126  1.00  0.00     0.034 A 
ATOM     56  C   UNL     1      -5.007  12.503  -3.347  1.00  0.00     0.049 A 
ATOM     57  C   UNL     1      -3.565  11.697  -8.726  1.00  0.00     0.074 A 
ATOM     58  C   UNL     1      -6.057  13.374  -3.116  1.00  0.00     0.029 A 
ATOM     59  N   UNL     1      -4.848  12.430  -4.726  1.00  0.00    -0.354 N 
ATOM     60  N   UNL     1      -4.013  11.976  -7.522  1.00  0.00    -0.248 NA
ATOM     61  C   UNL     1      -4.333  12.316  -9.813  1.00  0.00     0.031 C 
ATOM     62  C   UNL     1      -6.578  13.768  -4.353  1.00  0.00     0.029 A 
ATOM     63  C   UNL     1      -5.802  13.212  -5.357  1.00  0.00     0.049 A 
ATOM     64  H   UNL     1      -4.158  11.899  -5.186  1.00  0.00     0.167 HD
ATOM     65  C   UNL     1      -5.099  12.826  -7.710  1.00  0.00     0.074 A 
ATOM     66  C   UNL     1      -5.224  13.029  -9.139  1.00  0.00     0.031 C 
ATOM     67  C   UNL     1      -5.918  13.392  -6.786  1.00  0.00     0.034 A 
BRANCH  54  68
ATOM     68  C   UNL     1      -4.560  11.875  -0.917  1.00  0.00     0.023 A 
ATOM     69  C   UNL     1      -3.648  12.370   0.033  1.00  0.00     0.031 A 
ATOM     70  C   UNL     1      -5.805  11.420  -0.451  1.00  0.00     0.131 A 
ATOM     71  C   UNL     1      -3.953  12.306   1.401  1.00  0.00     0.055 A 
ATOM     72  C   UNL     1      -6.141  11.450   0.905  1.00  0.00     0.041 A 
ATOM     73  F   UNL     1      -6.713  10.916  -1.302  1.00  0.00    -0.206 F 
ATOM     74  C   UNL     1      -5.205  11.876   1.842  1.00  0.00     0.022 A 
BRANCH  71  75
ATOM     75  S   UNL     1      -2.626  12.624   2.596  1.00  0.00     0.124 S 
ATOM     76  O   UNL     1      -1.637  11.618   2.213  1.00  0.00    -0.237 OA
ATOM     77  O   UNL     1      -2.270  14.009   2.312  1.00  0.00    -0.237 OA
ATOM     78  O   UNL     1      -3.267  12.395   3.889  1.00  0.00    -0.744 OA
ENDBRANCH  71  75
ENDBRANCH  54  68
BRANCH  55  79
ATOM     79  C   UNL     1      -2.053  10.628 -10.564  1.00  0.00     0.023 A 
ATOM     80  C   UNL     1      -1.661  11.699 -11.384  1.00  0.00     0.031 A 
ATOM     81  C   UNL     1      -2.148   9.353 -11.149  1.00  0.00     0.131 A 
ATOM     82  C   UNL     1      -1.424  11.485 -12.751  1.00  0.00     0.055 A 
ATOM     83  C   UNL     1      -1.856   9.135 -12.497  1.00  0.00     0.041 A 
ATOM     84  F   UNL     1      -2.513   8.292 -10.411  1.00  0.00    -0.206 F 
ATOM     85  C   UNL     1      -1.504  10.207 -13.310  1.00  0.00     0.022 A 
BRANCH  82  86
ATOM     86  S   UNL     1      -1.092  12.920 -13.810  1.00  0.00     0.124 S 
ATOM     87  O   UNL     1      -2.290  13.725 -13.602  1.00  0.00    -0.237 OA
ATOM     88  O   UNL     1       0.142  13.443 -13.233  1.00  0.00    -0.237 OA
ATOM     89  O   UNL     1      -0.956  12.335 -15.142  1.00  0.00    -0.744 OA
ENDBRANCH  82  86
ENDBRANCH  55  79
BRANCH  67  90
ATOM     90  C   UNL     1      -6.995  14.316  -7.300  1.00  0.00     0.023 A 
ATOM     91  C   UNL     1      -8.057  13.846  -8.092  1.00  0.00     0.031 A 
ATOM     92  C   UNL     1      -6.953  15.688  -6.996  1.00  0.00     0.131 A 
ATOM     93  C   UNL     1      -9.000  14.751  -8.602  1.00  0.00     0.055 A 
ATOM     94  C   UNL     1      -7.932  16.572  -7.450  1.00  0.00     0.041 A 
ATOM     95  F   UNL     1      -5.959  16.192  -6.247  1.00  0.00    -0.206 F 
ATOM     96  C   UNL     1      -8.956  16.107  -8.270  1.00  0.00     0.022 A 
BRANCH  93  97
ATOM     97  S   UNL     1     -10.228  14.146  -9.791  1.00  0.00     0.124 S 
ATOM     98  O   UNL     1      -9.383  13.616 -10.856  1.00  0.00    -0.237 OA
ATOM     99  O   UNL     1     -10.962  13.158  -9.008  1.00  0.00    -0.237 OA
ATOM    100  O   UNL     1     -10.986  15.347 -10.141  1.00  0.00    -0.744 OA
ENDBRANCH  93  97
ENDBRANCH  67  90
ENDBRANCH  41  42
ENDBRANCH  33  36
ENDBRANCH  31  32
ENDBRANCH   1  31
TORSDOF 18
