REMARK SMILES COc1ccc(-c2nc(C(C)C)cc3nn(CC(=O)NCCCNC(=O)c4ccc(-c5c6nc(c(-c7cc(S(=O)(=O)[O-])ccc7F)c7ccc([nH]7)c(-c7cc(S(=O)(=O)[O-])ccc7F)c7nc(c(-c8cc(S(=O)(=O)[O-])ccc8F)c8ccc5[nH]8)C=C7)C=C6)cc4)c(=O)n23)cc1
REMARK SMILES IDX 22 1 21 2 20 3 18 4 19 5 17 7 16 8 7 9 8 10 92 11 9 12 14 13
REMARK SMILES IDX 90 14 13 15 15 16 91 17 6 18 3 19 4 20 94 21 5 22 93 23 2 24
REMARK SMILES IDX 1 25 10 26 11 27 12 28 23 29 24 30 25 31 26 33 27 34 28 35
REMARK SMILES IDX 89 36 29 37 88 38 30 39 31 40 32 41 82 42 33 43 87 44 81 45
REMARK SMILES IDX 83 46 34 47 86 48 80 49 79 50 35 52 67 53 47 54 66 55 48 56
REMARK SMILES IDX 51 57 65 58 84 59 49 60 50 61 64 63 85 64 52 65 36 66 37 67
REMARK SMILES IDX 45 68 38 69 44 70 46 71 43 72 39 73 40 74 41 75 42 76 68 77
REMARK SMILES IDX 69 78 77 79 70 80 76 81 78 82 75 83 71 84 72 85 73 86 74 87
REMARK SMILES IDX 53 88 54 89 62 90 55 91 61 92 63 93 60 94 56 95 57 96 58 97
REMARK SMILES IDX 59 98
REMARK H PARENT 20 6 24 32 83 51 51 62
REMARK Flexibility Score: inf
ROOT
ATOM      1  C   UNL     1      -0.663   5.810  -8.428  1.00  0.00     0.042 C 
ENDROOT
BRANCH   1   2
ATOM      2  C   UNL     1      -0.982   7.137  -7.734  1.00  0.00     0.117 C 
BRANCH   2   3
ATOM      3  N   UNL     1      -1.770   6.980  -6.522  1.00  0.00    -0.354 N 
ATOM      4  C   UNL     1      -1.388   7.136  -5.218  1.00  0.00     0.241 C 
ATOM      5  O   UNL     1      -2.277   7.232  -4.368  1.00  0.00    -0.273 OA
ATOM      6  H   UNL     1      -2.711   6.726  -6.659  1.00  0.00     0.163 HD
BRANCH   4   7
ATOM      7  C   UNL     1       0.077   7.343  -4.845  1.00  0.00     0.249 C 
BRANCH   7   8
ATOM      8  N   UNL     1       0.906   6.268  -5.330  1.00  0.00    -0.203 N 
ATOM      9  C   UNL     1       2.393   3.007  -5.548  1.00  0.00     0.150 A 
ATOM     10  N   UNL     1       3.322   2.622  -6.376  1.00  0.00    -0.234 NA
ATOM     11  N   UNL     1       1.882   4.298  -5.564  1.00  0.00    -0.226 N 
ATOM     12  C   UNL     1       3.783   3.525  -7.314  1.00  0.00     0.049 A 
ATOM     13  C   UNL     1       2.335   5.214  -6.444  1.00  0.00     0.165 A 
ATOM     14  C   UNL     1       0.955   4.979  -4.776  1.00  0.00     0.352 A 
ATOM     15  C   UNL     1       3.350   4.794  -7.399  1.00  0.00     0.073 A 
ATOM     16  N   UNL     1       1.813   6.399  -6.354  1.00  0.00    -0.149 NA
ATOM     17  O   UNL     1       0.328   4.590  -3.812  1.00  0.00    -0.245 OA
BRANCH   9  18
ATOM     18  C   UNL     1       1.906   2.085  -4.502  1.00  0.00     0.018 A 
ATOM     19  C   UNL     1       1.052   0.470  -2.396  1.00  0.00     0.118 A 
ATOM     20  C   UNL     1       0.146   0.874  -3.380  1.00  0.00     0.047 A 
ATOM     21  C   UNL     1       2.398   0.822  -2.501  1.00  0.00     0.047 A 
ATOM     22  C   UNL     1       0.568   1.687  -4.436  1.00  0.00     0.016 A 
ATOM     23  C   UNL     1       2.828   1.627  -3.556  1.00  0.00     0.016 A 
BRANCH  19  24
ATOM     24  O   UNL     1       0.556  -0.323  -1.398  1.00  0.00    -0.497 OA
ATOM     25  C   UNL     1       0.995   0.052  -0.095  1.00  0.00     0.278 C 
ENDBRANCH  19  24
ENDBRANCH   9  18
BRANCH  12  26
ATOM     26  C   UNL     1       4.857   2.997  -8.257  1.00  0.00     0.032 C 
ATOM     27  C   UNL     1       4.434   3.087  -9.727  1.00  0.00     0.014 C 
ATOM     28  C   UNL     1       6.191   3.717  -8.035  1.00  0.00     0.014 C 
ENDBRANCH  12  26
ENDBRANCH   7   8
ENDBRANCH   4   7
ENDBRANCH   2   3
ENDBRANCH   1   2
BRANCH   1  29
ATOM     29  C   UNL     1      -1.882   5.184  -9.086  1.00  0.00     0.118 C 
BRANCH  29  30
ATOM     30  N   UNL     1      -2.356   5.932 -10.250  1.00  0.00    -0.352 N 
ATOM     31  C   UNL     1      -3.354   5.580 -11.141  1.00  0.00     0.251 C 
ATOM     32  H   UNL     1      -1.910   6.793 -10.420  1.00  0.00     0.163 HD
ATOM     33  O   UNL     1      -3.414   6.121 -12.240  1.00  0.00    -0.269 OA
BRANCH  31  34
ATOM     34  C   UNL     1      -4.337   4.550 -10.750  1.00  0.00     0.039 A 
ATOM     35  C   UNL     1      -4.820   3.610 -11.666  1.00  0.00     0.014 A 
ATOM     36  C   UNL     1      -4.768   4.526  -9.427  1.00  0.00     0.014 A 
ATOM     37  C   UNL     1      -5.674   2.601 -11.215  1.00  0.00     0.010 A 
ATOM     38  C   UNL     1      -5.476   3.453  -8.954  1.00  0.00     0.010 A 
ATOM     39  C   UNL     1      -5.983   2.517  -9.848  1.00  0.00    -0.014 A 
BRANCH  39  40
ATOM     40  C   UNL     1      -6.674   1.356  -9.280  1.00  0.00     0.031 A 
ATOM     41  C   UNL     1      -5.964   0.071  -9.547  1.00  0.00     0.074 A 
ATOM     42  C   UNL     1      -7.666   1.486  -8.364  1.00  0.00     0.049 A 
ATOM     43  N   UNL     1      -6.366  -0.935 -10.250  1.00  0.00    -0.248 NA
ATOM     44  C   UNL     1      -4.544  -0.030  -9.148  1.00  0.00     0.031 C 
ATOM     45  C   UNL     1      -8.214   2.738  -7.822  1.00  0.00     0.029 A 
ATOM     46  N   UNL     1      -8.311   0.548  -7.614  1.00  0.00    -0.354 N 
ATOM     47  C   UNL     1      -5.371  -1.903 -10.124  1.00  0.00     0.074 A 
ATOM     48  C   UNL     1      -4.200  -1.200  -9.687  1.00  0.00     0.031 C 
ATOM     49  C   UNL     1      -8.896   2.488  -6.682  1.00  0.00     0.029 A 
ATOM     50  C   UNL     1      -8.980   1.051  -6.490  1.00  0.00     0.049 A 
ATOM     51  H   UNL     1      -8.307  -0.410  -7.843  1.00  0.00     0.167 HD
ATOM     52  C   UNL     1      -5.693  -3.227 -10.070  1.00  0.00     0.034 A 
ATOM     53  C   UNL     1      -9.541   0.351  -5.461  1.00  0.00     0.034 A 
ATOM     54  C   UNL     1      -7.036  -3.437 -10.575  1.00  0.00     0.049 A 
ATOM     55  C   UNL     1      -9.744  -1.029  -5.961  1.00  0.00     0.074 A 
ATOM     56  C   UNL     1      -7.681  -3.175 -11.769  1.00  0.00     0.029 A 
ATOM     57  N   UNL     1      -8.039  -3.632  -9.650  1.00  0.00    -0.354 N 
ATOM     58  N   UNL     1     -10.556  -1.323  -6.939  1.00  0.00    -0.248 NA
ATOM     59  C   UNL     1      -8.685  -1.996  -5.723  1.00  0.00     0.031 C 
ATOM     60  C   UNL     1      -8.991  -2.749 -11.396  1.00  0.00     0.029 A 
ATOM     61  C   UNL     1      -9.118  -2.868 -10.010  1.00  0.00     0.049 A 
ATOM     62  H   UNL     1      -7.988  -4.222  -8.864  1.00  0.00     0.167 HD
ATOM     63  C   UNL     1      -9.863  -2.240  -7.713  1.00  0.00     0.074 A 
ATOM     64  C   UNL     1      -8.763  -2.694  -6.859  1.00  0.00     0.031 C 
ATOM     65  C   UNL     1     -10.070  -2.317  -9.062  1.00  0.00     0.034 A 
BRANCH  52  66
ATOM     66  C   UNL     1      -5.021  -4.241  -9.149  1.00  0.00     0.023 A 
ATOM     67  C   UNL     1      -5.614  -5.517  -9.086  1.00  0.00     0.031 A 
ATOM     68  C   UNL     1      -4.078  -3.966  -8.131  1.00  0.00     0.131 A 
ATOM     69  C   UNL     1      -5.412  -6.361  -7.981  1.00  0.00     0.055 A 
ATOM     70  C   UNL     1      -3.833  -4.838  -7.063  1.00  0.00     0.041 A 
ATOM     71  F   UNL     1      -3.386  -2.826  -8.056  1.00  0.00    -0.206 F 
ATOM     72  C   UNL     1      -4.534  -6.024  -6.958  1.00  0.00     0.022 A 
BRANCH  69  73
ATOM     73  S   UNL     1      -6.484  -7.810  -7.811  1.00  0.00     0.124 S 
ATOM     74  O   UNL     1      -7.805  -7.198  -7.902  1.00  0.00    -0.237 OA
ATOM     75  O   UNL     1      -6.067  -8.621  -8.950  1.00  0.00    -0.237 OA
ATOM     76  O   UNL     1      -6.127  -8.342  -6.500  1.00  0.00    -0.744 OA
ENDBRANCH  69  73
ENDBRANCH  52  66
BRANCH  53  77
ATOM     77  C   UNL     1      -9.592   0.701  -4.005  1.00  0.00     0.023 A 
ATOM     78  C   UNL     1     -10.479   0.095  -3.080  1.00  0.00     0.031 A 
ATOM     79  C   UNL     1      -8.551   1.480  -3.450  1.00  0.00     0.131 A 
ATOM     80  C   UNL     1     -10.300   0.277  -1.682  1.00  0.00     0.055 A 
ATOM     81  C   UNL     1      -8.376   1.650  -2.073  1.00  0.00     0.041 A 
ATOM     82  F   UNL     1      -7.609   2.033  -4.230  1.00  0.00    -0.206 F 
ATOM     83  C   UNL     1      -9.244   1.040  -1.182  1.00  0.00     0.022 A 
BRANCH  80  84
ATOM     84  S   UNL     1     -11.397  -0.542  -0.469  1.00  0.00     0.124 S 
ATOM     85  O   UNL     1     -12.672   0.126  -0.699  1.00  0.00    -0.237 OA
ATOM     86  O   UNL     1     -11.317  -1.944  -0.865  1.00  0.00    -0.237 OA
ATOM     87  O   UNL     1     -10.772  -0.238   0.820  1.00  0.00    -0.744 OA
ENDBRANCH  80  84
ENDBRANCH  53  77
BRANCH  65  88
ATOM     88  C   UNL     1     -11.299  -1.639  -9.639  1.00  0.00     0.023 A 
ATOM     89  C   UNL     1     -11.596  -0.257  -9.562  1.00  0.00     0.031 A 
ATOM     90  C   UNL     1     -12.161  -2.449 -10.400  1.00  0.00     0.131 A 
ATOM     91  C   UNL     1     -12.728   0.257 -10.230  1.00  0.00     0.055 A 
ATOM     92  C   UNL     1     -13.263  -1.933 -11.076  1.00  0.00     0.041 A 
ATOM     93  F   UNL     1     -11.921  -3.764 -10.528  1.00  0.00    -0.206 F 
ATOM     94  C   UNL     1     -13.555  -0.578 -10.989  1.00  0.00     0.022 A 
BRANCH  91  95
ATOM     95  S   UNL     1     -13.172   2.023 -10.110  1.00  0.00     0.124 S 
ATOM     96  O   UNL     1     -13.095   2.299  -8.680  1.00  0.00    -0.237 OA
ATOM     97  O   UNL     1     -12.156   2.663 -10.941  1.00  0.00    -0.237 OA
ATOM     98  O   UNL     1     -14.527   2.072 -10.666  1.00  0.00    -0.744 OA
ENDBRANCH  91  95
ENDBRANCH  65  88
ENDBRANCH  39  40
ENDBRANCH  31  34
ENDBRANCH  29  30
ENDBRANCH   1  29
TORSDOF 17
