REMARK SMILES CCCN(CC(=O)NCCCNC(=O)c1ccc(-c2c3nc(c(-c4cc(S(=O)(=O)[O-])ccc4F)c4ccc([nH]4)c(-c4cc(S(=O)(=O)[O-])ccc4F)c4nc(c(-c5cc(S(=O)(=O)[O-])ccc5F)c5ccc2[nH]5)C=C4)C=C3)cc1)C(=O)Cc1ccc(F)c(F)c1
REMARK SMILES IDX 9 1 8 2 6 3 7 4 5 6 4 7 3 8 2 9 1 10 78 11 79 12 80 13 81 14
REMARK SMILES IDX 82 15 88 16 83 17 86 18 84 19 87 20 85 21 10 22 11 23 12 24
REMARK SMILES IDX 13 25 14 27 15 28 16 29 77 30 17 31 76 32 18 33 19 34 20 35
REMARK SMILES IDX 70 36 21 37 75 38 69 39 71 40 22 41 74 42 68 43 67 44 23 46
REMARK SMILES IDX 55 47 35 48 54 49 36 50 39 51 53 52 72 53 37 54 38 55 52 57
REMARK SMILES IDX 73 58 40 59 24 60 25 61 33 62 26 63 32 64 34 65 31 66 27 67
REMARK SMILES IDX 28 68 29 69 30 70 56 71 57 72 65 73 58 74 64 75 66 76 63 77
REMARK SMILES IDX 59 78 60 79 61 80 62 81 41 82 42 83 50 84 43 85 49 86 51 87
REMARK SMILES IDX 48 88 44 89 45 90 46 91 47 92
REMARK H PARENT 8 5 12 26 71 45 39 56
REMARK Flexibility Score: inf
ROOT
ATOM      1  C   UNL     1       2.287   3.287   4.324  1.00  0.00     0.117 C 
ENDROOT
BRANCH   1   2
ATOM      2  N   UNL     1       1.468   4.364   3.809  1.00  0.00    -0.354 N 
ATOM      3  C   UNL     1       0.317   4.291   3.084  1.00  0.00     0.239 C 
ATOM      4  O   UNL     1      -0.276   5.342   2.829  1.00  0.00    -0.273 OA
ATOM      5  H   UNL     1       1.786   5.273   4.011  1.00  0.00     0.163 HD
BRANCH   3   6
ATOM      6  C   UNL     1      -0.242   2.932   2.635  1.00  0.00     0.219 C 
BRANCH   6   7
ATOM      7  N   UNL     1       0.631   2.217   1.688  1.00  0.00    -0.333 N 
BRANCH   7   8
ATOM      8  C   UNL     1       1.116   0.884   2.071  1.00  0.00     0.120 C 
BRANCH   8   9
ATOM      9  C   UNL     1       0.386  -0.279   1.386  1.00  0.00     0.018 C 
ATOM     10  C   UNL     1       0.840  -0.547  -0.043  1.00  0.00     0.006 C 
ENDBRANCH   8   9
ENDBRANCH   7   8
BRANCH   7  11
ATOM     11  C   UNL     1       0.995   2.707   0.437  1.00  0.00     0.227 C 
ATOM     12  O   UNL     1       1.928   2.197  -0.192  1.00  0.00    -0.275 OA
BRANCH  11  13
ATOM     13  C   UNL     1       0.292   3.918  -0.166  1.00  0.00     0.135 C 
BRANCH  13  14
ATOM     14  C   UNL     1      -1.221   3.883  -0.208  1.00  0.00    -0.036 A 
ATOM     15  C   UNL     1      -1.931   5.087  -0.053  1.00  0.00     0.007 A 
ATOM     16  C   UNL     1      -1.941   2.691  -0.384  1.00  0.00     0.046 A 
ATOM     17  C   UNL     1      -3.326   5.091   0.006  1.00  0.00     0.043 A 
ATOM     18  C   UNL     1      -3.331   2.701  -0.300  1.00  0.00     0.159 A 
ATOM     19  C   UNL     1      -4.018   3.891  -0.098  1.00  0.00     0.158 A 
ATOM     20  F   UNL     1      -4.001   1.543  -0.381  1.00  0.00    -0.204 F 
ATOM     21  F   UNL     1      -5.354   3.891   0.009  1.00  0.00    -0.204 F 
ENDBRANCH  13  14
ENDBRANCH  11  13
ENDBRANCH   7  11
ENDBRANCH   6   7
ENDBRANCH   3   6
ENDBRANCH   1   2
BRANCH   1  22
ATOM     22  C   UNL     1       3.549   3.062   3.501  1.00  0.00     0.042 C 
BRANCH  22  23
ATOM     23  C   UNL     1       4.546   4.214   3.567  1.00  0.00     0.118 C 
BRANCH  23  24
ATOM     24  N   UNL     1       5.006   4.471   4.925  1.00  0.00    -0.352 N 
ATOM     25  C   UNL     1       6.265   4.404   5.462  1.00  0.00     0.251 C 
ATOM     26  H   UNL     1       4.300   4.736   5.558  1.00  0.00     0.163 HD
ATOM     27  O   UNL     1       6.391   4.434   6.688  1.00  0.00    -0.269 OA
BRANCH  25  28
ATOM     28  C   UNL     1       7.455   4.281   4.594  1.00  0.00     0.039 A 
ATOM     29  C   UNL     1       8.505   3.451   4.999  1.00  0.00     0.014 A 
ATOM     30  C   UNL     1       7.559   5.004   3.402  1.00  0.00     0.014 A 
ATOM     31  C   UNL     1       9.625   3.298   4.179  1.00  0.00     0.010 A 
ATOM     32  C   UNL     1       8.637   4.787   2.549  1.00  0.00     0.010 A 
ATOM     33  C   UNL     1       9.684   3.934   2.928  1.00  0.00    -0.014 A 
BRANCH  33  34
ATOM     34  C   UNL     1      10.831   3.720   2.007  1.00  0.00     0.031 A 
ATOM     35  C   UNL     1      11.716   4.874   1.619  1.00  0.00     0.074 A 
ATOM     36  C   UNL     1      11.037   2.499   1.474  1.00  0.00     0.049 A 
ATOM     37  N   UNL     1      12.712   4.905   0.771  1.00  0.00    -0.248 NA
ATOM     38  C   UNL     1      11.423   6.170   2.248  1.00  0.00     0.031 C 
ATOM     39  C   UNL     1      10.225   1.311   1.749  1.00  0.00     0.029 A 
ATOM     40  N   UNL     1      11.984   2.053   0.587  1.00  0.00    -0.354 N 
ATOM     41  C   UNL     1      13.158   6.222   0.756  1.00  0.00     0.074 A 
ATOM     42  C   UNL     1      12.280   6.970   1.632  1.00  0.00     0.031 C 
ATOM     43  C   UNL     1      10.725   0.269   1.067  1.00  0.00     0.029 A 
ATOM     44  C   UNL     1      11.857   0.721   0.265  1.00  0.00     0.049 A 
ATOM     45  H   UNL     1      12.688   2.632   0.216  1.00  0.00     0.167 HD
ATOM     46  C   UNL     1      14.214   6.753   0.091  1.00  0.00     0.034 A 
ATOM     47  C   UNL     1      12.561  -0.045  -0.592  1.00  0.00     0.034 A 
ATOM     48  C   UNL     1      15.081   5.990  -0.775  1.00  0.00     0.049 A 
ATOM     49  C   UNL     1      13.704   0.578  -1.354  1.00  0.00     0.074 A 
ATOM     50  C   UNL     1      16.207   6.416  -1.458  1.00  0.00     0.029 A 
ATOM     51  N   UNL     1      14.915   4.646  -1.087  1.00  0.00    -0.354 N 
ATOM     52  N   UNL     1      14.142   1.816  -1.321  1.00  0.00    -0.248 NA
ATOM     53  C   UNL     1      14.452  -0.301  -2.261  1.00  0.00     0.031 C 
ATOM     54  C   UNL     1      16.674   5.354  -2.241  1.00  0.00     0.029 A 
ATOM     55  C   UNL     1      15.895   4.238  -1.979  1.00  0.00     0.049 A 
ATOM     56  H   UNL     1      14.204   4.068  -0.727  1.00  0.00     0.167 HD
ATOM     57  C   UNL     1      15.239   1.852  -2.177  1.00  0.00     0.074 A 
ATOM     58  C   UNL     1      15.403   0.510  -2.697  1.00  0.00     0.031 C 
ATOM     59  C   UNL     1      16.043   2.898  -2.499  1.00  0.00     0.034 A 
BRANCH  46  60
ATOM     60  C   UNL     1      14.468   8.234   0.255  1.00  0.00     0.023 A 
ATOM     61  C   UNL     1      14.777   8.797   1.506  1.00  0.00     0.031 A 
ATOM     62  C   UNL     1      14.381   9.100  -0.850  1.00  0.00     0.131 A 
ATOM     63  C   UNL     1      14.910  10.188   1.636  1.00  0.00     0.055 A 
ATOM     64  C   UNL     1      14.601  10.474  -0.730  1.00  0.00     0.041 A 
ATOM     65  F   UNL     1      14.069   8.627  -2.067  1.00  0.00    -0.206 F 
ATOM     66  C   UNL     1      14.851  11.028   0.522  1.00  0.00     0.022 A 
BRANCH  63  67
ATOM     67  S   UNL     1      15.009  10.896   3.303  1.00  0.00     0.124 S 
ATOM     68  O   UNL     1      13.764  10.418   3.901  1.00  0.00    -0.237 OA
ATOM     69  O   UNL     1      16.236  10.305   3.825  1.00  0.00    -0.237 OA
ATOM     70  O   UNL     1      15.063  12.336   3.062  1.00  0.00    -0.744 OA
ENDBRANCH  63  67
ENDBRANCH  46  60
BRANCH  47  71
ATOM     71  C   UNL     1      12.205  -1.480  -0.792  1.00  0.00     0.023 A 
ATOM     72  C   UNL     1      13.107  -2.502  -0.457  1.00  0.00     0.031 A 
ATOM     73  C   UNL     1      10.975  -1.850  -1.366  1.00  0.00     0.131 A 
ATOM     74  C   UNL     1      12.789  -3.839  -0.744  1.00  0.00     0.055 A 
ATOM     75  C   UNL     1      10.639  -3.185  -1.595  1.00  0.00     0.041 A 
ATOM     76  F   UNL     1      10.074  -0.914  -1.704  1.00  0.00    -0.206 F 
ATOM     77  C   UNL     1      11.555  -4.189  -1.297  1.00  0.00     0.022 A 
BRANCH  74  78
ATOM     78  S   UNL     1      14.055  -5.109  -0.472  1.00  0.00     0.124 S 
ATOM     79  O   UNL     1      15.146  -4.625  -1.311  1.00  0.00    -0.237 OA
ATOM     80  O   UNL     1      14.266  -5.023   0.969  1.00  0.00    -0.237 OA
ATOM     81  O   UNL     1      13.410  -6.336  -0.934  1.00  0.00    -0.744 OA
ENDBRANCH  74  78
ENDBRANCH  47  71
BRANCH  59  82
ATOM     82  C   UNL     1      17.204   2.615  -3.423  1.00  0.00     0.023 A 
ATOM     83  C   UNL     1      17.013   2.231  -4.762  1.00  0.00     0.031 A 
ATOM     84  C   UNL     1      18.524   2.723  -2.949  1.00  0.00     0.131 A 
ATOM     85  C   UNL     1      18.121   1.913  -5.562  1.00  0.00     0.055 A 
ATOM     86  C   UNL     1      19.624   2.471  -3.769  1.00  0.00     0.041 A 
ATOM     87  F   UNL     1      18.767   3.082  -1.677  1.00  0.00    -0.206 F 
ATOM     88  C   UNL     1      19.425   2.050  -5.080  1.00  0.00     0.022 A 
BRANCH  85  89
ATOM     89  S   UNL     1      17.833   1.223  -7.215  1.00  0.00     0.124 S 
ATOM     90  O   UNL     1      17.047   0.031  -6.912  1.00  0.00    -0.237 OA
ATOM     91  O   UNL     1      17.119   2.304  -7.885  1.00  0.00    -0.237 OA
ATOM     92  O   UNL     1      19.181   0.965  -7.719  1.00  0.00    -0.744 OA
ENDBRANCH  85  89
ENDBRANCH  59  82
ENDBRANCH  33  34
ENDBRANCH  25  28
ENDBRANCH  23  24
ENDBRANCH  22  23
ENDBRANCH   1  22
TORSDOF 19
