REMARK SMILES COC[C@H](C)CNC(=O)N[C@@H]1CCCCC[C@@H]1C(=O)NCCCNC(=O)c1ccc(-c2c3nc(c(-c4cc(S(=O)(=O)[O-])ccc4F)c4ccc([nH]4)c(-c4cc(S(=O)(=O)[O-])ccc4F)c4nc(c(-c5cc(S(=O)(=O)[O-])ccc5F)c5ccc2[nH]5)C=C4)C=C3)cc1
REMARK SMILES IDX 18 1 19 2 20 3 17 5 11 6 10 7 7 8 8 9 9 11 6 13 4 14 5 15
REMARK SMILES IDX 3 16 2 17 1 18 12 19 13 20 14 21 16 23 15 24 21 26 22 27
REMARK SMILES IDX 23 28 24 29 25 30 26 32 27 33 28 34 89 35 29 36 88 37 30 38
REMARK SMILES IDX 31 39 32 40 82 41 33 42 87 43 81 44 83 45 34 46 86 47 80 48
REMARK SMILES IDX 79 49 35 51 67 52 47 53 66 54 48 55 51 56 65 57 84 58 49 59
REMARK SMILES IDX 50 60 64 62 85 63 52 64 36 65 37 66 45 67 38 68 44 69 46 70
REMARK SMILES IDX 43 71 39 72 40 73 41 74 42 75 68 76 69 77 77 78 70 79 76 80
REMARK SMILES IDX 78 81 75 82 71 83 72 84 73 85 74 86 53 87 54 88 62 89 55 90
REMARK SMILES IDX 61 91 63 92 60 93 56 94 57 95 58 96 59 97
REMARK H PARENT 20 4 7 10 10 12 24 31 83 50 51 61
REMARK Flexibility Score: 90.00
ROOT
ATOM      1  C   UNL     1       1.167   0.229  -7.969  1.00  0.00     0.225 C 
ATOM      2  O   UNL     1       1.981  -0.559  -7.468  1.00  0.00    -0.275 OA
ATOM      3  N   UNL     1       0.790  -0.050  -9.243  1.00  0.00    -0.356 N 
ATOM      4  H   UNL     1       0.947  -0.988  -9.498  1.00  0.00     0.163 HD
ENDROOT
BRANCH   1   5
ATOM      5  C   UNL     1       0.620   1.380  -7.104  1.00  0.00     0.101 C 
BRANCH   5   6
ATOM      6  C   UNL     1      -0.314   0.859  -5.963  1.00  0.00     0.096 C 
BRANCH   6   7
ATOM      7  N   UNL     1      -0.828  -0.493  -6.178  1.00  0.00    -0.335 N 
ATOM      8  N   UNL     1       0.461  -1.962  -4.830  1.00  0.00    -0.338 N 
ATOM      9  C   UNL     1      -0.497  -1.710  -5.727  1.00  0.00     0.315 C 
ATOM     10  H   UNL     1       0.551  -2.924  -4.646  1.00  0.00     0.165 HD
ATOM     11  O   UNL     1      -1.141  -2.669  -6.162  1.00  0.00    -0.249 OA
ATOM     12  H   UNL     1      -1.594  -0.513  -6.796  1.00  0.00     0.165 HD
BRANCH   8  13
ATOM     13  C   UNL     1       1.403  -1.167  -4.058  1.00  0.00     0.123 C 
BRANCH  13  14
ATOM     14  C   UNL     1       0.862  -0.868  -2.643  1.00  0.00     0.031 C 
ATOM     15  C   UNL     1       1.146  -2.064  -1.724  1.00  0.00     0.012 C 
BRANCH  14  16
ATOM     16  C   UNL     1       1.447   0.452  -2.103  1.00  0.00     0.164 C 
BRANCH  16  17
ATOM     17  O   UNL     1       1.570   0.491  -0.682  1.00  0.00    -0.384 OA
ATOM     18  C   UNL     1       0.362   0.790   0.000  1.00  0.00     0.194 C 
ENDBRANCH  16  17
ENDBRANCH  14  16
ENDBRANCH  13  14
ENDBRANCH   8  13
ENDBRANCH   6   7
BRANCH   6  19
ATOM     19  C   UNL     1      -1.504   1.753  -5.578  1.00  0.00     0.026 C 
BRANCH  19  20
ATOM     20  C   UNL     1      -1.089   3.110  -5.013  1.00  0.00     0.002 C 
BRANCH  20  21
ATOM     21  C   UNL     1      -0.912   4.176  -6.083  1.00  0.00     0.000 CG0
ATOM     22  G   UNL     1       0.259   3.930  -7.023  1.00  0.00     0.000 G0
ENDBRANCH  20  21
ENDBRANCH  19  20
ENDBRANCH   6  19
ENDBRANCH   5   6
BRANCH   5  23
ATOM     23  C   UNL     1       0.154   2.641  -7.839  1.00  0.00     0.015 C 
BRANCH  23  24
ATOM     24  C   UNL     1       0.259   3.930  -7.023  1.00  0.00     0.001 CG0
ATOM     25  G   UNL     1      -0.912   4.176  -6.083  1.00  0.00     0.000 G0
ENDBRANCH  23  24
ENDBRANCH   5  23
ENDBRANCH   1   5
BRANCH   3  26
ATOM     26  C   UNL     1       0.203   0.745 -10.310  1.00  0.00     0.117 C 
BRANCH  26  27
ATOM     27  C   UNL     1       1.285   1.471 -11.115  1.00  0.00     0.042 C 
BRANCH  27  28
ATOM     28  C   UNL     1       1.972   0.579 -12.149  1.00  0.00     0.118 C 
BRANCH  28  29
ATOM     29  N   UNL     1       1.069   0.248 -13.248  1.00  0.00    -0.352 N 
ATOM     30  C   UNL     1       1.147   0.553 -14.577  1.00  0.00     0.251 C 
ATOM     31  H   UNL     1       0.277  -0.278 -12.990  1.00  0.00     0.163 HD
ATOM     32  O   UNL     1       0.127   0.446 -15.266  1.00  0.00    -0.269 OA
BRANCH  30  33
ATOM     33  C   UNL     1       2.413   0.995 -15.203  1.00  0.00     0.039 A 
ATOM     34  C   UNL     1       2.361   1.917 -16.256  1.00  0.00     0.014 A 
ATOM     35  C   UNL     1       3.645   0.446 -14.827  1.00  0.00     0.014 A 
ATOM     36  C   UNL     1       3.534   2.304 -16.907  1.00  0.00     0.010 A 
ATOM     37  C   UNL     1       4.821   0.887 -15.431  1.00  0.00     0.010 A 
ATOM     38  C   UNL     1       4.778   1.804 -16.491  1.00  0.00    -0.014 A 
BRANCH  38  39
ATOM     39  C   UNL     1       6.035   2.202 -17.179  1.00  0.00     0.031 A 
ATOM     40  C   UNL     1       6.844   1.174 -17.926  1.00  0.00     0.074 A 
ATOM     41  C   UNL     1       6.470   3.474 -17.091  1.00  0.00     0.049 A 
ATOM     42  N   UNL     1       7.996   1.304 -18.532  1.00  0.00    -0.248 NA
ATOM     43  C   UNL     1       6.296  -0.190 -17.967  1.00  0.00     0.031 C 
ATOM     44  C   UNL     1       5.793   4.548 -16.361  1.00  0.00     0.029 A 
ATOM     45  N   UNL     1       7.587   4.079 -17.610  1.00  0.00    -0.354 N 
ATOM     46  C   UNL     1       8.322   0.037 -19.008  1.00  0.00     0.074 A 
ATOM     47  C   UNL     1       7.272  -0.856 -18.566  1.00  0.00     0.031 C 
ATOM     48  C   UNL     1       6.495   5.684 -16.498  1.00  0.00     0.029 A 
ATOM     49  C   UNL     1       7.691   5.413 -17.290  1.00  0.00     0.049 A 
ATOM     50  H   UNL     1       8.251   3.604 -18.159  1.00  0.00     0.167 HD
ATOM     51  C   UNL     1       9.385  -0.341 -19.762  1.00  0.00     0.034 A 
ATOM     52  C   UNL     1       8.647   6.314 -17.593  1.00  0.00     0.034 A 
ATOM     53  C   UNL     1      10.411   0.570 -20.211  1.00  0.00     0.049 A 
ATOM     54  C   UNL     1       9.816   5.874 -18.437  1.00  0.00     0.074 A 
ATOM     55  C   UNL     1      11.502   0.312 -21.022  1.00  0.00     0.029 A 
ATOM     56  N   UNL     1      10.473   1.919 -19.883  1.00  0.00    -0.354 N 
ATOM     57  N   UNL     1      10.085   4.682 -18.919  1.00  0.00    -0.248 NA
ATOM     58  C   UNL     1      10.800   6.904 -18.791  1.00  0.00     0.031 C 
ATOM     59  C   UNL     1      12.255   1.487 -21.135  1.00  0.00     0.029 A 
ATOM     60  C   UNL     1      11.596   2.499 -20.455  1.00  0.00     0.049 A 
ATOM     61  H   UNL     1       9.816   2.395 -19.325  1.00  0.00     0.167 HD
ATOM     62  C   UNL     1      11.256   4.827 -19.657  1.00  0.00     0.074 A 
ATOM     63  C   UNL     1      11.628   6.225 -19.571  1.00  0.00     0.031 C 
ATOM     64  C   UNL     1      11.959   3.893 -20.347  1.00  0.00     0.034 A 
BRANCH  51  65
ATOM     65  C   UNL     1       9.496  -1.805 -20.122  1.00  0.00     0.023 A 
ATOM     66  C   UNL     1       8.520  -2.452 -20.901  1.00  0.00     0.031 A 
ATOM     67  C   UNL     1      10.574  -2.576 -19.652  1.00  0.00     0.131 A 
ATOM     68  C   UNL     1       8.594  -3.837 -21.113  1.00  0.00     0.055 A 
ATOM     69  C   UNL     1      10.687  -3.939 -19.938  1.00  0.00     0.041 A 
ATOM     70  F   UNL     1      11.530  -2.022 -18.889  1.00  0.00    -0.206 F 
ATOM     71  C   UNL     1       9.684  -4.581 -20.658  1.00  0.00     0.022 A 
BRANCH  68  72
ATOM     72  S   UNL     1       7.169  -4.677 -21.858  1.00  0.00     0.124 S 
ATOM     73  O   UNL     1       6.107  -4.353 -20.909  1.00  0.00    -0.237 OA
ATOM     74  O   UNL     1       7.074  -4.036 -23.166  1.00  0.00    -0.237 OA
ATOM     75  O   UNL     1       7.570  -6.081 -21.879  1.00  0.00    -0.744 OA
ENDBRANCH  68  72
ENDBRANCH  51  65
BRANCH  52  76
ATOM     76  C   UNL     1       8.544   7.717 -17.102  1.00  0.00     0.023 A 
ATOM     77  C   UNL     1       8.373   8.785 -17.996  1.00  0.00     0.031 A 
ATOM     78  C   UNL     1       8.646   8.014 -15.731  1.00  0.00     0.131 A 
ATOM     79  C   UNL     1       8.352  10.104 -17.516  1.00  0.00     0.055 A 
ATOM     80  C   UNL     1       8.576   9.323 -15.253  1.00  0.00     0.041 A 
ATOM     81  F   UNL     1       8.801   7.028 -14.833  1.00  0.00    -0.206 F 
ATOM     82  C   UNL     1       8.441  10.379 -16.149  1.00  0.00     0.022 A 
BRANCH  79  83
ATOM     83  S   UNL     1       8.284  11.464 -18.714  1.00  0.00     0.124 S 
ATOM     84  O   UNL     1       9.470  11.208 -19.523  1.00  0.00    -0.237 OA
ATOM     85  O   UNL     1       7.000  11.228 -19.366  1.00  0.00    -0.237 OA
ATOM     86  O   UNL     1       8.344  12.659 -17.875  1.00  0.00    -0.744 OA
ENDBRANCH  79  83
ENDBRANCH  52  76
BRANCH  64  87
ATOM     87  C   UNL     1      13.178   4.374 -21.095  1.00  0.00     0.023 A 
ATOM     88  C   UNL     1      14.317   4.851 -20.422  1.00  0.00     0.031 A 
ATOM     89  C   UNL     1      13.189   4.376 -22.501  1.00  0.00     0.131 A 
ATOM     90  C   UNL     1      15.395   5.367 -21.156  1.00  0.00     0.055 A 
ATOM     91  C   UNL     1      14.290   4.834 -23.226  1.00  0.00     0.041 A 
ATOM     92  F   UNL     1      12.127   3.933 -23.193  1.00  0.00    -0.206 F 
ATOM     93  C   UNL     1      15.395   5.347 -22.553  1.00  0.00     0.022 A 
BRANCH  90  94
ATOM     94  S   UNL     1      16.758   6.158 -20.258  1.00  0.00     0.124 S 
ATOM     95  O   UNL     1      16.066   7.209 -19.519  1.00  0.00    -0.237 OA
ATOM     96  O   UNL     1      17.285   5.058 -19.458  1.00  0.00    -0.237 OA
ATOM     97  O   UNL     1      17.642   6.629 -21.323  1.00  0.00    -0.744 OA
ENDBRANCH  90  94
ENDBRANCH  64  87
ENDBRANCH  38  39
ENDBRANCH  30  33
ENDBRANCH  28  29
ENDBRANCH  27  28
ENDBRANCH  26  27
ENDBRANCH   3  26
TORSDOF 18
