REMARK SMILES Cc1cc(Br)cnc1Sc1nc(CC(=O)NCCCNC(=O)c2ccc(-c3c4nc(c(-c5cc(S(=O)(=O)[O-])ccc5F)c5ccc([nH]5)c(-c5cc(S(=O)(=O)[O-])ccc5F)c5nc(c(-c6cc(S(=O)(=O)[O-])ccc6F)c6ccc3[nH]6)C=C5)C=C4)cc2)cs1
REMARK SMILES IDX 18 1 17 2 16 3 14 4 15 5 13 7 12 8 10 9 11 10 87 11 86 12
REMARK SMILES IDX 9 13 8 14 1 15 2 16 3 17 4 18 7 19 5 20 6 21 19 22 20 23
REMARK SMILES IDX 21 24 22 26 23 27 24 28 85 29 25 30 84 31 26 32 27 33 28 34
REMARK SMILES IDX 78 35 29 36 83 37 77 38 79 39 30 40 82 41 76 42 75 43 31 45
REMARK SMILES IDX 63 46 43 47 62 48 44 49 47 50 61 51 80 52 45 53 46 54 60 56
REMARK SMILES IDX 81 57 48 58 32 59 33 60 41 61 34 62 40 63 42 64 39 65 35 66
REMARK SMILES IDX 36 67 37 68 38 69 64 70 65 71 73 72 66 73 72 74 74 75 71 76
REMARK SMILES IDX 67 77 68 78 69 79 70 80 49 81 50 82 58 83 51 84 57 85 59 86
REMARK SMILES IDX 56 87 52 88 53 89 54 90 55 91
REMARK H PARENT 16 6 20 25 79 44 47 55
REMARK Flexibility Score: inf
ROOT
ATOM      1  C   UNL     1       7.848  -0.385  -3.135  1.00  0.00     0.042 C 
ENDROOT
BRANCH   1   2
ATOM      2  C   UNL     1       7.253  -1.623  -3.801  1.00  0.00     0.117 C 
BRANCH   2   3
ATOM      3  N   UNL     1       7.915  -2.848  -3.382  1.00  0.00    -0.356 N 
ATOM      4  C   UNL     1       7.526  -3.736  -2.421  1.00  0.00     0.226 C 
ATOM      5  O   UNL     1       8.266  -4.686  -2.154  1.00  0.00    -0.275 OA
ATOM      6  H   UNL     1       8.752  -3.065  -3.853  1.00  0.00     0.163 HD
BRANCH   4   7
ATOM      7  C   UNL     1       6.192  -3.563  -1.728  1.00  0.00     0.157 C 
BRANCH   7   8
ATOM      8  C   UNL     1       6.204  -2.445  -0.743  1.00  0.00     0.062 A 
ATOM      9  C   UNL     1       5.422  -0.528   0.059  1.00  0.00     0.156 A 
ATOM     10  N   UNL     1       5.326  -1.382  -0.936  1.00  0.00    -0.234 NA
ATOM     11  S   UNL     1       6.633  -0.892   1.223  1.00  0.00    -0.116 S 
ATOM     12  C   UNL     1       6.993  -2.341   0.387  1.00  0.00     0.092 A 
BRANCH   9  13
ATOM     13  S   UNL     1       4.472   0.914   0.172  1.00  0.00    -0.039 SA
BRANCH  13  14
ATOM     14  C   UNL     1       2.762   0.439   0.069  1.00  0.00     0.106 A 
ATOM     15  C   UNL     1       2.833  -2.117   0.482  1.00  0.00     0.047 C 
ATOM     16  C   UNL     1       2.142  -0.809   0.240  1.00  0.00    -0.017 A 
ATOM     17  C   UNL     1       0.732  -0.870   0.154  1.00  0.00     0.023 A 
ATOM     18  C   UNL     1      -0.019   0.277  -0.042  1.00  0.00     0.036 A 
ATOM     19  N   UNL     1       2.003   1.558  -0.130  1.00  0.00    -0.248 NA
ATOM     20  Br  UNL     1      -1.899   0.204  -0.106  1.00  0.00    -0.049 Br
ATOM     21  C   UNL     1       0.656   1.465  -0.174  1.00  0.00     0.128 A 
ENDBRANCH  13  14
ENDBRANCH   9  13
ENDBRANCH   7   8
ENDBRANCH   4   7
ENDBRANCH   2   3
ENDBRANCH   1   2
BRANCH   1  22
ATOM     22  C   UNL     1       9.290  -0.089  -3.533  1.00  0.00     0.118 C 
BRANCH  22  23
ATOM     23  N   UNL     1       9.420   0.240  -4.943  1.00  0.00    -0.352 N 
ATOM     24  C   UNL     1       9.980   1.334  -5.547  1.00  0.00     0.251 C 
ATOM     25  H   UNL     1       9.047  -0.429  -5.562  1.00  0.00     0.163 HD
ATOM     26  O   UNL     1       9.793   1.497  -6.758  1.00  0.00    -0.269 OA
BRANCH  24  27
ATOM     27  C   UNL     1      10.786   2.316  -4.785  1.00  0.00     0.039 A 
ATOM     28  C   UNL     1      10.705   3.667  -5.141  1.00  0.00     0.014 A 
ATOM     29  C   UNL     1      11.670   1.920  -3.777  1.00  0.00     0.014 A 
ATOM     30  C   UNL     1      11.483   4.616  -4.473  1.00  0.00     0.010 A 
ATOM     31  C   UNL     1      12.391   2.877  -3.062  1.00  0.00     0.010 A 
ATOM     32  C   UNL     1      12.323   4.232  -3.417  1.00  0.00    -0.014 A 
BRANCH  32  33
ATOM     33  C   UNL     1      13.185   5.225  -2.720  1.00  0.00     0.031 A 
ATOM     34  C   UNL     1      14.684   5.119  -2.825  1.00  0.00     0.074 A 
ATOM     35  C   UNL     1      12.627   6.195  -1.969  1.00  0.00     0.049 A 
ATOM     36  N   UNL     1      15.611   5.836  -2.241  1.00  0.00    -0.248 NA
ATOM     37  C   UNL     1      15.209   4.042  -3.678  1.00  0.00     0.031 C 
ATOM     38  C   UNL     1      11.189   6.386  -1.769  1.00  0.00     0.029 A 
ATOM     39  N   UNL     1      13.201   7.200  -1.232  1.00  0.00    -0.354 N 
ATOM     40  C   UNL     1      16.826   5.288  -2.644  1.00  0.00     0.074 A 
ATOM     41  C   UNL     1      16.512   4.139  -3.467  1.00  0.00     0.031 C 
ATOM     42  C   UNL     1      10.994   7.457  -0.982  1.00  0.00     0.029 A 
ATOM     43  C   UNL     1      12.289   8.005  -0.589  1.00  0.00     0.049 A 
ATOM     44  H   UNL     1      14.174   7.333  -1.169  1.00  0.00     0.167 HD
ATOM     45  C   UNL     1      18.085   5.715  -2.373  1.00  0.00     0.034 A 
ATOM     46  C   UNL     1      12.476   9.060   0.229  1.00  0.00     0.034 A 
ATOM     47  C   UNL     1      18.381   6.873  -1.564  1.00  0.00     0.049 A 
ATOM     48  C   UNL     1      13.885   9.512   0.525  1.00  0.00     0.074 A 
ATOM     49  C   UNL     1      19.616   7.414  -1.248  1.00  0.00     0.029 A 
ATOM     50  N   UNL     1      17.429   7.673  -0.944  1.00  0.00    -0.354 N 
ATOM     51  N   UNL     1      15.022   8.999   0.115  1.00  0.00    -0.248 NA
ATOM     52  C   UNL     1      14.034  10.697   1.379  1.00  0.00     0.031 C 
ATOM     53  C   UNL     1      19.414   8.504  -0.394  1.00  0.00     0.029 A 
ATOM     54  C   UNL     1      18.050   8.691  -0.236  1.00  0.00     0.049 A 
ATOM     55  H   UNL     1      16.456   7.537  -0.999  1.00  0.00     0.167 HD
ATOM     56  C   UNL     1      16.018   9.826   0.628  1.00  0.00     0.074 A 
ATOM     57  C   UNL     1      15.346  10.874   1.368  1.00  0.00     0.031 C 
ATOM     58  C   UNL     1      17.366   9.732   0.495  1.00  0.00     0.034 A 
BRANCH  45  59
ATOM     59  C   UNL     1      19.228   4.907  -2.942  1.00  0.00     0.023 A 
ATOM     60  C   UNL     1      19.411   4.764  -4.330  1.00  0.00     0.031 A 
ATOM     61  C   UNL     1      20.126   4.240  -2.090  1.00  0.00     0.131 A 
ATOM     62  C   UNL     1      20.409   3.909  -4.821  1.00  0.00     0.055 A 
ATOM     63  C   UNL     1      21.172   3.459  -2.588  1.00  0.00     0.041 A 
ATOM     64  F   UNL     1      19.992   4.321  -0.757  1.00  0.00    -0.206 F 
ATOM     65  C   UNL     1      21.308   3.276  -3.961  1.00  0.00     0.022 A 
BRANCH  62  66
ATOM     66  S   UNL     1      20.417   3.516  -6.592  1.00  0.00     0.124 S 
ATOM     67  O   UNL     1      19.098   2.912  -6.765  1.00  0.00    -0.237 OA
ATOM     68  O   UNL     1      20.605   4.826  -7.205  1.00  0.00    -0.237 OA
ATOM     69  O   UNL     1      21.541   2.593  -6.734  1.00  0.00    -0.744 OA
ENDBRANCH  62  66
ENDBRANCH  45  59
BRANCH  46  70
ATOM     70  C   UNL     1      11.310   9.771   0.829  1.00  0.00     0.023 A 
ATOM     71  C   UNL     1      11.037  11.109   0.506  1.00  0.00     0.031 A 
ATOM     72  C   UNL     1      10.482   9.138   1.772  1.00  0.00     0.131 A 
ATOM     73  C   UNL     1       9.999  11.790   1.160  1.00  0.00     0.055 A 
ATOM     74  C   UNL     1       9.415   9.802   2.380  1.00  0.00     0.041 A 
ATOM     75  F   UNL     1      10.695   7.856   2.112  1.00  0.00    -0.206 F 
ATOM     76  C   UNL     1       9.178  11.142   2.086  1.00  0.00     0.022 A 
BRANCH  73  77
ATOM     77  S   UNL     1       9.795  13.565   0.851  1.00  0.00     0.124 S 
ATOM     78  O   UNL     1      11.106  14.084   1.223  1.00  0.00    -0.237 OA
ATOM     79  O   UNL     1       9.475  13.590  -0.572  1.00  0.00    -0.237 OA
ATOM     80  O   UNL     1       8.699  13.942   1.741  1.00  0.00    -0.744 OA
ENDBRANCH  73  77
ENDBRANCH  46  70
BRANCH  58  81
ATOM     81  C   UNL     1      18.194  10.834   1.109  1.00  0.00     0.023 A 
ATOM     82  C   UNL     1      18.272  11.021   2.500  1.00  0.00     0.031 A 
ATOM     83  C   UNL     1      18.901  11.724   0.281  1.00  0.00     0.131 A 
ATOM     84  C   UNL     1      18.992  12.108   3.019  1.00  0.00     0.055 A 
ATOM     85  C   UNL     1      19.664  12.768   0.806  1.00  0.00     0.041 A 
ATOM     86  F   UNL     1      18.861  11.593  -1.055  1.00  0.00    -0.206 F 
ATOM     87  C   UNL     1      19.700  12.973   2.182  1.00  0.00     0.022 A 
BRANCH  84  88
ATOM     88  S   UNL     1      18.911  12.435   4.802  1.00  0.00     0.124 S 
ATOM     89  O   UNL     1      17.475  12.579   5.020  1.00  0.00    -0.237 OA
ATOM     90  O   UNL     1      19.524  11.237   5.366  1.00  0.00    -0.237 OA
ATOM     91  O   UNL     1      19.689  13.662   4.961  1.00  0.00    -0.744 OA
ENDBRANCH  84  88
ENDBRANCH  58  81
ENDBRANCH  32  33
ENDBRANCH  24  27
ENDBRANCH  22  23
ENDBRANCH   1  22
TORSDOF 16
