REMARK SMILES Cc1cc([C@@H]([NH3+])C[C@H](C)CC(=O)NCCCNC(=O)c2ccc(-c3c4nc(c(-c5cc(S(=O)(=O)[O-])ccc5F)c5ccc([nH]5)c(-c5cc(S(=O)(=O)[O-])ccc5F)c5nc(c(-c6cc(S(=O)(=O)[O-])ccc6F)c6ccc3[nH]6)C=C5)C=C4)cc2)ccc1F
REMARK SMILES IDX 14 1 13 2 11 3 12 4 10 6 8 7 9 8 7 9 5 10 4 11 1 12 2 13
REMARK SMILES IDX 3 14 85 15 84 16 86 17 83 18 6 19 15 23 16 24 17 25 18 26
REMARK SMILES IDX 19 28 20 29 21 30 82 31 22 32 81 33 23 34 24 35 25 36 75 37
REMARK SMILES IDX 26 38 80 39 74 40 76 41 27 42 79 43 73 44 72 45 28 47 60 48
REMARK SMILES IDX 40 49 59 50 41 51 44 52 58 53 77 54 42 55 43 56 57 58 78 59
REMARK SMILES IDX 45 60 29 61 30 62 38 63 31 64 37 65 39 66 36 67 32 68 33 69
REMARK SMILES IDX 34 70 35 71 61 72 62 73 70 74 63 75 69 76 71 77 68 78 64 79
REMARK SMILES IDX 65 80 66 81 67 82 46 83 47 84 55 85 48 86 54 87 56 88 53 89
REMARK SMILES IDX 49 90 50 91 51 92 52 93
REMARK H PARENT 13 5 6 20 6 21 6 22 17 27 76 46 44 57
REMARK Flexibility Score: inf
ROOT
ATOM      1  C   UNL     1      -6.274  -0.932   2.512  1.00  0.00     0.117 C 
ENDROOT
BRANCH   1   2
ATOM      2  N   UNL     1      -5.272  -1.258   3.507  1.00  0.00    -0.356 N 
ATOM      3  C   UNL     1      -4.368  -0.429   4.104  1.00  0.00     0.220 C 
ATOM      4  O   UNL     1      -3.558  -0.914   4.896  1.00  0.00    -0.275 OA
ATOM      5  H   UNL     1      -5.238  -2.201   3.788  1.00  0.00     0.163 HD
BRANCH   3   6
ATOM      6  C   UNL     1      -4.380   1.071   3.808  1.00  0.00     0.103 C 
BRANCH   6   7
ATOM      7  C   UNL     1      -3.783   1.429   2.428  1.00  0.00     0.001 C 
ATOM      8  C   UNL     1      -4.876   1.956   1.473  1.00  0.00     0.008 C 
BRANCH   7   9
ATOM      9  C   UNL     1      -2.638   2.467   2.490  1.00  0.00     0.074 C 
BRANCH   9  10
ATOM     10  C   UNL     1      -1.582   2.318   1.358  1.00  0.00     0.212 C 
BRANCH  10  11
ATOM     11  C   UNL     1      -2.147   2.128  -0.042  1.00  0.00     0.010 A 
ATOM     12  C   UNL     1      -2.941  -0.796  -2.392  1.00  0.00     0.047 C 
ATOM     13  C   UNL     1      -2.837   0.590  -1.825  1.00  0.00    -0.015 A 
ATOM     14  C   UNL     1      -2.184   0.834  -0.607  1.00  0.00     0.016 A 
ATOM     15  C   UNL     1      -3.411   1.667  -2.500  1.00  0.00     0.126 A 
ATOM     16  C   UNL     1      -3.353   2.957  -1.983  1.00  0.00     0.040 A 
ATOM     17  F   UNL     1      -4.053   1.465  -3.659  1.00  0.00    -0.207 F 
ATOM     18  C   UNL     1      -2.724   3.189  -0.758  1.00  0.00     0.013 A 
ENDBRANCH  10  11
BRANCH  10  19
ATOM     19  N   UNL     1      -0.683   3.478   1.411  1.00  0.00    -0.351 N 
ATOM     20  H   UNL     1      -1.216   4.329   1.229  1.00  0.00     0.345 HD
ATOM     21  H   UNL     1       0.046   3.376   0.706  1.00  0.00     0.345 HD
ATOM     22  H   UNL     1      -0.257   3.536   2.336  1.00  0.00     0.345 HD
ENDBRANCH  10  19
ENDBRANCH   9  10
ENDBRANCH   7   9
ENDBRANCH   6   7
ENDBRANCH   3   6
ENDBRANCH   1   2
BRANCH   1  23
ATOM     23  C   UNL     1      -5.674  -0.940   1.117  1.00  0.00     0.042 C 
BRANCH  23  24
ATOM     24  C   UNL     1      -5.791  -2.284   0.484  1.00  0.00     0.118 C 
BRANCH  24  25
ATOM     25  N   UNL     1      -7.059  -2.413  -0.221  1.00  0.00    -0.352 N 
ATOM     26  C   UNL     1      -7.239  -2.936  -1.482  1.00  0.00     0.251 C 
ATOM     27  H   UNL     1      -7.865  -2.097   0.249  1.00  0.00     0.163 HD
ATOM     28  O   UNL     1      -8.236  -2.588  -2.132  1.00  0.00    -0.269 OA
BRANCH  26  29
ATOM     29  C   UNL     1      -6.246  -3.901  -1.982  1.00  0.00     0.039 A 
ATOM     30  C   UNL     1      -6.063  -4.227  -3.324  1.00  0.00     0.014 A 
ATOM     31  C   UNL     1      -5.485  -4.547  -1.014  1.00  0.00     0.014 A 
ATOM     32  C   UNL     1      -5.185  -5.265  -3.634  1.00  0.00     0.010 A 
ATOM     33  C   UNL     1      -4.365  -5.216  -1.351  1.00  0.00     0.010 A 
ATOM     34  C   UNL     1      -4.389  -5.780  -2.608  1.00  0.00    -0.014 A 
BRANCH  34  35
ATOM     35  C   UNL     1      -3.636  -7.014  -2.618  1.00  0.00     0.031 A 
ATOM     36  C   UNL     1      -2.507  -7.134  -3.525  1.00  0.00     0.074 A 
ATOM     37  C   UNL     1      -3.922  -7.892  -1.621  1.00  0.00     0.049 A 
ATOM     38  N   UNL     1      -2.089  -8.248  -4.003  1.00  0.00    -0.248 NA
ATOM     39  C   UNL     1      -1.779  -5.964  -4.012  1.00  0.00     0.031 C 
ATOM     40  C   UNL     1      -3.144  -8.997  -1.091  1.00  0.00     0.029 A 
ATOM     41  N   UNL     1      -5.051  -7.931  -0.797  1.00  0.00    -0.354 N 
ATOM     42  C   UNL     1      -0.829  -7.981  -4.484  1.00  0.00     0.074 A 
ATOM     43  C   UNL     1      -0.810  -6.555  -4.715  1.00  0.00     0.031 C 
ATOM     44  C   UNL     1      -3.948  -9.751  -0.309  1.00  0.00     0.029 A 
ATOM     45  C   UNL     1      -5.306  -9.254  -0.474  1.00  0.00     0.049 A 
ATOM     46  H   UNL     1      -5.575  -7.152  -0.499  1.00  0.00     0.167 HD
ATOM     47  C   UNL     1       0.133  -8.937  -4.335  1.00  0.00     0.034 A 
ATOM     48  C   UNL     1      -6.357  -9.923  -1.047  1.00  0.00     0.034 A 
ATOM     49  C   UNL     1      -0.437 -10.148  -3.704  1.00  0.00     0.049 A 
ATOM     50  C   UNL     1      -5.875 -11.018  -1.994  1.00  0.00     0.074 A 
ATOM     51  C   UNL     1      -0.333 -10.699  -2.435  1.00  0.00     0.029 A 
ATOM     52  N   UNL     1      -1.535 -10.776  -4.286  1.00  0.00    -0.354 N 
ATOM     53  N   UNL     1      -4.621 -11.248  -2.270  1.00  0.00    -0.248 NA
ATOM     54  C   UNL     1      -6.771 -11.859  -2.782  1.00  0.00     0.031 C 
ATOM     55  C   UNL     1      -1.396 -11.641  -2.261  1.00  0.00     0.029 A 
ATOM     56  C   UNL     1      -2.135 -11.690  -3.429  1.00  0.00     0.049 A 
ATOM     57  H   UNL     1      -1.850 -10.592  -5.200  1.00  0.00     0.167 HD
ATOM     58  C   UNL     1      -4.517 -12.124  -3.313  1.00  0.00     0.074 A 
ATOM     59  C   UNL     1      -5.899 -12.489  -3.589  1.00  0.00     0.031 C 
ATOM     60  C   UNL     1      -3.314 -12.434  -3.892  1.00  0.00     0.034 A 
BRANCH  47  61
ATOM     61  C   UNL     1       1.626  -8.657  -4.459  1.00  0.00     0.023 A 
ATOM     62  C   UNL     1       2.184  -7.450  -4.943  1.00  0.00     0.031 A 
ATOM     63  C   UNL     1       2.573  -9.613  -4.042  1.00  0.00     0.131 A 
ATOM     64  C   UNL     1       3.569  -7.197  -4.938  1.00  0.00     0.055 A 
ATOM     65  C   UNL     1       3.956  -9.377  -4.060  1.00  0.00     0.041 A 
ATOM     66  F   UNL     1       2.200 -10.814  -3.579  1.00  0.00    -0.206 F 
ATOM     67  C   UNL     1       4.463  -8.161  -4.496  1.00  0.00     0.022 A 
BRANCH  64  68
ATOM     68  S   UNL     1       4.231  -5.584  -5.461  1.00  0.00     0.124 S 
ATOM     69  O   UNL     1       5.007  -5.173  -4.292  1.00  0.00    -0.237 OA
ATOM     70  O   UNL     1       5.017  -5.934  -6.639  1.00  0.00    -0.237 OA
ATOM     71  O   UNL     1       3.039  -4.779  -5.718  1.00  0.00    -0.744 OA
ENDBRANCH  64  68
ENDBRANCH  47  61
BRANCH  48  72
ATOM     72  C   UNL     1      -7.536  -9.029  -1.331  1.00  0.00     0.023 A 
ATOM     73  C   UNL     1      -7.795  -8.563  -2.630  1.00  0.00     0.031 A 
ATOM     74  C   UNL     1      -8.117  -8.319  -0.254  1.00  0.00     0.131 A 
ATOM     75  C   UNL     1      -8.486  -7.351  -2.813  1.00  0.00     0.055 A 
ATOM     76  C   UNL     1      -8.755  -7.089  -0.439  1.00  0.00     0.041 A 
ATOM     77  F   UNL     1      -7.931  -8.737   1.010  1.00  0.00    -0.206 F 
ATOM     78  C   UNL     1      -8.906  -6.580  -1.724  1.00  0.00     0.022 A 
BRANCH  75  79
ATOM     79  S   UNL     1      -8.737  -6.714  -4.498  1.00  0.00     0.124 S 
ATOM     80  O   UNL     1      -9.979  -7.383  -4.872  1.00  0.00    -0.237 OA
ATOM     81  O   UNL     1      -8.843  -5.272  -4.304  1.00  0.00    -0.237 OA
ATOM     82  O   UNL     1      -7.536  -7.156  -5.196  1.00  0.00    -0.744 OA
ENDBRANCH  75  79
ENDBRANCH  48  72
BRANCH  60  83
ATOM     83  C   UNL     1      -3.136 -13.439  -5.010  1.00  0.00     0.023 A 
ATOM     84  C   UNL     1      -1.995 -13.360  -5.842  1.00  0.00     0.031 A 
ATOM     85  C   UNL     1      -3.968 -14.547  -5.232  1.00  0.00     0.131 A 
ATOM     86  C   UNL     1      -1.770 -14.265  -6.882  1.00  0.00     0.055 A 
ATOM     87  C   UNL     1      -3.781 -15.420  -6.312  1.00  0.00     0.041 A 
ATOM     88  F   UNL     1      -4.941 -14.878  -4.372  1.00  0.00    -0.206 F 
ATOM     89  C   UNL     1      -2.686 -15.273  -7.153  1.00  0.00     0.022 A 
BRANCH  86  90
ATOM     90  S   UNL     1      -0.238 -14.201  -7.849  1.00  0.00     0.124 S 
ATOM     91  O   UNL     1       0.350 -15.507  -7.556  1.00  0.00    -0.237 OA
ATOM     92  O   UNL     1      -0.746 -14.034  -9.208  1.00  0.00    -0.237 OA
ATOM     93  O   UNL     1       0.480 -13.057  -7.302  1.00  0.00    -0.744 OA
ENDBRANCH  86  90
ENDBRANCH  60  83
ENDBRANCH  34  35
ENDBRANCH  26  29
ENDBRANCH  24  25
ENDBRANCH  23  24
ENDBRANCH   1  23
TORSDOF 18
