REMARK SMILES CC(C)[NH2+][C@]1(C(=O)NCCCNC(=O)c2ccc(-c3c4nc(c(-c5cc(S(=O)(=O)[O-])ccc5F)c5ccc([nH]5)c(-c5cc(S(=O)(=O)[O-])ccc5F)c5nc(c(-c6cc(S(=O)(=O)[O-])ccc6F)c6ccc3[nH]6)C=C5)C=C4)cc2)CCC[C@@H]1CCN1C(=O)CCC1=O
REMARK SMILES IDX 10 1 9 2 8 3 6 4 7 5 5 7 78 8 81 9 79 10 80 11 4 12 2 15
REMARK SMILES IDX 1 16 3 17 82 18 83 19 84 20 85 21 89 22 86 23 87 24 88 25
REMARK SMILES IDX 90 26 11 27 12 28 13 29 14 31 15 32 16 33 77 34 17 35 76 36
REMARK SMILES IDX 18 37 19 38 20 39 70 40 21 41 75 42 69 43 71 44 22 45 74 46
REMARK SMILES IDX 68 47 67 48 23 50 55 51 35 52 54 53 36 54 39 55 53 56 72 57
REMARK SMILES IDX 37 58 38 59 52 61 73 62 40 63 24 64 25 65 33 66 26 67 32 68
REMARK SMILES IDX 34 69 31 70 27 71 28 72 29 73 30 74 56 75 57 76 65 77 58 78
REMARK SMILES IDX 64 79 66 80 63 81 59 82 60 83 61 84 62 85 41 86 42 87 50 88
REMARK SMILES IDX 43 89 49 90 51 91 48 92 44 93 45 94 46 95 47 96
REMARK H PARENT 8 6 4 13 4 14 12 30 71 49 39 60
REMARK Flexibility Score: inf
ROOT
ATOM      1  C   UNL     1       1.236  -2.686   0.032  1.00  0.00     0.042 C 
ENDROOT
BRANCH   1   2
ATOM      2  C   UNL     1       0.552  -1.329   0.176  1.00  0.00     0.118 C 
BRANCH   2   3
ATOM      3  N   UNL     1      -0.831  -1.444   0.668  1.00  0.00    -0.351 N 
ATOM      4  C   UNL     1      -1.463  -0.476   1.442  1.00  0.00     0.281 C 
ATOM      5  O   UNL     1      -1.828   0.583   0.920  1.00  0.00    -0.268 OA
ATOM      6  H   UNL     1      -1.339  -2.254   0.436  1.00  0.00     0.163 HD
BRANCH   4   7
ATOM      7  C   UNL     1      -2.009  -0.903   2.887  1.00  0.00     0.178 C 
ATOM      8  C   UNL     1      -3.542  -1.018   2.698  1.00  0.00     0.079 C 
ATOM      9  C   UNL     1      -1.586  -2.331   3.276  1.00  0.00     0.062 C 
ATOM     10  C   UNL     1      -4.030  -2.058   3.688  1.00  0.00     0.008 C 
ATOM     11  C   UNL     1      -2.834  -2.980   3.938  1.00  0.00     0.011 C 
BRANCH   7  12
ATOM     12  N   UNL     1      -1.662   0.143   3.910  1.00  0.00    -0.331 N 
ATOM     13  H   UNL     1      -0.644   0.177   3.962  1.00  0.00     0.347 HD
ATOM     14  H   UNL     1      -2.145   0.974   3.566  1.00  0.00     0.347 HD
BRANCH  12  15
ATOM     15  C   UNL     1      -2.154   0.019   5.295  1.00  0.00     0.176 C 
ATOM     16  C   UNL     1      -1.051   0.084   6.363  1.00  0.00     0.075 C 
ATOM     17  C   UNL     1      -3.130   1.151   5.616  1.00  0.00     0.075 C 
ENDBRANCH  12  15
ENDBRANCH   7  12
BRANCH   9  18
ATOM     18  C   UNL     1      -0.280  -2.485   4.097  1.00  0.00     0.033 C 
BRANCH  18  19
ATOM     19  C   UNL     1       1.009  -1.734   3.642  1.00  0.00     0.129 C 
BRANCH  19  20
ATOM     20  N   UNL     1       1.221  -0.321   4.001  1.00  0.00    -0.283 N 
ATOM     21  C   UNL     1       1.893   0.041   5.135  1.00  0.00     0.229 C 
ATOM     22  C   UNL     1       1.055   0.782   3.216  1.00  0.00     0.229 C 
ATOM     23  O   UNL     1       2.373  -0.705   5.973  1.00  0.00    -0.274 OA
ATOM     24  C   UNL     1       2.025   1.539   5.190  1.00  0.00     0.110 C 
ATOM     25  C   UNL     1       1.231   2.023   4.012  1.00  0.00     0.110 C 
ATOM     26  O   UNL     1       0.835   0.872   2.010  1.00  0.00    -0.274 OA
ENDBRANCH  19  20
ENDBRANCH  18  19
ENDBRANCH   9  18
ENDBRANCH   4   7
ENDBRANCH   2   3
ENDBRANCH   1   2
BRANCH   1  27
ATOM     27  C   UNL     1       2.381  -2.666  -0.969  1.00  0.00     0.118 C 
BRANCH  27  28
ATOM     28  N   UNL     1       3.550  -1.881  -0.590  1.00  0.00    -0.352 N 
ATOM     29  C   UNL     1       4.886  -2.157  -0.831  1.00  0.00     0.251 C 
ATOM     30  H   UNL     1       3.367  -1.048  -0.099  1.00  0.00     0.163 HD
ATOM     31  O   UNL     1       5.754  -1.404  -0.397  1.00  0.00    -0.269 OA
BRANCH  29  32
ATOM     32  C   UNL     1       5.269  -3.392  -1.562  1.00  0.00     0.039 A 
ATOM     33  C   UNL     1       6.357  -4.148  -1.119  1.00  0.00     0.014 A 
ATOM     34  C   UNL     1       4.514  -3.843  -2.646  1.00  0.00     0.014 A 
ATOM     35  C   UNL     1       6.617  -5.394  -1.700  1.00  0.00     0.010 A 
ATOM     36  C   UNL     1       4.682  -5.138  -3.119  1.00  0.00     0.010 A 
ATOM     37  C   UNL     1       5.745  -5.927  -2.666  1.00  0.00    -0.014 A 
BRANCH  37  38
ATOM     38  C   UNL     1       5.940  -7.293  -3.223  1.00  0.00     0.031 A 
ATOM     39  C   UNL     1       6.116  -7.486  -4.709  1.00  0.00     0.074 A 
ATOM     40  C   UNL     1       5.896  -8.359  -2.398  1.00  0.00     0.049 A 
ATOM     41  N   UNL     1       6.279  -8.593  -5.387  1.00  0.00    -0.248 NA
ATOM     42  C   UNL     1       6.055  -6.279  -5.548  1.00  0.00     0.031 C 
ATOM     43  C   UNL     1       5.641  -8.302  -0.955  1.00  0.00     0.029 A 
ATOM     44  N   UNL     1       6.069  -9.698  -2.645  1.00  0.00    -0.354 N 
ATOM     45  C   UNL     1       6.322  -8.214  -6.726  1.00  0.00     0.074 A 
ATOM     46  C   UNL     1       6.075  -6.791  -6.768  1.00  0.00     0.031 C 
ATOM     47  C   UNL     1       5.734  -9.538  -0.440  1.00  0.00     0.029 A 
ATOM     48  C   UNL     1       6.006 -10.483  -1.516  1.00  0.00     0.049 A 
ATOM     49  H   UNL     1       6.225 -10.062  -3.546  1.00  0.00     0.167 HD
ATOM     50  C   UNL     1       6.580  -8.976  -7.818  1.00  0.00     0.034 A 
ATOM     51  C   UNL     1       6.158 -11.814  -1.365  1.00  0.00     0.034 A 
ATOM     52  C   UNL     1       6.845 -10.392  -7.747  1.00  0.00     0.049 A 
ATOM     53  C   UNL     1       6.471 -12.638  -2.588  1.00  0.00     0.074 A 
ATOM     54  C   UNL     1       7.186 -11.259  -8.770  1.00  0.00     0.029 A 
ATOM     55  N   UNL     1       6.792 -11.152  -6.584  1.00  0.00    -0.354 N 
ATOM     56  N   UNL     1       6.589 -12.252  -3.838  1.00  0.00    -0.248 NA
ATOM     57  C   UNL     1       6.692 -14.072  -2.374  1.00  0.00     0.031 C 
ATOM     58  C   UNL     1       7.263 -12.552  -8.239  1.00  0.00     0.029 A 
ATOM     59  C   UNL     1       7.059 -12.482  -6.869  1.00  0.00     0.049 A 
ATOM     60  H   UNL     1       6.593 -10.797  -5.688  1.00  0.00     0.167 HD
ATOM     61  C   UNL     1       6.921 -13.396  -4.559  1.00  0.00     0.074 A 
ATOM     62  C   UNL     1       7.018 -14.473  -3.593  1.00  0.00     0.031 C 
ATOM     63  C   UNL     1       7.123 -13.547  -5.894  1.00  0.00     0.034 A 
BRANCH  50  64
ATOM     64  C   UNL     1       6.566  -8.291  -9.168  1.00  0.00     0.023 A 
ATOM     65  C   UNL     1       7.441  -7.231  -9.473  1.00  0.00     0.031 A 
ATOM     66  C   UNL     1       5.636  -8.671 -10.151  1.00  0.00     0.131 A 
ATOM     67  C   UNL     1       7.310  -6.536 -10.685  1.00  0.00     0.055 A 
ATOM     68  C   UNL     1       5.572  -8.035 -11.393  1.00  0.00     0.041 A 
ATOM     69  F   UNL     1       4.757  -9.658  -9.915  1.00  0.00    -0.206 F 
ATOM     70  C   UNL     1       6.399  -6.948 -11.659  1.00  0.00     0.022 A 
BRANCH  67  71
ATOM     71  S   UNL     1       8.229  -4.986 -10.900  1.00  0.00     0.124 S 
ATOM     72  O   UNL     1       7.741  -4.195  -9.772  1.00  0.00    -0.237 OA
ATOM     73  O   UNL     1       9.616  -5.428 -10.817  1.00  0.00    -0.237 OA
ATOM     74  O   UNL     1       7.801  -4.513 -12.214  1.00  0.00    -0.744 OA
ENDBRANCH  67  71
ENDBRANCH  50  64
BRANCH  51  75
ATOM     75  C   UNL     1       6.031 -12.445  -0.018  1.00  0.00     0.023 A 
ATOM     76  C   UNL     1       7.120 -13.089   0.592  1.00  0.00     0.031 A 
ATOM     77  C   UNL     1       4.804 -12.437   0.671  1.00  0.00     0.131 A 
ATOM     78  C   UNL     1       6.952 -13.736   1.827  1.00  0.00     0.055 A 
ATOM     79  C   UNL     1       4.657 -13.032   1.926  1.00  0.00     0.041 A 
ATOM     80  F   UNL     1       3.730 -11.832   0.139  1.00  0.00    -0.206 F 
ATOM     81  C   UNL     1       5.732 -13.697   2.505  1.00  0.00     0.022 A 
BRANCH  78  82
ATOM     82  S   UNL     1       8.332 -14.701   2.502  1.00  0.00     0.124 S 
ATOM     83  O   UNL     1       8.582 -15.655   1.427  1.00  0.00    -0.237 OA
ATOM     84  O   UNL     1       9.351 -13.676   2.700  1.00  0.00    -0.237 OA
ATOM     85  O   UNL     1       7.780 -15.273   3.728  1.00  0.00    -0.744 OA
ENDBRANCH  78  82
ENDBRANCH  51  75
BRANCH  63  86
ATOM     86  C   UNL     1       7.494 -14.932  -6.368  1.00  0.00     0.023 A 
ATOM     87  C   UNL     1       6.615 -16.020  -6.218  1.00  0.00     0.031 A 
ATOM     88  C   UNL     1       8.759 -15.179  -6.929  1.00  0.00     0.131 A 
ATOM     89  C   UNL     1       7.046 -17.315  -6.535  1.00  0.00     0.055 A 
ATOM     90  C   UNL     1       9.152 -16.459  -7.322  1.00  0.00     0.041 A 
ATOM     91  F   UNL     1       9.641 -14.180  -7.095  1.00  0.00    -0.206 F 
ATOM     92  C   UNL     1       8.302 -17.540  -7.105  1.00  0.00     0.022 A 
BRANCH  89  93
ATOM     93  S   UNL     1       6.003 -18.716  -6.048  1.00  0.00     0.124 S 
ATOM     94  O   UNL     1       5.843 -18.490  -4.616  1.00  0.00    -0.237 OA
ATOM     95  O   UNL     1       4.810 -18.514  -6.863  1.00  0.00    -0.237 OA
ATOM     96  O   UNL     1       6.809 -19.883  -6.406  1.00  0.00    -0.744 OA
ENDBRANCH  89  93
ENDBRANCH  63  86
ENDBRANCH  37  38
ENDBRANCH  29  32
ENDBRANCH  27  28
ENDBRANCH   1  27
TORSDOF 18
