REMARK SMILES Cc1cc(C(=O)N[C@](C)(C(=O)NCCCNC(=O)c2ccc(-c3c4nc(c(-c5cc(S(=O)(=O)[O-])ccc5F)c5ccc([nH]5)c(-c5cc(S(=O)(=O)[O-])ccc5F)c5nc(c(-c6cc(S(=O)(=O)[O-])ccc6F)c6ccc3[nH]6)C=C5)C=C4)cc2)C(F)(F)F)no1
REMARK SMILES IDX 14 1 13 2 12 3 10 4 11 5 8 7 9 8 7 9 5 10 6 11 4 13 1 14
REMARK SMILES IDX 2 15 3 16 87 17 86 18 82 19 83 20 84 21 85 22 15 23 16 24
REMARK SMILES IDX 17 25 18 27 19 28 20 29 81 30 21 31 80 32 22 33 23 34 24 35
REMARK SMILES IDX 74 36 25 37 79 38 73 39 75 40 26 41 78 42 72 43 71 44 27 46
REMARK SMILES IDX 59 47 39 48 58 49 40 50 43 51 57 52 76 53 41 54 42 55 56 57
REMARK SMILES IDX 77 58 44 59 28 60 29 61 37 62 30 63 36 64 38 65 35 66 31 67
REMARK SMILES IDX 32 68 33 69 34 70 60 71 61 72 69 73 62 74 68 75 70 76 67 77
REMARK SMILES IDX 63 78 64 79 65 80 66 81 45 82 46 83 54 84 47 85 53 86 55 87
REMARK SMILES IDX 52 88 48 89 49 90 50 91 51 92
REMARK H PARENT 12 6 7 12 16 26 75 45 43 56
REMARK Flexibility Score: inf
ROOT
ATOM      1  C   UNL     1      -5.116  -5.627  -0.915  1.00  0.00     0.042 C 
ENDROOT
BRANCH   1   2
ATOM      2  C   UNL     1      -3.727  -5.312  -0.391  1.00  0.00     0.117 C 
BRANCH   2   3
ATOM      3  N   UNL     1      -2.924  -4.590  -1.369  1.00  0.00    -0.354 N 
ATOM      4  C   UNL     1      -1.790  -3.848  -1.208  1.00  0.00     0.254 C 
ATOM      5  O   UNL     1      -1.300  -3.369  -2.232  1.00  0.00    -0.272 OA
ATOM      6  H   UNL     1      -3.253  -4.645  -2.295  1.00  0.00     0.163 HD
BRANCH   4   7
ATOM      7  C   UNL     1      -1.240  -3.531   0.190  1.00  0.00     0.212 C 
ATOM      8  C   UNL     1      -2.225  -2.517   0.831  1.00  0.00     0.056 C 
BRANCH   7   9
ATOM      9  N   UNL     1      -1.126  -4.720   1.104  1.00  0.00    -0.329 N 
ATOM     10  C   UNL     1      -0.393  -5.883   0.935  1.00  0.00     0.274 C 
ATOM     11  O   UNL     1       0.186  -6.326   1.927  1.00  0.00    -0.267 OA
ATOM     12  H   UNL     1      -1.645  -4.663   1.938  1.00  0.00     0.165 HD
BRANCH  10  13
ATOM     13  C   UNL     1      -0.513  -6.638  -0.310  1.00  0.00     0.171 A 
ATOM     14  C   UNL     1      -0.935  -7.438  -3.863  1.00  0.00     0.091 C 
ATOM     15  C   UNL     1      -0.738  -7.266  -2.413  1.00  0.00     0.134 A 
ATOM     16  C   UNL     1      -0.108  -6.327  -1.632  1.00  0.00     0.082 A 
ATOM     17  O   UNL     1      -1.338  -8.181  -1.611  1.00  0.00    -0.361 OA
ATOM     18  N   UNL     1      -1.181  -7.806  -0.294  1.00  0.00    -0.074 NA
ENDBRANCH  10  13
ENDBRANCH   7   9
BRANCH   7  19
ATOM     19  C   UNL     1       0.127  -2.828   0.029  1.00  0.00     0.420 C 
ATOM     20  F   UNL     1       0.072  -1.685  -0.686  1.00  0.00    -0.168 F 
ATOM     21  F   UNL     1       0.603  -2.485   1.258  1.00  0.00    -0.168 F 
ATOM     22  F   UNL     1       1.057  -3.635  -0.529  1.00  0.00    -0.168 F 
ENDBRANCH   7  19
ENDBRANCH   4   7
ENDBRANCH   2   3
ENDBRANCH   1   2
BRANCH   1  23
ATOM     23  C   UNL     1      -5.126  -6.588  -2.097  1.00  0.00     0.118 C 
BRANCH  23  24
ATOM     24  N   UNL     1      -4.800  -7.963  -1.746  1.00  0.00    -0.352 N 
ATOM     25  C   UNL     1      -5.528  -9.103  -2.015  1.00  0.00     0.251 C 
ATOM     26  H   UNL     1      -3.957  -8.095  -1.256  1.00  0.00     0.163 HD
ATOM     27  O   UNL     1      -5.181 -10.191  -1.567  1.00  0.00    -0.269 OA
BRANCH  25  28
ATOM     28  C   UNL     1      -6.766  -8.985  -2.816  1.00  0.00     0.039 A 
ATOM     29  C   UNL     1      -7.964  -9.470  -2.291  1.00  0.00     0.014 A 
ATOM     30  C   UNL     1      -6.752  -8.304  -4.037  1.00  0.00     0.014 A 
ATOM     31  C   UNL     1      -9.166  -9.181  -2.942  1.00  0.00     0.010 A 
ATOM     32  C   UNL     1      -7.956  -7.946  -4.636  1.00  0.00     0.010 A 
ATOM     33  C   UNL     1      -9.178  -8.368  -4.087  1.00  0.00    -0.014 A 
BRANCH  33  34
ATOM     34  C   UNL     1     -10.452  -7.937  -4.723  1.00  0.00     0.031 A 
ATOM     35  C   UNL     1     -10.751  -8.335  -6.144  1.00  0.00     0.074 A 
ATOM     36  C   UNL     1     -11.301  -7.129  -4.054  1.00  0.00     0.049 A 
ATOM     37  N   UNL     1     -11.738  -7.964  -6.918  1.00  0.00    -0.248 NA
ATOM     38  C   UNL     1      -9.790  -9.245  -6.788  1.00  0.00     0.031 C 
ATOM     39  C   UNL     1     -11.105  -6.639  -2.687  1.00  0.00     0.029 A 
ATOM     40  N   UNL     1     -12.494  -6.566  -4.435  1.00  0.00    -0.354 N 
ATOM     41  C   UNL     1     -11.513  -8.586  -8.141  1.00  0.00     0.074 A 
ATOM     42  C   UNL     1     -10.261  -9.302  -8.024  1.00  0.00     0.031 C 
ATOM     43  C   UNL     1     -12.150  -5.870  -2.339  1.00  0.00     0.029 A 
ATOM     44  C   UNL     1     -13.068  -5.770  -3.468  1.00  0.00     0.049 A 
ATOM     45  H   UNL     1     -12.902  -6.717  -5.318  1.00  0.00     0.167 HD
ATOM     46  C   UNL     1     -12.292  -8.585  -9.251  1.00  0.00     0.034 A 
ATOM     47  C   UNL     1     -14.197  -5.032  -3.495  1.00  0.00     0.034 A 
ATOM     48  C   UNL     1     -13.549  -7.886  -9.350  1.00  0.00     0.049 A 
ATOM     49  C   UNL     1     -15.038  -5.035  -4.749  1.00  0.00     0.074 A 
ATOM     50  C   UNL     1     -14.431  -7.844 -10.415  1.00  0.00     0.029 A 
ATOM     51  N   UNL     1     -14.107  -7.112  -8.342  1.00  0.00    -0.354 N 
ATOM     52  N   UNL     1     -14.822  -5.656  -5.886  1.00  0.00    -0.248 NA
ATOM     53  C   UNL     1     -16.278  -4.248  -4.720  1.00  0.00     0.031 C 
ATOM     54  C   UNL     1     -15.498  -7.007 -10.071  1.00  0.00     0.029 A 
ATOM     55  C   UNL     1     -15.313  -6.577  -8.767  1.00  0.00     0.049 A 
ATOM     56  H   UNL     1     -13.706  -6.964  -7.455  1.00  0.00     0.167 HD
ATOM     57  C   UNL     1     -15.920  -5.361  -6.691  1.00  0.00     0.074 A 
ATOM     58  C   UNL     1     -16.800  -4.522  -5.906  1.00  0.00     0.031 C 
ATOM     59  C   UNL     1     -16.180  -5.748  -7.966  1.00  0.00     0.034 A 
BRANCH  46  60
ATOM     60  C   UNL     1     -11.797  -9.360 -10.445  1.00  0.00     0.023 A 
ATOM     61  C   UNL     1     -11.658 -10.758 -10.403  1.00  0.00     0.031 A 
ATOM     62  C   UNL     1     -11.447  -8.698 -11.635  1.00  0.00     0.131 A 
ATOM     63  C   UNL     1     -11.120 -11.442 -11.502  1.00  0.00     0.055 A 
ATOM     64  C   UNL     1     -10.985  -9.394 -12.754  1.00  0.00     0.041 A 
ATOM     65  F   UNL     1     -11.541  -7.362 -11.726  1.00  0.00    -0.206 F 
ATOM     66  C   UNL     1     -10.807 -10.773 -12.688  1.00  0.00     0.022 A 
BRANCH  63  67
ATOM     67  S   UNL     1     -10.726 -13.202 -11.319  1.00  0.00     0.124 S 
ATOM     68  O   UNL     1      -9.707 -13.166 -10.272  1.00  0.00    -0.237 OA
ATOM     69  O   UNL     1     -12.011 -13.777 -10.939  1.00  0.00    -0.237 OA
ATOM     70  O   UNL     1     -10.238 -13.583 -12.642  1.00  0.00    -0.744 OA
ENDBRANCH  63  67
ENDBRANCH  46  60
BRANCH  47  71
ATOM     71  C   UNL     1     -14.607  -4.213  -2.317  1.00  0.00     0.023 A 
ATOM     72  C   UNL     1     -15.812  -4.472  -1.642  1.00  0.00     0.031 A 
ATOM     73  C   UNL     1     -13.844  -3.109  -1.898  1.00  0.00     0.131 A 
ATOM     74  C   UNL     1     -16.251  -3.601  -0.633  1.00  0.00     0.055 A 
ATOM     75  C   UNL     1     -14.256  -2.280  -0.853  1.00  0.00     0.041 A 
ATOM     76  F   UNL     1     -12.681  -2.817  -2.503  1.00  0.00    -0.206 F 
ATOM     77  C   UNL     1     -15.476  -2.513  -0.226  1.00  0.00     0.022 A 
BRANCH  74  78
ATOM     78  S   UNL     1     -17.913  -3.841   0.056  1.00  0.00     0.124 S 
ATOM     79  O   UNL     1     -18.737  -3.834  -1.147  1.00  0.00    -0.237 OA
ATOM     80  O   UNL     1     -17.774  -5.126   0.733  1.00  0.00    -0.237 OA
ATOM     81  O   UNL     1     -18.084  -2.688   0.938  1.00  0.00    -0.744 OA
ENDBRANCH  74  78
ENDBRANCH  47  71
BRANCH  59  82
ATOM     82  C   UNL     1     -17.495  -5.312  -8.558  1.00  0.00     0.023 A 
ATOM     83  C   UNL     1     -17.759  -3.965  -8.861  1.00  0.00     0.031 A 
ATOM     84  C   UNL     1     -18.501  -6.260  -8.815  1.00  0.00     0.131 A 
ATOM     85  C   UNL     1     -19.020  -3.596  -9.353  1.00  0.00     0.055 A 
ATOM     86  C   UNL     1     -19.734  -5.894  -9.356  1.00  0.00     0.041 A 
ATOM     87  F   UNL     1     -18.299  -7.560  -8.544  1.00  0.00    -0.206 F 
ATOM     88  C   UNL     1     -20.003  -4.553  -9.616  1.00  0.00     0.022 A 
BRANCH  85  89
ATOM     89  S   UNL     1     -19.386  -1.833  -9.572  1.00  0.00     0.124 S 
ATOM     90  O   UNL     1     -19.209  -1.315  -8.219  1.00  0.00    -0.237 OA
ATOM     91  O   UNL     1     -18.380  -1.424 -10.546  1.00  0.00    -0.237 OA
ATOM     92  O   UNL     1     -20.762  -1.827 -10.064  1.00  0.00    -0.744 OA
ENDBRANCH  85  89
ENDBRANCH  59  82
ENDBRANCH  33  34
ENDBRANCH  25  28
ENDBRANCH  23  24
ENDBRANCH   1  23
TORSDOF 16
