REMARK SMILES C[NH2+][C@]1(C(=O)NCCCNC(=O)c2ccc(-c3c4nc(c(-c5cc(S(=O)(=O)[O-])ccc5F)c5ccc([nH]5)c(-c5cc(S(=O)(=O)[O-])ccc5F)c5nc(c(-c6cc(S(=O)(=O)[O-])ccc6F)c6ccc3[nH]6)C=C5)C=C4)cc2)CCC[C@@H](Sc2nccn2C)C1
REMARK SMILES IDX 8 1 7 2 6 3 4 4 5 5 3 7 76 8 87 9 77 10 79 11 78 12 2 13
REMARK SMILES IDX 1 14 80 17 81 18 82 19 85 20 83 21 84 22 86 23 9 24 10 25
REMARK SMILES IDX 11 26 12 28 13 29 14 30 75 31 15 32 74 33 16 34 17 35 18 36
REMARK SMILES IDX 68 37 19 38 73 39 67 40 69 41 20 42 72 43 66 44 65 45 21 47
REMARK SMILES IDX 53 48 33 49 52 50 34 51 37 52 51 53 70 54 35 55 36 56 50 58
REMARK SMILES IDX 71 59 38 60 22 61 23 62 31 63 24 64 30 65 32 66 29 67 25 68
REMARK SMILES IDX 26 69 27 70 28 71 54 72 55 73 63 74 56 75 62 76 64 77 61 78
REMARK SMILES IDX 57 79 58 80 59 81 60 82 39 83 40 84 48 85 41 86 47 87 49 88
REMARK SMILES IDX 46 89 42 90 43 91 44 92 45 93
REMARK H PARENT 6 6 2 15 2 16 10 27 69 46 37 57
REMARK Flexibility Score: inf
ROOT
ATOM      1  C   UNL     1       1.040  -2.614   3.787  1.00  0.00     0.042 C 
ENDROOT
BRANCH   1   2
ATOM      2  C   UNL     1       0.727  -1.286   3.111  1.00  0.00     0.118 C 
BRANCH   2   3
ATOM      3  N   UNL     1       1.213  -1.244   1.738  1.00  0.00    -0.351 N 
ATOM      4  C   UNL     1       0.561  -1.201   0.542  1.00  0.00     0.281 C 
ATOM      5  O   UNL     1       1.272  -1.054  -0.461  1.00  0.00    -0.268 OA
ATOM      6  H   UNL     1       2.194  -1.248   1.660  1.00  0.00     0.163 HD
BRANCH   4   7
ATOM      7  C   UNL     1      -1.005  -1.254   0.433  1.00  0.00     0.176 C 
ATOM      8  C   UNL     1      -1.593  -2.514   1.113  1.00  0.00     0.079 C 
ATOM      9  C   UNL     1      -1.546   0.069   1.046  1.00  0.00     0.094 C 
ATOM     10  C   UNL     1      -3.107  -2.460   1.272  1.00  0.00     0.008 C 
ATOM     11  C   UNL     1      -3.040   0.053   1.385  1.00  0.00     0.061 C 
ATOM     12  C   UNL     1      -3.505  -1.230   2.079  1.00  0.00     0.015 C 
BRANCH   7  13
ATOM     13  N   UNL     1      -1.403  -1.190  -1.018  1.00  0.00    -0.336 N 
ATOM     14  C   UNL     1      -1.143  -2.405  -1.788  1.00  0.00     0.331 C 
ATOM     15  H   UNL     1      -2.403  -0.996  -1.062  1.00  0.00     0.346 HD
ATOM     16  H   UNL     1      -0.827  -0.460  -1.437  1.00  0.00     0.346 HD
ENDBRANCH   7  13
BRANCH  11  17
ATOM     17  S   UNL     1      -3.551   1.541   2.336  1.00  0.00    -0.084 SA
BRANCH  17  18
ATOM     18  C   UNL     1      -2.794   1.312   3.880  1.00  0.00     0.167 A 
ATOM     19  N   UNL     1      -1.498   1.226   4.081  1.00  0.00    -0.231 NA
ATOM     20  N   UNL     1      -3.486   1.252   5.061  1.00  0.00    -0.329 N 
ATOM     21  C   UNL     1      -1.341   1.117   5.439  1.00  0.00     0.132 A 
ATOM     22  C   UNL     1      -2.562   1.126   6.069  1.00  0.00     0.108 A 
ATOM     23  C   UNL     1      -4.909   1.292   5.286  1.00  0.00     0.152 C 
ENDBRANCH  17  18
ENDBRANCH  11  17
ENDBRANCH   4   7
ENDBRANCH   2   3
ENDBRANCH   1   2
BRANCH   1  24
ATOM     24  C   UNL     1       2.527  -2.838   4.018  1.00  0.00     0.118 C 
BRANCH  24  25
ATOM     25  N   UNL     1       3.090  -1.875   4.954  1.00  0.00    -0.352 N 
ATOM     26  C   UNL     1       3.657  -2.078   6.187  1.00  0.00     0.251 C 
ATOM     27  H   UNL     1       3.060  -0.937   4.657  1.00  0.00     0.163 HD
ATOM     28  O   UNL     1       3.855  -1.113   6.925  1.00  0.00    -0.269 OA
BRANCH  26  29
ATOM     29  C   UNL     1       4.002  -3.444   6.635  1.00  0.00     0.039 A 
ATOM     30  C   UNL     1       3.762  -3.803   7.964  1.00  0.00     0.014 A 
ATOM     31  C   UNL     1       4.568  -4.369   5.754  1.00  0.00     0.014 A 
ATOM     32  C   UNL     1       4.027  -5.107   8.387  1.00  0.00     0.010 A 
ATOM     33  C   UNL     1       4.742  -5.691   6.151  1.00  0.00     0.010 A 
ATOM     34  C   UNL     1       4.481  -6.074   7.475  1.00  0.00    -0.014 A 
BRANCH  34  35
ATOM     35  C   UNL     1       4.697  -7.485   7.887  1.00  0.00     0.031 A 
ATOM     36  C   UNL     1       6.071  -8.094   7.797  1.00  0.00     0.074 A 
ATOM     37  C   UNL     1       3.648  -8.233   8.284  1.00  0.00     0.049 A 
ATOM     38  N   UNL     1       6.449  -9.324   8.032  1.00  0.00    -0.248 NA
ATOM     39  C   UNL     1       7.159  -7.207   7.354  1.00  0.00     0.031 C 
ATOM     40  C   UNL     1       2.263  -7.764   8.376  1.00  0.00     0.029 A 
ATOM     41  N   UNL     1       3.578  -9.546   8.678  1.00  0.00    -0.354 N 
ATOM     42  C   UNL     1       7.811  -9.362   7.755  1.00  0.00     0.074 A 
ATOM     43  C   UNL     1       8.177  -8.049   7.269  1.00  0.00     0.031 C 
ATOM     44  C   UNL     1       1.489  -8.763   8.828  1.00  0.00     0.029 A 
ATOM     45  C   UNL     1       2.306  -9.959   9.005  1.00  0.00     0.049 A 
ATOM     46  H   UNL     1       4.364 -10.137   8.723  1.00  0.00     0.167 HD
ATOM     47  C   UNL     1       8.681 -10.390   7.914  1.00  0.00     0.034 A 
ATOM     48  C   UNL     1       1.847 -11.168   9.387  1.00  0.00     0.034 A 
ATOM     49  C   UNL     1       8.299 -11.691   8.409  1.00  0.00     0.049 A 
ATOM     50  C   UNL     1       2.828 -12.307   9.521  1.00  0.00     0.074 A 
ATOM     51  C   UNL     1       9.105 -12.788   8.657  1.00  0.00     0.029 A 
ATOM     52  N   UNL     1       7.001 -12.074   8.723  1.00  0.00    -0.354 N 
ATOM     53  N   UNL     1       4.123 -12.313   9.301  1.00  0.00    -0.248 NA
ATOM     54  C   UNL     1       2.288 -13.597   9.967  1.00  0.00     0.031 C 
ATOM     55  C   UNL     1       8.287 -13.855   9.044  1.00  0.00     0.029 A 
ATOM     56  C   UNL     1       6.981 -13.400   9.128  1.00  0.00     0.049 A 
ATOM     57  H   UNL     1       6.211 -11.489   8.666  1.00  0.00     0.167 HD
ATOM     58  C   UNL     1       4.555 -13.598   9.617  1.00  0.00     0.074 A 
ATOM     59  C   UNL     1       3.386 -14.332  10.056  1.00  0.00     0.031 C 
ATOM     60  C   UNL     1       5.806 -14.123   9.557  1.00  0.00     0.034 A 
BRANCH  47  61
ATOM     61  C   UNL     1      10.122 -10.153   7.523  1.00  0.00     0.023 A 
ATOM     62  C   UNL     1      10.913  -9.184   8.165  1.00  0.00     0.031 A 
ATOM     63  C   UNL     1      10.709 -10.894   6.482  1.00  0.00     0.131 A 
ATOM     64  C   UNL     1      12.215  -8.928   7.711  1.00  0.00     0.055 A 
ATOM     65  C   UNL     1      12.035 -10.695   6.092  1.00  0.00     0.041 A 
ATOM     66  F   UNL     1       9.999 -11.818   5.815  1.00  0.00    -0.206 F 
ATOM     67  C   UNL     1      12.792  -9.696   6.697  1.00  0.00     0.022 A 
BRANCH  64  68
ATOM     68  S   UNL     1      13.090  -7.479   8.362  1.00  0.00     0.124 S 
ATOM     69  O   UNL     1      12.177  -6.397   8.001  1.00  0.00    -0.237 OA
ATOM     70  O   UNL     1      13.189  -7.783   9.785  1.00  0.00    -0.237 OA
ATOM     71  O   UNL     1      14.356  -7.486   7.632  1.00  0.00    -0.744 OA
ENDBRANCH  64  68
ENDBRANCH  47  61
BRANCH  48  72
ATOM     72  C   UNL     1       0.395 -11.376   9.659  1.00  0.00     0.023 A 
ATOM     73  C   UNL     1      -0.058 -11.744  10.936  1.00  0.00     0.031 A 
ATOM     74  C   UNL     1      -0.559 -11.259   8.632  1.00  0.00     0.131 A 
ATOM     75  C   UNL     1      -1.415 -12.034  11.141  1.00  0.00     0.055 A 
ATOM     76  C   UNL     1      -1.918 -11.488   8.856  1.00  0.00     0.041 A 
ATOM     77  F   UNL     1      -0.184 -10.908   7.391  1.00  0.00    -0.206 F 
ATOM     78  C   UNL     1      -2.351 -11.893  10.114  1.00  0.00     0.022 A 
BRANCH  75  79
ATOM     79  S   UNL     1      -1.927 -12.697  12.750  1.00  0.00     0.124 S 
ATOM     80  O   UNL     1      -1.095 -13.889  12.858  1.00  0.00    -0.237 OA
ATOM     81  O   UNL     1      -1.595 -11.597  13.650  1.00  0.00    -0.237 OA
ATOM     82  O   UNL     1      -3.357 -12.946  12.575  1.00  0.00    -0.744 OA
ENDBRANCH  75  79
ENDBRANCH  48  72
BRANCH  60  83
ATOM     83  C   UNL     1       5.980 -15.546  10.032  1.00  0.00     0.023 A 
ATOM     84  C   UNL     1       5.394 -16.633   9.359  1.00  0.00     0.031 A 
ATOM     85  C   UNL     1       6.744 -15.816  11.182  1.00  0.00     0.131 A 
ATOM     86  C   UNL     1       5.533 -17.930   9.875  1.00  0.00     0.055 A 
ATOM     87  C   UNL     1       6.935 -17.115  11.651  1.00  0.00     0.041 A 
ATOM     88  F   UNL     1       7.323 -14.817  11.868  1.00  0.00    -0.206 F 
ATOM     89  C   UNL     1       6.316 -18.181  11.005  1.00  0.00     0.022 A 
BRANCH  86  90
ATOM     90  S   UNL     1       4.593 -19.278   9.107  1.00  0.00     0.124 S 
ATOM     91  O   UNL     1       3.219 -18.802   9.238  1.00  0.00    -0.237 OA
ATOM     92  O   UNL     1       5.132 -19.302   7.751  1.00  0.00    -0.237 OA
ATOM     93  O   UNL     1       4.927 -20.441   9.928  1.00  0.00    -0.744 OA
ENDBRANCH  86  90
ENDBRANCH  60  83
ENDBRANCH  34  35
ENDBRANCH  26  29
ENDBRANCH  24  25
ENDBRANCH   1  24
TORSDOF 16
