REMARK SMILES O=C(NCCCNC(=O)[C@@H]1CC[C@@H](CS(=O)(=O)c2cccc(F)c2)O1)c1ccc(-c2c3nc(c(-c4cc(S(=O)(=O)[O-])ccc4F)c4ccc([nH]4)c(-c4cc(S(=O)(=O)[O-])ccc4F)c4nc(c(-c5cc(S(=O)(=O)[O-])ccc5F)c5ccc2[nH]5)C=C4)C=C3)cc1
REMARK SMILES IDX 5 1 4 2 3 3 1 4 2 5 26 7 27 8 88 9 28 10 87 11 29 12 30 13
REMARK SMILES IDX 31 14 81 15 32 16 86 17 80 18 82 19 33 20 85 21 79 22 78 23
REMARK SMILES IDX 34 25 66 26 46 27 65 28 47 29 50 30 64 31 83 32 48 33 49 34
REMARK SMILES IDX 63 36 84 37 51 38 35 39 36 40 44 41 37 42 43 43 45 44 42 45
REMARK SMILES IDX 38 46 39 47 40 48 41 49 67 50 68 51 76 52 69 53 75 54 77 55
REMARK SMILES IDX 74 56 70 57 71 58 72 59 73 60 52 61 53 62 61 63 54 64 60 65
REMARK SMILES IDX 62 66 59 67 55 68 56 69 57 70 58 71 6 72 7 73 8 74 9 76
REMARK SMILES IDX 10 77 11 78 25 79 12 80 13 81 14 82 15 83 16 84 17 85 18 86
REMARK SMILES IDX 19 87 24 88 20 89 22 90 21 91 23 92
REMARK H PARENT 3 6 82 24 50 35 7 75
REMARK Flexibility Score: inf
ROOT
ATOM      1  C   UNL     1       4.804  -2.080  -1.706  1.00  0.00     0.042 C 
ENDROOT
BRANCH   1   2
ATOM      2  C   UNL     1       4.529  -0.623  -1.350  1.00  0.00     0.118 C 
BRANCH   2   3
ATOM      3  N   UNL     1       3.105  -0.336  -1.184  1.00  0.00    -0.352 N 
ATOM      4  O   UNL     1       1.168   0.049  -0.105  1.00  0.00    -0.269 OA
ATOM      5  C   UNL     1       2.396   0.042  -0.069  1.00  0.00     0.251 C 
ATOM      6  H   UNL     1       2.567  -0.429  -2.004  1.00  0.00     0.163 HD
BRANCH   5   7
ATOM      7  C   UNL     1       3.107   0.427   1.167  1.00  0.00     0.039 A 
ATOM      8  C   UNL     1       4.252   1.221   1.102  1.00  0.00     0.014 A 
ATOM      9  C   UNL     1       2.621   0.002   2.407  1.00  0.00     0.014 A 
ATOM     10  C   UNL     1       5.008   1.435   2.245  1.00  0.00     0.010 A 
ATOM     11  C   UNL     1       3.326   0.316   3.575  1.00  0.00     0.010 A 
ATOM     12  C   UNL     1       4.546   1.005   3.499  1.00  0.00    -0.014 A 
BRANCH  12  13
ATOM     13  C   UNL     1       5.337   1.348   4.710  1.00  0.00     0.031 A 
ATOM     14  C   UNL     1       5.944   0.276   5.574  1.00  0.00     0.074 A 
ATOM     15  C   UNL     1       5.554   2.651   4.987  1.00  0.00     0.049 A 
ATOM     16  N   UNL     1       6.676   0.411   6.650  1.00  0.00    -0.248 NA
ATOM     17  C   UNL     1       5.697  -1.124   5.192  1.00  0.00     0.031 C 
ATOM     18  C   UNL     1       5.018   3.774   4.211  1.00  0.00     0.029 A 
ATOM     19  N   UNL     1       6.299   3.256   5.966  1.00  0.00    -0.354 N 
ATOM     20  C   UNL     1       6.966  -0.879   7.082  1.00  0.00     0.074 A 
ATOM     21  C   UNL     1       6.310  -1.786   6.166  1.00  0.00     0.031 C 
ATOM     22  C   UNL     1       5.503   4.922   4.703  1.00  0.00     0.029 A 
ATOM     23  C   UNL     1       6.311   4.629   5.880  1.00  0.00     0.049 A 
ATOM     24  H   UNL     1       6.780   2.756   6.665  1.00  0.00     0.167 HD
ATOM     25  C   UNL     1       7.718  -1.262   8.141  1.00  0.00     0.034 A 
ATOM     26  C   UNL     1       6.882   5.558   6.672  1.00  0.00     0.034 A 
ATOM     27  C   UNL     1       8.386  -0.344   9.030  1.00  0.00     0.049 A 
ATOM     28  C   UNL     1       7.668   5.101   7.868  1.00  0.00     0.074 A 
ATOM     29  C   UNL     1       9.202  -0.638  10.109  1.00  0.00     0.029 A 
ATOM     30  N   UNL     1       8.314   1.040   8.950  1.00  0.00    -0.354 N 
ATOM     31  N   UNL     1       7.921   3.875   8.262  1.00  0.00    -0.248 NA
ATOM     32  C   UNL     1       8.236   6.144   8.731  1.00  0.00     0.031 C 
ATOM     33  C   UNL     1       9.564   0.563  10.723  1.00  0.00     0.029 A 
ATOM     34  C   UNL     1       9.040   1.611   9.983  1.00  0.00     0.049 A 
ATOM     35  H   UNL     1       7.821   1.542   8.261  1.00  0.00     0.167 HD
ATOM     36  C   UNL     1       8.688   4.001   9.415  1.00  0.00     0.074 A 
ATOM     37  C   UNL     1       8.868   5.420   9.645  1.00  0.00     0.031 C 
ATOM     38  C   UNL     1       9.198   3.027  10.208  1.00  0.00     0.034 A 
BRANCH  25  39
ATOM     39  C   UNL     1       7.847  -2.735   8.433  1.00  0.00     0.023 A 
ATOM     40  C   UNL     1       8.609  -3.588   7.619  1.00  0.00     0.031 A 
ATOM     41  C   UNL     1       7.266  -3.272   9.597  1.00  0.00     0.131 A 
ATOM     42  C   UNL     1       8.756  -4.939   7.972  1.00  0.00     0.055 A 
ATOM     43  C   UNL     1       7.460  -4.602   9.970  1.00  0.00     0.041 A 
ATOM     44  F   UNL     1       6.518  -2.501  10.402  1.00  0.00    -0.206 F 
ATOM     45  C   UNL     1       8.208  -5.445   9.154  1.00  0.00     0.022 A 
BRANCH  42  46
ATOM     46  S   UNL     1       9.644  -6.047   6.843  1.00  0.00     0.124 S 
ATOM     47  O   UNL     1       8.763  -6.045   5.678  1.00  0.00    -0.237 OA
ATOM     48  O   UNL     1      10.925  -5.370   6.677  1.00  0.00    -0.237 OA
ATOM     49  O   UNL     1       9.698  -7.311   7.575  1.00  0.00    -0.744 OA
ENDBRANCH  42  46
ENDBRANCH  25  39
BRANCH  26  50
ATOM     50  C   UNL     1       6.680   7.005   6.382  1.00  0.00     0.023 A 
ATOM     51  C   UNL     1       7.749   7.829   6.004  1.00  0.00     0.031 A 
ATOM     52  C   UNL     1       5.398   7.581   6.471  1.00  0.00     0.131 A 
ATOM     53  C   UNL     1       7.521   9.191   5.748  1.00  0.00     0.055 A 
ATOM     54  C   UNL     1       5.169   8.922   6.169  1.00  0.00     0.041 A 
ATOM     55  F   UNL     1       4.341   6.832   6.823  1.00  0.00    -0.206 F 
ATOM     56  C   UNL     1       6.237   9.739   5.812  1.00  0.00     0.022 A 
BRANCH  53  57
ATOM     57  S   UNL     1       8.940  10.256   5.371  1.00  0.00     0.124 S 
ATOM     58  O   UNL     1       9.721  10.155   6.599  1.00  0.00    -0.237 OA
ATOM     59  O   UNL     1       9.505   9.605   4.194  1.00  0.00    -0.237 OA
ATOM     60  O   UNL     1       8.329  11.561   5.125  1.00  0.00    -0.744 OA
ENDBRANCH  53  57
ENDBRANCH  26  50
BRANCH  38  61
ATOM     61  C   UNL     1      10.021   3.456  11.391  1.00  0.00     0.023 A 
ATOM     62  C   UNL     1       9.429   4.042  12.522  1.00  0.00     0.031 A 
ATOM     63  C   UNL     1      11.407   3.216  11.411  1.00  0.00     0.131 A 
ATOM     64  C   UNL     1      10.226   4.388  13.622  1.00  0.00     0.055 A 
ATOM     65  C   UNL     1      12.186   3.519  12.526  1.00  0.00     0.041 A 
ATOM     66  F   UNL     1      12.017   2.655  10.354  1.00  0.00    -0.206 F 
ATOM     67  C   UNL     1      11.597   4.112  13.639  1.00  0.00     0.022 A 
BRANCH  64  68
ATOM     68  S   UNL     1       9.453   5.229  15.030  1.00  0.00     0.124 S 
ATOM     69  O   UNL     1       9.045   6.498  14.437  1.00  0.00    -0.237 OA
ATOM     70  O   UNL     1       8.371   4.317  15.388  1.00  0.00    -0.237 OA
ATOM     71  O   UNL     1      10.533   5.321  16.010  1.00  0.00    -0.744 OA
ENDBRANCH  64  68
ENDBRANCH  38  61
ENDBRANCH  12  13
ENDBRANCH   5   7
ENDBRANCH   2   3
ENDBRANCH   1   2
BRANCH   1  72
ATOM     72  C   UNL     1       4.167  -2.510  -3.020  1.00  0.00     0.117 C 
BRANCH  72  73
ATOM     73  N   UNL     1       4.702  -1.777  -4.153  1.00  0.00    -0.354 N 
ATOM     74  C   UNL     1       5.639  -2.116  -5.076  1.00  0.00     0.249 C 
ATOM     75  H   UNL     1       4.320  -0.878  -4.274  1.00  0.00     0.163 HD
ATOM     76  O   UNL     1       5.911  -1.275  -5.942  1.00  0.00    -0.272 OA
BRANCH  74  77
ATOM     77  C   UNL     1       6.329  -3.493  -5.096  1.00  0.00     0.207 C 
ATOM     78  C   UNL     1       6.081  -4.144  -6.452  1.00  0.00     0.045 C 
ATOM     79  O   UNL     1       6.011  -4.486  -4.133  1.00  0.00    -0.364 OA
ATOM     80  C   UNL     1       6.410  -5.591  -6.193  1.00  0.00     0.036 C 
ATOM     81  C   UNL     1       5.993  -5.772  -4.745  1.00  0.00     0.134 C 
BRANCH  81  82
ATOM     82  C   UNL     1       6.724  -6.830  -3.935  1.00  0.00     0.174 C 
BRANCH  82  83
ATOM     83  S   UNL     1       8.210  -6.386  -3.075  1.00  0.00     0.181 S 
ATOM     84  O   UNL     1       7.929  -5.250  -2.217  1.00  0.00    -0.224 OA
ATOM     85  O   UNL     1       8.743  -7.614  -2.515  1.00  0.00    -0.224 OA
BRANCH  83  86
ATOM     86  C   UNL     1       9.432  -5.860  -4.249  1.00  0.00     0.070 A 
ATOM     87  C   UNL     1       9.615  -6.561  -5.445  1.00  0.00     0.020 A 
ATOM     88  C   UNL     1      10.243  -4.766  -3.936  1.00  0.00     0.059 A 
ATOM     89  C   UNL     1      10.551  -6.106  -6.377  1.00  0.00     0.004 A 
ATOM     90  C   UNL     1      11.199  -4.353  -4.855  1.00  0.00     0.124 A 
ATOM     91  C   UNL     1      11.343  -4.998  -6.080  1.00  0.00     0.039 A 
ATOM     92  F   UNL     1      11.997  -3.319  -4.563  1.00  0.00    -0.207 F 
ENDBRANCH  83  86
ENDBRANCH  82  83
ENDBRANCH  81  82
ENDBRANCH  74  77
ENDBRANCH  72  73
ENDBRANCH   1  72
TORSDOF 16
