REMARK SMILES CN1C(=O)/C(=C/c2ccc(OCC(=O)NCCCNC(=O)c3ccc(-c4c5nc(c(-c6cc(S(=O)(=O)[O-])ccc6F)c6ccc([nH]6)c(-c6cc(S(=O)(=O)[O-])ccc6F)c6nc(c(-c7cc(S(=O)(=O)[O-])ccc7F)c7ccc4[nH]7)C=C6)C=C5)cc3)c(Br)c2)C(=O)NC1=S
REMARK SMILES IDX 17 1 16 2 15 3 13 4 14 5 12 7 11 8 10 9 7 10 8 11 87 12 9 13
REMARK SMILES IDX 85 14 86 15 6 16 1 17 2 18 3 19 91 20 4 21 5 22 90 23 92 24
REMARK SMILES IDX 88 25 89 27 18 28 19 29 20 30 21 32 22 33 23 34 84 35 24 36
REMARK SMILES IDX 83 37 25 38 26 39 27 40 77 41 28 42 82 43 76 44 78 45 29 46
REMARK SMILES IDX 81 47 75 48 74 49 30 51 62 52 42 53 61 54 43 55 46 56 60 57
REMARK SMILES IDX 79 58 44 59 45 60 59 62 80 63 47 64 31 65 32 66 40 67 33 68
REMARK SMILES IDX 39 69 41 70 38 71 34 72 35 73 36 74 37 75 63 76 64 77 72 78
REMARK SMILES IDX 65 79 71 80 73 81 70 82 66 83 67 84 68 85 69 86 48 87 49 88
REMARK SMILES IDX 57 89 50 90 56 91 58 92 55 93 51 94 52 95 53 96 54 97
REMARK H PARENT 15 6 90 26 19 31 78 50 46 61
REMARK Flexibility Score: inf
ROOT
ATOM      1  C   UNL     1      -9.483  -1.836   4.525  1.00  0.00     0.042 C 
ENDROOT
BRANCH   1   2
ATOM      2  C   UNL     1      -9.820  -3.175   3.882  1.00  0.00     0.117 C 
BRANCH   2   3
ATOM      3  N   UNL     1      -9.634  -3.172   2.444  1.00  0.00    -0.353 N 
ATOM      4  C   UNL     1      -8.711  -3.849   1.699  1.00  0.00     0.257 C 
ATOM      5  O   UNL     1      -8.793  -3.785   0.472  1.00  0.00    -0.271 OA
ATOM      6  H   UNL     1     -10.258  -2.605   1.935  1.00  0.00     0.163 HD
BRANCH   4   7
ATOM      7  C   UNL     1      -7.663  -4.714   2.406  1.00  0.00     0.329 C 
BRANCH   7   8
ATOM      8  O   UNL     1      -6.797  -4.082   3.325  1.00  0.00    -0.483 OA
BRANCH   8   9
ATOM      9  C   UNL     1      -5.923  -3.105   2.944  1.00  0.00     0.134 A 
ATOM     10  C   UNL     1      -4.015  -1.032   2.693  1.00  0.00    -0.023 A 
ATOM     11  C   UNL     1      -4.608  -1.269   3.923  1.00  0.00     0.012 A 
ATOM     12  C   UNL     1      -4.398  -1.803   1.589  1.00  0.00     0.027 A 
ATOM     13  C   UNL     1      -5.549  -2.299   4.040  1.00  0.00     0.048 A 
ATOM     14  C   UNL     1      -5.323  -2.852   1.707  1.00  0.00     0.060 A 
ATOM     15  Br  UNL     1      -5.487  -3.893   0.127  1.00  0.00    -0.047 Br
BRANCH  10  16
ATOM     16  C   UNL     1      -2.907  -0.095   2.495  1.00  0.00     0.027 C 
ATOM     17  C   UNL     1       1.265   0.397   0.334  1.00  0.00     0.156 C 
ATOM     18  N   UNL     1       0.464  -0.316   1.327  1.00  0.00    -0.288 N 
ATOM     19  C   UNL     1      -0.638   0.376   1.840  1.00  0.00     0.265 C 
ATOM     20  C   UNL     1       0.821  -1.604   1.718  1.00  0.00     0.182 C 
ATOM     21  O   UNL     1      -0.851   1.569   1.641  1.00  0.00    -0.268 OA
ATOM     22  C   UNL     1      -1.612  -0.467   2.577  1.00  0.00     0.106 C 
ATOM     23  N   UNL     1       0.016  -2.210   2.642  1.00  0.00    -0.298 N 
ATOM     24  S   UNL     1       2.145  -2.486   1.183  1.00  0.00    -0.040 S 
ATOM     25  C   UNL     1      -1.162  -1.749   3.151  1.00  0.00     0.263 C 
ATOM     26  H   UNL     1       0.323  -3.082   2.979  1.00  0.00     0.172 HD
ATOM     27  O   UNL     1      -1.752  -2.377   4.022  1.00  0.00    -0.269 OA
ENDBRANCH  10  16
ENDBRANCH   8   9
ENDBRANCH   7   8
ENDBRANCH   4   7
ENDBRANCH   2   3
ENDBRANCH   1   2
BRANCH   1  28
ATOM     28  C   UNL     1     -10.259  -0.643   3.972  1.00  0.00     0.118 C 
BRANCH  28  29
ATOM     29  N   UNL     1     -11.702  -0.797   4.085  1.00  0.00    -0.352 N 
ATOM     30  C   UNL     1     -12.638  -0.027   4.733  1.00  0.00     0.251 C 
ATOM     31  H   UNL     1     -12.069  -1.582   3.619  1.00  0.00     0.163 HD
ATOM     32  O   UNL     1     -13.791  -0.442   4.818  1.00  0.00    -0.269 OA
BRANCH  30  33
ATOM     33  C   UNL     1     -12.268   1.265   5.353  1.00  0.00     0.039 A 
ATOM     34  C   UNL     1     -12.791   1.577   6.612  1.00  0.00     0.014 A 
ATOM     35  C   UNL     1     -11.436   2.179   4.701  1.00  0.00     0.014 A 
ATOM     36  C   UNL     1     -12.415   2.763   7.250  1.00  0.00     0.010 A 
ATOM     37  C   UNL     1     -11.009   3.328   5.367  1.00  0.00     0.010 A 
ATOM     38  C   UNL     1     -11.485   3.627   6.652  1.00  0.00    -0.014 A 
BRANCH  38  39
ATOM     39  C   UNL     1     -10.979   4.831   7.362  1.00  0.00     0.031 A 
ATOM     40  C   UNL     1     -11.258   6.206   6.820  1.00  0.00     0.074 A 
ATOM     41  C   UNL     1     -10.198   4.680   8.450  1.00  0.00     0.049 A 
ATOM     42  N   UNL     1     -10.803   7.364   7.225  1.00  0.00    -0.248 NA
ATOM     43  C   UNL     1     -12.144   6.282   5.650  1.00  0.00     0.031 C 
ATOM     44  C   UNL     1      -9.829   3.398   9.054  1.00  0.00     0.029 A 
ATOM     45  N   UNL     1      -9.557   5.609   9.232  1.00  0.00    -0.354 N 
ATOM     46  C   UNL     1     -11.333   8.307   6.351  1.00  0.00     0.074 A 
ATOM     47  C   UNL     1     -12.104   7.576   5.367  1.00  0.00     0.031 C 
ATOM     48  C   UNL     1      -9.036   3.622  10.114  1.00  0.00     0.029 A 
ATOM     49  C   UNL     1      -8.800   5.057  10.239  1.00  0.00     0.049 A 
ATOM     50  H   UNL     1      -9.633   6.580   9.086  1.00  0.00     0.167 HD
ATOM     51  C   UNL     1     -11.201   9.658   6.378  1.00  0.00     0.034 A 
ATOM     52  C   UNL     1      -7.987   5.635  11.144  1.00  0.00     0.034 A 
ATOM     53  C   UNL     1     -10.440  10.373   7.374  1.00  0.00     0.049 A 
ATOM     54  C   UNL     1      -7.829   7.133  11.134  1.00  0.00     0.074 A 
ATOM     55  C   UNL     1     -10.299  11.741   7.534  1.00  0.00     0.029 A 
ATOM     56  N   UNL     1      -9.680   9.779   8.374  1.00  0.00    -0.354 N 
ATOM     57  N   UNL     1      -8.373   8.015  10.327  1.00  0.00    -0.248 NA
ATOM     58  C   UNL     1      -6.951   7.713  12.158  1.00  0.00     0.031 C 
ATOM     59  C   UNL     1      -9.406  11.972   8.587  1.00  0.00     0.029 A 
ATOM     60  C   UNL     1      -9.040  10.751   9.130  1.00  0.00     0.049 A 
ATOM     61  H   UNL     1      -9.606   8.809   8.524  1.00  0.00     0.167 HD
ATOM     62  C   UNL     1      -7.915   9.256  10.760  1.00  0.00     0.074 A 
ATOM     63  C   UNL     1      -7.067   9.009  11.908  1.00  0.00     0.031 C 
ATOM     64  C   UNL     1      -8.175  10.489  10.256  1.00  0.00     0.034 A 
BRANCH  51  65
ATOM     65  C   UNL     1     -11.874  10.441   5.277  1.00  0.00     0.023 A 
ATOM     66  C   UNL     1     -13.272  10.452   5.125  1.00  0.00     0.031 A 
ATOM     67  C   UNL     1     -11.107  11.165   4.347  1.00  0.00     0.131 A 
ATOM     68  C   UNL     1     -13.854  11.106   4.029  1.00  0.00     0.055 A 
ATOM     69  C   UNL     1     -11.697  11.880   3.303  1.00  0.00     0.041 A 
ATOM     70  F   UNL     1      -9.767  11.178   4.429  1.00  0.00    -0.206 F 
ATOM     71  C   UNL     1     -13.077  11.840   3.129  1.00  0.00     0.022 A 
BRANCH  68  72
ATOM     72  S   UNL     1     -15.624  10.866   3.716  1.00  0.00     0.124 S 
ATOM     73  O   UNL     1     -15.702   9.415   3.564  1.00  0.00    -0.237 OA
ATOM     74  O   UNL     1     -16.234  11.416   4.921  1.00  0.00    -0.237 OA
ATOM     75  O   UNL     1     -15.862  11.627   2.491  1.00  0.00    -0.744 OA
ENDBRANCH  68  72
ENDBRANCH  51  65
BRANCH  52  76
ATOM     76  C   UNL     1      -7.231   4.800  12.119  1.00  0.00     0.023 A 
ATOM     77  C   UNL     1      -7.505   4.868  13.493  1.00  0.00     0.031 A 
ATOM     78  C   UNL     1      -6.198   3.946  11.691  1.00  0.00     0.131 A 
ATOM     79  C   UNL     1      -6.728   4.127  14.397  1.00  0.00     0.055 A 
ATOM     80  C   UNL     1      -5.459   3.176  12.589  1.00  0.00     0.041 A 
ATOM     81  F   UNL     1      -5.902   3.840  10.385  1.00  0.00    -0.206 F 
ATOM     82  C   UNL     1      -5.715   3.273  13.954  1.00  0.00     0.022 A 
BRANCH  79  83
ATOM     83  S   UNL     1      -7.016   4.349  16.174  1.00  0.00     0.124 S 
ATOM     84  O   UNL     1      -6.774   5.777  16.339  1.00  0.00    -0.237 OA
ATOM     85  O   UNL     1      -8.402   3.912  16.312  1.00  0.00    -0.237 OA
ATOM     86  O   UNL     1      -6.024   3.471  16.792  1.00  0.00    -0.744 OA
ENDBRANCH  79  83
ENDBRANCH  52  76
BRANCH  64  87
ATOM     87  C   UNL     1      -7.548  11.660  10.969  1.00  0.00     0.023 A 
ATOM     88  C   UNL     1      -6.160  11.880  10.944  1.00  0.00     0.031 A 
ATOM     89  C   UNL     1      -8.348  12.555  11.701  1.00  0.00     0.131 A 
ATOM     90  C   UNL     1      -5.607  12.939  11.680  1.00  0.00     0.055 A 
ATOM     91  C   UNL     1      -7.798  13.638  12.388  1.00  0.00     0.041 A 
ATOM     92  F   UNL     1      -9.679  12.389  11.761  1.00  0.00    -0.206 F 
ATOM     93  C   UNL     1      -6.419  13.828  12.390  1.00  0.00     0.022 A 
BRANCH  90  94
ATOM     94  S   UNL     1      -3.802  13.091  11.767  1.00  0.00     0.124 S 
ATOM     95  O   UNL     1      -3.419  11.820  12.374  1.00  0.00    -0.237 OA
ATOM     96  O   UNL     1      -3.434  13.265  10.366  1.00  0.00    -0.237 OA
ATOM     97  O   UNL     1      -3.597  14.268  12.610  1.00  0.00    -0.744 OA
ENDBRANCH  90  94
ENDBRANCH  64  87
ENDBRANCH  38  39
ENDBRANCH  30  33
ENDBRANCH  28  29
ENDBRANCH   1  28
TORSDOF 16
