REMARK SMILES COc1cccc(-c2c(C(=O)NCCCNC(=O)c3ccc(-c4c5nc(c(-c6cc(S(=O)(=O)[O-])ccc6F)c6ccc([nH]6)c(-c6cc(S(=O)(=O)[O-])ccc6F)c6nc(c(-c7cc(S(=O)(=O)[O-])ccc7F)c7ccc4[nH]7)C=C6)C=C5)cc3)nnn2-c2ccc(OC(F)(F)F)cc2)c1
REMARK SMILES IDX 14 1 13 2 12 3 10 4 11 5 9 7 8 8 84 9 82 10 83 11 7 12 3 13
REMARK SMILES IDX 4 14 96 15 5 16 6 17 2 18 1 19 85 20 86 21 95 22 87 23 94 24
REMARK SMILES IDX 88 25 89 26 90 27 91 28 92 29 93 30 15 31 16 32 17 33 18 35
REMARK SMILES IDX 19 36 20 37 81 38 21 39 80 40 22 41 23 42 24 43 74 44 25 45
REMARK SMILES IDX 79 46 73 47 75 48 26 49 78 50 72 51 71 52 27 54 59 55 39 56
REMARK SMILES IDX 58 57 40 58 43 59 57 60 76 61 41 62 42 63 56 65 77 66 44 67
REMARK SMILES IDX 28 68 29 69 37 70 30 71 36 72 38 73 35 74 31 75 32 76 33 77
REMARK SMILES IDX 34 78 60 79 61 80 69 81 62 82 68 83 70 84 67 85 63 86 64 87
REMARK SMILES IDX 65 88 66 89 45 90 46 91 54 92 47 93 53 94 55 95 52 96 48 97
REMARK SMILES IDX 49 98 50 99 51 100
REMARK H PARENT 12 6 16 34 75 53 43 64
REMARK Flexibility Score: inf
ROOT
ATOM      1  C   UNL     1       1.446   3.765  -2.512  1.00  0.00     0.042 C 
ENDROOT
BRANCH   1   2
ATOM      2  C   UNL     1       2.036   4.212  -3.849  1.00  0.00     0.118 C 
BRANCH   2   3
ATOM      3  N   UNL     1       3.368   4.740  -3.734  1.00  0.00    -0.351 N 
ATOM      4  C   UNL     1       4.616   4.192  -3.828  1.00  0.00     0.274 C 
ATOM      5  O   UNL     1       5.523   5.031  -3.860  1.00  0.00    -0.267 OA
ATOM      6  H   UNL     1       3.384   5.706  -3.547  1.00  0.00     0.163 HD
BRANCH   4   7
ATOM      7  C   UNL     1       4.948   2.760  -3.869  1.00  0.00     0.178 A 
ATOM      8  C   UNL     1       4.274   1.533  -3.925  1.00  0.00     0.108 A 
ATOM      9  N   UNL     1       5.311   0.595  -3.878  1.00  0.00    -0.212 N 
ATOM     10  N   UNL     1       6.306   2.484  -3.751  1.00  0.00    -0.124 NA
ATOM     11  N   UNL     1       6.491   1.187  -3.653  1.00  0.00    -0.061 NA
BRANCH   8  12
ATOM     12  C   UNL     1       2.879   1.087  -3.820  1.00  0.00     0.006 A 
ATOM     13  C   UNL     1       1.105   0.089  -2.473  1.00  0.00     0.119 A 
ATOM     14  C   UNL     1       0.234   0.197  -3.558  1.00  0.00     0.046 A 
ATOM     15  C   UNL     1       2.426   0.529  -2.607  1.00  0.00     0.056 A 
ATOM     16  C   UNL     1       0.680   0.710  -4.776  1.00  0.00     0.005 A 
ATOM     17  C   UNL     1       2.009   1.119  -4.918  1.00  0.00     0.011 A 
BRANCH  13  18
ATOM     18  O   UNL     1       0.572  -0.473  -1.347  1.00  0.00    -0.497 OA
ATOM     19  C   UNL     1       1.105  -0.016  -0.108  1.00  0.00     0.278 C 
ENDBRANCH  13  18
ENDBRANCH   8  12
BRANCH   9  20
ATOM     20  C   UNL     1       5.223  -0.815  -3.937  1.00  0.00     0.067 A 
ATOM     21  C   UNL     1       5.958  -1.584  -3.033  1.00  0.00     0.032 A 
ATOM     22  C   UNL     1       4.365  -1.428  -4.853  1.00  0.00     0.032 A 
ATOM     23  C   UNL     1       5.755  -2.964  -2.995  1.00  0.00     0.049 A 
ATOM     24  C   UNL     1       4.191  -2.810  -4.827  1.00  0.00     0.049 A 
ATOM     25  C   UNL     1       4.864  -3.584  -3.880  1.00  0.00     0.129 A 
BRANCH  25  26
ATOM     26  O   UNL     1       4.741  -4.934  -3.715  1.00  0.00    -0.406 OA
BRANCH  26  27
ATOM     27  C   UNL     1       3.835  -5.612  -4.567  1.00  0.00     0.573 C 
ATOM     28  F   UNL     1       2.578  -5.140  -4.430  1.00  0.00    -0.132 F 
ATOM     29  F   UNL     1       4.217  -5.511  -5.860  1.00  0.00    -0.132 F 
ATOM     30  F   UNL     1       3.828  -6.923  -4.237  1.00  0.00    -0.132 F 
ENDBRANCH  26  27
ENDBRANCH  25  26
ENDBRANCH   9  20
ENDBRANCH   4   7
ENDBRANCH   2   3
ENDBRANCH   1   2
BRANCH   1  31
ATOM     31  C   UNL     1       0.220   4.574  -2.154  1.00  0.00     0.118 C 
BRANCH  31  32
ATOM     32  N   UNL     1      -0.911   4.324  -3.071  1.00  0.00    -0.352 N 
ATOM     33  C   UNL     1      -2.124   4.999  -3.140  1.00  0.00     0.251 C 
ATOM     34  H   UNL     1      -0.791   3.587  -3.713  1.00  0.00     0.163 HD
ATOM     35  O   UNL     1      -3.092   4.520  -3.722  1.00  0.00    -0.269 OA
BRANCH  33  36
ATOM     36  C   UNL     1      -2.187   6.321  -2.502  1.00  0.00     0.039 A 
ATOM     37  C   UNL     1      -3.171   6.702  -1.584  1.00  0.00     0.014 A 
ATOM     38  C   UNL     1      -1.056   7.089  -2.700  1.00  0.00     0.014 A 
ATOM     39  C   UNL     1      -2.927   7.818  -0.781  1.00  0.00     0.010 A 
ATOM     40  C   UNL     1      -0.691   7.920  -1.690  1.00  0.00     0.010 A 
ATOM     41  C   UNL     1      -1.656   8.405  -0.821  1.00  0.00    -0.014 A 
BRANCH  41  42
ATOM     42  C   UNL     1      -1.202   9.472   0.065  1.00  0.00     0.031 A 
ATOM     43  C   UNL     1      -1.325   9.179   1.518  1.00  0.00     0.074 A 
ATOM     44  C   UNL     1      -0.421  10.472  -0.420  1.00  0.00     0.049 A 
ATOM     45  N   UNL     1      -2.069   9.778   2.387  1.00  0.00    -0.248 NA
ATOM     46  C   UNL     1      -0.653   7.981   2.054  1.00  0.00     0.031 C 
ATOM     47  C   UNL     1       0.048  10.683  -1.803  1.00  0.00     0.029 A 
ATOM     48  N   UNL     1       0.264  11.431   0.250  1.00  0.00    -0.354 N 
ATOM     49  C   UNL     1      -1.755   9.209   3.619  1.00  0.00     0.074 A 
ATOM     50  C   UNL     1      -1.080   7.975   3.319  1.00  0.00     0.031 C 
ATOM     51  C   UNL     1       1.128  11.493  -1.808  1.00  0.00     0.029 A 
ATOM     52  C   UNL     1       1.296  12.031  -0.473  1.00  0.00     0.049 A 
ATOM     53  H   UNL     1       0.050  11.684   1.177  1.00  0.00     0.167 HD
ATOM     54  C   UNL     1      -1.835   9.932   4.772  1.00  0.00     0.034 A 
ATOM     55  C   UNL     1       2.232  12.903  -0.009  1.00  0.00     0.034 A 
ATOM     56  C   UNL     1      -2.576  11.157   4.561  1.00  0.00     0.049 A 
ATOM     57  C   UNL     1       1.666  13.475   1.240  1.00  0.00     0.074 A 
ATOM     58  C   UNL     1      -3.851  11.451   4.114  1.00  0.00     0.029 A 
ATOM     59  N   UNL     1      -1.859  12.324   4.404  1.00  0.00    -0.354 N 
ATOM     60  N   UNL     1       0.570  14.188   1.259  1.00  0.00    -0.248 NA
ATOM     61  C   UNL     1       1.992  12.813   2.495  1.00  0.00     0.031 C 
ATOM     62  C   UNL     1      -3.676  12.561   3.232  1.00  0.00     0.029 A 
ATOM     63  C   UNL     1      -2.333  12.945   3.272  1.00  0.00     0.049 A 
ATOM     64  H   UNL     1      -1.141  12.652   4.992  1.00  0.00     0.167 HD
ATOM     65  C   UNL     1      -0.148  13.720   2.351  1.00  0.00     0.074 A 
ATOM     66  C   UNL     1       0.819  12.939   3.127  1.00  0.00     0.031 C 
ATOM     67  C   UNL     1      -1.516  13.742   2.371  1.00  0.00     0.034 A 
BRANCH  54  68
ATOM     68  C   UNL     1      -0.951   9.740   5.986  1.00  0.00     0.023 A 
ATOM     69  C   UNL     1      -1.222  10.537   7.116  1.00  0.00     0.031 A 
ATOM     70  C   UNL     1       0.282   9.049   6.007  1.00  0.00     0.131 A 
ATOM     71  C   UNL     1      -0.268  10.696   8.136  1.00  0.00     0.055 A 
ATOM     72  C   UNL     1       1.198   9.155   7.058  1.00  0.00     0.041 A 
ATOM     73  F   UNL     1       0.719   8.314   4.978  1.00  0.00    -0.206 F 
ATOM     74  C   UNL     1       0.942  10.007   8.116  1.00  0.00     0.022 A 
BRANCH  71  75
ATOM     75  S   UNL     1      -0.558  11.963   9.398  1.00  0.00     0.124 S 
ATOM     76  O   UNL     1      -0.828  13.140   8.579  1.00  0.00    -0.237 OA
ATOM     77  O   UNL     1      -1.695  11.408  10.123  1.00  0.00    -0.237 OA
ATOM     78  O   UNL     1       0.701  11.996  10.140  1.00  0.00    -0.744 OA
ENDBRANCH  71  75
ENDBRANCH  54  68
BRANCH  55  79
ATOM     79  C   UNL     1       3.677  12.946  -0.384  1.00  0.00     0.023 A 
ATOM     80  C   UNL     1       4.499  14.080  -0.197  1.00  0.00     0.031 A 
ATOM     81  C   UNL     1       4.336  11.744  -0.737  1.00  0.00     0.131 A 
ATOM     82  C   UNL     1       5.905  13.981  -0.368  1.00  0.00     0.055 A 
ATOM     83  C   UNL     1       5.721  11.653  -0.902  1.00  0.00     0.041 A 
ATOM     84  F   UNL     1       3.656  10.592  -0.856  1.00  0.00    -0.206 F 
ATOM     85  C   UNL     1       6.513  12.771  -0.709  1.00  0.00     0.022 A 
BRANCH  82  86
ATOM     86  S   UNL     1       6.986  15.422  -0.071  1.00  0.00     0.124 S 
ATOM     87  O   UNL     1       6.603  16.326  -1.149  1.00  0.00    -0.237 OA
ATOM     88  O   UNL     1       6.606  15.825   1.279  1.00  0.00    -0.237 OA
ATOM     89  O   UNL     1       8.336  14.869  -0.185  1.00  0.00    -0.744 OA
ENDBRANCH  82  86
ENDBRANCH  55  79
BRANCH  67  90
ATOM     90  C   UNL     1      -2.246  14.482   1.259  1.00  0.00     0.023 A 
ATOM     91  C   UNL     1      -2.166  14.167  -0.120  1.00  0.00     0.031 A 
ATOM     92  C   UNL     1      -3.175  15.464   1.642  1.00  0.00     0.131 A 
ATOM     93  C   UNL     1      -2.991  14.833  -1.052  1.00  0.00     0.055 A 
ATOM     94  C   UNL     1      -4.003  16.106   0.721  1.00  0.00     0.041 A 
ATOM     95  F   UNL     1      -3.325  15.788   2.937  1.00  0.00    -0.206 F 
ATOM     96  C   UNL     1      -3.912  15.797  -0.630  1.00  0.00     0.022 A 
BRANCH  93  97
ATOM     97  S   UNL     1      -2.880  14.463  -2.837  1.00  0.00     0.124 S 
ATOM     98  O   UNL     1      -1.452  14.566  -3.117  1.00  0.00    -0.237 OA
ATOM     99  O   UNL     1      -3.453  13.123  -2.923  1.00  0.00    -0.237 OA
ATOM    100  O   UNL     1      -3.696  15.511  -3.453  1.00  0.00    -0.744 OA
ENDBRANCH  93  97
ENDBRANCH  67  90
ENDBRANCH  41  42
ENDBRANCH  33  36
ENDBRANCH  31  32
ENDBRANCH   1  31
TORSDOF 18
