REMARK SMILES O=C(Cc1ccccc1-c1ccn(C(F)F)c(=O)c1)NCCCNC(=O)c1ccc(-c2c3nc(c(-c4cc(S(=O)(=O)[O-])ccc4F)c4ccc([nH]4)c(-c4cc(S(=O)(=O)[O-])ccc4F)c4nc(c(-c5cc(S(=O)(=O)[O-])ccc5F)c5ccc2[nH]5)C=C4)C=C3)cc1
REMARK SMILES IDX 22 1 21 2 20 3 1 4 2 5 3 7 4 8 5 9 9 10 6 11 8 12 7 13 10 14
REMARK SMILES IDX 11 15 19 16 12 17 17 18 13 19 18 20 14 21 15 22 16 23 23 24
REMARK SMILES IDX 24 25 25 26 26 28 27 29 28 30 89 31 29 32 88 33 30 34 31 35
REMARK SMILES IDX 32 36 82 37 33 38 87 39 81 40 83 41 34 42 86 43 80 44 79 45
REMARK SMILES IDX 35 47 67 48 47 49 66 50 48 51 51 52 65 53 84 54 49 55 50 56
REMARK SMILES IDX 64 58 85 59 52 60 36 61 37 62 45 63 38 64 44 65 46 66 43 67
REMARK SMILES IDX 39 68 40 69 41 70 42 71 68 72 69 73 77 74 70 75 76 76 78 77
REMARK SMILES IDX 75 78 71 79 72 80 73 81 74 82 53 83 54 84 62 85 55 86 61 87
REMARK SMILES IDX 63 88 60 89 56 90 57 91 58 92 59 93
REMARK H PARENT 20 6 24 27 83 46 51 57
REMARK Flexibility Score: inf
ROOT
ATOM      1  C   UNL     1       1.709   3.529  -0.538  1.00  0.00     0.042 C 
ENDROOT
BRANCH   1   2
ATOM      2  C   UNL     1       1.723   2.111  -1.136  1.00  0.00     0.117 C 
BRANCH   2   3
ATOM      3  N   UNL     1       2.347   1.067  -0.323  1.00  0.00    -0.356 N 
ATOM      4  O   UNL     1       0.921  -0.599  -1.030  1.00  0.00    -0.275 OA
ATOM      5  C   UNL     1       1.925  -0.258  -0.406  1.00  0.00     0.224 C 
ATOM      6  H   UNL     1       3.077   1.304   0.293  1.00  0.00     0.163 HD
BRANCH   5   7
ATOM      7  C   UNL     1       2.775  -1.292   0.338  1.00  0.00     0.136 C 
BRANCH   7   8
ATOM      8  C   UNL     1       3.640  -2.162  -0.570  1.00  0.00    -0.031 A 
ATOM      9  C   UNL     1       3.307  -3.509  -0.792  1.00  0.00     0.005 A 
ATOM     10  C   UNL     1       4.803  -1.670  -1.193  1.00  0.00    -0.014 A 
ATOM     11  C   UNL     1       4.093  -4.323  -1.621  1.00  0.00     0.000 A 
ATOM     12  C   UNL     1       5.570  -2.483  -2.046  1.00  0.00     0.009 A 
ATOM     13  C   UNL     1       5.214  -3.807  -2.262  1.00  0.00     0.001 A 
BRANCH  10  14
ATOM     14  C   UNL     1       5.330  -0.341  -0.884  1.00  0.00    -0.011 A 
ATOM     15  C   UNL     1       5.906  -0.048   0.408  1.00  0.00     0.027 A 
ATOM     16  C   UNL     1       5.270   0.608  -1.830  1.00  0.00     0.080 A 
ATOM     17  C   UNL     1       6.394   1.164   0.657  1.00  0.00     0.095 A 
ATOM     18  C   UNL     1       5.793   1.968  -1.553  1.00  0.00     0.255 A 
ATOM     19  N   UNL     1       6.373   2.151  -0.310  1.00  0.00    -0.258 N 
ATOM     20  O   UNL     1       5.651   2.811  -2.435  1.00  0.00    -0.269 OA
BRANCH  19  21
ATOM     21  C   UNL     1       6.904   3.433   0.070  1.00  0.00     0.451 C 
ATOM     22  F   UNL     1       6.955   4.326  -0.936  1.00  0.00    -0.185 F 
ATOM     23  F   UNL     1       6.100   3.941   1.041  1.00  0.00    -0.185 F 
ENDBRANCH  19  21
ENDBRANCH  10  14
ENDBRANCH   7   8
ENDBRANCH   5   7
ENDBRANCH   2   3
ENDBRANCH   1   2
BRANCH   1  24
ATOM     24  C   UNL     1       3.023   4.331  -0.551  1.00  0.00     0.118 C 
BRANCH  24  25
ATOM     25  N   UNL     1       3.436   4.764  -1.880  1.00  0.00    -0.352 N 
ATOM     26  C   UNL     1       4.121   5.870  -2.343  1.00  0.00     0.251 C 
ATOM     27  H   UNL     1       3.171   4.140  -2.594  1.00  0.00     0.163 HD
ATOM     28  O   UNL     1       4.197   6.015  -3.566  1.00  0.00    -0.269 OA
BRANCH  26  29
ATOM     29  C   UNL     1       4.780   6.887  -1.470  1.00  0.00     0.039 A 
ATOM     30  C   UNL     1       4.990   8.181  -1.964  1.00  0.00     0.014 A 
ATOM     31  C   UNL     1       5.317   6.576  -0.224  1.00  0.00     0.014 A 
ATOM     32  C   UNL     1       5.706   9.132  -1.214  1.00  0.00     0.010 A 
ATOM     33  C   UNL     1       6.035   7.512   0.531  1.00  0.00     0.010 A 
ATOM     34  C   UNL     1       6.222   8.811   0.056  1.00  0.00    -0.014 A 
BRANCH  34  35
ATOM     35  C   UNL     1       6.759   9.864   0.966  1.00  0.00     0.031 A 
ATOM     36  C   UNL     1       8.178   9.864   1.476  1.00  0.00     0.074 A 
ATOM     37  C   UNL     1       5.877  10.771   1.433  1.00  0.00     0.049 A 
ATOM     38  N   UNL     1       8.780  10.736   2.250  1.00  0.00    -0.248 NA
ATOM     39  C   UNL     1       9.017   8.713   1.116  1.00  0.00     0.031 C 
ATOM     40  C   UNL     1       4.443  10.767   1.127  1.00  0.00     0.029 A 
ATOM     41  N   UNL     1       6.035  11.861   2.248  1.00  0.00    -0.354 N 
ATOM     42  C   UNL     1      10.064  10.241   2.473  1.00  0.00     0.074 A 
ATOM     43  C   UNL     1      10.125   8.956   1.807  1.00  0.00     0.031 C 
ATOM     44  C   UNL     1       3.868  11.840   1.684  1.00  0.00     0.029 A 
ATOM     45  C   UNL     1       4.878  12.588   2.419  1.00  0.00     0.049 A 
ATOM     46  H   UNL     1       6.891  12.101   2.671  1.00  0.00     0.167 HD
ATOM     47  C   UNL     1      11.092  10.820   3.150  1.00  0.00     0.034 A 
ATOM     48  C   UNL     1       4.657  13.744   3.074  1.00  0.00     0.034 A 
ATOM     49  C   UNL     1      10.984  12.109   3.803  1.00  0.00     0.049 A 
ATOM     50  C   UNL     1       5.830  14.416   3.732  1.00  0.00     0.074 A 
ATOM     51  C   UNL     1      11.967  12.845   4.447  1.00  0.00     0.029 A 
ATOM     52  N   UNL     1       9.813  12.854   3.902  1.00  0.00    -0.354 N 
ATOM     53  N   UNL     1       7.071  13.994   3.836  1.00  0.00    -0.248 NA
ATOM     54  C   UNL     1       5.584  15.731   4.329  1.00  0.00     0.031 C 
ATOM     55  C   UNL     1      11.377  13.993   4.989  1.00  0.00     0.029 A 
ATOM     56  C   UNL     1      10.044  14.025   4.609  1.00  0.00     0.049 A 
ATOM     57  H   UNL     1       8.943  12.588   3.524  1.00  0.00     0.167 HD
ATOM     58  C   UNL     1       7.762  15.012   4.482  1.00  0.00     0.074 A 
ATOM     59  C   UNL     1       6.803  16.075   4.716  1.00  0.00     0.031 C 
ATOM     60  C   UNL     1       9.069  15.066   4.850  1.00  0.00     0.034 A 
BRANCH  47  61
ATOM     61  C   UNL     1      12.415  10.075   3.222  1.00  0.00     0.023 A 
ATOM     62  C   UNL     1      13.122   9.710   2.061  1.00  0.00     0.031 A 
ATOM     63  C   UNL     1      12.988   9.728   4.460  1.00  0.00     0.131 A 
ATOM     64  C   UNL     1      14.303   8.955   2.157  1.00  0.00     0.055 A 
ATOM     65  C   UNL     1      14.211   9.055   4.552  1.00  0.00     0.041 A 
ATOM     66  F   UNL     1      12.366  10.029   5.612  1.00  0.00    -0.206 F 
ATOM     67  C   UNL     1      14.868   8.649   3.395  1.00  0.00     0.022 A 
BRANCH  64  68
ATOM     68  S   UNL     1      15.006   8.249   0.640  1.00  0.00     0.124 S 
ATOM     69  O   UNL     1      13.892   7.440   0.150  1.00  0.00    -0.237 OA
ATOM     70  O   UNL     1      15.328   9.436  -0.142  1.00  0.00    -0.237 OA
ATOM     71  O   UNL     1      16.156   7.484   1.119  1.00  0.00    -0.744 OA
ENDBRANCH  64  68
ENDBRANCH  47  61
BRANCH  48  72
ATOM     72  C   UNL     1       3.298  14.358   3.072  1.00  0.00     0.023 A 
ATOM     73  C   UNL     1       3.063  15.590   2.440  1.00  0.00     0.031 A 
ATOM     74  C   UNL     1       2.209  13.720   3.693  1.00  0.00     0.131 A 
ATOM     75  C   UNL     1       1.785  16.167   2.481  1.00  0.00     0.055 A 
ATOM     76  C   UNL     1       0.925  14.268   3.677  1.00  0.00     0.041 A 
ATOM     77  F   UNL     1       2.372  12.533   4.299  1.00  0.00    -0.206 F 
ATOM     78  C   UNL     1       0.710  15.507   3.080  1.00  0.00     0.022 A 
BRANCH  75  79
ATOM     79  S   UNL     1       1.567  17.841   1.818  1.00  0.00     0.124 S 
ATOM     80  O   UNL     1       2.568  18.591   2.567  1.00  0.00    -0.237 OA
ATOM     81  O   UNL     1       1.841  17.643   0.399  1.00  0.00    -0.237 OA
ATOM     82  O   UNL     1       0.177  18.157   2.144  1.00  0.00    -0.744 OA
ENDBRANCH  75  79
ENDBRANCH  48  72
BRANCH  60  83
ATOM     83  C   UNL     1       9.530  16.345   5.506  1.00  0.00     0.023 A 
ATOM     84  C   UNL     1       9.004  16.776   6.736  1.00  0.00     0.031 A 
ATOM     85  C   UNL     1      10.464  17.174   4.860  1.00  0.00     0.131 A 
ATOM     86  C   UNL     1       9.341  18.042   7.234  1.00  0.00     0.055 A 
ATOM     87  C   UNL     1      10.861  18.396   5.404  1.00  0.00     0.041 A 
ATOM     88  F   UNL     1      10.998  16.816   3.681  1.00  0.00    -0.206 F 
ATOM     89  C   UNL     1      10.281  18.847   6.587  1.00  0.00     0.022 A 
BRANCH  86  90
ATOM     90  S   UNL     1       8.416  18.686   8.656  1.00  0.00     0.124 S 
ATOM     91  O   UNL     1       7.038  18.593   8.185  1.00  0.00    -0.237 OA
ATOM     92  O   UNL     1       8.791  17.757   9.717  1.00  0.00    -0.237 OA
ATOM     93  O   UNL     1       8.930  20.045   8.811  1.00  0.00    -0.744 OA
ENDBRANCH  86  90
ENDBRANCH  60  83
ENDBRANCH  34  35
ENDBRANCH  26  29
ENDBRANCH  24  25
ENDBRANCH   1  24
TORSDOF 16
