REMARK SMILES Cc1ccc(OCCC(=O)N2C[C@H](O)C[C@@H]2C(=O)NCCCNC(=O)c2ccc(-c3c4nc(c(-c5cc(S(=O)(=O)[O-])ccc5F)c5ccc([nH]5)c(-c5cc(S(=O)(=O)[O-])ccc5F)c5nc(c(-c6cc(S(=O)(=O)[O-])ccc6F)c6ccc3[nH]6)C=C5)C=C4)cc2)cc1
REMARK SMILES IDX 20 1 19 2 17 3 18 4 16 6 11 7 12 8 13 9 15 10 9 11 10 12
REMARK SMILES IDX 8 13 7 14 6 15 5 16 1 17 2 18 3 19 90 20 4 21 89 22 14 23
REMARK SMILES IDX 21 25 22 26 23 27 24 28 25 30 26 31 27 32 88 33 28 34 87 35
REMARK SMILES IDX 29 36 30 37 31 38 81 39 32 40 86 41 80 42 82 43 33 44 85 45
REMARK SMILES IDX 79 46 78 47 34 49 66 50 46 51 65 52 47 53 50 54 64 55 83 56
REMARK SMILES IDX 48 57 49 58 63 60 84 61 51 62 35 63 36 64 44 65 37 66 43 67
REMARK SMILES IDX 45 68 42 69 38 70 39 71 40 72 41 73 67 74 68 75 76 76 69 77
REMARK SMILES IDX 75 78 77 79 74 80 70 81 71 82 72 83 73 84 52 85 53 86 61 87
REMARK SMILES IDX 54 88 60 89 62 90 59 91 55 92 56 93 57 94 58 95
REMARK H PARENT 19 5 14 24 23 29 82 48 50 59
REMARK Flexibility Score: inf
ROOT
ATOM      1  C   UNL     1      -3.003   1.474   4.193  1.00  0.00     0.117 C 
ENDROOT
BRANCH   1   2
ATOM      2  N   UNL     1      -1.692   1.147   4.744  1.00  0.00    -0.354 N 
ATOM      3  C   UNL     1      -0.450   1.260   4.197  1.00  0.00     0.242 C 
ATOM      4  O   UNL     1       0.500   1.347   4.987  1.00  0.00    -0.273 OA
ATOM      5  H   UNL     1      -1.708   0.785   5.659  1.00  0.00     0.163 HD
BRANCH   3   6
ATOM      6  C   UNL     1      -0.156   1.166   2.674  1.00  0.00     0.177 C 
ATOM      7  N   UNL     1      -1.255   0.933   1.738  1.00  0.00    -0.328 N 
ATOM      8  C   UNL     1      -1.321  -0.473   1.357  1.00  0.00     0.152 C 
ATOM      9  C   UNL     1      -0.195  -1.177   2.107  1.00  0.00     0.136 C 
ATOM     10  C   UNL     1       0.769  -0.047   2.448  1.00  0.00     0.069 C 
BRANCH   7  11
ATOM     11  C   UNL     1      -1.835   1.958   1.006  1.00  0.00     0.226 C 
ATOM     12  O   UNL     1      -1.356   3.092   0.968  1.00  0.00    -0.275 OA
BRANCH  11  13
ATOM     13  C   UNL     1      -3.167   1.656   0.329  1.00  0.00     0.141 C 
BRANCH  13  14
ATOM     14  C   UNL     1      -3.239   1.890  -1.175  1.00  0.00     0.239 C 
BRANCH  14  15
ATOM     15  O   UNL     1      -2.750   0.783  -1.953  1.00  0.00    -0.493 OA
BRANCH  15  16
ATOM     16  C   UNL     1      -1.393   0.646  -2.036  1.00  0.00     0.119 A 
ATOM     17  C   UNL     1       2.776  -0.189  -1.445  1.00  0.00     0.044 C 
ATOM     18  C   UNL     1       1.341   0.103  -1.758  1.00  0.00    -0.051 A 
ATOM     19  C   UNL     1       0.444  -0.934  -2.041  1.00  0.00     0.007 A 
ATOM     20  C   UNL     1       0.874   1.419  -1.743  1.00  0.00     0.007 A 
ATOM     21  C   UNL     1      -0.919  -0.660  -2.194  1.00  0.00     0.046 A 
ATOM     22  C   UNL     1      -0.484   1.690  -1.893  1.00  0.00     0.046 A 
ENDBRANCH  15  16
ENDBRANCH  14  15
ENDBRANCH  13  14
ENDBRANCH  11  13
ENDBRANCH   7  11
BRANCH   9  23
ATOM     23  O   UNL     1      -0.671  -1.851   3.265  1.00  0.00    -0.391 OA
ATOM     24  H   UNL     1      -1.113  -1.216   3.850  1.00  0.00     0.211 HD
ENDBRANCH   9  23
ENDBRANCH   3   6
ENDBRANCH   1   2
BRANCH   1  25
ATOM     25  C   UNL     1      -3.718   0.274   3.589  1.00  0.00     0.042 C 
BRANCH  25  26
ATOM     26  C   UNL     1      -4.929  -0.221   4.361  1.00  0.00     0.118 C 
BRANCH  26  27
ATOM     27  N   UNL     1      -6.213   0.166   3.771  1.00  0.00    -0.352 N 
ATOM     28  C   UNL     1      -7.460  -0.400   4.010  1.00  0.00     0.251 C 
ATOM     29  H   UNL     1      -6.190   0.914   3.131  1.00  0.00     0.163 HD
ATOM     30  O   UNL     1      -8.476  -0.053   3.435  1.00  0.00    -0.269 OA
BRANCH  28  31
ATOM     31  C   UNL     1      -7.528  -1.387   5.111  1.00  0.00     0.039 A 
ATOM     32  C   UNL     1      -7.944  -0.873   6.344  1.00  0.00     0.014 A 
ATOM     33  C   UNL     1      -6.744  -2.534   5.021  1.00  0.00     0.014 A 
ATOM     34  C   UNL     1      -7.327  -1.333   7.498  1.00  0.00     0.010 A 
ATOM     35  C   UNL     1      -6.067  -2.926   6.161  1.00  0.00     0.010 A 
ATOM     36  C   UNL     1      -6.288  -2.252   7.374  1.00  0.00    -0.014 A 
BRANCH  36  37
ATOM     37  C   UNL     1      -5.267  -2.418   8.405  1.00  0.00     0.031 A 
ATOM     38  C   UNL     1      -5.152  -3.700   9.127  1.00  0.00     0.074 A 
ATOM     39  C   UNL     1      -4.398  -1.415   8.682  1.00  0.00     0.049 A 
ATOM     40  N   UNL     1      -4.489  -3.854  10.220  1.00  0.00    -0.248 NA
ATOM     41  C   UNL     1      -5.873  -4.904   8.723  1.00  0.00     0.031 C 
ATOM     42  C   UNL     1      -3.158  -1.500   9.451  1.00  0.00     0.029 A 
ATOM     43  N   UNL     1      -4.630  -0.043   8.557  1.00  0.00    -0.354 N 
ATOM     44  C   UNL     1      -4.432  -5.198  10.487  1.00  0.00     0.074 A 
ATOM     45  C   UNL     1      -5.420  -5.783   9.620  1.00  0.00     0.031 C 
ATOM     46  C   UNL     1      -2.878  -0.293   9.964  1.00  0.00     0.029 A 
ATOM     47  C   UNL     1      -3.994   0.577   9.651  1.00  0.00     0.049 A 
ATOM     48  H   UNL     1      -5.140   0.404   7.843  1.00  0.00     0.167 HD
ATOM     49  C   UNL     1      -3.446  -5.655  11.306  1.00  0.00     0.034 A 
ATOM     50  C   UNL     1      -4.692   1.319  10.556  1.00  0.00     0.034 A 
ATOM     51  C   UNL     1      -2.888  -4.558  12.108  1.00  0.00     0.049 A 
ATOM     52  C   UNL     1      -4.600   0.800  11.972  1.00  0.00     0.074 A 
ATOM     53  C   UNL     1      -1.679  -3.884  12.126  1.00  0.00     0.029 A 
ATOM     54  N   UNL     1      -3.750  -3.825  12.923  1.00  0.00    -0.354 N 
ATOM     55  N   UNL     1      -4.138  -0.378  12.295  1.00  0.00    -0.248 NA
ATOM     56  C   UNL     1      -5.036   1.563  13.135  1.00  0.00     0.031 C 
ATOM     57  C   UNL     1      -1.852  -2.695  12.893  1.00  0.00     0.029 A 
ATOM     58  C   UNL     1      -3.149  -2.670  13.382  1.00  0.00     0.049 A 
ATOM     59  H   UNL     1      -4.671  -4.097  13.144  1.00  0.00     0.167 HD
ATOM     60  C   UNL     1      -4.237  -0.562  13.653  1.00  0.00     0.074 A 
ATOM     61  C   UNL     1      -4.775   0.701  14.133  1.00  0.00     0.031 C 
ATOM     62  C   UNL     1      -3.885  -1.747  14.247  1.00  0.00     0.034 A 
BRANCH  49  63
ATOM     63  C   UNL     1      -2.838  -7.049  11.232  1.00  0.00     0.023 A 
ATOM     64  C   UNL     1      -1.685  -7.331  11.999  1.00  0.00     0.031 A 
ATOM     65  C   UNL     1      -3.225  -8.085  10.348  1.00  0.00     0.131 A 
ATOM     66  C   UNL     1      -0.978  -8.545  11.852  1.00  0.00     0.055 A 
ATOM     67  C   UNL     1      -2.551  -9.307  10.239  1.00  0.00     0.041 A 
ATOM     68  F   UNL     1      -4.243  -7.972   9.491  1.00  0.00    -0.206 F 
ATOM     69  C   UNL     1      -1.415  -9.541  10.985  1.00  0.00     0.022 A 
BRANCH  66  70
ATOM     70  S   UNL     1       0.577  -8.790  12.753  1.00  0.00     0.124 S 
ATOM     71  O   UNL     1       1.414  -7.722  12.217  1.00  0.00    -0.237 OA
ATOM     72  O   UNL     1       0.157  -8.653  14.142  1.00  0.00    -0.237 OA
ATOM     73  O   UNL     1       0.984 -10.141  12.365  1.00  0.00    -0.744 OA
ENDBRANCH  66  70
ENDBRANCH  49  63
BRANCH  50  74
ATOM     74  C   UNL     1      -5.837   2.051   9.948  1.00  0.00     0.023 A 
ATOM     75  C   UNL     1      -5.520   2.954   8.911  1.00  0.00     0.031 A 
ATOM     76  C   UNL     1      -7.156   1.591  10.037  1.00  0.00     0.131 A 
ATOM     77  C   UNL     1      -6.444   3.211   7.890  1.00  0.00     0.055 A 
ATOM     78  C   UNL     1      -8.105   1.919   9.058  1.00  0.00     0.041 A 
ATOM     79  F   UNL     1      -7.510   0.708  10.983  1.00  0.00    -0.206 F 
ATOM     80  C   UNL     1      -7.736   2.688   7.951  1.00  0.00     0.022 A 
BRANCH  77  81
ATOM     81  S   UNL     1      -5.850   3.967   6.346  1.00  0.00     0.124 S 
ATOM     82  O   UNL     1      -6.246   5.359   6.512  1.00  0.00    -0.237 OA
ATOM     83  O   UNL     1      -4.414   3.705   6.384  1.00  0.00    -0.237 OA
ATOM     84  O   UNL     1      -6.559   3.216   5.311  1.00  0.00    -0.744 OA
ENDBRANCH  77  81
ENDBRANCH  50  74
BRANCH  62  85
ATOM     85  C   UNL     1      -4.144  -2.147  15.696  1.00  0.00     0.023 A 
ATOM     86  C   UNL     1      -4.925  -1.404  16.595  1.00  0.00     0.031 A 
ATOM     87  C   UNL     1      -3.639  -3.368  16.216  1.00  0.00     0.131 A 
ATOM     88  C   UNL     1      -5.116  -1.817  17.929  1.00  0.00     0.055 A 
ATOM     89  C   UNL     1      -3.888  -3.814  17.520  1.00  0.00     0.041 A 
ATOM     90  F   UNL     1      -2.889  -4.199  15.478  1.00  0.00    -0.206 F 
ATOM     91  C   UNL     1      -4.619  -3.029  18.394  1.00  0.00     0.022 A 
BRANCH  88  92
ATOM     92  S   UNL     1      -5.988  -0.699  19.059  1.00  0.00     0.124 S 
ATOM     93  O   UNL     1      -5.109   0.467  19.067  1.00  0.00    -0.237 OA
ATOM     94  O   UNL     1      -7.272  -0.518  18.391  1.00  0.00    -0.237 OA
ATOM     95  O   UNL     1      -6.040  -1.445  20.315  1.00  0.00    -0.744 OA
ENDBRANCH  88  92
ENDBRANCH  62  85
ENDBRANCH  36  37
ENDBRANCH  28  31
ENDBRANCH  26  27
ENDBRANCH  25  26
ENDBRANCH   1  25
TORSDOF 19
