REMARK SMILES C[C@@H](C(=O)NCCCNC(=O)c1ccc(-c2c3nc(c(-c4cc(S(=O)(=O)[O-])ccc4F)c4ccc([nH]4)c(-c4cc(S(=O)(=O)[O-])ccc4F)c4nc(c(-c5cc(S(=O)(=O)[O-])ccc5F)c5ccc2[nH]5)C=C4)C=C3)cc1)c1ccc(-c2cccc(OC(=O)Nc3ccccc3)c2)c(F)c1
REMARK SMILES IDX 6 1 5 2 3 3 4 4 2 6 1 7 75 8 76 9 97 10 77 11 95 12 78 13
REMARK SMILES IDX 96 14 79 15 80 16 94 17 81 18 83 19 82 20 84 21 85 22 86 23
REMARK SMILES IDX 87 24 88 26 89 27 93 28 90 29 92 30 91 31 7 32 8 33 9 34
REMARK SMILES IDX 10 35 11 37 12 38 13 39 74 40 14 41 73 42 15 43 16 44 17 45
REMARK SMILES IDX 67 46 18 47 72 48 66 49 68 50 19 51 71 52 65 53 64 54 20 56
REMARK SMILES IDX 52 57 32 58 51 59 33 60 36 61 50 62 69 63 34 64 35 65 49 67
REMARK SMILES IDX 70 68 37 69 21 70 22 71 30 72 23 73 29 74 31 75 28 76 24 77
REMARK SMILES IDX 25 78 26 79 27 80 53 81 54 82 62 83 55 84 61 85 63 86 60 87
REMARK SMILES IDX 56 88 57 89 58 90 59 91 38 92 39 93 47 94 40 95 46 96 48 97
REMARK SMILES IDX 45 98 41 99 42 100 43 101 44 102
REMARK H PARENT 5 5 87 25 9 36 68 55 36 66
REMARK Flexibility Score: inf
ROOT
ATOM      1  C   UNL     1       3.499   1.080   1.611  1.00  0.00     0.117 C 
ENDROOT
BRANCH   1   2
ATOM      2  N   UNL     1       2.512   2.138   1.531  1.00  0.00    -0.356 N 
ATOM      3  C   UNL     1       1.206   2.118   1.138  1.00  0.00     0.227 C 
ATOM      4  O   UNL     1       0.709   3.223   0.917  1.00  0.00    -0.274 OA
ATOM      5  H   UNL     1       2.841   3.024   1.808  1.00  0.00     0.163 HD
BRANCH   3   6
ATOM      6  C   UNL     1       0.464   0.778   0.990  1.00  0.00     0.105 C 
ATOM      7  C   UNL     1       0.819   0.130  -0.353  1.00  0.00     0.023 C 
BRANCH   6   8
ATOM      8  C   UNL     1      -1.062   0.787   1.143  1.00  0.00    -0.033 A 
ATOM      9  C   UNL     1      -1.863   1.935   1.104  1.00  0.00     0.005 A 
ATOM     10  C   UNL     1      -1.720  -0.448   1.281  1.00  0.00     0.044 A 
ATOM     11  C   UNL     1      -3.258   1.857   1.192  1.00  0.00     0.012 A 
ATOM     12  C   UNL     1      -3.111  -0.522   1.350  1.00  0.00     0.131 A 
ATOM     13  C   UNL     1      -3.912   0.625   1.310  1.00  0.00     0.018 A 
ATOM     14  F   UNL     1      -3.671  -1.738   1.450  1.00  0.00    -0.206 F 
BRANCH  13  15
ATOM     15  C   UNL     1      -5.374   0.563   1.448  1.00  0.00    -0.012 A 
ATOM     16  C   UNL     1      -6.229   1.240   0.561  1.00  0.00     0.009 A 
ATOM     17  C   UNL     1      -5.946  -0.142   2.519  1.00  0.00     0.056 A 
ATOM     18  C   UNL     1      -7.614   1.219   0.744  1.00  0.00     0.004 A 
ATOM     19  C   UNL     1      -7.322  -0.142   2.713  1.00  0.00     0.133 A 
ATOM     20  C   UNL     1      -8.162   0.530   1.824  1.00  0.00     0.047 A 
BRANCH  19  21
ATOM     21  O   UNL     1      -7.970  -0.772   3.802  1.00  0.00    -0.410 OA
BRANCH  21  22
ATOM     22  C   UNL     1      -7.353  -1.262   4.951  1.00  0.00     0.417 C 
ATOM     23  O   UNL     1      -6.142  -1.322   5.151  1.00  0.00    -0.224 OA
ATOM     24  N   UNL     1      -8.210  -1.601   5.965  1.00  0.00    -0.291 N 
ATOM     25  H   UNL     1      -7.770  -1.833   6.814  1.00  0.00     0.173 HD
BRANCH  24  26
ATOM     26  C   UNL     1      -9.610  -1.673   5.994  1.00  0.00     0.044 A 
ATOM     27  C   UNL     1     -10.217  -1.627   7.254  1.00  0.00     0.026 A 
ATOM     28  C   UNL     1     -10.411  -1.810   4.859  1.00  0.00     0.026 A 
ATOM     29  C   UNL     1     -11.606  -1.669   7.375  1.00  0.00     0.002 A 
ATOM     30  C   UNL     1     -11.802  -1.868   4.982  1.00  0.00     0.002 A 
ATOM     31  C   UNL     1     -12.400  -1.786   6.238  1.00  0.00     0.000 A 
ENDBRANCH  24  26
ENDBRANCH  21  22
ENDBRANCH  19  21
ENDBRANCH  13  15
ENDBRANCH   6   8
ENDBRANCH   3   6
ENDBRANCH   1   2
BRANCH   1  32
ATOM     32  C   UNL     1       4.409   1.060   0.382  1.00  0.00     0.042 C 
BRANCH  32  33
ATOM     33  C   UNL     1       5.110   2.381   0.080  1.00  0.00     0.118 C 
BRANCH  33  34
ATOM     34  N   UNL     1       6.047   2.770   1.120  1.00  0.00    -0.352 N 
ATOM     35  C   UNL     1       7.394   3.027   1.032  1.00  0.00     0.251 C 
ATOM     36  H   UNL     1       5.660   2.863   2.020  1.00  0.00     0.163 HD
ATOM     37  O   UNL     1       8.046   3.162   2.063  1.00  0.00    -0.269 OA
BRANCH  35  38
ATOM     38  C   UNL     1       8.060   3.110  -0.289  1.00  0.00     0.039 A 
ATOM     39  C   UNL     1       9.297   2.483  -0.456  1.00  0.00     0.014 A 
ATOM     40  C   UNL     1       7.486   3.816  -1.351  1.00  0.00     0.014 A 
ATOM     41  C   UNL     1       9.928   2.509  -1.703  1.00  0.00     0.010 A 
ATOM     42  C   UNL     1       8.083   3.783  -2.611  1.00  0.00     0.010 A 
ATOM     43  C   UNL     1       9.311   3.130  -2.801  1.00  0.00    -0.014 A 
BRANCH  43  44
ATOM     44  C   UNL     1       9.938   3.110  -4.149  1.00  0.00     0.031 A 
ATOM     45  C   UNL     1      10.392   4.393  -4.792  1.00  0.00     0.074 A 
ATOM     46  C   UNL     1      10.050   1.945  -4.817  1.00  0.00     0.049 A 
ATOM     47  N   UNL     1      10.886   4.592  -5.987  1.00  0.00    -0.248 NA
ATOM     48  C   UNL     1      10.244   5.618  -3.991  1.00  0.00     0.031 C 
ATOM     49  C   UNL     1       9.621   0.638  -4.313  1.00  0.00     0.029 A 
ATOM     50  N   UNL     1      10.551   1.669  -6.064  1.00  0.00    -0.354 N 
ATOM     51  C   UNL     1      11.097   5.963  -6.088  1.00  0.00     0.074 A 
ATOM     52  C   UNL     1      10.624   6.550  -4.852  1.00  0.00     0.031 C 
ATOM     53  C   UNL     1       9.900  -0.301  -5.231  1.00  0.00     0.029 A 
ATOM     54  C   UNL     1      10.484   0.338  -6.406  1.00  0.00     0.049 A 
ATOM     55  H   UNL     1      10.924   2.359  -6.659  1.00  0.00     0.167 HD
ATOM     56  C   UNL     1      11.653   6.665  -7.108  1.00  0.00     0.034 A 
ATOM     57  C   UNL     1      10.841  -0.295  -7.542  1.00  0.00     0.034 A 
ATOM     58  C   UNL     1      12.132   6.065  -8.330  1.00  0.00     0.049 A 
ATOM     59  C   UNL     1      11.431   0.509  -8.672  1.00  0.00     0.074 A 
ATOM     60  C   UNL     1      12.752   6.676  -9.407  1.00  0.00     0.029 A 
ATOM     61  N   UNL     1      12.042   4.714  -8.642  1.00  0.00    -0.354 N 
ATOM     62  N   UNL     1      11.653   1.801  -8.738  1.00  0.00    -0.248 NA
ATOM     63  C   UNL     1      11.826  -0.233  -9.876  1.00  0.00     0.031 C 
ATOM     64  C   UNL     1      12.980   5.709 -10.392  1.00  0.00     0.029 A 
ATOM     65  C   UNL     1      12.570   4.479  -9.903  1.00  0.00     0.049 A 
ATOM     66  H   UNL     1      11.659   4.024  -8.054  1.00  0.00     0.167 HD
ATOM     67  C   UNL     1      12.243   2.020  -9.980  1.00  0.00     0.074 A 
ATOM     68  C   UNL     1      12.352   0.726 -10.622  1.00  0.00     0.031 C 
ATOM     69  C   UNL     1      12.663   3.185 -10.537  1.00  0.00     0.034 A 
BRANCH  56  70
ATOM     70  C   UNL     1      11.747   8.164  -6.948  1.00  0.00     0.023 A 
ATOM     71  C   UNL     1      12.532   8.751  -5.940  1.00  0.00     0.031 A 
ATOM     72  C   UNL     1      11.023   9.018  -7.798  1.00  0.00     0.131 A 
ATOM     73  C   UNL     1      12.516  10.142  -5.759  1.00  0.00     0.055 A 
ATOM     74  C   UNL     1      11.074  10.408  -7.663  1.00  0.00     0.041 A 
ATOM     75  F   UNL     1      10.240   8.517  -8.766  1.00  0.00    -0.206 F 
ATOM     76  C   UNL     1      11.812  10.976  -6.630  1.00  0.00     0.022 A 
BRANCH  73  77
ATOM     77  S   UNL     1      13.317  10.832  -4.286  1.00  0.00     0.124 S 
ATOM     78  O   UNL     1      12.578  10.172  -3.212  1.00  0.00    -0.237 OA
ATOM     79  O   UNL     1      14.704  10.417  -4.456  1.00  0.00    -0.237 OA
ATOM     80  O   UNL     1      13.076  12.269  -4.406  1.00  0.00    -0.744 OA
ENDBRANCH  73  77
ENDBRANCH  56  70
BRANCH  57  81
ATOM     81  C   UNL     1      10.649  -1.767  -7.678  1.00  0.00     0.023 A 
ATOM     82  C   UNL     1      11.750  -2.629  -7.800  1.00  0.00     0.031 A 
ATOM     83  C   UNL     1       9.361  -2.329  -7.731  1.00  0.00     0.131 A 
ATOM     84  C   UNL     1      11.544  -4.001  -8.013  1.00  0.00     0.055 A 
ATOM     85  C   UNL     1       9.161  -3.701  -7.894  1.00  0.00     0.041 A 
ATOM     86  F   UNL     1       8.274  -1.549  -7.613  1.00  0.00    -0.206 F 
ATOM     87  C   UNL     1      10.258  -4.544  -8.049  1.00  0.00     0.022 A 
BRANCH  84  88
ATOM     88  S   UNL     1      12.986  -5.057  -8.322  1.00  0.00     0.124 S 
ATOM     89  O   UNL     1      13.568  -4.428  -9.502  1.00  0.00    -0.237 OA
ATOM     90  O   UNL     1      13.737  -4.912  -7.080  1.00  0.00    -0.237 OA
ATOM     91  O   UNL     1      12.399  -6.377  -8.542  1.00  0.00    -0.744 OA
ENDBRANCH  84  88
ENDBRANCH  57  81
BRANCH  69  92
ATOM     92  C   UNL     1      13.322   3.097 -11.890  1.00  0.00     0.023 A 
ATOM     93  C   UNL     1      12.604   2.734 -13.043  1.00  0.00     0.031 A 
ATOM     94  C   UNL     1      14.696   3.366 -12.024  1.00  0.00     0.131 A 
ATOM     95  C   UNL     1      13.272   2.598 -14.269  1.00  0.00     0.055 A 
ATOM     96  C   UNL     1      15.344   3.285 -13.257  1.00  0.00     0.041 A 
ATOM     97  F   UNL     1      15.431   3.716 -10.956  1.00  0.00    -0.206 F 
ATOM     98  C   UNL     1      14.635   2.886 -14.386  1.00  0.00     0.022 A 
BRANCH  95  99
ATOM     99  S   UNL     1      12.355   1.954 -15.695  1.00  0.00     0.124 S 
ATOM    100  O   UNL     1      11.911   0.651 -15.208  1.00  0.00    -0.237 OA
ATOM    101  O   UNL     1      11.311   2.957 -15.874  1.00  0.00    -0.237 OA
ATOM    102  O   UNL     1      13.359   1.909 -16.757  1.00  0.00    -0.744 OA
ENDBRANCH  95  99
ENDBRANCH  69  92
ENDBRANCH  43  44
ENDBRANCH  35  38
ENDBRANCH  33  34
ENDBRANCH  32  33
ENDBRANCH   1  32
TORSDOF 18
