REMARK SMILES COc1ccc(S(=O)(=O)N2C[C@H](C)C[C@H](C)C2)cc1C(=O)NCCCNC(=O)c1ccc(-c2c3nc(c(-c4cc(S(=O)(=O)[O-])ccc4F)c4ccc([nH]4)c(-c4cc(S(=O)(=O)[O-])ccc4F)c4nc(c(-c5cc(S(=O)(=O)[O-])ccc5F)c5ccc2[nH]5)C=C4)C=C3)cc1
REMARK SMILES IDX 24 1 23 2 22 3 20 4 21 5 19 7 3 8 4 9 5 10 18 11 6 12 2 13
REMARK SMILES IDX 1 14 7 15 8 16 9 17 10 18 11 19 17 20 12 21 15 22 13 23
REMARK SMILES IDX 14 24 16 25 25 26 26 27 27 28 28 30 29 31 30 32 91 33 31 34
REMARK SMILES IDX 90 35 32 36 33 37 34 38 84 39 35 40 89 41 83 42 85 43 36 44
REMARK SMILES IDX 88 45 82 46 81 47 37 49 69 50 49 51 68 52 50 53 53 54 67 55
REMARK SMILES IDX 86 56 51 57 52 58 66 60 87 61 54 62 38 63 39 64 47 65 40 66
REMARK SMILES IDX 46 67 48 68 45 69 41 70 42 71 43 72 44 73 70 74 71 75 79 76
REMARK SMILES IDX 72 77 78 78 80 79 77 80 73 81 74 82 75 83 76 84 55 85 56 86
REMARK SMILES IDX 64 87 57 88 63 89 65 90 62 91 58 92 59 93 60 94 61 95
REMARK H PARENT 22 6 26 29 85 48 53 59
REMARK Flexibility Score: inf
ROOT
ATOM      1  C   UNL     1       1.776  -0.695   2.958  1.00  0.00     0.042 C 
ENDROOT
BRANCH   1   2
ATOM      2  C   UNL     1       1.172  -0.798   1.565  1.00  0.00     0.118 C 
BRANCH   2   3
ATOM      3  N   UNL     1       2.179  -0.812   0.523  1.00  0.00    -0.352 N 
ATOM      4  C   UNL     1       2.215  -1.454  -0.674  1.00  0.00     0.255 C 
ATOM      5  O   UNL     1       3.212  -1.290  -1.379  1.00  0.00    -0.269 OA
ATOM      6  H   UNL     1       2.972  -0.261   0.716  1.00  0.00     0.163 HD
BRANCH   4   7
ATOM      7  C   UNL     1       1.140  -2.349  -1.161  1.00  0.00     0.083 A 
ATOM      8  C   UNL     1      -0.225  -2.065  -1.184  1.00  0.00     0.131 A 
ATOM      9  C   UNL     1      -1.110  -2.975  -1.780  1.00  0.00     0.048 A 
ATOM     10  C   UNL     1      -0.629  -4.103  -2.460  1.00  0.00     0.025 A 
ATOM     11  C   UNL     1       1.597  -3.511  -1.798  1.00  0.00     0.039 A 
ATOM     12  C   UNL     1       0.742  -4.356  -2.492  1.00  0.00     0.083 A 
BRANCH   8  13
ATOM     13  O   UNL     1      -0.781  -0.954  -0.618  1.00  0.00    -0.496 OA
ATOM     14  C   UNL     1      -0.537   0.220  -1.395  1.00  0.00     0.278 C 
ENDBRANCH   8  13
BRANCH  12  15
ATOM     15  S   UNL     1       1.367  -5.687  -3.507  1.00  0.00     0.243 S 
ATOM     16  O   UNL     1       1.248  -6.886  -2.720  1.00  0.00    -0.207 OA
ATOM     17  O   UNL     1       0.684  -5.553  -4.787  1.00  0.00    -0.207 OA
BRANCH  15  18
ATOM     18  N   UNL     1       2.999  -5.376  -3.792  1.00  0.00    -0.197 NA
ATOM     19  C   UNL     1       3.463  -4.340  -4.727  1.00  0.00     0.105 C 
ATOM     20  C   UNL     1       4.072  -6.074  -3.066  1.00  0.00     0.105 C 
ATOM     21  C   UNL     1       4.239  -3.263  -3.961  1.00  0.00     0.001 C 
ATOM     22  C   UNL     1       4.848  -5.080  -2.201  1.00  0.00     0.001 C 
ATOM     23  C   UNL     1       4.855  -2.230  -4.903  1.00  0.00     0.009 C 
ATOM     24  C   UNL     1       5.309  -3.854  -3.017  1.00  0.00     0.009 C 
ATOM     25  C   UNL     1       6.029  -5.752  -1.503  1.00  0.00     0.009 C 
ENDBRANCH  15  18
ENDBRANCH  12  15
ENDBRANCH   4   7
ENDBRANCH   2   3
ENDBRANCH   1   2
BRANCH   1  26
ATOM     26  C   UNL     1       2.811   0.412   3.133  1.00  0.00     0.118 C 
BRANCH  26  27
ATOM     27  N   UNL     1       2.315   1.741   2.799  1.00  0.00    -0.352 N 
ATOM     28  C   UNL     1       1.913   2.785   3.599  1.00  0.00     0.251 C 
ATOM     29  H   UNL     1       2.259   1.923   1.833  1.00  0.00     0.163 HD
ATOM     30  O   UNL     1       1.386   3.767   3.083  1.00  0.00    -0.269 OA
BRANCH  28  31
ATOM     31  C   UNL     1       2.064   2.707   5.069  1.00  0.00     0.039 A 
ATOM     32  C   UNL     1       1.023   3.156   5.885  1.00  0.00     0.014 A 
ATOM     33  C   UNL     1       3.218   2.182   5.648  1.00  0.00     0.014 A 
ATOM     34  C   UNL     1       1.101   2.980   7.270  1.00  0.00     0.010 A 
ATOM     35  C   UNL     1       3.240   1.893   7.007  1.00  0.00     0.010 A 
ATOM     36  C   UNL     1       2.185   2.292   7.839  1.00  0.00    -0.014 A 
BRANCH  36  37
ATOM     37  C   UNL     1       2.250   1.992   9.296  1.00  0.00     0.031 A 
ATOM     38  C   UNL     1       3.425   2.470  10.111  1.00  0.00     0.074 A 
ATOM     39  C   UNL     1       1.307   1.213   9.864  1.00  0.00     0.049 A 
ATOM     40  N   UNL     1       3.743   2.197  11.350  1.00  0.00    -0.248 NA
ATOM     41  C   UNL     1       4.401   3.325   9.418  1.00  0.00     0.031 C 
ATOM     42  C   UNL     1       0.158   0.626   9.170  1.00  0.00     0.029 A 
ATOM     43  N   UNL     1       1.170   0.770  11.156  1.00  0.00    -0.354 N 
ATOM     44  C   UNL     1       4.975   2.808  11.568  1.00  0.00     0.074 A 
ATOM     45  C   UNL     1       5.374   3.402  10.311  1.00  0.00     0.031 C 
ATOM     46  C   UNL     1      -0.586  -0.064  10.050  1.00  0.00     0.029 A 
ATOM     47  C   UNL     1       0.054  -0.010  11.360  1.00  0.00     0.049 A 
ATOM     48  H   UNL     1       1.810   0.991  11.871  1.00  0.00     0.167 HD
ATOM     49  C   UNL     1       5.693   2.893  12.717  1.00  0.00     0.034 A 
ATOM     50  C   UNL     1      -0.399  -0.616  12.474  1.00  0.00     0.034 A 
ATOM     51  C   UNL     1       5.252   2.343  13.975  1.00  0.00     0.049 A 
ATOM     52  C   UNL     1       0.381  -0.458  13.754  1.00  0.00     0.074 A 
ATOM     53  C   UNL     1       5.858   2.427  15.216  1.00  0.00     0.029 A 
ATOM     54  N   UNL     1       4.084   1.611  14.153  1.00  0.00    -0.354 N 
ATOM     55  N   UNL     1       1.522   0.161  13.954  1.00  0.00    -0.248 NA
ATOM     56  C   UNL     1      -0.196  -1.066  14.959  1.00  0.00     0.031 C 
ATOM     57  C   UNL     1       5.080   1.712  16.135  1.00  0.00     0.029 A 
ATOM     58  C   UNL     1       3.957   1.232  15.480  1.00  0.00     0.049 A 
ATOM     59  H   UNL     1       3.440   1.395  13.441  1.00  0.00     0.167 HD
ATOM     60  C   UNL     1       1.784   0.040  15.315  1.00  0.00     0.074 A 
ATOM     61  C   UNL     1       0.674  -0.695  15.887  1.00  0.00     0.031 C 
ATOM     62  C   UNL     1       2.844   0.495  16.030  1.00  0.00     0.034 A 
BRANCH  49  63
ATOM     63  C   UNL     1       7.027   3.600  12.649  1.00  0.00     0.023 A 
ATOM     64  C   UNL     1       7.127   4.954  12.281  1.00  0.00     0.031 A 
ATOM     65  C   UNL     1       8.221   2.901  12.901  1.00  0.00     0.131 A 
ATOM     66  C   UNL     1       8.387   5.535  12.077  1.00  0.00     0.055 A 
ATOM     67  C   UNL     1       9.472   3.513  12.788  1.00  0.00     0.041 A 
ATOM     68  F   UNL     1       8.194   1.602  13.239  1.00  0.00    -0.206 F 
ATOM     69  C   UNL     1       9.561   4.832  12.354  1.00  0.00     0.022 A 
BRANCH  66  70
ATOM     70  S   UNL     1       8.466   7.165  11.285  1.00  0.00     0.124 S 
ATOM     71  O   UNL     1       7.823   6.897  10.000  1.00  0.00    -0.237 OA
ATOM     72  O   UNL     1       7.716   8.004  12.212  1.00  0.00    -0.237 OA
ATOM     73  O   UNL     1       9.899   7.441  11.211  1.00  0.00    -0.744 OA
ENDBRANCH  66  70
ENDBRANCH  49  63
BRANCH  50  74
ATOM     74  C   UNL     1      -1.658  -1.412  12.444  1.00  0.00     0.023 A 
ATOM     75  C   UNL     1      -2.798  -0.981  13.141  1.00  0.00     0.031 A 
ATOM     76  C   UNL     1      -1.733  -2.629  11.745  1.00  0.00     0.131 A 
ATOM     77  C   UNL     1      -3.950  -1.782  13.164  1.00  0.00     0.055 A 
ATOM     78  C   UNL     1      -2.897  -3.401  11.732  1.00  0.00     0.041 A 
ATOM     79  F   UNL     1      -0.675  -3.080  11.051  1.00  0.00    -0.206 F 
ATOM     80  C   UNL     1      -4.010  -2.984  12.456  1.00  0.00     0.022 A 
BRANCH  77  81
ATOM     81  S   UNL     1      -5.347  -1.263  14.198  1.00  0.00     0.124 S 
ATOM     82  O   UNL     1      -4.728  -1.181  15.516  1.00  0.00    -0.237 OA
ATOM     83  O   UNL     1      -5.720   0.008  13.585  1.00  0.00    -0.237 OA
ATOM     84  O   UNL     1      -6.316  -2.343  14.028  1.00  0.00    -0.744 OA
ENDBRANCH  77  81
ENDBRANCH  50  74
BRANCH  62  85
ATOM     85  C   UNL     1       2.817   0.249  17.517  1.00  0.00     0.023 A 
ATOM     86  C   UNL     1       2.935  -1.044  18.053  1.00  0.00     0.031 A 
ATOM     87  C   UNL     1       2.649   1.325  18.406  1.00  0.00     0.131 A 
ATOM     88  C   UNL     1       2.825  -1.237  19.438  1.00  0.00     0.055 A 
ATOM     89  C   UNL     1       2.597   1.133  19.787  1.00  0.00     0.041 A 
ATOM     90  F   UNL     1       2.531   2.580  17.945  1.00  0.00    -0.206 F 
ATOM     91  C   UNL     1       2.671  -0.155  20.309  1.00  0.00     0.022 A 
BRANCH  88  92
ATOM     92  S   UNL     1       2.795  -2.933  20.080  1.00  0.00     0.124 S 
ATOM     93  O   UNL     1       1.655  -3.506  19.372  1.00  0.00    -0.237 OA
ATOM     94  O   UNL     1       4.107  -3.438  19.689  1.00  0.00    -0.237 OA
ATOM     95  O   UNL     1       2.604  -2.752  21.518  1.00  0.00    -0.744 OA
ENDBRANCH  88  92
ENDBRANCH  62  85
ENDBRANCH  36  37
ENDBRANCH  28  31
ENDBRANCH  26  27
ENDBRANCH   1  26
TORSDOF 16
