REMARK SMILES O=C(NCCCNC(=O)c1ccc(-c2c3nc(c(-c4cc(S(=O)(=O)[O-])ccc4F)c4ccc([nH]4)c(-c4cc(S(=O)(=O)[O-])ccc4F)c4nc(c(-c5cc(S(=O)(=O)[O-])ccc5F)c5ccc2[nH]5)C=C4)C=C3)cc1)C1=Cc2cc(Cl)cc(-c3ccc(Cl)cc3)c2O[C@@H]1C(F)(F)F
REMARK SMILES IDX 6 1 5 2 4 3 3 4 1 5 2 6 73 8 74 9 90 10 75 11 89 12 76 13
REMARK SMILES IDX 88 14 77 15 80 16 78 17 79 18 91 19 92 20 93 21 94 22 81 23
REMARK SMILES IDX 82 24 87 25 83 26 86 27 84 28 85 29 7 30 8 31 9 33 10 34
REMARK SMILES IDX 11 35 72 36 12 37 71 38 13 39 14 40 15 41 65 42 16 43 70 44
REMARK SMILES IDX 64 45 66 46 17 47 69 48 63 49 62 50 18 52 50 53 30 54 49 55
REMARK SMILES IDX 31 56 34 57 48 58 67 59 32 60 33 61 47 63 68 64 35 65 19 66
REMARK SMILES IDX 20 67 28 68 21 69 27 70 29 71 26 72 22 73 23 74 24 75 25 76
REMARK SMILES IDX 51 77 52 78 60 79 53 80 59 81 61 82 58 83 54 84 55 85 56 86
REMARK SMILES IDX 57 87 36 88 37 89 45 90 38 91 44 92 46 93 43 94 39 95 40 96
REMARK SMILES IDX 41 97 42 98
REMARK H PARENT 3 7 7 32 66 51 34 62
REMARK Flexibility Score: inf
ROOT
ATOM      1  C   UNL     1       4.570   2.239  -3.433  1.00  0.00     0.118 C 
ENDROOT
BRANCH   1   2
ATOM      2  C   UNL     1       4.064   0.909  -2.877  1.00  0.00     0.042 C 
BRANCH   2   3
ATOM      3  C   UNL     1       3.010   1.083  -1.782  1.00  0.00     0.118 C 
BRANCH   3   4
ATOM      4  N   UNL     1       2.219  -0.133  -1.554  1.00  0.00    -0.352 N 
ATOM      5  O   UNL     1       1.364  -1.859  -0.348  1.00  0.00    -0.270 OA
ATOM      6  C   UNL     1       2.233  -1.012  -0.501  1.00  0.00     0.251 C 
ATOM      7  H   UNL     1       1.579  -0.352  -2.270  1.00  0.00     0.163 HD
BRANCH   6   8
ATOM      8  C   UNL     1       3.311  -0.843   0.482  1.00  0.00     0.067 C 
ATOM      9  C   UNL     1       4.566  -1.044   0.066  1.00  0.00     0.025 C 
ATOM     10  C   UNL     1       2.983  -0.126   1.751  1.00  0.00     0.314 C 
ATOM     11  C   UNL     1       5.544  -0.106   0.622  1.00  0.00     0.019 A 
ATOM     12  O   UNL     1       3.816   1.048   1.914  1.00  0.00    -0.475 OA
ATOM     13  C   UNL     1       6.830  -0.102   0.077  1.00  0.00     0.032 A 
ATOM     14  C   UNL     1       5.077   1.004   1.360  1.00  0.00     0.135 A 
ATOM     15  C   UNL     1       7.607   1.046   0.176  1.00  0.00     0.042 A 
ATOM     16  C   UNL     1       5.835   2.187   1.403  1.00  0.00     0.026 A 
ATOM     17  Cl  UNL     1       9.131   1.103  -0.618  1.00  0.00    -0.084 Cl
ATOM     18  C   UNL     1       7.108   2.187   0.804  1.00  0.00     0.033 A 
BRANCH  10  19
ATOM     19  C   UNL     1       3.044  -1.058   2.974  1.00  0.00     0.429 C 
ATOM     20  F   UNL     1       2.655  -0.412   4.102  1.00  0.00    -0.167 F 
ATOM     21  F   UNL     1       2.218  -2.123   2.837  1.00  0.00    -0.167 F 
ATOM     22  F   UNL     1       4.287  -1.544   3.204  1.00  0.00    -0.167 F 
ENDBRANCH  10  19
BRANCH  16  23
ATOM     23  C   UNL     1       5.268   3.464   1.864  1.00  0.00    -0.015 A 
ATOM     24  C   UNL     1       4.614   4.310   0.949  1.00  0.00     0.010 A 
ATOM     25  C   UNL     1       5.414   3.905   3.183  1.00  0.00     0.010 A 
ATOM     26  C   UNL     1       4.171   5.580   1.316  1.00  0.00     0.021 A 
ATOM     27  C   UNL     1       4.958   5.174   3.561  1.00  0.00     0.021 A 
ATOM     28  C   UNL     1       4.354   6.011   2.622  1.00  0.00     0.041 A 
ATOM     29  Cl  UNL     1       3.844   7.590   3.078  1.00  0.00    -0.084 Cl
ENDBRANCH  16  23
ENDBRANCH   6   8
ENDBRANCH   3   4
ENDBRANCH   2   3
ENDBRANCH   1   2
BRANCH   1  30
ATOM     30  N   UNL     1       5.285   3.075  -2.482  1.00  0.00    -0.352 N 
ATOM     31  C   UNL     1       6.002   4.236  -2.707  1.00  0.00     0.251 C 
ATOM     32  H   UNL     1       5.253   2.773  -1.546  1.00  0.00     0.163 HD
ATOM     33  O   UNL     1       6.523   4.812  -1.752  1.00  0.00    -0.269 OA
BRANCH  31  34
ATOM     34  C   UNL     1       6.255   4.712  -4.090  1.00  0.00     0.039 A 
ATOM     35  C   UNL     1       7.553   5.122  -4.417  1.00  0.00     0.014 A 
ATOM     36  C   UNL     1       5.289   4.636  -5.090  1.00  0.00     0.014 A 
ATOM     37  C   UNL     1       7.917   5.282  -5.756  1.00  0.00     0.010 A 
ATOM     38  C   UNL     1       5.675   4.688  -6.425  1.00  0.00     0.010 A 
ATOM     39  C   UNL     1       7.005   4.963  -6.772  1.00  0.00    -0.014 A 
BRANCH  39  40
ATOM     40  C   UNL     1       7.429   4.824  -8.192  1.00  0.00     0.031 A 
ATOM     41  C   UNL     1       6.761   5.637  -9.264  1.00  0.00     0.074 A 
ATOM     42  C   UNL     1       8.320   3.865  -8.521  1.00  0.00     0.049 A 
ATOM     43  N   UNL     1       6.854   5.533 -10.565  1.00  0.00    -0.248 NA
ATOM     44  C   UNL     1       5.819   6.669  -8.809  1.00  0.00     0.031 C 
ATOM     45  C   UNL     1       8.980   2.958  -7.574  1.00  0.00     0.029 A 
ATOM     46  N   UNL     1       8.816   3.476  -9.740  1.00  0.00    -0.354 N 
ATOM     47  C   UNL     1       5.956   6.460 -11.084  1.00  0.00     0.074 A 
ATOM     48  C   UNL     1       5.285   7.067  -9.953  1.00  0.00     0.031 C 
ATOM     49  C   UNL     1       9.818   2.151  -8.243  1.00  0.00     0.029 A 
ATOM     50  C   UNL     1       9.719   2.439  -9.668  1.00  0.00     0.049 A 
ATOM     51  H   UNL     1       8.550   3.900 -10.588  1.00  0.00     0.167 HD
ATOM     52  C   UNL     1       5.731   6.790 -12.381  1.00  0.00     0.034 A 
ATOM     53  C   UNL     1      10.385   1.788 -10.641  1.00  0.00     0.034 A 
ATOM     54  C   UNL     1       6.439   6.196 -13.488  1.00  0.00     0.049 A 
ATOM     55  C   UNL     1      10.154   2.202 -12.070  1.00  0.00     0.074 A 
ATOM     56  C   UNL     1       6.336   6.483 -14.838  1.00  0.00     0.029 A 
ATOM     57  N   UNL     1       7.394   5.192 -13.369  1.00  0.00    -0.354 N 
ATOM     58  N   UNL     1       9.327   3.106 -12.542  1.00  0.00    -0.248 NA
ATOM     59  C   UNL     1      10.950   1.516 -13.095  1.00  0.00     0.031 C 
ATOM     60  C   UNL     1       7.198   5.628 -15.537  1.00  0.00     0.029 A 
ATOM     61  C   UNL     1       7.880   4.845 -14.619  1.00  0.00     0.049 A 
ATOM     62  H   UNL     1       7.683   4.787 -12.520  1.00  0.00     0.167 HD
ATOM     63  C   UNL     1       9.524   3.116 -13.918  1.00  0.00     0.074 A 
ATOM     64  C   UNL     1      10.556   2.137 -14.197  1.00  0.00     0.031 C 
ATOM     65  C   UNL     1       8.909   3.864 -14.869  1.00  0.00     0.034 A 
BRANCH  52  66
ATOM     66  C   UNL     1       4.667   7.828 -12.651  1.00  0.00     0.023 A 
ATOM     67  C   UNL     1       4.776   9.137 -12.149  1.00  0.00     0.031 A 
ATOM     68  C   UNL     1       3.500   7.493 -13.359  1.00  0.00     0.131 A 
ATOM     69  C   UNL     1       3.696  10.025 -12.264  1.00  0.00     0.055 A 
ATOM     70  C   UNL     1       2.466   8.414 -13.554  1.00  0.00     0.041 A 
ATOM     71  F   UNL     1       3.328   6.255 -13.850  1.00  0.00    -0.206 F 
ATOM     72  C   UNL     1       2.551   9.682 -12.986  1.00  0.00     0.022 A 
BRANCH  69  73
ATOM     73  S   UNL     1       3.743  11.564 -11.306  1.00  0.00     0.124 S 
ATOM     74  O   UNL     1       3.816  11.054  -9.938  1.00  0.00    -0.237 OA
ATOM     75  O   UNL     1       4.946  12.214 -11.810  1.00  0.00    -0.237 OA
ATOM     76  O   UNL     1       2.484  12.222 -11.652  1.00  0.00    -0.744 OA
ENDBRANCH  69  73
ENDBRANCH  52  66
BRANCH  53  77
ATOM     77  C   UNL     1      11.336   0.689 -10.307  1.00  0.00     0.023 A 
ATOM     78  C   UNL     1      12.713   0.839 -10.535  1.00  0.00     0.031 A 
ATOM     79  C   UNL     1      10.883  -0.535  -9.785  1.00  0.00     0.131 A 
ATOM     80  C   UNL     1      13.586  -0.232 -10.286  1.00  0.00     0.055 A 
ATOM     81  C   UNL     1      11.761  -1.582  -9.495  1.00  0.00     0.041 A 
ATOM     82  F   UNL     1       9.578  -0.726  -9.537  1.00  0.00    -0.206 F 
ATOM     83  C   UNL     1      13.120  -1.438  -9.758  1.00  0.00     0.022 A 
BRANCH  80  84
ATOM     84  S   UNL     1      15.333  -0.050 -10.737  1.00  0.00     0.124 S 
ATOM     85  O   UNL     1      15.243   0.265 -12.158  1.00  0.00    -0.237 OA
ATOM     86  O   UNL     1      15.758   1.038  -9.863  1.00  0.00    -0.237 OA
ATOM     87  O   UNL     1      15.903  -1.359 -10.422  1.00  0.00    -0.744 OA
ENDBRANCH  80  84
ENDBRANCH  53  77
BRANCH  65  88
ATOM     88  C   UNL     1       9.382   3.677 -16.286  1.00  0.00     0.023 A 
ATOM     89  C   UNL     1       9.116   2.498 -17.002  1.00  0.00     0.031 A 
ATOM     90  C   UNL     1      10.121   4.691 -16.920  1.00  0.00     0.131 A 
ATOM     91  C   UNL     1       9.628   2.340 -18.297  1.00  0.00     0.055 A 
ATOM     92  C   UNL     1      10.585   4.548 -18.228  1.00  0.00     0.041 A 
ATOM     93  F   UNL     1      10.402   5.835 -16.277  1.00  0.00    -0.206 F 
ATOM     94  C   UNL     1      10.349   3.363 -18.920  1.00  0.00     0.022 A 
BRANCH  91  95
ATOM     95  S   UNL     1       9.400   0.748 -19.135  1.00  0.00     0.124 S 
ATOM     96  O   UNL     1      10.085  -0.171 -18.231  1.00  0.00    -0.237 OA
ATOM     97  O   UNL     1       7.947   0.627 -19.186  1.00  0.00    -0.237 OA
ATOM     98  O   UNL     1      10.050   0.945 -20.429  1.00  0.00    -0.744 OA
ENDBRANCH  91  95
ENDBRANCH  65  88
ENDBRANCH  39  40
ENDBRANCH  31  34
ENDBRANCH   1  30
TORSDOF 15
