REMARK SMILES CN(CC(C)(C)O)C(=O)N[C@H]1CC[C@H](C(=O)NCCCNC(=O)c2ccc(-c3c4nc(c(-c5cc(S(=O)(=O)[O-])ccc5F)c5ccc([nH]5)c(-c5cc(S(=O)(=O)[O-])ccc5F)c5nc(c(-c6cc(S(=O)(=O)[O-])ccc6F)c6ccc3[nH]6)C=C5)C=C4)cc2)C1
REMARK SMILES IDX 18 1 17 2 15 3 16 4 14 6 11 7 12 8 87 9 13 10 10 11 8 12
REMARK SMILES IDX 9 13 2 15 1 16 3 17 4 18 5 19 6 20 7 21 19 23 20 24 21 25
REMARK SMILES IDX 22 26 23 28 24 29 25 30 86 31 26 32 85 33 27 34 28 35 29 36
REMARK SMILES IDX 79 37 30 38 84 39 78 40 80 41 31 42 83 43 77 44 76 45 32 47
REMARK SMILES IDX 64 48 44 49 63 50 45 51 48 52 62 53 81 54 46 55 47 56 61 58
REMARK SMILES IDX 82 59 49 60 33 61 34 62 42 63 35 64 41 65 43 66 40 67 36 68
REMARK SMILES IDX 37 69 38 70 39 71 65 72 66 73 74 74 67 75 73 76 75 77 72 78
REMARK SMILES IDX 68 79 69 80 70 81 71 82 50 83 51 84 59 85 52 86 58 87 60 88
REMARK SMILES IDX 57 89 53 90 54 91 55 92 56 93
REMARK H PARENT 17 5 10 14 7 22 21 27 80 46 48 57
REMARK Flexibility Score: inf
ROOT
ATOM      1  C   UNL     1      -2.543   0.692   1.225  1.00  0.00     0.117 C 
ENDROOT
BRANCH   1   2
ATOM      2  N   UNL     1      -2.668   1.937   1.970  1.00  0.00    -0.356 N 
ATOM      3  C   UNL     1      -2.756   2.195   3.302  1.00  0.00     0.223 C 
ATOM      4  O   UNL     1      -2.974   3.359   3.646  1.00  0.00    -0.275 OA
ATOM      5  H   UNL     1      -2.693   2.742   1.403  1.00  0.00     0.163 HD
BRANCH   3   6
ATOM      6  C   UNL     1      -2.461   1.130   4.343  1.00  0.00     0.080 C 
ATOM      7  C   UNL     1      -1.001  -0.847   4.343  1.00  0.00     0.084 C 
ATOM      8  C   UNL     1      -2.458  -1.320   4.454  1.00  0.00     0.026 C 
ATOM      9  C   UNL     1      -1.047   0.648   4.130  1.00  0.00     0.038 C 
ATOM     10  C   UNL     1      -3.361  -0.090   4.381  1.00  0.00     0.015 C 
BRANCH   7  11
ATOM     11  N   UNL     1      -0.186  -1.227   5.476  1.00  0.00    -0.335 N 
ATOM     12  C   UNL     1       1.055  -0.918   5.895  1.00  0.00     0.317 C 
ATOM     13  O   UNL     1       1.327  -1.319   7.034  1.00  0.00    -0.249 OA
ATOM     14  H   UNL     1      -0.644  -1.857   6.078  1.00  0.00     0.165 HD
BRANCH  12  15
ATOM     15  N   UNL     1       1.935  -0.147   5.183  1.00  0.00    -0.325 N 
ATOM     16  C   UNL     1       2.897   0.569   6.015  1.00  0.00     0.148 C 
BRANCH  15  17
ATOM     17  C   UNL     1       2.048   0.137   3.737  1.00  0.00     0.155 C 
BRANCH  17  18
ATOM     18  C   UNL     1       2.402  -0.966   2.702  1.00  0.00     0.077 C 
ATOM     19  C   UNL     1       1.770  -2.344   2.871  1.00  0.00     0.043 C 
ATOM     20  C   UNL     1       2.029  -0.414   1.308  1.00  0.00     0.043 C 
BRANCH  18  21
ATOM     21  O   UNL     1       3.829  -1.138   2.721  1.00  0.00    -0.389 OA
ATOM     22  H   UNL     1       4.101  -1.484   3.585  1.00  0.00     0.211 HD
ENDBRANCH  18  21
ENDBRANCH  17  18
ENDBRANCH  15  17
ENDBRANCH  12  15
ENDBRANCH   7  11
ENDBRANCH   3   6
ENDBRANCH   1   2
BRANCH   1  23
ATOM     23  C   UNL     1      -3.853   0.324   0.553  1.00  0.00     0.042 C 
BRANCH  23  24
ATOM     24  C   UNL     1      -4.341   1.388  -0.416  1.00  0.00     0.118 C 
BRANCH  24  25
ATOM     25  N   UNL     1      -3.489   1.509  -1.591  1.00  0.00    -0.352 N 
ATOM     26  C   UNL     1      -3.798   1.288  -2.912  1.00  0.00     0.251 C 
ATOM     27  H   UNL     1      -2.562   1.788  -1.415  1.00  0.00     0.163 HD
ATOM     28  O   UNL     1      -2.897   1.244  -3.747  1.00  0.00    -0.269 OA
BRANCH  26  29
ATOM     29  C   UNL     1      -5.206   1.064  -3.306  1.00  0.00     0.039 A 
ATOM     30  C   UNL     1      -5.508   0.040  -4.205  1.00  0.00     0.014 A 
ATOM     31  C   UNL     1      -6.230   1.840  -2.757  1.00  0.00     0.014 A 
ATOM     32  C   UNL     1      -6.843  -0.257  -4.486  1.00  0.00     0.010 A 
ATOM     33  C   UNL     1      -7.556   1.470  -2.950  1.00  0.00     0.010 A 
ATOM     34  C   UNL     1      -7.880   0.422  -3.823  1.00  0.00    -0.014 A 
BRANCH  34  35
ATOM     35  C   UNL     1      -9.307   0.070  -4.044  1.00  0.00     0.031 A 
ATOM     36  C   UNL     1     -10.256   1.106  -4.588  1.00  0.00     0.074 A 
ATOM     37  C   UNL     1      -9.760  -1.153  -3.703  1.00  0.00     0.049 A 
ATOM     38  N   UNL     1     -11.550   1.033  -4.762  1.00  0.00    -0.248 NA
ATOM     39  C   UNL     1      -9.675   2.408  -4.954  1.00  0.00     0.031 C 
ATOM     40  C   UNL     1      -8.947  -2.228  -3.128  1.00  0.00     0.029 A 
ATOM     41  N   UNL     1     -11.017  -1.699  -3.780  1.00  0.00    -0.354 N 
ATOM     42  C   UNL     1     -11.936   2.275  -5.255  1.00  0.00     0.074 A 
ATOM     43  C   UNL     1     -10.753   3.107  -5.269  1.00  0.00     0.031 C 
ATOM     44  C   UNL     1      -9.718  -3.309  -2.933  1.00  0.00     0.029 A 
ATOM     45  C   UNL     1     -11.091  -2.992  -3.312  1.00  0.00     0.049 A 
ATOM     46  H   UNL     1     -11.794  -1.212  -4.137  1.00  0.00     0.167 HD
ATOM     47  C   UNL     1     -13.156   2.675  -5.691  1.00  0.00     0.034 A 
ATOM     48  C   UNL     1     -12.147  -3.821  -3.187  1.00  0.00     0.034 A 
ATOM     49  C   UNL     1     -14.326   1.833  -5.676  1.00  0.00     0.049 A 
ATOM     50  C   UNL     1     -13.506  -3.335  -3.632  1.00  0.00     0.074 A 
ATOM     51  C   UNL     1     -15.605   2.128  -6.113  1.00  0.00     0.029 A 
ATOM     52  N   UNL     1     -14.361   0.530  -5.196  1.00  0.00    -0.354 N 
ATOM     53  N   UNL     1     -13.844  -2.169  -4.133  1.00  0.00    -0.248 NA
ATOM     54  C   UNL     1     -14.622  -4.281  -3.508  1.00  0.00     0.031 C 
ATOM     55  C   UNL     1     -16.426   1.030  -5.837  1.00  0.00     0.029 A 
ATOM     56  C   UNL     1     -15.644   0.017  -5.305  1.00  0.00     0.049 A 
ATOM     57  H   UNL     1     -13.587   0.042  -4.833  1.00  0.00     0.167 HD
ATOM     58  C   UNL     1     -15.204  -2.258  -4.417  1.00  0.00     0.074 A 
ATOM     59  C   UNL     1     -15.617  -3.596  -4.051  1.00  0.00     0.031 C 
ATOM     60  C   UNL     1     -16.039  -1.321  -4.936  1.00  0.00     0.034 A 
BRANCH  47  61
ATOM     61  C   UNL     1     -13.277   4.088  -6.211  1.00  0.00     0.023 A 
ATOM     62  C   UNL     1     -12.555   4.517  -7.339  1.00  0.00     0.031 A 
ATOM     63  C   UNL     1     -14.105   5.024  -5.566  1.00  0.00     0.131 A 
ATOM     64  C   UNL     1     -12.614   5.859  -7.741  1.00  0.00     0.055 A 
ATOM     65  C   UNL     1     -14.227   6.337  -6.025  1.00  0.00     0.041 A 
ATOM     66  F   UNL     1     -14.801   4.681  -4.471  1.00  0.00    -0.206 F 
ATOM     67  C   UNL     1     -13.467   6.766  -7.110  1.00  0.00     0.022 A 
BRANCH  64  68
ATOM     68  S   UNL     1     -11.449   6.433  -9.007  1.00  0.00     0.124 S 
ATOM     69  O   UNL     1     -10.163   6.142  -8.377  1.00  0.00    -0.237 OA
ATOM     70  O   UNL     1     -11.798   5.606 -10.156  1.00  0.00    -0.237 OA
ATOM     71  O   UNL     1     -11.761   7.854  -9.141  1.00  0.00    -0.744 OA
ENDBRANCH  64  68
ENDBRANCH  47  61
BRANCH  48  72
ATOM     72  C   UNL     1     -11.983  -5.184  -2.599  1.00  0.00     0.023 A 
ATOM     73  C   UNL     1     -12.289  -6.336  -3.341  1.00  0.00     0.031 A 
ATOM     74  C   UNL     1     -11.589  -5.353  -1.259  1.00  0.00     0.131 A 
ATOM     75  C   UNL     1     -12.263  -7.596  -2.723  1.00  0.00     0.055 A 
ATOM     76  C   UNL     1     -11.498  -6.615  -0.668  1.00  0.00     0.041 A 
ATOM     77  F   UNL     1     -11.282  -4.288  -0.500  1.00  0.00    -0.206 F 
ATOM     78  C   UNL     1     -11.855  -7.745  -1.396  1.00  0.00     0.022 A 
BRANCH  75  79
ATOM     79  S   UNL     1     -12.895  -9.026  -3.644  1.00  0.00     0.124 S 
ATOM     80  O   UNL     1     -14.238  -8.580  -3.996  1.00  0.00    -0.237 OA
ATOM     81  O   UNL     1     -11.941  -9.121  -4.744  1.00  0.00    -0.237 OA
ATOM     82  O   UNL     1     -12.831 -10.112  -2.669  1.00  0.00    -0.744 OA
ENDBRANCH  75  79
ENDBRANCH  48  72
BRANCH  60  83
ATOM     83  C   UNL     1     -17.468  -1.737  -5.190  1.00  0.00     0.023 A 
ATOM     84  C   UNL     1     -18.343  -2.069  -4.142  1.00  0.00     0.031 A 
ATOM     85  C   UNL     1     -17.957  -1.808  -6.507  1.00  0.00     0.131 A 
ATOM     86  C   UNL     1     -19.641  -2.516  -4.431  1.00  0.00     0.055 A 
ATOM     87  C   UNL     1     -19.271  -2.187  -6.785  1.00  0.00     0.041 A 
ATOM     88  F   UNL     1     -17.165  -1.504  -7.548  1.00  0.00    -0.206 F 
ATOM     89  C   UNL     1     -20.117  -2.558  -5.744  1.00  0.00     0.022 A 
BRANCH  86  90
ATOM     90  S   UNL     1     -20.669  -3.138  -3.073  1.00  0.00     0.124 S 
ATOM     91  O   UNL     1     -19.847  -4.220  -2.541  1.00  0.00    -0.237 OA
ATOM     92  O   UNL     1     -20.805  -1.962  -2.220  1.00  0.00    -0.237 OA
ATOM     93  O   UNL     1     -21.898  -3.564  -3.740  1.00  0.00    -0.744 OA
ENDBRANCH  86  90
ENDBRANCH  60  83
ENDBRANCH  34  35
ENDBRANCH  26  29
ENDBRANCH  24  25
ENDBRANCH  23  24
ENDBRANCH   1  23
TORSDOF 18
