REMARK SMILES CC1(C)[C@H](C(=O)NCCCNC(=O)c2ccc(-c3c4nc(c(-c5cc(S(=O)(=O)[O-])ccc5F)c5ccc([nH]5)c(-c5cc(S(=O)(=O)[O-])ccc5F)c5nc(c(-c6cc(S(=O)(=O)[O-])ccc6F)c6ccc3[nH]6)C=C5)C=C4)cc2)[C@@H]1C(=O)Nc1ccon1
REMARK SMILES IDX 9 1 8 2 7 3 5 4 6 5 4 7 1 8 2 9 3 10 77 11 78 12 79 13 80 14
REMARK SMILES IDX 81 16 82 17 85 18 83 19 84 20 10 21 11 22 12 23 13 25 14 26
REMARK SMILES IDX 15 27 76 28 16 29 75 30 17 31 18 32 19 33 69 34 20 35 74 36
REMARK SMILES IDX 68 37 70 38 21 39 73 40 67 41 66 42 22 44 54 45 34 46 53 47
REMARK SMILES IDX 35 48 38 49 52 50 71 51 36 52 37 53 51 55 72 56 39 57 23 58
REMARK SMILES IDX 24 59 32 60 25 61 31 62 33 63 30 64 26 65 27 66 28 67 29 68
REMARK SMILES IDX 55 69 56 70 64 71 57 72 63 73 65 74 62 75 58 76 59 77 60 78
REMARK SMILES IDX 61 79 40 80 41 81 49 82 42 83 48 84 50 85 47 86 43 87 44 88
REMARK SMILES IDX 45 89 46 90
REMARK H PARENT 7 6 80 15 11 24 70 43 38 54
REMARK Flexibility Score: inf
ROOT
ATOM      1  C   UNL     1      -0.057   4.141  -0.744  1.00  0.00     0.042 C 
ENDROOT
BRANCH   1   2
ATOM      2  C   UNL     1      -1.099   3.086  -0.415  1.00  0.00     0.117 C 
BRANCH   2   3
ATOM      3  N   UNL     1      -1.337   2.196  -1.532  1.00  0.00    -0.356 N 
ATOM      4  C   UNL     1      -1.233   0.857  -1.746  1.00  0.00     0.224 C 
ATOM      5  O   UNL     1      -1.515   0.476  -2.884  1.00  0.00    -0.275 OA
ATOM      6  H   UNL     1      -1.652   2.678  -2.332  1.00  0.00     0.163 HD
BRANCH   4   7
ATOM      7  C   UNL     1      -0.890  -0.206  -0.768  1.00  0.00     0.098 C 
ATOM      8  C   UNL     1       1.057  -1.584   0.157  1.00  0.00     0.013 C 
ATOM      9  C   UNL     1       0.290  -0.277   0.176  1.00  0.00    -0.011 C 
ATOM     10  C   UNL     1       1.208   0.911   0.327  1.00  0.00     0.013 C 
ATOM     11  C   UNL     1      -1.169  -0.315   0.700  1.00  0.00     0.098 C 
BRANCH  11  12
ATOM     12  C   UNL     1      -1.751   0.711   1.591  1.00  0.00     0.230 C 
ATOM     13  O   UNL     1      -1.135   1.039   2.602  1.00  0.00    -0.274 OA
ATOM     14  N   UNL     1      -2.963   1.288   1.323  1.00  0.00    -0.308 N 
ATOM     15  H   UNL     1      -3.224   2.000   1.950  1.00  0.00     0.171 HD
BRANCH  14  16
ATOM     16  C   UNL     1      -3.876   1.042   0.326  1.00  0.00     0.175 A 
ATOM     17  C   UNL     1      -4.057  -0.093  -0.492  1.00  0.00     0.092 A 
ATOM     18  N   UNL     1      -4.773   1.988   0.022  1.00  0.00    -0.062 NA
ATOM     19  C   UNL     1      -5.018   0.283  -1.393  1.00  0.00     0.233 A 
ATOM     20  O   UNL     1      -5.454   1.527  -1.089  1.00  0.00    -0.363 OA
ENDBRANCH  14  16
ENDBRANCH  11  12
ENDBRANCH   4   7
ENDBRANCH   2   3
ENDBRANCH   1   2
BRANCH   1  21
ATOM     21  C   UNL     1      -0.589   5.212  -1.681  1.00  0.00     0.118 C 
BRANCH  21  22
ATOM     22  N   UNL     1      -1.548   6.092  -1.023  1.00  0.00    -0.352 N 
ATOM     23  C   UNL     1      -1.421   7.418  -0.682  1.00  0.00     0.251 C 
ATOM     24  H   UNL     1      -2.409   5.677  -0.790  1.00  0.00     0.163 HD
ATOM     25  O   UNL     1      -2.235   7.933   0.079  1.00  0.00    -0.269 OA
BRANCH  23  26
ATOM     26  C   UNL     1      -0.289   8.204  -1.216  1.00  0.00     0.039 A 
ATOM     27  C   UNL     1       0.407   9.072  -0.372  1.00  0.00     0.014 A 
ATOM     28  C   UNL     1       0.095   8.067  -2.552  1.00  0.00     0.014 A 
ATOM     29  C   UNL     1       1.537   9.741  -0.851  1.00  0.00     0.010 A 
ATOM     30  C   UNL     1       1.278   8.646  -2.993  1.00  0.00     0.010 A 
ATOM     31  C   UNL     1       2.007   9.499  -2.152  1.00  0.00    -0.014 A 
BRANCH  31  32
ATOM     32  C   UNL     1       3.233  10.153  -2.681  1.00  0.00     0.031 A 
ATOM     33  C   UNL     1       3.131  11.038  -3.896  1.00  0.00     0.074 A 
ATOM     34  C   UNL     1       4.433   9.891  -2.127  1.00  0.00     0.049 A 
ATOM     35  N   UNL     1       4.083  11.585  -4.606  1.00  0.00    -0.248 NA
ATOM     36  C   UNL     1       1.775  11.310  -4.401  1.00  0.00     0.031 C 
ATOM     37  C   UNL     1       4.662   9.025  -0.968  1.00  0.00     0.029 A 
ATOM     38  N   UNL     1       5.692  10.320  -2.470  1.00  0.00    -0.354 N 
ATOM     39  C   UNL     1       3.443  12.248  -5.649  1.00  0.00     0.074 A 
ATOM     40  C   UNL     1       2.030  11.971  -5.519  1.00  0.00     0.031 C 
ATOM     41  C   UNL     1       5.974   9.010  -0.681  1.00  0.00     0.029 A 
ATOM     42  C   UNL     1       6.689   9.818  -1.664  1.00  0.00     0.049 A 
ATOM     43  H   UNL     1       5.865  10.931  -3.222  1.00  0.00     0.167 HD
ATOM     44  C   UNL     1       3.981  13.039  -6.609  1.00  0.00     0.034 A 
ATOM     45  C   UNL     1       8.026   9.979  -1.723  1.00  0.00     0.034 A 
ATOM     46  C   UNL     1       5.390  13.327  -6.708  1.00  0.00     0.049 A 
ATOM     47  C   UNL     1       8.603  10.844  -2.818  1.00  0.00     0.074 A 
ATOM     48  C   UNL     1       6.042  14.142  -7.616  1.00  0.00     0.029 A 
ATOM     49  N   UNL     1       6.365  12.812  -5.864  1.00  0.00    -0.354 N 
ATOM     50  N   UNL     1       7.980  11.485  -3.781  1.00  0.00    -0.248 NA
ATOM     51  C   UNL     1      10.062  11.015  -2.829  1.00  0.00     0.031 C 
ATOM     52  C   UNL     1       7.415  14.075  -7.358  1.00  0.00     0.029 A 
ATOM     53  C   UNL     1       7.614  13.278  -6.242  1.00  0.00     0.049 A 
ATOM     54  H   UNL     1       6.195  12.204  -5.108  1.00  0.00     0.167 HD
ATOM     55  C   UNL     1       8.970  12.170  -4.482  1.00  0.00     0.074 A 
ATOM     56  C   UNL     1      10.226  11.871  -3.826  1.00  0.00     0.031 C 
ATOM     57  C   UNL     1       8.853  12.977  -5.567  1.00  0.00     0.034 A 
BRANCH  44  58
ATOM     58  C   UNL     1       3.040  13.637  -7.626  1.00  0.00     0.023 A 
ATOM     59  C   UNL     1       2.027  14.537  -7.251  1.00  0.00     0.031 A 
ATOM     60  C   UNL     1       3.139  13.289  -8.985  1.00  0.00     0.131 A 
ATOM     61  C   UNL     1       1.111  15.001  -8.207  1.00  0.00     0.055 A 
ATOM     62  C   UNL     1       2.276  13.820  -9.946  1.00  0.00     0.041 A 
ATOM     63  F   UNL     1       4.072  12.417  -9.401  1.00  0.00    -0.206 F 
ATOM     64  C   UNL     1       1.245  14.671  -9.556  1.00  0.00     0.022 A 
BRANCH  61  65
ATOM     65  S   UNL     1      -0.335  15.935  -7.637  1.00  0.00     0.124 S 
ATOM     66  O   UNL     1      -0.993  14.958  -6.773  1.00  0.00    -0.237 OA
ATOM     67  O   UNL     1       0.271  17.078  -6.963  1.00  0.00    -0.237 OA
ATOM     68  O   UNL     1      -1.050  16.246  -8.873  1.00  0.00    -0.744 OA
ENDBRANCH  61  65
ENDBRANCH  44  58
BRANCH  45  69
ATOM     69  C   UNL     1       8.923   9.312  -0.734  1.00  0.00     0.023 A 
ATOM     70  C   UNL     1       9.731  10.071   0.128  1.00  0.00     0.031 A 
ATOM     71  C   UNL     1       9.040   7.912  -0.681  1.00  0.00     0.131 A 
ATOM     72  C   UNL     1      10.667   9.431   0.957  1.00  0.00     0.055 A 
ATOM     73  C   UNL     1       9.928   7.277   0.190  1.00  0.00     0.041 A 
ATOM     74  F   UNL     1       8.290   7.136  -1.480  1.00  0.00    -0.206 F 
ATOM     75  C   UNL     1      10.762   8.039   1.003  1.00  0.00     0.022 A 
BRANCH  72  76
ATOM     76  S   UNL     1      11.843  10.454   1.884  1.00  0.00     0.124 S 
ATOM     77  O   UNL     1      12.456  11.241   0.820  1.00  0.00    -0.237 OA
ATOM     78  O   UNL     1      10.961  11.180   2.793  1.00  0.00    -0.237 OA
ATOM     79  O   UNL     1      12.720   9.473   2.519  1.00  0.00    -0.744 OA
ENDBRANCH  72  76
ENDBRANCH  45  69
BRANCH  57  80
ATOM     80  C   UNL     1      10.110  13.646  -6.064  1.00  0.00     0.023 A 
ATOM     81  C   UNL     1      11.158  12.918  -6.649  1.00  0.00     0.031 A 
ATOM     82  C   UNL     1      10.253  15.041  -5.949  1.00  0.00     0.131 A 
ATOM     83  C   UNL     1      12.328  13.580  -7.051  1.00  0.00     0.055 A 
ATOM     84  C   UNL     1      11.394  15.701  -6.404  1.00  0.00     0.041 A 
ATOM     85  F   UNL     1       9.281  15.784  -5.397  1.00  0.00    -0.206 F 
ATOM     86  C   UNL     1      12.445  14.969  -6.948  1.00  0.00     0.022 A 
BRANCH  83  87
ATOM     87  S   UNL     1      13.730  12.592  -7.639  1.00  0.00     0.124 S 
ATOM     88  O   UNL     1      14.006  11.740  -6.487  1.00  0.00    -0.237 OA
ATOM     89  O   UNL     1      13.172  11.921  -8.808  1.00  0.00    -0.237 OA
ATOM     90  O   UNL     1      14.756  13.592  -7.931  1.00  0.00    -0.744 OA
ENDBRANCH  83  87
ENDBRANCH  57  80
ENDBRANCH  31  32
ENDBRANCH  23  26
ENDBRANCH  21  22
ENDBRANCH   1  21
TORSDOF 15
