REMARK SMILES O=C(NCCCNC(=O)[C@@]1([NH2+]C2CC2)CC[C@@H]([N@@H+]2CC[N@@H+]3CCC[C@@H]3C2)C1)c1ccc(-c2c3nc(c(-c4cc(S(=O)(=O)[O-])ccc4F)c4ccc([nH]4)c(-c4cc(S(=O)(=O)[O-])ccc4F)c4nc(c(-c5cc(S(=O)(=O)[O-])ccc5F)c5ccc2[nH]5)C=C4)C=C3)cc1
REMARK SMILES IDX 4 1 3 2 1 3 2 4 28 6 29 7 90 8 30 9 89 10 31 11 32 12 33 13
REMARK SMILES IDX 83 14 34 15 88 16 82 17 84 18 35 19 87 20 81 21 80 22 36 24
REMARK SMILES IDX 68 25 48 26 67 27 49 28 52 29 66 30 85 31 50 32 51 33 65 35
REMARK SMILES IDX 86 36 53 37 37 38 38 39 46 40 39 41 45 42 47 43 44 44 40 45
REMARK SMILES IDX 41 46 42 47 43 48 69 49 70 50 78 51 71 52 77 53 79 54 76 55
REMARK SMILES IDX 72 56 73 57 74 58 75 59 54 60 55 61 63 62 56 63 62 64 64 65
REMARK SMILES IDX 61 66 57 67 58 68 59 69 60 70 5 71 6 72 7 73 8 74 9 76 10 77
REMARK SMILES IDX 15 78 27 79 16 80 17 81 11 82 12 85 13 86 14 87 18 88 19 89
REMARK SMILES IDX 26 90 20 92 25 93 21 94 24 95 22 96 23 98
REMARK H PARENT 3 5 84 23 52 34 7 75 11 83 11 84 18 91 21 97
REMARK Flexibility Score: inf
ROOT
ATOM      1  C   UNL     1       4.557  -0.363  -1.585  1.00  0.00     0.118 C 
ENDROOT
BRANCH   1   2
ATOM      2  N   UNL     1       3.153  -0.408  -1.205  1.00  0.00    -0.352 N 
ATOM      3  O   UNL     1       1.232  -0.094  -0.096  1.00  0.00    -0.269 OA
ATOM      4  C   UNL     1       2.429   0.164  -0.177  1.00  0.00     0.251 C 
ATOM      5  H   UNL     1       2.604  -0.963  -1.806  1.00  0.00     0.163 HD
BRANCH   4   6
ATOM      6  C   UNL     1       3.062   1.023   0.855  1.00  0.00     0.039 A 
ATOM      7  C   UNL     1       4.120   1.874   0.570  1.00  0.00     0.014 A 
ATOM      8  C   UNL     1       2.561   0.991   2.164  1.00  0.00     0.014 A 
ATOM      9  C   UNL     1       4.827   2.484   1.600  1.00  0.00     0.010 A 
ATOM     10  C   UNL     1       3.184   1.729   3.183  1.00  0.00     0.010 A 
ATOM     11  C   UNL     1       4.368   2.432   2.925  1.00  0.00    -0.014 A 
BRANCH  11  12
ATOM     12  C   UNL     1       5.159   3.125   3.984  1.00  0.00     0.031 A 
ATOM     13  C   UNL     1       5.719   2.364   5.161  1.00  0.00     0.074 A 
ATOM     14  C   UNL     1       5.458   4.433   3.831  1.00  0.00     0.049 A 
ATOM     15  N   UNL     1       6.488   2.793   6.131  1.00  0.00    -0.248 NA
ATOM     16  C   UNL     1       5.353   0.946   5.278  1.00  0.00     0.031 C 
ATOM     17  C   UNL     1       4.966   5.286   2.744  1.00  0.00     0.029 A 
ATOM     18  N   UNL     1       6.285   5.263   4.545  1.00  0.00    -0.354 N 
ATOM     19  C   UNL     1       6.663   1.713   6.992  1.00  0.00     0.074 A 
ATOM     20  C   UNL     1       5.895   0.617   6.442  1.00  0.00     0.031 C 
ATOM     21  C   UNL     1       5.580   6.475   2.801  1.00  0.00     0.029 A 
ATOM     22  C   UNL     1       6.437   6.510   3.980  1.00  0.00     0.049 A 
ATOM     23  H   UNL     1       6.727   4.993   5.383  1.00  0.00     0.167 HD
ATOM     24  C   UNL     1       7.399   1.640   8.130  1.00  0.00     0.034 A 
ATOM     25  C   UNL     1       7.176   7.569   4.364  1.00  0.00     0.034 A 
ATOM     26  C   UNL     1       8.192   2.731   8.647  1.00  0.00     0.049 A 
ATOM     27  C   UNL     1       7.998   7.456   5.618  1.00  0.00     0.074 A 
ATOM     28  C   UNL     1       8.997   2.756   9.774  1.00  0.00     0.029 A 
ATOM     29  N   UNL     1       8.284   3.992   8.071  1.00  0.00    -0.354 N 
ATOM     30  N   UNL     1       8.141   6.427   6.421  1.00  0.00    -0.248 NA
ATOM     31  C   UNL     1       8.754   8.648   6.020  1.00  0.00     0.031 C 
ATOM     32  C   UNL     1       9.528   4.044   9.910  1.00  0.00     0.029 A 
ATOM     33  C   UNL     1       9.113   4.806   8.830  1.00  0.00     0.049 A 
ATOM     34  H   UNL     1       7.828   4.269   7.244  1.00  0.00     0.167 HD
ATOM     35  C   UNL     1       9.012   6.848   7.420  1.00  0.00     0.074 A 
ATOM     36  C   UNL     1       9.385   8.211   7.099  1.00  0.00     0.031 C 
ATOM     37  C   UNL     1       9.460   6.170   8.508  1.00  0.00     0.034 A 
BRANCH  24  38
ATOM     38  C   UNL     1       7.336   0.352   8.920  1.00  0.00     0.023 A 
ATOM     39  C   UNL     1       7.817  -0.866   8.407  1.00  0.00     0.031 A 
ATOM     40  C   UNL     1       6.753   0.340  10.201  1.00  0.00     0.131 A 
ATOM     41  C   UNL     1       7.641  -2.053   9.137  1.00  0.00     0.055 A 
ATOM     42  C   UNL     1       6.653  -0.831  10.956  1.00  0.00     0.041 A 
ATOM     43  F   UNL     1       6.258   1.466  10.737  1.00  0.00    -0.206 F 
ATOM     44  C   UNL     1       7.084  -2.040  10.418  1.00  0.00     0.022 A 
BRANCH  41  45
ATOM     45  S   UNL     1       8.016  -3.634   8.329  1.00  0.00     0.124 S 
ATOM     46  O   UNL     1       7.149  -3.579   7.154  1.00  0.00    -0.237 OA
ATOM     47  O   UNL     1       9.447  -3.524   8.072  1.00  0.00    -0.237 OA
ATOM     48  O   UNL     1       7.636  -4.630   9.329  1.00  0.00    -0.744 OA
ENDBRANCH  41  45
ENDBRANCH  24  38
BRANCH  25  49
ATOM     49  C   UNL     1       7.149   8.834   3.574  1.00  0.00     0.023 A 
ATOM     50  C   UNL     1       8.304   9.324   2.944  1.00  0.00     0.031 A 
ATOM     51  C   UNL     1       5.965   9.585   3.457  1.00  0.00     0.131 A 
ATOM     52  C   UNL     1       8.258  10.545   2.252  1.00  0.00     0.055 A 
ATOM     53  C   UNL     1       5.911  10.770   2.722  1.00  0.00     0.041 A 
ATOM     54  F   UNL     1       4.831   9.161   4.038  1.00  0.00    -0.206 F 
ATOM     55  C   UNL     1       7.066  11.262   2.124  1.00  0.00     0.022 A 
BRANCH  52  56
ATOM     56  S   UNL     1       9.800  11.224   1.580  1.00  0.00     0.124 S 
ATOM     57  O   UNL     1      10.629  11.324   2.775  1.00  0.00    -0.237 OA
ATOM     58  O   UNL     1      10.185  10.200   0.614  1.00  0.00    -0.237 OA
ATOM     59  O   UNL     1       9.385  12.499   0.999  1.00  0.00    -0.744 OA
ENDBRANCH  52  56
ENDBRANCH  25  49
BRANCH  37  60
ATOM     60  C   UNL     1      10.430   6.899   9.403  1.00  0.00     0.023 A 
ATOM     61  C   UNL     1      10.038   8.021  10.155  1.00  0.00     0.031 A 
ATOM     62  C   UNL     1      11.774   6.493   9.469  1.00  0.00     0.131 A 
ATOM     63  C   UNL     1      10.995   8.739  10.887  1.00  0.00     0.055 A 
ATOM     64  C   UNL     1      12.709   7.176  10.247  1.00  0.00     0.041 A 
ATOM     65  F   UNL     1      12.201   5.430   8.769  1.00  0.00    -0.206 F 
ATOM     66  C   UNL     1      12.325   8.316  10.949  1.00  0.00     0.022 A 
BRANCH  63  67
ATOM     67  S   UNL     1      10.501  10.299  11.669  1.00  0.00     0.124 S 
ATOM     68  O   UNL     1       9.989  11.060  10.534  1.00  0.00    -0.237 OA
ATOM     69  O   UNL     1       9.506   9.859  12.642  1.00  0.00    -0.237 OA
ATOM     70  O   UNL     1      11.747  10.805  12.243  1.00  0.00    -0.744 OA
ENDBRANCH  63  67
ENDBRANCH  37  60
ENDBRANCH  11  12
ENDBRANCH   4   6
ENDBRANCH   1   2
BRANCH   1  71
ATOM     71  C   UNL     1       5.446  -1.403  -0.907  1.00  0.00     0.042 C 
BRANCH  71  72
ATOM     72  C   UNL     1       5.227  -2.828  -1.407  1.00  0.00     0.118 C 
BRANCH  72  73
ATOM     73  N   UNL     1       5.415  -2.991  -2.840  1.00  0.00    -0.351 N 
ATOM     74  C   UNL     1       5.345  -4.115  -3.608  1.00  0.00     0.281 C 
ATOM     75  H   UNL     1       5.624  -2.163  -3.330  1.00  0.00     0.163 HD
ATOM     76  O   UNL     1       5.181  -3.911  -4.821  1.00  0.00    -0.268 OA
BRANCH  74  77
ATOM     77  C   UNL     1       5.618  -5.551  -3.083  1.00  0.00     0.181 C 
ATOM     78  C   UNL     1       5.025  -6.633  -4.006  1.00  0.00     0.085 C 
ATOM     79  C   UNL     1       7.142  -5.825  -3.306  1.00  0.00     0.144 C 
ATOM     80  C   UNL     1       5.855  -7.871  -3.698  1.00  0.00     0.072 C 
ATOM     81  C   UNL     1       7.295  -7.338  -3.613  1.00  0.00     0.191 C 
BRANCH  77  82
ATOM     82  N   UNL     1       5.283  -5.783  -1.664  1.00  0.00    -0.331 N 
ATOM     83  H   UNL     1       5.857  -5.132  -1.129  1.00  0.00     0.347 HD
ATOM     84  H   UNL     1       5.440  -6.787  -1.577  1.00  0.00     0.347 HD
BRANCH  82  85
ATOM     85  C   UNL     1       3.923  -5.650  -1.139  1.00  0.00     0.183 C 
ATOM     86  C   UNL     1       2.705  -5.326  -1.953  1.00  0.00     0.071 C 
ATOM     87  C   UNL     1       2.879  -6.701  -1.371  1.00  0.00     0.071 C 
ENDBRANCH  82  85
ENDBRANCH  77  82
BRANCH  81  88
ATOM     88  N   UNL     1       8.075  -7.699  -4.801  1.00  0.00    -0.323 N 
ATOM     89  C   UNL     1       9.521  -7.432  -4.713  1.00  0.00     0.324 C 
ATOM     90  C   UNL     1       7.534  -7.349  -6.115  1.00  0.00     0.328 C 
ATOM     91  H   UNL     1       7.954  -8.711  -4.759  1.00  0.00     0.348 HD
ATOM     92  C   UNL     1      10.238  -7.182  -6.077  1.00  0.00     0.324 C 
ATOM     93  C   UNL     1       8.287  -8.146  -7.201  1.00  0.00     0.240 C 
ATOM     94  N   UNL     1       9.760  -8.017  -7.190  1.00  0.00    -0.323 N 
ATOM     95  C   UNL     1       7.833  -7.790  -8.614  1.00  0.00     0.077 C 
ATOM     96  C   UNL     1      10.179  -7.522  -8.504  1.00  0.00     0.263 C 
ATOM     97  H   UNL     1      10.188  -8.928  -7.025  1.00  0.00     0.348 HD
ATOM     98  C   UNL     1       9.084  -8.002  -9.442  1.00  0.00     0.068 C 
ENDBRANCH  81  88
ENDBRANCH  74  77
ENDBRANCH  72  73
ENDBRANCH  71  72
ENDBRANCH   1  71
TORSDOF 16
