REMARK SMILES O=C(CCN1C(=O)/C(=C\c2ccc(-c3cccc(Cl)c3)o2)SC1=S)NCCCNC(=O)c1ccc(-c2c3nc(c(-c4cc(S(=O)(=O)[O-])ccc4F)c4ccc([nH]4)c(-c4cc(S(=O)(=O)[O-])ccc4F)c4nc(c(-c5cc(S(=O)(=O)[O-])ccc5F)c5ccc2[nH]5)C=C4)C=C3)cc1
REMARK SMILES IDX 26 1 25 2 1 3 2 4 3 6 4 7 5 8 6 9 23 10 7 11 8 12 22 13
REMARK SMILES IDX 24 14 9 15 10 16 11 17 21 18 12 19 13 20 14 21 15 22 20 23
REMARK SMILES IDX 16 24 18 25 17 26 19 27 27 28 28 29 29 30 30 31 31 33 32 34
REMARK SMILES IDX 33 35 94 36 34 37 93 38 35 39 36 40 37 41 87 42 38 43 92 44
REMARK SMILES IDX 86 45 88 46 39 47 91 48 85 49 84 50 40 52 72 53 52 54 71 55
REMARK SMILES IDX 53 56 56 57 70 58 89 59 54 60 55 61 69 63 90 64 57 65 41 66
REMARK SMILES IDX 42 67 50 68 43 69 49 70 51 71 48 72 44 73 45 74 46 75 47 76
REMARK SMILES IDX 73 77 74 78 82 79 75 80 81 81 83 82 80 83 76 84 77 85 78 86
REMARK SMILES IDX 79 87 58 88 59 89 67 90 60 91 66 92 68 93 65 94 61 95 62 96
REMARK SMILES IDX 63 97 64 98
REMARK H PARENT 25 5 29 32 88 51 56 62
REMARK Flexibility Score: inf
ROOT
ATOM      1  C   UNL     1       1.952   0.889  -2.761  1.00  0.00     0.117 C 
ENDROOT
BRANCH   1   2
ATOM      2  N   UNL     1       2.443   0.508  -1.442  1.00  0.00    -0.356 N 
ATOM      3  O   UNL     1       0.745  -0.963  -0.955  1.00  0.00    -0.275 OA
ATOM      4  C   UNL     1       1.827  -0.458  -0.672  1.00  0.00     0.221 C 
ATOM      5  H   UNL     1       3.244   0.957  -1.087  1.00  0.00     0.163 HD
BRANCH   4   6
ATOM      6  C   UNL     1       2.582  -0.877   0.575  1.00  0.00     0.122 C 
BRANCH   6   7
ATOM      7  C   UNL     1       3.858  -1.669   0.253  1.00  0.00     0.137 C 
BRANCH   7   8
ATOM      8  N   UNL     1       4.955  -0.868  -0.306  1.00  0.00    -0.292 N 
ATOM      9  C   UNL     1       5.319   0.302   0.340  1.00  0.00     0.266 C 
ATOM     10  C   UNL     1       5.781  -1.253  -1.342  1.00  0.00     0.148 C 
ATOM     11  O   UNL     1       5.003   0.617   1.467  1.00  0.00    -0.268 OA
ATOM     12  C   UNL     1       6.183   1.110  -0.555  1.00  0.00     0.084 C 
ATOM     13  S   UNL     1       6.927   0.046  -1.695  1.00  0.00    -0.054 SA
ATOM     14  S   UNL     1       5.777  -2.692  -2.184  1.00  0.00    -0.052 S 
ATOM     15  C   UNL     1       6.215   2.445  -0.659  1.00  0.00     0.068 C 
BRANCH  15  16
ATOM     16  C   UNL     1       5.312   3.318   0.022  1.00  0.00     0.128 A 
ATOM     17  C   UNL     1       5.089   3.540   1.373  1.00  0.00     0.051 A 
ATOM     18  O   UNL     1       4.439   4.146  -0.663  1.00  0.00    -0.457 OA
ATOM     19  C   UNL     1       4.047   4.494   1.503  1.00  0.00     0.051 A 
ATOM     20  C   UNL     1       3.679   4.842   0.227  1.00  0.00     0.134 A 
BRANCH  20  21
ATOM     21  C   UNL     1       2.691   5.757  -0.327  1.00  0.00     0.019 A 
ATOM     22  C   UNL     1       2.950   7.131  -0.400  1.00  0.00     0.012 A 
ATOM     23  C   UNL     1       1.444   5.287  -0.758  1.00  0.00     0.032 A 
ATOM     24  C   UNL     1       1.987   8.015  -0.902  1.00  0.00     0.002 A 
ATOM     25  C   UNL     1       0.499   6.168  -1.292  1.00  0.00     0.041 A 
ATOM     26  C   UNL     1       0.762   7.532  -1.360  1.00  0.00     0.020 A 
ATOM     27  Cl  UNL     1      -1.006   5.556  -1.867  1.00  0.00    -0.084 Cl
ENDBRANCH  20  21
ENDBRANCH  15  16
ENDBRANCH   7   8
ENDBRANCH   6   7
ENDBRANCH   4   6
ENDBRANCH   1   2
BRANCH   1  28
ATOM     28  C   UNL     1       2.068   2.384  -3.063  1.00  0.00     0.042 C 
BRANCH  28  29
ATOM     29  C   UNL     1       3.481   2.956  -3.200  1.00  0.00     0.118 C 
BRANCH  29  30
ATOM     30  N   UNL     1       4.085   2.822  -4.510  1.00  0.00    -0.352 N 
ATOM     31  C   UNL     1       4.889   3.707  -5.200  1.00  0.00     0.251 C 
ATOM     32  H   UNL     1       3.894   1.975  -4.975  1.00  0.00     0.163 HD
ATOM     33  O   UNL     1       5.288   3.378  -6.316  1.00  0.00    -0.269 OA
BRANCH  31  34
ATOM     34  C   UNL     1       5.264   5.051  -4.667  1.00  0.00     0.039 A 
ATOM     35  C   UNL     1       5.206   6.150  -5.529  1.00  0.00     0.014 A 
ATOM     36  C   UNL     1       5.766   5.251  -3.380  1.00  0.00     0.014 A 
ATOM     37  C   UNL     1       5.609   7.425  -5.095  1.00  0.00     0.010 A 
ATOM     38  C   UNL     1       6.123   6.535  -2.926  1.00  0.00     0.010 A 
ATOM     39  C   UNL     1       6.058   7.646  -3.780  1.00  0.00    -0.014 A 
BRANCH  39  40
ATOM     40  C   UNL     1       6.434   9.028  -3.326  1.00  0.00     0.031 A 
ATOM     41  C   UNL     1       7.844   9.373  -2.900  1.00  0.00     0.074 A 
ATOM     42  C   UNL     1       5.500  10.004  -3.300  1.00  0.00     0.049 A 
ATOM     43  N   UNL     1       8.345  10.536  -2.552  1.00  0.00    -0.248 NA
ATOM     44  C   UNL     1       8.810   8.269  -2.836  1.00  0.00     0.031 C 
ATOM     45  C   UNL     1       4.087   9.823  -3.632  1.00  0.00     0.029 A 
ATOM     46  N   UNL     1       5.597  11.343  -2.995  1.00  0.00    -0.354 N 
ATOM     47  C   UNL     1       9.681  10.307  -2.233  1.00  0.00     0.074 A 
ATOM     48  C   UNL     1       9.890   8.879  -2.366  1.00  0.00     0.031 C 
ATOM     49  C   UNL     1       3.462  11.009  -3.562  1.00  0.00     0.029 A 
ATOM     50  C   UNL     1       4.414  12.034  -3.139  1.00  0.00     0.049 A 
ATOM     51  H   UNL     1       6.435  11.768  -2.702  1.00  0.00     0.167 HD
ATOM     52  C   UNL     1      10.651  11.196  -1.889  1.00  0.00     0.034 A 
ATOM     53  C   UNL     1       4.117  13.339  -2.956  1.00  0.00     0.034 A 
ATOM     54  C   UNL     1      10.448  12.622  -1.760  1.00  0.00     0.049 A 
ATOM     55  C   UNL     1       5.204  14.306  -2.549  1.00  0.00     0.074 A 
ATOM     56  C   UNL     1      11.386  13.604  -1.477  1.00  0.00     0.029 A 
ATOM     57  N   UNL     1       9.230  13.275  -1.887  1.00  0.00    -0.354 N 
ATOM     58  N   UNL     1       6.476  14.075  -2.325  1.00  0.00    -0.248 NA
ATOM     59  C   UNL     1       4.814  15.714  -2.386  1.00  0.00     0.031 C 
ATOM     60  C   UNL     1      10.725  14.830  -1.352  1.00  0.00     0.029 A 
ATOM     61  C   UNL     1       9.387  14.635  -1.650  1.00  0.00     0.049 A 
ATOM     62  H   UNL     1       8.377  12.838  -2.113  1.00  0.00     0.167 HD
ATOM     63  C   UNL     1       7.042  15.316  -2.034  1.00  0.00     0.074 A 
ATOM     64  C   UNL     1       5.977  16.291  -2.124  1.00  0.00     0.031 C 
ATOM     65  C   UNL     1       8.329  15.617  -1.727  1.00  0.00     0.034 A 
BRANCH  52  66
ATOM     66  C   UNL     1      12.036  10.649  -1.605  1.00  0.00     0.023 A 
ATOM     67  C   UNL     1      12.785   9.987  -2.593  1.00  0.00     0.031 A 
ATOM     68  C   UNL     1      12.619  10.798  -0.333  1.00  0.00     0.131 A 
ATOM     69  C   UNL     1      14.035   9.433  -2.274  1.00  0.00     0.055 A 
ATOM     70  C   UNL     1      13.901  10.322  -0.047  1.00  0.00     0.041 A 
ATOM     71  F   UNL     1      11.951  11.408   0.659  1.00  0.00    -0.206 F 
ATOM     72  C   UNL     1      14.611   9.620  -1.016  1.00  0.00     0.022 A 
BRANCH  69  73
ATOM     73  S   UNL     1      14.827   8.334  -3.481  1.00  0.00     0.124 S 
ATOM     74  O   UNL     1      13.796   7.316  -3.672  1.00  0.00    -0.237 OA
ATOM     75  O   UNL     1      15.064   9.225  -4.610  1.00  0.00    -0.237 OA
ATOM     76  O   UNL     1      16.027   7.871  -2.787  1.00  0.00    -0.744 OA
ENDBRANCH  69  73
ENDBRANCH  52  66
BRANCH  53  77
ATOM     77  C   UNL     1       2.718  13.826  -3.150  1.00  0.00     0.023 A 
ATOM     78  C   UNL     1       2.406  14.771  -4.142  1.00  0.00     0.031 A 
ATOM     79  C   UNL     1       1.681  13.396  -2.302  1.00  0.00     0.131 A 
ATOM     80  C   UNL     1       1.107  15.295  -4.226  1.00  0.00     0.055 A 
ATOM     81  C   UNL     1       0.376  13.875  -2.430  1.00  0.00     0.041 A 
ATOM     82  F   UNL     1       1.922  12.492  -1.339  1.00  0.00    -0.206 F 
ATOM     83  C   UNL     1       0.086  14.842  -3.387  1.00  0.00     0.022 A 
BRANCH  80  84
ATOM     84  S   UNL     1       0.790  16.656  -5.384  1.00  0.00     0.124 S 
ATOM     85  O   UNL     1       1.737  17.664  -4.921  1.00  0.00    -0.237 OA
ATOM     86  O   UNL     1       1.090  16.035  -6.670  1.00  0.00    -0.237 OA
ATOM     87  O   UNL     1      -0.619  16.972  -5.159  1.00  0.00    -0.744 OA
ENDBRANCH  80  84
ENDBRANCH  53  77
BRANCH  65  88
ATOM     88  C   UNL     1       8.675  17.076  -1.518  1.00  0.00     0.023 A 
ATOM     89  C   UNL     1       8.137  17.829  -0.458  1.00  0.00     0.031 A 
ATOM     90  C   UNL     1       9.549  17.729  -2.407  1.00  0.00     0.131 A 
ATOM     91  C   UNL     1       8.428  19.199  -0.350  1.00  0.00     0.055 A 
ATOM     92  C   UNL     1       9.887  19.075  -2.256  1.00  0.00     0.041 A 
ATOM     93  F   UNL     1      10.092  17.067  -3.441  1.00  0.00    -0.206 F 
ATOM     94  C   UNL     1       9.314  19.822  -1.232  1.00  0.00     0.022 A 
BRANCH  91  95
ATOM     95  S   UNL     1       7.551  20.184   0.896  1.00  0.00     0.124 S 
ATOM     96  O   UNL     1       6.155  19.951   0.541  1.00  0.00    -0.237 OA
ATOM     97  O   UNL     1       8.000  19.578   2.146  1.00  0.00    -0.237 OA
ATOM     98  O   UNL     1       8.031  21.544   0.660  1.00  0.00    -0.744 OA
ENDBRANCH  91  95
ENDBRANCH  65  88
ENDBRANCH  39  40
ENDBRANCH  31  34
ENDBRANCH  29  30
ENDBRANCH  28  29
ENDBRANCH   1  28
TORSDOF 17
