REMARK SMILES Cn1cc(CNC(=O)Cn2ccc(C(=O)NCCCNC(=O)c3ccc(-c4c5nc(c(-c6cc(S(=O)(=O)[O-])ccc6F)c6ccc([nH]6)c(-c6cc(S(=O)(=O)[O-])ccc6F)c6nc(c(-c7cc(S(=O)(=O)[O-])ccc7F)c7ccc4[nH]7)C=C6)C=C5)cc3)n2)cn1
REMARK SMILES IDX 17 1 16 2 14 3 15 4 13 6 10 7 11 8 86 9 12 10 9 11 7 12 6 13
REMARK SMILES IDX 8 15 5 16 4 17 1 18 2 19 3 20 88 21 87 22 18 23 19 24 20 25
REMARK SMILES IDX 21 26 22 28 23 29 24 30 85 31 25 32 84 33 26 34 27 35 28 36
REMARK SMILES IDX 78 37 29 38 83 39 77 40 79 41 30 42 82 43 76 44 75 45 31 47
REMARK SMILES IDX 63 48 43 49 62 50 44 51 47 52 61 53 80 54 45 55 46 56 60 58
REMARK SMILES IDX 81 59 48 60 32 61 33 62 41 63 34 64 40 65 42 66 39 67 35 68
REMARK SMILES IDX 36 69 37 70 38 71 64 72 65 73 73 74 66 75 72 76 74 77 71 78
REMARK SMILES IDX 67 79 68 80 69 81 70 82 49 83 50 84 58 85 51 86 57 87 59 88
REMARK SMILES IDX 56 89 52 90 53 91 54 92 55 93
REMARK H PARENT 16 5 6 14 20 27 79 46 47 57
REMARK Flexibility Score: inf
ROOT
ATOM      1  C   UNL     1       6.661  -6.065   2.791  1.00  0.00     0.118 C 
ENDROOT
BRANCH   1   2
ATOM      2  N   UNL     1       7.119  -4.899   3.521  1.00  0.00    -0.351 N 
ATOM      3  C   UNL     1       7.021  -3.554   3.240  1.00  0.00     0.271 C 
ATOM      4  O   UNL     1       7.357  -2.783   4.143  1.00  0.00    -0.267 OA
ATOM      5  H   UNL     1       7.581  -5.105   4.365  1.00  0.00     0.163 HD
BRANCH   3   6
ATOM      6  C   UNL     1       6.535  -3.067   1.929  1.00  0.00     0.150 A 
ATOM      7  N   UNL     1       5.859  -1.637   0.480  1.00  0.00    -0.263 N 
ATOM      8  C   UNL     1       5.968  -2.798  -0.219  1.00  0.00     0.110 A 
ATOM      9  N   UNL     1       6.151  -1.780   1.783  1.00  0.00    -0.167 NA
ATOM     10  C   UNL     1       6.411  -3.734   0.680  1.00  0.00     0.056 A 
BRANCH   7  11
ATOM     11  C   UNL     1       5.458  -0.330  -0.008  1.00  0.00     0.243 C 
BRANCH  11  12
ATOM     12  C   UNL     1       4.641  -0.411  -1.275  1.00  0.00     0.241 C 
ATOM     13  N   UNL     1       3.372  -0.910  -1.236  1.00  0.00    -0.350 N 
ATOM     14  H   UNL     1       2.905  -0.959  -2.101  1.00  0.00     0.163 HD
ATOM     15  O   UNL     1       5.091  -0.042  -2.361  1.00  0.00    -0.273 OA
BRANCH  13  16
ATOM     16  C   UNL     1       2.621  -1.379  -0.089  1.00  0.00     0.155 C 
BRANCH  16  17
ATOM     17  C   UNL     1       1.345  -0.629  -0.055  1.00  0.00     0.009 A 
ATOM     18  C   UNL     1      -2.211  -0.040  -0.038  1.00  0.00     0.173 C 
ATOM     19  N   UNL     1      -0.770  -0.038  -0.029  1.00  0.00    -0.275 N 
ATOM     20  C   UNL     1       0.056  -1.123  -0.060  1.00  0.00     0.113 A 
ATOM     21  N   UNL     1      -0.113   1.134  -0.004  1.00  0.00    -0.181 NA
ATOM     22  C   UNL     1       1.171   0.775  -0.007  1.00  0.00     0.140 A 
ENDBRANCH  16  17
ENDBRANCH  13  16
ENDBRANCH  11  12
ENDBRANCH   7  11
ENDBRANCH   3   6
ENDBRANCH   1   2
BRANCH   1  23
ATOM     23  C   UNL     1       7.753  -6.677   1.907  1.00  0.00     0.042 C 
BRANCH  23  24
ATOM     24  C   UNL     1       8.686  -7.590   2.688  1.00  0.00     0.118 C 
BRANCH  24  25
ATOM     25  N   UNL     1       8.016  -8.815   3.124  1.00  0.00    -0.352 N 
ATOM     26  C   UNL     1       8.518  -9.847   3.887  1.00  0.00     0.251 C 
ATOM     27  H   UNL     1       7.080  -8.915   2.834  1.00  0.00     0.163 HD
ATOM     28  O   UNL     1       7.963 -10.948   3.857  1.00  0.00    -0.269 OA
BRANCH  26  29
ATOM     29  C   UNL     1       9.717  -9.631   4.716  1.00  0.00     0.039 A 
ATOM     30  C   UNL     1      10.682 -10.631   4.856  1.00  0.00     0.014 A 
ATOM     31  C   UNL     1       9.882  -8.401   5.351  1.00  0.00     0.014 A 
ATOM     32  C   UNL     1      11.851 -10.347   5.560  1.00  0.00     0.010 A 
ATOM     33  C   UNL     1      11.088  -8.075   5.927  1.00  0.00     0.010 A 
ATOM     34  C   UNL     1      12.065  -9.052   6.068  1.00  0.00    -0.014 A 
BRANCH  34  35
ATOM     35  C   UNL     1      13.385  -8.655   6.564  1.00  0.00     0.031 A 
ATOM     36  C   UNL     1      14.473  -8.933   5.590  1.00  0.00     0.074 A 
ATOM     37  C   UNL     1      13.598  -7.913   7.675  1.00  0.00     0.049 A 
ATOM     38  N   UNL     1      15.360  -9.867   5.657  1.00  0.00    -0.248 NA
ATOM     39  C   UNL     1      14.444  -8.242   4.288  1.00  0.00     0.031 C 
ATOM     40  C   UNL     1      12.593  -7.328   8.568  1.00  0.00     0.029 A 
ATOM     41  N   UNL     1      14.766  -7.430   8.194  1.00  0.00    -0.354 N 
ATOM     42  C   UNL     1      16.186  -9.679   4.556  1.00  0.00     0.074 A 
ATOM     43  C   UNL     1      15.429  -8.870   3.641  1.00  0.00     0.031 C 
ATOM     44  C   UNL     1      13.171  -6.400   9.364  1.00  0.00     0.029 A 
ATOM     45  C   UNL     1      14.610  -6.428   9.156  1.00  0.00     0.049 A 
ATOM     46  H   UNL     1      15.649  -7.763   7.912  1.00  0.00     0.167 HD
ATOM     47  C   UNL     1      17.521  -9.943   4.642  1.00  0.00     0.034 A 
ATOM     48  C   UNL     1      15.580  -5.664   9.736  1.00  0.00     0.034 A 
ATOM     49  C   UNL     1      17.801 -10.752   5.815  1.00  0.00     0.049 A 
ATOM     50  C   UNL     1      16.849  -6.415   9.595  1.00  0.00     0.074 A 
ATOM     51  C   UNL     1      17.346 -11.971   6.284  1.00  0.00     0.029 A 
ATOM     52  N   UNL     1      18.362 -10.126   6.907  1.00  0.00    -0.354 N 
ATOM     53  N   UNL     1      17.072  -7.554  10.188  1.00  0.00    -0.248 NA
ATOM     54  C   UNL     1      17.669  -6.160   8.421  1.00  0.00     0.031 C 
ATOM     55  C   UNL     1      17.204 -11.794   7.693  1.00  0.00     0.029 A 
ATOM     56  C   UNL     1      17.678 -10.525   8.030  1.00  0.00     0.049 A 
ATOM     57  H   UNL     1      19.122  -9.500   6.887  1.00  0.00     0.167 HD
ATOM     58  C   UNL     1      17.684  -8.341   9.225  1.00  0.00     0.074 A 
ATOM     59  C   UNL     1      18.129  -7.396   8.200  1.00  0.00     0.031 C 
ATOM     60  C   UNL     1      17.510  -9.697   9.212  1.00  0.00     0.034 A 
BRANCH  47  61
ATOM     61  C   UNL     1      18.607  -9.132   3.954  1.00  0.00     0.023 A 
ATOM     62  C   UNL     1      19.938  -9.485   4.252  1.00  0.00     0.031 A 
ATOM     63  C   UNL     1      18.443  -7.892   3.295  1.00  0.00     0.131 A 
ATOM     64  C   UNL     1      20.992  -8.579   4.048  1.00  0.00     0.055 A 
ATOM     65  C   UNL     1      19.507  -7.022   3.032  1.00  0.00     0.041 A 
ATOM     66  F   UNL     1      17.253  -7.404   2.934  1.00  0.00    -0.206 F 
ATOM     67  C   UNL     1      20.785  -7.344   3.446  1.00  0.00     0.022 A 
BRANCH  64  68
ATOM     68  S   UNL     1      22.603  -8.976   4.770  1.00  0.00     0.124 S 
ATOM     69  O   UNL     1      22.247  -9.163   6.173  1.00  0.00    -0.237 OA
ATOM     70  O   UNL     1      22.973 -10.179   4.032  1.00  0.00    -0.237 OA
ATOM     71  O   UNL     1      23.405  -7.791   4.477  1.00  0.00    -0.744 OA
ENDBRANCH  64  68
ENDBRANCH  47  61
BRANCH  48  72
ATOM     72  C   UNL     1      15.527  -4.224  10.136  1.00  0.00     0.023 A 
ATOM     73  C   UNL     1      16.481  -3.617  10.990  1.00  0.00     0.031 A 
ATOM     74  C   UNL     1      14.659  -3.349   9.447  1.00  0.00     0.131 A 
ATOM     75  C   UNL     1      16.542  -2.204  11.112  1.00  0.00     0.055 A 
ATOM     76  C   UNL     1      14.726  -1.958   9.568  1.00  0.00     0.041 A 
ATOM     77  F   UNL     1      13.771  -3.812   8.554  1.00  0.00    -0.206 F 
ATOM     78  C   UNL     1      15.676  -1.379  10.392  1.00  0.00     0.022 A 
BRANCH  75  79
ATOM     79  S   UNL     1      17.819  -1.397  12.140  1.00  0.00     0.124 S 
ATOM     80  O   UNL     1      17.395  -1.740  13.493  1.00  0.00    -0.237 OA
ATOM     81  O   UNL     1      19.049  -2.020  11.666  1.00  0.00    -0.237 OA
ATOM     82  O   UNL     1      17.687   0.021  11.800  1.00  0.00    -0.744 OA
ENDBRANCH  75  79
ENDBRANCH  48  72
BRANCH  60  83
ATOM     83  C   UNL     1      16.937 -10.360  10.455  1.00  0.00     0.023 A 
ATOM     84  C   UNL     1      15.719 -10.013  11.088  1.00  0.00     0.031 A 
ATOM     85  C   UNL     1      17.646 -11.456  10.978  1.00  0.00     0.131 A 
ATOM     86  C   UNL     1      15.274 -10.737  12.213  1.00  0.00     0.055 A 
ATOM     87  C   UNL     1      17.189 -12.188  12.073  1.00  0.00     0.041 A 
ATOM     88  F   UNL     1      18.799 -11.855  10.415  1.00  0.00    -0.206 F 
ATOM     89  C   UNL     1      16.006 -11.824  12.702  1.00  0.00     0.022 A 
BRANCH  86  90
ATOM     90  S   UNL     1      13.754 -10.256  13.098  1.00  0.00     0.124 S 
ATOM     91  O   UNL     1      13.859  -8.806  13.202  1.00  0.00    -0.237 OA
ATOM     92  O   UNL     1      12.703 -10.759  12.218  1.00  0.00    -0.237 OA
ATOM     93  O   UNL     1      13.867 -10.967  14.374  1.00  0.00    -0.744 OA
ENDBRANCH  86  90
ENDBRANCH  60  83
ENDBRANCH  34  35
ENDBRANCH  26  29
ENDBRANCH  24  25
ENDBRANCH  23  24
ENDBRANCH   1  23
TORSDOF 17
