REMARK SMILES Cc1ccc(N)cc1S(=O)(=O)Nc1cccc(C(=O)NCCCNC(=O)c2ccc(-c3c4nc(c(-c5cc(S(=O)(=O)[O-])ccc5F)c5ccc([nH]5)c(-c5cc(S(=O)(=O)[O-])ccc5F)c5nc(c(-c6cc(S(=O)(=O)[O-])ccc6F)c6ccc3[nH]6)C=C5)C=C4)cc2)c1
REMARK SMILES IDX 21 1 20 2 18 3 19 4 17 6 13 7 14 8 90 9 15 10 16 11 12 12
REMARK SMILES IDX 9 14 10 15 11 16 8 17 1 18 2 19 3 20 4 21 7 22 5 23 6 24
REMARK SMILES IDX 22 27 23 28 24 29 25 30 26 32 27 33 28 34 89 35 29 36 88 37
REMARK SMILES IDX 30 38 31 39 32 40 82 41 33 42 87 43 81 44 83 45 34 46 86 47
REMARK SMILES IDX 80 48 79 49 35 51 67 52 47 53 66 54 48 55 51 56 65 57 84 58
REMARK SMILES IDX 49 59 50 60 64 62 85 63 52 64 36 65 37 66 45 67 38 68 44 69
REMARK SMILES IDX 46 70 43 71 39 72 40 73 41 74 42 75 68 76 69 77 77 78 70 79
REMARK SMILES IDX 76 80 78 81 75 82 71 83 72 84 73 85 74 86 53 87 54 88 62 89
REMARK SMILES IDX 55 90 61 91 63 92 60 93 56 94 57 95 58 96 59 97
REMARK H PARENT 20 5 12 13 6 25 6 26 24 31 83 50 51 61
REMARK Flexibility Score: inf
ROOT
ATOM      1  C   UNL     1      -1.575  -0.950   2.728  1.00  0.00     0.118 C 
ENDROOT
BRANCH   1   2
ATOM      2  N   UNL     1      -2.787  -1.700   3.013  1.00  0.00    -0.352 N 
ATOM      3  C   UNL     1      -4.073  -1.609   2.545  1.00  0.00     0.251 C 
ATOM      4  O   UNL     1      -4.886  -2.434   2.966  1.00  0.00    -0.269 OA
ATOM      5  H   UNL     1      -2.658  -2.417   3.675  1.00  0.00     0.163 HD
BRANCH   3   6
ATOM      6  C   UNL     1      -4.516  -0.635   1.504  1.00  0.00     0.041 A 
ATOM      7  C   UNL     1      -4.209   1.286   0.062  1.00  0.00     0.050 A 
ATOM      8  C   UNL     1      -5.363   0.944  -0.650  1.00  0.00     0.027 A 
ATOM      9  C   UNL     1      -3.858   0.558   1.198  1.00  0.00     0.040 A 
ATOM     10  C   UNL     1      -6.093  -0.186  -0.297  1.00  0.00     0.003 A 
ATOM     11  C   UNL     1      -5.651  -0.989   0.753  1.00  0.00     0.014 A 
BRANCH   7  12
ATOM     12  N   UNL     1      -3.374   2.271  -0.526  1.00  0.00    -0.280 N 
ATOM     13  H   UNL     1      -3.784   2.832  -1.224  1.00  0.00     0.180 HD
BRANCH  12  14
ATOM     14  S   UNL     1      -1.777   2.585  -0.168  1.00  0.00     0.262 S 
ATOM     15  O   UNL     1      -1.696   2.870   1.249  1.00  0.00    -0.201 OA
ATOM     16  O   UNL     1      -1.365   3.570  -1.148  1.00  0.00    -0.201 OA
BRANCH  14  17
ATOM     17  C   UNL     1      -0.746   1.148  -0.460  1.00  0.00     0.092 A 
ATOM     18  C   UNL     1      -2.354  -0.312  -1.880  1.00  0.00     0.046 C 
ATOM     19  C   UNL     1      -1.093  -0.041  -1.121  1.00  0.00    -0.030 A 
ATOM     20  C   UNL     1      -0.181  -1.116  -1.061  1.00  0.00     0.007 A 
ATOM     21  C   UNL     1       1.078  -0.980  -0.473  1.00  0.00     0.026 A 
ATOM     22  C   UNL     1       0.545   1.274   0.104  1.00  0.00     0.048 A 
ATOM     23  C   UNL     1       1.477   0.238   0.059  1.00  0.00     0.033 A 
BRANCH  23  24
ATOM     24  N   UNL     1       2.724   0.381   0.634  1.00  0.00    -0.399 N 
ATOM     25  H   UNL     1       3.372  -0.359   0.595  1.00  0.00     0.156 HD
ATOM     26  H   UNL     1       2.965   1.223   1.083  1.00  0.00     0.156 HD
ENDBRANCH  23  24
ENDBRANCH  14  17
ENDBRANCH  12  14
ENDBRANCH   7  12
ENDBRANCH   3   6
ENDBRANCH   1   2
BRANCH   1  27
ATOM     27  C   UNL     1      -1.386   0.194   3.721  1.00  0.00     0.042 C 
BRANCH  27  28
ATOM     28  C   UNL     1      -0.795  -0.271   5.045  1.00  0.00     0.118 C 
BRANCH  28  29
ATOM     29  N   UNL     1       0.621  -0.582   4.924  1.00  0.00    -0.352 N 
ATOM     30  C   UNL     1       1.666  -0.229   5.741  1.00  0.00     0.251 C 
ATOM     31  H   UNL     1       0.866  -1.126   4.141  1.00  0.00     0.163 HD
ATOM     32  O   UNL     1       2.816  -0.436   5.359  1.00  0.00    -0.269 OA
BRANCH  30  33
ATOM     33  C   UNL     1       1.421   0.418   7.051  1.00  0.00     0.039 A 
ATOM     34  C   UNL     1       2.299   1.423   7.470  1.00  0.00     0.014 A 
ATOM     35  C   UNL     1       0.368   0.026   7.883  1.00  0.00     0.014 A 
ATOM     36  C   UNL     1       2.102   2.053   8.701  1.00  0.00     0.010 A 
ATOM     37  C   UNL     1       0.126   0.709   9.074  1.00  0.00     0.010 A 
ATOM     38  C   UNL     1       1.003   1.714   9.506  1.00  0.00    -0.014 A 
BRANCH  38  39
ATOM     39  C   UNL     1       0.788   2.378  10.819  1.00  0.00     0.031 A 
ATOM     40  C   UNL     1       0.883   1.581  12.092  1.00  0.00     0.074 A 
ATOM     41  C   UNL     1       0.475   3.687  10.861  1.00  0.00     0.049 A 
ATOM     42  N   UNL     1       0.728   1.973  13.331  1.00  0.00    -0.248 NA
ATOM     43  C   UNL     1       1.156   0.143  11.949  1.00  0.00     0.031 C 
ATOM     44  C   UNL     1       0.305   4.553   9.693  1.00  0.00     0.029 A 
ATOM     45  N   UNL     1       0.251   4.520  11.927  1.00  0.00    -0.354 N 
ATOM     46  C   UNL     1       0.864   0.829  14.112  1.00  0.00     0.074 A 
ATOM     47  C   UNL     1       1.045  -0.279  13.198  1.00  0.00     0.031 C 
ATOM     48  C   UNL     1       0.045   5.804  10.107  1.00  0.00     0.029 A 
ATOM     49  C   UNL     1      -0.002   5.823  11.566  1.00  0.00     0.049 A 
ATOM     50  H   UNL     1       0.269   4.215  12.863  1.00  0.00     0.167 HD
ATOM     51  C   UNL     1       0.863   0.716  15.465  1.00  0.00     0.034 A 
ATOM     52  C   UNL     1      -0.235   6.910  12.326  1.00  0.00     0.034 A 
ATOM     53  C   UNL     1       0.703   1.837  16.360  1.00  0.00     0.049 A 
ATOM     54  C   UNL     1      -0.223   6.767  13.825  1.00  0.00     0.074 A 
ATOM     55  C   UNL     1       0.756   1.856  17.743  1.00  0.00     0.029 A 
ATOM     56  N   UNL     1       0.450   3.143  15.957  1.00  0.00    -0.354 N 
ATOM     57  N   UNL     1      -0.029   5.691  14.552  1.00  0.00    -0.248 NA
ATOM     58  C   UNL     1      -0.447   7.990  14.605  1.00  0.00     0.031 C 
ATOM     59  C   UNL     1       0.478   3.158  18.177  1.00  0.00     0.029 A 
ATOM     60  C   UNL     1       0.317   3.968  17.064  1.00  0.00     0.049 A 
ATOM     61  H   UNL     1       0.375   3.440  15.021  1.00  0.00     0.167 HD
ATOM     62  C   UNL     1      -0.073   6.115  15.876  1.00  0.00     0.074 A 
ATOM     63  C   UNL     1      -0.305   7.546  15.845  1.00  0.00     0.031 C 
ATOM     64  C   UNL     1       0.073   5.391  17.016  1.00  0.00     0.034 A 
BRANCH  51  65
ATOM     65  C   UNL     1       1.013  -0.674  16.041  1.00  0.00     0.023 A 
ATOM     66  C   UNL     1       2.159  -1.455  15.801  1.00  0.00     0.031 A 
ATOM     67  C   UNL     1      -0.027  -1.252  16.789  1.00  0.00     0.131 A 
ATOM     68  C   UNL     1       2.194  -2.796  16.213  1.00  0.00     0.055 A 
ATOM     69  C   UNL     1       0.052  -2.559  17.276  1.00  0.00     0.041 A 
ATOM     70  F   UNL     1      -1.154  -0.566  17.039  1.00  0.00    -0.206 F 
ATOM     71  C   UNL     1       1.159  -3.346  16.971  1.00  0.00     0.022 A 
BRANCH  68  72
ATOM     72  S   UNL     1       3.528  -3.857  15.591  1.00  0.00     0.124 S 
ATOM     73  O   UNL     1       3.367  -3.716  14.145  1.00  0.00    -0.237 OA
ATOM     74  O   UNL     1       4.717  -3.237  16.165  1.00  0.00    -0.237 OA
ATOM     75  O   UNL     1       3.193  -5.177  16.121  1.00  0.00    -0.744 OA
ENDBRANCH  68  72
ENDBRANCH  51  65
BRANCH  52  76
ATOM     76  C   UNL     1      -0.469   8.236  11.689  1.00  0.00     0.023 A 
ATOM     77  C   UNL     1       0.470   9.271  11.824  1.00  0.00     0.031 A 
ATOM     78  C   UNL     1      -1.639   8.494  10.955  1.00  0.00     0.131 A 
ATOM     79  C   UNL     1       0.206  10.530  11.264  1.00  0.00     0.055 A 
ATOM     80  C   UNL     1      -1.877   9.736  10.364  1.00  0.00     0.041 A 
ATOM     81  F   UNL     1      -2.562   7.533  10.789  1.00  0.00    -0.206 F 
ATOM     82  C   UNL     1      -0.956  10.767  10.526  1.00  0.00     0.022 A 
BRANCH  79  83
ATOM     83  S   UNL     1       1.383  11.877  11.566  1.00  0.00     0.124 S 
ATOM     84  O   UNL     1       1.365  11.970  13.021  1.00  0.00    -0.237 OA
ATOM     85  O   UNL     1       2.607  11.350  10.971  1.00  0.00    -0.237 OA
ATOM     86  O   UNL     1       0.790  13.012  10.860  1.00  0.00    -0.744 OA
ENDBRANCH  79  83
ENDBRANCH  52  76
BRANCH  64  87
ATOM     87  C   UNL     1       0.033   6.156  18.315  1.00  0.00     0.023 A 
ATOM     88  C   UNL     1      -1.144   6.768  18.778  1.00  0.00     0.031 A 
ATOM     89  C   UNL     1       1.201   6.295  19.086  1.00  0.00     0.131 A 
ATOM     90  C   UNL     1      -1.115   7.542  19.948  1.00  0.00     0.055 A 
ATOM     91  C   UNL     1       1.211   7.019  20.279  1.00  0.00     0.041 A 
ATOM     92  F   UNL     1       2.353   5.732  18.689  1.00  0.00    -0.206 F 
ATOM     93  C   UNL     1       0.052   7.659  20.709  1.00  0.00     0.022 A 
BRANCH  90  94
ATOM     94  S   UNL     1      -2.600   8.474  20.414  1.00  0.00     0.124 S 
ATOM     95  O   UNL     1      -2.824   9.300  19.232  1.00  0.00    -0.237 OA
ATOM     96  O   UNL     1      -3.575   7.413  20.644  1.00  0.00    -0.237 OA
ATOM     97  O   UNL     1      -2.185   9.204  21.611  1.00  0.00    -0.744 OA
ENDBRANCH  90  94
ENDBRANCH  64  87
ENDBRANCH  38  39
ENDBRANCH  30  33
ENDBRANCH  28  29
ENDBRANCH  27  28
ENDBRANCH   1  27
TORSDOF 17
