REMARK SMILES O=C(NCCCNC(=O)c1ccc(-c2c3nc(c(-c4cc(S(=O)(=O)[O-])ccc4F)c4ccc([nH]4)c(-c4cc(S(=O)(=O)[O-])ccc4F)c4nc(c(-c5cc(S(=O)(=O)[O-])ccc5F)c5ccc2[nH]5)C=C4)C=C3)cc1)C1=Cc2c(ccc(Cl)c2Oc2ccccc2)O[C@H]1C(F)(F)F
REMARK SMILES IDX 5 1 4 2 3 3 1 4 2 5 73 7 74 8 90 9 75 10 89 11 76 12 81 13
REMARK SMILES IDX 77 14 79 15 78 16 80 17 91 18 92 19 93 20 94 21 82 22 83 23
REMARK SMILES IDX 84 24 88 25 85 26 87 27 86 28 6 29 7 30 8 31 9 33 10 34
REMARK SMILES IDX 11 35 72 36 12 37 71 38 13 39 14 40 15 41 65 42 16 43 70 44
REMARK SMILES IDX 64 45 66 46 17 47 69 48 63 49 62 50 18 52 50 53 30 54 49 55
REMARK SMILES IDX 31 56 34 57 48 58 67 59 32 60 33 61 47 63 68 64 35 65 19 66
REMARK SMILES IDX 20 67 28 68 21 69 27 70 29 71 26 72 22 73 23 74 24 75 25 76
REMARK SMILES IDX 51 77 52 78 60 79 53 80 59 81 61 82 58 83 54 84 55 85 56 86
REMARK SMILES IDX 57 87 36 88 37 89 45 90 38 91 44 92 46 93 43 94 39 95 40 96
REMARK SMILES IDX 41 97 42 98
REMARK H PARENT 3 6 7 32 66 51 34 62
REMARK Flexibility Score: inf
ROOT
ATOM      1  C   UNL     1       4.034   1.657   2.360  1.00  0.00     0.042 C 
ENDROOT
BRANCH   1   2
ATOM      2  C   UNL     1       3.265   0.606   1.574  1.00  0.00     0.118 C 
BRANCH   2   3
ATOM      3  N   UNL     1       2.351   1.192   0.606  1.00  0.00    -0.352 N 
ATOM      4  O   UNL     1       1.516   1.899  -1.349  1.00  0.00    -0.270 OA
ATOM      5  C   UNL     1       2.369   1.254  -0.754  1.00  0.00     0.251 C 
ATOM      6  H   UNL     1       1.568   1.629   1.013  1.00  0.00     0.163 HD
BRANCH   5   7
ATOM      7  C   UNL     1       3.444   0.610  -1.528  1.00  0.00     0.067 C 
ATOM      8  C   UNL     1       3.643  -0.712  -1.499  1.00  0.00     0.029 C 
ATOM      9  C   UNL     1       4.467   1.498  -2.153  1.00  0.00     0.314 C 
ATOM     10  C   UNL     1       4.955  -1.023  -0.875  1.00  0.00     0.061 A 
ATOM     11  O   UNL     1       5.821   1.105  -1.772  1.00  0.00    -0.475 OA
ATOM     12  C   UNL     1       5.965  -0.042  -1.020  1.00  0.00     0.131 A 
ATOM     13  C   UNL     1       5.146  -2.128  -0.008  1.00  0.00     0.156 A 
ATOM     14  C   UNL     1       7.158  -0.151  -0.313  1.00  0.00     0.049 A 
ATOM     15  C   UNL     1       6.350  -2.192   0.719  1.00  0.00     0.084 A 
ATOM     16  C   UNL     1       7.341  -1.213   0.570  1.00  0.00     0.028 A 
ATOM     17  Cl  UNL     1       6.632  -3.442   1.881  1.00  0.00    -0.080 Cl
BRANCH   9  18
ATOM     18  C   UNL     1       4.321   1.534  -3.683  1.00  0.00     0.429 C 
ATOM     19  F   UNL     1       3.028   1.529  -4.085  1.00  0.00    -0.167 F 
ATOM     20  F   UNL     1       4.890   2.646  -4.206  1.00  0.00    -0.167 F 
ATOM     21  F   UNL     1       4.915   0.465  -4.271  1.00  0.00    -0.167 F 
ENDBRANCH   9  18
BRANCH  13  22
ATOM     22  O   UNL     1       4.218  -3.114   0.317  1.00  0.00    -0.455 OA
BRANCH  22  23
ATOM     23  C   UNL     1       3.060  -3.226  -0.407  1.00  0.00     0.127 A 
ATOM     24  C   UNL     1       1.883  -2.672   0.105  1.00  0.00     0.047 A 
ATOM     25  C   UNL     1       3.068  -3.862  -1.649  1.00  0.00     0.047 A 
ATOM     26  C   UNL     1       0.739  -2.638  -0.692  1.00  0.00     0.004 A 
ATOM     27  C   UNL     1       1.917  -3.833  -2.438  1.00  0.00     0.004 A 
ATOM     28  C   UNL     1       0.763  -3.200  -1.969  1.00  0.00     0.000 A 
ENDBRANCH  22  23
ENDBRANCH  13  22
ENDBRANCH   5   7
ENDBRANCH   2   3
ENDBRANCH   1   2
BRANCH   1  29
ATOM     29  C   UNL     1       4.075   1.359   3.852  1.00  0.00     0.118 C 
BRANCH  29  30
ATOM     30  N   UNL     1       4.756   0.123   4.215  1.00  0.00    -0.352 N 
ATOM     31  C   UNL     1       5.596  -0.142   5.276  1.00  0.00     0.251 C 
ATOM     32  H   UNL     1       4.591  -0.637   3.611  1.00  0.00     0.163 HD
ATOM     33  O   UNL     1       6.082  -1.266   5.381  1.00  0.00    -0.269 OA
BRANCH  31  34
ATOM     34  C   UNL     1       5.967   0.919   6.247  1.00  0.00     0.039 A 
ATOM     35  C   UNL     1       7.272   0.947   6.752  1.00  0.00     0.014 A 
ATOM     36  C   UNL     1       5.060   1.898   6.650  1.00  0.00     0.014 A 
ATOM     37  C   UNL     1       7.683   2.001   7.576  1.00  0.00     0.010 A 
ATOM     38  C   UNL     1       5.504   3.009   7.359  1.00  0.00     0.010 A 
ATOM     39  C   UNL     1       6.817   3.071   7.846  1.00  0.00    -0.014 A 
BRANCH  39  40
ATOM     40  C   UNL     1       7.231   4.243   8.667  1.00  0.00     0.031 A 
ATOM     41  C   UNL     1       6.437   4.608   9.898  1.00  0.00     0.074 A 
ATOM     42  C   UNL     1       8.245   5.034   8.262  1.00  0.00     0.049 A 
ATOM     43  N   UNL     1       6.505   5.678  10.648  1.00  0.00    -0.248 NA
ATOM     44  C   UNL     1       5.376   3.669  10.292  1.00  0.00     0.031 C 
ATOM     45  C   UNL     1       9.047   4.837   7.052  1.00  0.00     0.029 A 
ATOM     46  N   UNL     1       8.768   6.173   8.820  1.00  0.00    -0.354 N 
ATOM     47  C   UNL     1       5.458   5.567  11.560  1.00  0.00     0.074 A 
ATOM     48  C   UNL     1       4.733   4.363  11.217  1.00  0.00     0.031 C 
ATOM     49  C   UNL     1       9.983   5.798   6.980  1.00  0.00     0.029 A 
ATOM     50  C   UNL     1       9.823   6.703   8.113  1.00  0.00     0.049 A 
ATOM     51  H   UNL     1       8.422   6.573   9.650  1.00  0.00     0.167 HD
ATOM     52  C   UNL     1       5.147   6.376  12.605  1.00  0.00     0.034 A 
ATOM     53  C   UNL     1      10.575   7.795   8.353  1.00  0.00     0.034 A 
ATOM     54  C   UNL     1       5.928   7.532  12.974  1.00  0.00     0.049 A 
ATOM     55  C   UNL     1      10.282   8.620   9.579  1.00  0.00     0.074 A 
ATOM     56  C   UNL     1       5.755   8.390  14.046  1.00  0.00     0.029 A 
ATOM     57  N   UNL     1       7.050   7.979  12.287  1.00  0.00    -0.354 N 
ATOM     58  N   UNL     1       9.307   8.488  10.450  1.00  0.00    -0.248 NA
ATOM     59  C   UNL     1      11.203   9.725   9.866  1.00  0.00     0.031 C 
ATOM     60  C   UNL     1       6.752   9.372  13.989  1.00  0.00     0.029 A 
ATOM     61  C   UNL     1       7.580   9.096  12.914  1.00  0.00     0.049 A 
ATOM     62  H   UNL     1       7.416   7.562  11.474  1.00  0.00     0.167 HD
ATOM     63  C   UNL     1       9.516   9.480  11.403  1.00  0.00     0.074 A 
ATOM     64  C   UNL     1      10.719  10.185  11.009  1.00  0.00     0.031 C 
ATOM     65  C   UNL     1       8.780   9.785  12.502  1.00  0.00     0.034 A 
BRANCH  52  66
ATOM     66  C   UNL     1       3.907   6.032  13.400  1.00  0.00     0.023 A 
ATOM     67  C   UNL     1       3.776   4.802  14.069  1.00  0.00     0.031 A 
ATOM     68  C   UNL     1       2.811   6.912  13.432  1.00  0.00     0.131 A 
ATOM     69  C   UNL     1       2.545   4.438  14.635  1.00  0.00     0.055 A 
ATOM     70  C   UNL     1       1.620   6.585  14.087  1.00  0.00     0.041 A 
ATOM     71  F   UNL     1       2.865   8.096  12.801  1.00  0.00    -0.206 F 
ATOM     72  C   UNL     1       1.474   5.332  14.674  1.00  0.00     0.022 A 
BRANCH  69  73
ATOM     73  S   UNL     1       2.312   2.714  15.152  1.00  0.00     0.124 S 
ATOM     74  O   UNL     1       2.512   2.003  13.891  1.00  0.00    -0.237 OA
ATOM     75  O   UNL     1       3.355   2.541  16.156  1.00  0.00    -0.237 OA
ATOM     76  O   UNL     1       0.943   2.691  15.661  1.00  0.00    -0.744 OA
ENDBRANCH  69  73
ENDBRANCH  52  66
BRANCH  53  77
ATOM     77  C   UNL     1      11.691   8.160   7.438  1.00  0.00     0.023 A 
ATOM     78  C   UNL     1      13.027   8.062   7.860  1.00  0.00     0.031 A 
ATOM     79  C   UNL     1      11.442   8.639   6.140  1.00  0.00     0.131 A 
ATOM     80  C   UNL     1      14.063   8.479   7.011  1.00  0.00     0.055 A 
ATOM     81  C   UNL     1      12.479   9.012   5.282  1.00  0.00     0.041 A 
ATOM     82  F   UNL     1      10.184   8.736   5.683  1.00  0.00    -0.206 F 
ATOM     83  C   UNL     1      13.798   8.945   5.721  1.00  0.00     0.022 A 
BRANCH  80  84
ATOM     84  S   UNL     1      15.762   8.465   7.644  1.00  0.00     0.124 S 
ATOM     85  O   UNL     1      15.655   9.340   8.806  1.00  0.00    -0.237 OA
ATOM     86  O   UNL     1      15.968   7.048   7.924  1.00  0.00    -0.237 OA
ATOM     87  O   UNL     1      16.544   8.998   6.530  1.00  0.00    -0.744 OA
ENDBRANCH  80  84
ENDBRANCH  53  77
BRANCH  65  88
ATOM     88  C   UNL     1       9.298  10.900  13.374  1.00  0.00     0.023 A 
ATOM     89  C   UNL     1       9.323  12.233  12.928  1.00  0.00     0.031 A 
ATOM     90  C   UNL     1       9.809  10.617  14.652  1.00  0.00     0.131 A 
ATOM     91  C   UNL     1       9.909  13.224  13.728  1.00  0.00     0.055 A 
ATOM     92  C   UNL     1      10.339  11.617  15.467  1.00  0.00     0.041 A 
ATOM     93  F   UNL     1       9.808   9.361  15.125  1.00  0.00    -0.206 F 
ATOM     94  C   UNL     1      10.407  12.927  14.999  1.00  0.00     0.022 A 
BRANCH  91  95
ATOM     95  S   UNL     1      10.115  14.889  13.037  1.00  0.00     0.124 S 
ATOM     96  O   UNL     1      10.854  14.619  11.807  1.00  0.00    -0.237 OA
ATOM     97  O   UNL     1       8.733  15.327  12.867  1.00  0.00    -0.237 OA
ATOM     98  O   UNL     1      10.868  15.598  14.069  1.00  0.00    -0.744 OA
ENDBRANCH  91  95
ENDBRANCH  65  88
ENDBRANCH  39  40
ENDBRANCH  31  34
ENDBRANCH  29  30
ENDBRANCH   1  29
TORSDOF 16
