REMARK SMILES C[C@H](Sc1ccnc(C(=O)NCCCNC(=O)c2ccc(-c3c4nc(c(-c5cc(S(=O)(=O)[O-])ccc5F)c5ccc([nH]5)c(-c5cc(S(=O)(=O)[O-])ccc5F)c5nc(c(-c6cc(S(=O)(=O)[O-])ccc6F)c6ccc3[nH]6)C=C5)C=C4)cc2)c1)[C@@H](C)O
REMARK SMILES IDX 12 1 11 2 9 3 10 4 8 6 4 7 5 8 81 9 6 10 7 11 3 12 2 13 1 14
REMARK SMILES IDX 82 15 83 16 84 17 13 19 14 20 15 21 16 22 17 24 18 25 19 26
REMARK SMILES IDX 80 27 20 28 79 29 21 30 22 31 23 32 73 33 24 34 78 35 72 36
REMARK SMILES IDX 74 37 25 38 77 39 71 40 70 41 26 43 58 44 38 45 57 46 39 47
REMARK SMILES IDX 42 48 56 49 75 50 40 51 41 52 55 54 76 55 43 56 27 57 28 58
REMARK SMILES IDX 36 59 29 60 35 61 37 62 34 63 30 64 31 65 32 66 33 67 59 68
REMARK SMILES IDX 60 69 68 70 61 71 67 72 69 73 66 74 62 75 63 76 64 77 65 78
REMARK SMILES IDX 44 79 45 80 53 81 46 82 52 83 54 84 51 85 47 86 48 87 49 88
REMARK SMILES IDX 50 89
REMARK H PARENT 11 5 84 18 15 23 74 42 42 53
REMARK Flexibility Score: inf
ROOT
ATOM      1  C   UNL     1       2.893   1.301   4.618  1.00  0.00     0.118 C 
ENDROOT
BRANCH   1   2
ATOM      2  N   UNL     1       2.928   0.049   5.348  1.00  0.00    -0.351 N 
ATOM      3  C   UNL     1       2.658  -1.258   5.011  1.00  0.00     0.269 C 
ATOM      4  O   UNL     1       2.794  -2.081   5.921  1.00  0.00    -0.268 OA
ATOM      5  H   UNL     1       3.204   0.156   6.287  1.00  0.00     0.163 HD
BRANCH   3   6
ATOM      6  C   UNL     1       2.283  -1.730   3.627  1.00  0.00     0.129 A 
ATOM      7  C   UNL     1       1.661  -1.429   1.309  1.00  0.00     0.011 A 
ATOM      8  C   UNL     1       1.946  -2.771   1.104  1.00  0.00     0.035 A 
ATOM      9  C   UNL     1       1.786  -0.922   2.613  1.00  0.00     0.049 A 
ATOM     10  C   UNL     1       2.342  -3.540   2.184  1.00  0.00     0.113 A 
ATOM     11  N   UNL     1       2.532  -3.049   3.420  1.00  0.00    -0.251 NA
BRANCH   7  12
ATOM     12  S   UNL     1       1.439  -0.198   0.025  1.00  0.00    -0.120 SA
BRANCH  12  13
ATOM     13  C   UNL     1       0.466  -0.901  -1.385  1.00  0.00     0.077 C 
ATOM     14  C   UNL     1       0.969  -2.228  -1.945  1.00  0.00     0.022 C 
BRANCH  13  15
ATOM     15  C   UNL     1      -1.064  -0.882  -1.164  1.00  0.00     0.124 C 
ATOM     16  C   UNL     1      -1.639   0.525  -1.007  1.00  0.00     0.039 C 
BRANCH  15  17
ATOM     17  O   UNL     1      -1.721  -1.490  -2.287  1.00  0.00    -0.392 OA
ATOM     18  H   UNL     1      -1.538  -0.973  -3.087  1.00  0.00     0.210 HD
ENDBRANCH  15  17
ENDBRANCH  13  15
ENDBRANCH  12  13
ENDBRANCH   7  12
ENDBRANCH   3   6
ENDBRANCH   1   2
BRANCH   1  19
ATOM     19  C   UNL     1       1.557   2.016   4.822  1.00  0.00     0.042 C 
BRANCH  19  20
ATOM     20  C   UNL     1       1.422   2.661   6.202  1.00  0.00     0.118 C 
BRANCH  20  21
ATOM     21  N   UNL     1       2.340   3.777   6.365  1.00  0.00    -0.352 N 
ATOM     22  C   UNL     1       2.102   5.091   6.676  1.00  0.00     0.251 C 
ATOM     23  H   UNL     1       3.289   3.552   6.229  1.00  0.00     0.163 HD
ATOM     24  O   UNL     1       3.004   5.906   6.499  1.00  0.00    -0.269 OA
BRANCH  22  25
ATOM     25  C   UNL     1       0.794   5.536   7.210  1.00  0.00     0.039 A 
ATOM     26  C   UNL     1       0.329   6.806   6.851  1.00  0.00     0.014 A 
ATOM     27  C   UNL     1       0.064   4.764   8.119  1.00  0.00     0.014 A 
ATOM     28  C   UNL     1      -0.873   7.285   7.377  1.00  0.00     0.010 A 
ATOM     29  C   UNL     1      -1.170   5.215   8.591  1.00  0.00     0.010 A 
ATOM     30  C   UNL     1      -1.643   6.487   8.237  1.00  0.00    -0.014 A 
BRANCH  30  31
ATOM     31  C   UNL     1      -2.932   6.990   8.782  1.00  0.00     0.031 A 
ATOM     32  C   UNL     1      -3.090   7.247  10.257  1.00  0.00     0.074 A 
ATOM     33  C   UNL     1      -3.968   7.193   7.945  1.00  0.00     0.049 A 
ATOM     34  N   UNL     1      -4.134   7.683  10.916  1.00  0.00    -0.248 NA
ATOM     35  C   UNL     1      -1.928   6.946  11.107  1.00  0.00     0.031 C 
ATOM     36  C   UNL     1      -3.950   6.932   6.503  1.00  0.00     0.029 A 
ATOM     37  N   UNL     1      -5.234   7.666   8.180  1.00  0.00    -0.354 N 
ATOM     38  C   UNL     1      -3.760   7.699  12.257  1.00  0.00     0.074 A 
ATOM     39  C   UNL     1      -2.414   7.168  12.319  1.00  0.00     0.031 C 
ATOM     40  C   UNL     1      -5.136   7.279   5.979  1.00  0.00     0.029 A 
ATOM     41  C   UNL     1      -6.010   7.754   7.047  1.00  0.00     0.049 A 
ATOM     42  H   UNL     1      -5.558   7.918   9.075  1.00  0.00     0.167 HD
ATOM     43  C   UNL     1      -4.464   8.137  13.332  1.00  0.00     0.034 A 
ATOM     44  C   UNL     1      -7.279   8.175   6.886  1.00  0.00     0.034 A 
ATOM     45  C   UNL     1      -5.803   8.672  13.249  1.00  0.00     0.049 A 
ATOM     46  C   UNL     1      -8.035   8.672   8.091  1.00  0.00     0.074 A 
ATOM     47  C   UNL     1      -6.595   9.182  14.263  1.00  0.00     0.029 A 
ATOM     48  N   UNL     1      -6.552   8.762  12.081  1.00  0.00    -0.354 N 
ATOM     49  N   UNL     1      -7.648   8.730   9.345  1.00  0.00    -0.248 NA
ATOM     50  C   UNL     1      -9.390   9.182   7.852  1.00  0.00     0.031 C 
ATOM     51  C   UNL     1      -7.840   9.526  13.720  1.00  0.00     0.029 A 
ATOM     52  C   UNL     1      -7.802   9.299  12.354  1.00  0.00     0.049 A 
ATOM     53  H   UNL     1      -6.240   8.485  11.190  1.00  0.00     0.167 HD
ATOM     54  C   UNL     1      -8.707   9.307  10.041  1.00  0.00     0.074 A 
ATOM     55  C   UNL     1      -9.732   9.604   9.060  1.00  0.00     0.031 C 
ATOM     56  C   UNL     1      -8.823   9.570  11.368  1.00  0.00     0.034 A 
BRANCH  43  57
ATOM     57  C   UNL     1      -3.800   8.027  14.686  1.00  0.00     0.023 A 
ATOM     58  C   UNL     1      -2.614   8.722  14.986  1.00  0.00     0.031 A 
ATOM     59  C   UNL     1      -4.338   7.191  15.681  1.00  0.00     0.131 A 
ATOM     60  C   UNL     1      -1.962   8.505  16.210  1.00  0.00     0.055 A 
ATOM     61  C   UNL     1      -3.729   7.044  16.930  1.00  0.00     0.041 A 
ATOM     62  F   UNL     1      -5.457   6.487  15.450  1.00  0.00    -0.206 F 
ATOM     63  C   UNL     1      -2.525   7.690  17.195  1.00  0.00     0.022 A 
BRANCH  60  64
ATOM     64  S   UNL     1      -0.296   9.185  16.437  1.00  0.00     0.124 S 
ATOM     65  O   UNL     1       0.433   8.548  15.342  1.00  0.00    -0.237 OA
ATOM     66  O   UNL     1      -0.519  10.620  16.308  1.00  0.00    -0.237 OA
ATOM     67  O   UNL     1       0.082   8.730  17.774  1.00  0.00    -0.744 OA
ENDBRANCH  60  64
ENDBRANCH  43  57
BRANCH  44  68
ATOM     68  C   UNL     1      -7.915   8.158   5.539  1.00  0.00     0.023 A 
ATOM     69  C   UNL     1      -8.281   9.352   4.897  1.00  0.00     0.031 A 
ATOM     70  C   UNL     1      -8.197   6.945   4.887  1.00  0.00     0.131 A 
ATOM     71  C   UNL     1      -8.952   9.306   3.665  1.00  0.00     0.055 A 
ATOM     72  C   UNL     1      -8.820   6.906   3.638  1.00  0.00     0.041 A 
ATOM     73  F   UNL     1      -7.857   5.775   5.452  1.00  0.00    -0.206 F 
ATOM     74  C   UNL     1      -9.213   8.092   3.026  1.00  0.00     0.022 A 
BRANCH  71  75
ATOM     75  S   UNL     1      -9.547  10.860   2.942  1.00  0.00     0.124 S 
ATOM     76  O   UNL     1     -10.411  11.370   4.001  1.00  0.00    -0.237 OA
ATOM     77  O   UNL     1      -8.302  11.588   2.724  1.00  0.00    -0.237 OA
ATOM     78  O   UNL     1     -10.235  10.428   1.727  1.00  0.00    -0.744 OA
ENDBRANCH  71  75
ENDBRANCH  44  68
BRANCH  56  79
ATOM     79  C   UNL     1     -10.099  10.242  11.815  1.00  0.00     0.023 A 
ATOM     80  C   UNL     1     -11.347   9.601  11.708  1.00  0.00     0.031 A 
ATOM     81  C   UNL     1     -10.073  11.559  12.305  1.00  0.00     0.131 A 
ATOM     82  C   UNL     1     -12.522  10.305  12.009  1.00  0.00     0.055 A 
ATOM     83  C   UNL     1     -11.241  12.232  12.668  1.00  0.00     0.041 A 
ATOM     84  F   UNL     1      -8.911  12.221  12.427  1.00  0.00    -0.206 F 
ATOM     85  C   UNL     1     -12.476  11.611  12.502  1.00  0.00     0.022 A 
BRANCH  82  86
ATOM     86  S   UNL     1     -14.118   9.535  11.621  1.00  0.00     0.124 S 
ATOM     87  O   UNL     1     -13.970   9.225  10.203  1.00  0.00    -0.237 OA
ATOM     88  O   UNL     1     -14.139   8.390  12.525  1.00  0.00    -0.237 OA
ATOM     89  O   UNL     1     -15.089  10.585  11.928  1.00  0.00    -0.744 OA
ENDBRANCH  82  86
ENDBRANCH  56  79
ENDBRANCH  30  31
ENDBRANCH  22  25
ENDBRANCH  20  21
ENDBRANCH  19  20
ENDBRANCH   1  19
TORSDOF 17
