REMARK SMILES Cc1cscc1C(=O)N1C[C@@H](C(=O)NCCCNC(=O)c2ccc(-c3c4nc(c(-c5cc(S(=O)(=O)[O-])ccc5F)c5ccc([nH]5)c(-c5cc(S(=O)(=O)[O-])ccc5F)c5nc(c(-c6cc(S(=O)(=O)[O-])ccc6F)c6ccc3[nH]6)C=C5)C=C4)cc2)Oc2ccccc21
REMARK SMILES IDX 16 1 15 2 14 3 12 4 13 5 11 7 9 8 10 9 90 10 85 11 89 12
REMARK SMILES IDX 84 13 86 14 88 15 87 16 7 17 8 18 6 19 1 20 2 21 3 22 4 23
REMARK SMILES IDX 5 24 17 25 18 26 19 27 20 29 21 30 22 31 83 32 23 33 82 34
REMARK SMILES IDX 24 35 25 36 26 37 76 38 27 39 81 40 75 41 77 42 28 43 80 44
REMARK SMILES IDX 74 45 73 46 29 48 61 49 41 50 60 51 42 52 45 53 59 54 78 55
REMARK SMILES IDX 43 56 44 57 58 59 79 60 46 61 30 62 31 63 39 64 32 65 38 66
REMARK SMILES IDX 40 67 37 68 33 69 34 70 35 71 36 72 62 73 63 74 71 75 64 76
REMARK SMILES IDX 70 77 72 78 69 79 65 80 66 81 67 82 68 83 47 84 48 85 56 86
REMARK SMILES IDX 49 87 55 88 57 89 54 90 50 91 51 92 52 93 53 94
REMARK H PARENT 14 6 18 28 77 47 45 58
REMARK Flexibility Score: inf
ROOT
ATOM      1  C   UNL     1       5.774   7.049  -0.776  1.00  0.00     0.042 C 
ENDROOT
BRANCH   1   2
ATOM      2  C   UNL     1       5.184   5.665  -0.545  1.00  0.00     0.118 C 
BRANCH   2   3
ATOM      3  N   UNL     1       4.346   5.194  -1.631  1.00  0.00    -0.353 N 
ATOM      4  C   UNL     1       3.942   3.931  -1.937  1.00  0.00     0.262 C 
ATOM      5  O   UNL     1       3.094   3.821  -2.832  1.00  0.00    -0.271 OA
ATOM      6  H   UNL     1       4.019   5.895  -2.240  1.00  0.00     0.163 HD
BRANCH   4   7
ATOM      7  C   UNL     1       4.538   2.661  -1.281  1.00  0.00     0.281 C 
ATOM      8  N   UNL     1       2.753   2.135   0.351  1.00  0.00    -0.301 N 
ATOM      9  C   UNL     1       3.400   1.707  -0.896  1.00  0.00     0.181 C 
ATOM     10  C   UNL     1       3.635   2.688   1.331  1.00  0.00     0.086 A 
ATOM     11  C   UNL     1       4.988   2.877   1.011  1.00  0.00     0.144 A 
ATOM     12  C   UNL     1       3.218   2.988   2.634  1.00  0.00     0.030 A 
ATOM     13  O   UNL     1       5.509   2.713  -0.248  1.00  0.00    -0.477 OA
ATOM     14  C   UNL     1       5.903   3.307   1.977  1.00  0.00     0.049 A 
ATOM     15  C   UNL     1       4.126   3.455   3.590  1.00  0.00     0.002 A 
ATOM     16  C   UNL     1       5.470   3.605   3.265  1.00  0.00     0.004 A 
BRANCH   8  17
ATOM     17  C   UNL     1       1.369   2.104   0.524  1.00  0.00     0.259 C 
ATOM     18  O   UNL     1       0.753   2.981   1.127  1.00  0.00    -0.269 OA
BRANCH  17  19
ATOM     19  C   UNL     1       0.629   0.954  -0.023  1.00  0.00     0.053 A 
ATOM     20  C   UNL     1       2.234  -1.067   0.529  1.00  0.00     0.046 C 
ATOM     21  C   UNL     1       0.983  -0.456  -0.016  1.00  0.00    -0.028 A 
ATOM     22  C   UNL     1      -0.038  -1.228  -0.546  1.00  0.00     0.069 A 
ATOM     23  S   UNL     1      -1.399  -0.317  -1.010  1.00  0.00    -0.151 S 
ATOM     24  C   UNL     1      -0.657   1.131  -0.511  1.00  0.00     0.079 A 
ENDBRANCH  17  19
ENDBRANCH   8  17
ENDBRANCH   4   7
ENDBRANCH   2   3
ENDBRANCH   1   2
BRANCH   1  25
ATOM     25  C   UNL     1       4.760   8.174  -0.941  1.00  0.00     0.118 C 
BRANCH  25  26
ATOM     26  N   UNL     1       4.045   8.504   0.281  1.00  0.00    -0.352 N 
ATOM     27  C   UNL     1       4.046   9.659   1.032  1.00  0.00     0.251 C 
ATOM     28  H   UNL     1       3.467   7.787   0.629  1.00  0.00     0.163 HD
ATOM     29  O   UNL     1       3.448   9.679   2.105  1.00  0.00    -0.269 OA
BRANCH  27  30
ATOM     30  C   UNL     1       4.796  10.858   0.584  1.00  0.00     0.039 A 
ATOM     31  C   UNL     1       5.541  11.576   1.526  1.00  0.00     0.014 A 
ATOM     32  C   UNL     1       4.774  11.283  -0.745  1.00  0.00     0.014 A 
ATOM     33  C   UNL     1       6.337  12.652   1.116  1.00  0.00     0.010 A 
ATOM     34  C   UNL     1       5.635  12.294  -1.167  1.00  0.00     0.010 A 
ATOM     35  C   UNL     1       6.432  12.988  -0.243  1.00  0.00    -0.014 A 
BRANCH  35  36
ATOM     36  C   UNL     1       7.345  14.059  -0.728  1.00  0.00     0.031 A 
ATOM     37  C   UNL     1       6.784  15.250  -1.459  1.00  0.00     0.074 A 
ATOM     38  C   UNL     1       8.680  13.917  -0.603  1.00  0.00     0.049 A 
ATOM     39  N   UNL     1       7.409  16.191  -2.120  1.00  0.00    -0.248 NA
ATOM     40  C   UNL     1       5.319  15.368  -1.487  1.00  0.00     0.031 C 
ATOM     41  C   UNL     1       9.358  12.789   0.040  1.00  0.00     0.029 A 
ATOM     42  N   UNL     1       9.709  14.720  -1.030  1.00  0.00    -0.354 N 
ATOM     43  C   UNL     1       6.415  16.984  -2.683  1.00  0.00     0.074 A 
ATOM     44  C   UNL     1       5.147  16.388  -2.314  1.00  0.00     0.031 C 
ATOM     45  C   UNL     1      10.686  12.980  -0.022  1.00  0.00     0.029 A 
ATOM     46  C   UNL     1      10.957  14.218  -0.745  1.00  0.00     0.049 A 
ATOM     47  H   UNL     1       9.566  15.574  -1.498  1.00  0.00     0.167 HD
ATOM     48  C   UNL     1       6.545  18.110  -3.430  1.00  0.00     0.034 A 
ATOM     49  C   UNL     1      12.182  14.692  -1.045  1.00  0.00     0.034 A 
ATOM     50  C   UNL     1       7.810  18.724  -3.748  1.00  0.00     0.049 A 
ATOM     51  C   UNL     1      12.303  15.978  -1.817  1.00  0.00     0.074 A 
ATOM     52  C   UNL     1       8.053  19.895  -4.446  1.00  0.00     0.029 A 
ATOM     53  N   UNL     1       9.050  18.221  -3.377  1.00  0.00    -0.354 N 
ATOM     54  N   UNL     1      11.352  16.720  -2.334  1.00  0.00    -0.248 NA
ATOM     55  C   UNL     1      13.661  16.492  -2.040  1.00  0.00     0.031 C 
ATOM     56  C   UNL     1       9.439  20.083  -4.523  1.00  0.00     0.029 A 
ATOM     57  C   UNL     1      10.059  19.053  -3.834  1.00  0.00     0.049 A 
ATOM     58  H   UNL     1       9.191  17.393  -2.863  1.00  0.00     0.167 HD
ATOM     59  C   UNL     1      11.998  17.800  -2.926  1.00  0.00     0.074 A 
ATOM     60  C   UNL     1      13.417  17.617  -2.695  1.00  0.00     0.031 C 
ATOM     61  C   UNL     1      11.466  18.852  -3.597  1.00  0.00     0.034 A 
BRANCH  48  62
ATOM     62  C   UNL     1       5.278  18.724  -3.972  1.00  0.00     0.023 A 
ATOM     63  C   UNL     1       4.296  19.261  -3.122  1.00  0.00     0.031 A 
ATOM     64  C   UNL     1       5.024  18.722  -5.355  1.00  0.00     0.131 A 
ATOM     65  C   UNL     1       3.071  19.691  -3.653  1.00  0.00     0.055 A 
ATOM     66  C   UNL     1       3.835  19.228  -5.885  1.00  0.00     0.041 A 
ATOM     67  F   UNL     1       5.918  18.207  -6.213  1.00  0.00    -0.206 F 
ATOM     68  C   UNL     1       2.842  19.700  -5.031  1.00  0.00     0.022 A 
BRANCH  65  69
ATOM     69  S   UNL     1       1.728  20.099  -2.505  1.00  0.00     0.124 S 
ATOM     70  O   UNL     1       1.528  18.822  -1.823  1.00  0.00    -0.237 OA
ATOM     71  O   UNL     1       2.312  21.167  -1.702  1.00  0.00    -0.237 OA
ATOM     72  O   UNL     1       0.636  20.506  -3.386  1.00  0.00    -0.744 OA
ENDBRANCH  65  69
ENDBRANCH  48  62
BRANCH  49  73
ATOM     73  C   UNL     1      13.399  13.945  -0.628  1.00  0.00     0.023 A 
ATOM     74  C   UNL     1      14.236  14.441   0.383  1.00  0.00     0.031 A 
ATOM     75  C   UNL     1      13.756  12.739  -1.254  1.00  0.00     0.131 A 
ATOM     76  C   UNL     1      15.412  13.753   0.715  1.00  0.00     0.055 A 
ATOM     77  C   UNL     1      14.909  12.039  -0.897  1.00  0.00     0.041 A 
ATOM     78  F   UNL     1      12.978  12.219  -2.218  1.00  0.00    -0.206 F 
ATOM     79  C   UNL     1      15.751  12.551   0.086  1.00  0.00     0.022 A 
BRANCH  76  80
ATOM     80  S   UNL     1      16.528  14.483   1.944  1.00  0.00     0.124 S 
ATOM     81  O   UNL     1      16.830  15.777   1.343  1.00  0.00    -0.237 OA
ATOM     82  O   UNL     1      15.687  14.509   3.136  1.00  0.00    -0.237 OA
ATOM     83  O   UNL     1      17.644  13.541   1.992  1.00  0.00    -0.744 OA
ENDBRANCH  76  80
ENDBRANCH  49  73
BRANCH  61  84
ATOM     84  C   UNL     1      12.429  19.903  -4.080  1.00  0.00     0.023 A 
ATOM     85  C   UNL     1      13.286  19.671  -5.169  1.00  0.00     0.031 A 
ATOM     86  C   UNL     1      12.498  21.145  -3.426  1.00  0.00     0.131 A 
ATOM     87  C   UNL     1      14.209  20.657  -5.548  1.00  0.00     0.055 A 
ATOM     88  C   UNL     1      13.391  22.136  -3.832  1.00  0.00     0.041 A 
ATOM     89  F   UNL     1      11.699  21.410  -2.380  1.00  0.00    -0.206 F 
ATOM     90  C   UNL     1      14.260  21.891  -4.893  1.00  0.00     0.022 A 
BRANCH  87  91
ATOM     91  S   UNL     1      15.390  20.283  -6.873  1.00  0.00     0.124 S 
ATOM     92  O   UNL     1      16.109  19.137  -6.326  1.00  0.00    -0.237 OA
ATOM     93  O   UNL     1      14.512  20.003  -8.005  1.00  0.00    -0.237 OA
ATOM     94  O   UNL     1      16.176  21.510  -6.989  1.00  0.00    -0.744 OA
ENDBRANCH  87  91
ENDBRANCH  61  84
ENDBRANCH  35  36
ENDBRANCH  27  30
ENDBRANCH  25  26
ENDBRANCH   1  25
TORSDOF 15
