REMARK SMILES NC(=[NH2+])N1CCC[C@H]1C(=O)NCCCNC(=O)c1ccc(-c2c3nc(c(-c4cc(S(=O)(=O)[O-])ccc4F)c4ccc([nH]4)c(-c4cc(S(=O)(=O)[O-])ccc4F)c4nc(c(-c5cc(S(=O)(=O)[O-])ccc5F)c5ccc2[nH]5)C=C4)C=C3)cc1
REMARK SMILES IDX 14 1 13 2 12 3 11 4 9 5 10 6 8 8 4 9 5 10 6 11 7 12 2 13
REMARK SMILES IDX 3 14 1 17 15 20 16 21 17 23 18 24 19 25 80 26 20 27 79 28
REMARK SMILES IDX 21 29 22 30 23 31 73 32 24 33 78 34 72 35 74 36 25 37 77 38
REMARK SMILES IDX 71 39 70 40 26 42 58 43 38 44 57 45 39 46 42 47 56 48 75 49
REMARK SMILES IDX 40 50 41 51 55 53 76 54 43 55 27 56 28 57 36 58 29 59 35 60
REMARK SMILES IDX 37 61 34 62 30 63 31 64 32 65 33 66 59 67 60 68 68 69 61 70
REMARK SMILES IDX 67 71 69 72 66 73 62 74 63 75 64 76 65 77 44 78 45 79 53 80
REMARK SMILES IDX 46 81 52 82 54 83 51 84 47 85 48 86 49 87 50 88
REMARK H PARENT 11 7 3 15 3 16 1 18 1 19 15 22 74 41 42 52
REMARK Flexibility Score: inf
ROOT
ATOM      1  C   UNL     1       0.417  -5.381   0.903  1.00  0.00     0.118 C 
ENDROOT
BRANCH   1   2
ATOM      2  C   UNL     1       0.173  -3.956   0.420  1.00  0.00     0.042 C 
BRANCH   2   3
ATOM      3  C   UNL     1      -1.296  -3.544   0.475  1.00  0.00     0.117 C 
BRANCH   3   4
ATOM      4  N   UNL     1      -1.749  -3.344   1.841  1.00  0.00    -0.353 N 
ATOM      5  C   UNL     1      -1.994  -2.216   2.559  1.00  0.00     0.257 C 
ATOM      6  O   UNL     1      -2.271  -2.386   3.755  1.00  0.00    -0.271 OA
ATOM      7  H   UNL     1      -1.909  -4.179   2.337  1.00  0.00     0.163 HD
BRANCH   5   8
ATOM      8  C   UNL     1      -2.061  -0.797   1.975  1.00  0.00     0.237 C 
ATOM      9  N   UNL     1      -1.183  -0.499   0.840  1.00  0.00    -0.253 N 
ATOM     10  C   UNL     1      -1.968  -0.028  -0.304  1.00  0.00     0.201 C 
ATOM     11  C   UNL     1      -3.280   0.435   0.308  1.00  0.00     0.042 C 
ATOM     12  C   UNL     1      -3.480  -0.522   1.468  1.00  0.00     0.055 C 
BRANCH   9  13
ATOM     13  C   UNL     1       0.174  -0.433   0.837  1.00  0.00     0.341 C 
ATOM     14  N   UNL     1       0.837  -0.070  -0.206  1.00  0.00    -0.291 N 
ATOM     15  H   UNL     1       1.821  -0.033  -0.176  1.00  0.00     0.256 HD
ATOM     16  H   UNL     1       0.361   0.169  -1.034  1.00  0.00     0.256 HD
ATOM     17  N   UNL     1       0.816  -0.755   1.972  1.00  0.00    -0.291 N 
ATOM     18  H   UNL     1       1.799  -0.719   2.009  1.00  0.00     0.256 HD
ATOM     19  H   UNL     1       0.303  -1.027   2.767  1.00  0.00     0.256 HD
ENDBRANCH   9  13
ENDBRANCH   5   8
ENDBRANCH   3   4
ENDBRANCH   2   3
ENDBRANCH   1   2
BRANCH   1  20
ATOM     20  N   UNL     1      -0.151  -6.372  -0.002  1.00  0.00    -0.352 N 
ATOM     21  C   UNL     1       0.474  -7.286  -0.811  1.00  0.00     0.251 C 
ATOM     22  H   UNL     1      -1.134  -6.387  -0.039  1.00  0.00     0.163 HD
ATOM     23  O   UNL     1      -0.182  -7.854  -1.690  1.00  0.00    -0.269 OA
BRANCH  21  24
ATOM     24  C   UNL     1       1.912  -7.585  -0.648  1.00  0.00     0.039 A 
ATOM     25  C   UNL     1       2.698  -7.795  -1.784  1.00  0.00     0.014 A 
ATOM     26  C   UNL     1       2.485  -7.690   0.623  1.00  0.00     0.014 A 
ATOM     27  C   UNL     1       4.065  -8.050  -1.646  1.00  0.00     0.010 A 
ATOM     28  C   UNL     1       3.861  -7.847   0.755  1.00  0.00     0.010 A 
ATOM     29  C   UNL     1       4.666  -8.043  -0.377  1.00  0.00    -0.014 A 
BRANCH  29  30
ATOM     30  C   UNL     1       6.127  -8.261  -0.209  1.00  0.00     0.031 A 
ATOM     31  C   UNL     1       6.629  -9.436   0.587  1.00  0.00     0.074 A 
ATOM     32  C   UNL     1       6.997  -7.362  -0.710  1.00  0.00     0.049 A 
ATOM     33  N   UNL     1       7.855  -9.753   0.916  1.00  0.00    -0.248 NA
ATOM     34  C   UNL     1       5.610 -10.352   1.119  1.00  0.00     0.031 C 
ATOM     35  C   UNL     1       6.629  -6.153  -1.451  1.00  0.00     0.029 A 
ATOM     36  N   UNL     1       8.368  -7.317  -0.664  1.00  0.00    -0.354 N 
ATOM     37  C   UNL     1       7.752 -10.891   1.711  1.00  0.00     0.074 A 
ATOM     38  C   UNL     1       6.339 -11.158   1.873  1.00  0.00     0.031 C 
ATOM     39  C   UNL     1       7.745  -5.502  -1.811  1.00  0.00     0.029 A 
ATOM     40  C   UNL     1       8.905  -6.216  -1.288  1.00  0.00     0.049 A 
ATOM     41  H   UNL     1       8.915  -8.009  -0.225  1.00  0.00     0.167 HD
ATOM     42  C   UNL     1       8.744 -11.655   2.235  1.00  0.00     0.034 A 
ATOM     43  C   UNL     1      10.187  -5.818  -1.414  1.00  0.00     0.034 A 
ATOM     44  C   UNL     1      10.148 -11.377   2.047  1.00  0.00     0.049 A 
ATOM     45  C   UNL     1      11.275  -6.675  -0.823  1.00  0.00     0.074 A 
ATOM     46  C   UNL     1      11.239 -12.119   2.463  1.00  0.00     0.029 A 
ATOM     47  N   UNL     1      10.657 -10.257   1.397  1.00  0.00    -0.354 N 
ATOM     48  N   UNL     1      11.167  -7.786  -0.132  1.00  0.00    -0.248 NA
ATOM     49  C   UNL     1      12.657  -6.231  -1.041  1.00  0.00     0.031 C 
ATOM     50  C   UNL     1      12.402 -11.413   2.135  1.00  0.00     0.029 A 
ATOM     51  C   UNL     1      12.043 -10.270   1.437  1.00  0.00     0.049 A 
ATOM     52  H   UNL     1      10.112  -9.557   0.971  1.00  0.00     0.167 HD
ATOM     53  C   UNL     1      12.470  -8.187   0.149  1.00  0.00     0.074 A 
ATOM     54  C   UNL     1      13.344  -7.206  -0.464  1.00  0.00     0.031 C 
ATOM     55  C   UNL     1      12.904  -9.271   0.843  1.00  0.00     0.034 A 
BRANCH  42  56
ATOM     56  C   UNL     1       8.332 -12.839   3.083  1.00  0.00     0.023 A 
ATOM     57  C   UNL     1       7.535 -13.878   2.569  1.00  0.00     0.031 A 
ATOM     58  C   UNL     1       8.691 -12.903   4.441  1.00  0.00     0.131 A 
ATOM     59  C   UNL     1       7.035 -14.871   3.426  1.00  0.00     0.055 A 
ATOM     60  C   UNL     1       8.272 -13.950   5.267  1.00  0.00     0.041 A 
ATOM     61  F   UNL     1       9.434 -11.935   5.000  1.00  0.00    -0.206 F 
ATOM     62  C   UNL     1       7.421 -14.930   4.766  1.00  0.00     0.022 A 
BRANCH  59  63
ATOM     63  S   UNL     1       5.728 -15.967   2.807  1.00  0.00     0.124 S 
ATOM     64  O   UNL     1       4.713 -15.005   2.385  1.00  0.00    -0.237 OA
ATOM     65  O   UNL     1       6.405 -16.693   1.739  1.00  0.00    -0.237 OA
ATOM     66  O   UNL     1       5.369 -16.767   3.977  1.00  0.00    -0.744 OA
ENDBRANCH  59  63
ENDBRANCH  42  56
BRANCH  43  67
ATOM     67  C   UNL     1      10.504  -4.545  -2.122  1.00  0.00     0.023 A 
ATOM     68  C   UNL     1      11.192  -4.545  -3.345  1.00  0.00     0.031 A 
ATOM     69  C   UNL     1      10.118  -3.305  -1.581  1.00  0.00     0.131 A 
ATOM     70  C   UNL     1      11.500  -3.328  -3.974  1.00  0.00     0.055 A 
ATOM     71  C   UNL     1      10.384  -2.100  -2.233  1.00  0.00     0.041 A 
ATOM     72  F   UNL     1       9.450  -3.251  -0.417  1.00  0.00    -0.206 F 
ATOM     73  C   UNL     1      11.087  -2.107  -3.433  1.00  0.00     0.022 A 
BRANCH  70  74
ATOM     74  S   UNL     1      12.496  -3.357  -5.489  1.00  0.00     0.124 S 
ATOM     75  O   UNL     1      13.727  -3.985  -5.023  1.00  0.00    -0.237 OA
ATOM     76  O   UNL     1      11.666  -4.158  -6.383  1.00  0.00    -0.237 OA
ATOM     77  O   UNL     1      12.611  -1.945  -5.848  1.00  0.00    -0.744 OA
ENDBRANCH  70  74
ENDBRANCH  43  67
BRANCH  55  78
ATOM     78  C   UNL     1      14.398  -9.465   0.947  1.00  0.00     0.023 A 
ATOM     79  C   UNL     1      15.214  -8.569   1.661  1.00  0.00     0.031 A 
ATOM     80  C   UNL     1      15.015 -10.559   0.314  1.00  0.00     0.131 A 
ATOM     81  C   UNL     1      16.605  -8.751   1.676  1.00  0.00     0.055 A 
ATOM     82  C   UNL     1      16.392 -10.771   0.388  1.00  0.00     0.041 A 
ATOM     83  F   UNL     1      14.286 -11.444  -0.386  1.00  0.00    -0.206 F 
ATOM     84  C   UNL     1      17.197  -9.857   1.060  1.00  0.00     0.022 A 
BRANCH  81  85
ATOM     85  S   UNL     1      17.644  -7.469   2.430  1.00  0.00     0.124 S 
ATOM     86  O   UNL     1      17.277  -6.288   1.655  1.00  0.00    -0.237 OA
ATOM     87  O   UNL     1      17.198  -7.483   3.820  1.00  0.00    -0.237 OA
ATOM     88  O   UNL     1      19.004  -7.957   2.211  1.00  0.00    -0.744 OA
ENDBRANCH  81  85
ENDBRANCH  55  78
ENDBRANCH  29  30
ENDBRANCH  21  24
ENDBRANCH   1  20
TORSDOF 14
