REMARK SMILES COc1cccc(-c2nn(-c3cc4c(cc3C(N)=O)OCO4)cc2C(=O)NCCCNC(=O)c2ccc(-c3c4nc(c(-c5cc(S(=O)(=O)[O-])ccc5F)c5ccc([nH]5)c(-c5cc(S(=O)(=O)[O-])ccc5F)c5nc(c(-c6cc(S(=O)(=O)[O-])ccc6F)c6ccc3[nH]6)C=C5)C=C4)cc2)c1
REMARK SMILES IDX 29 1 28 2 27 3 25 4 26 5 24 7 8 8 9 9 10 10 23 11 7 12 3 13
REMARK SMILES IDX 4 14 97 15 5 16 6 17 2 18 1 19 11 20 12 21 16 22 13 23 15 24
REMARK SMILES IDX 14 25 22 26 20 27 21 28 17 29 18 30 19 31 30 34 31 35 32 36
REMARK SMILES IDX 33 38 34 39 35 40 96 41 36 42 95 43 37 44 38 45 39 46 89 47
REMARK SMILES IDX 40 48 94 49 88 50 90 51 41 52 93 53 87 54 86 55 42 57 74 58
REMARK SMILES IDX 54 59 73 60 55 61 58 62 72 63 91 64 56 65 57 66 71 68 92 69
REMARK SMILES IDX 59 70 43 71 44 72 52 73 45 74 51 75 53 76 50 77 46 78 47 79
REMARK SMILES IDX 48 80 49 81 75 82 76 83 84 84 77 85 83 86 85 87 82 88 78 89
REMARK SMILES IDX 79 90 80 91 81 92 60 93 61 94 69 95 62 96 68 97 70 98 67 99
REMARK SMILES IDX 63 100 64 101 65 102 66 103
REMARK H PARENT 27 6 18 32 18 33 31 37 90 56 58 67
REMARK Flexibility Score: inf
ROOT
ATOM      1  C   UNL     1       6.443  -7.840   2.085  1.00  0.00     0.042 C 
ENDROOT
BRANCH   1   2
ATOM      2  C   UNL     1       5.710  -7.064   0.984  1.00  0.00     0.118 C 
BRANCH   2   3
ATOM      3  N   UNL     1       4.317  -6.810   1.311  1.00  0.00    -0.352 N 
ATOM      4  C   UNL     1       3.683  -5.734   1.895  1.00  0.00     0.255 C 
ATOM      5  O   UNL     1       2.462  -5.776   1.927  1.00  0.00    -0.269 OA
ATOM      6  H   UNL     1       3.710  -7.546   1.069  1.00  0.00     0.163 HD
BRANCH   4   7
ATOM      7  C   UNL     1       4.441  -4.597   2.410  1.00  0.00     0.086 A 
ATOM      8  C   UNL     1       3.967  -3.282   2.758  1.00  0.00     0.106 A 
ATOM      9  N   UNL     1       4.990  -2.458   3.087  1.00  0.00    -0.167 NA
ATOM     10  N   UNL     1       6.085  -3.188   2.788  1.00  0.00    -0.239 N 
ATOM     11  C   UNL     1       5.782  -4.521   2.701  1.00  0.00     0.129 A 
BRANCH   8  12
ATOM     12  C   UNL     1       2.578  -2.814   2.774  1.00  0.00     0.007 A 
ATOM     13  C   UNL     1       0.831  -1.348   1.938  1.00  0.00     0.119 A 
ATOM     14  C   UNL     1      -0.106  -2.024   2.724  1.00  0.00     0.046 A 
ATOM     15  C   UNL     1       2.175  -1.736   1.970  1.00  0.00     0.056 A 
ATOM     16  C   UNL     1       0.287  -3.088   3.532  1.00  0.00     0.005 A 
ATOM     17  C   UNL     1       1.627  -3.474   3.565  1.00  0.00     0.011 A 
BRANCH  13  18
ATOM     18  O   UNL     1       0.331  -0.293   1.223  1.00  0.00    -0.497 OA
ATOM     19  C   UNL     1       0.945  -0.063  -0.038  1.00  0.00     0.278 C 
ENDBRANCH  13  18
ENDBRANCH   8  12
BRANCH  10  20
ATOM     20  C   UNL     1       7.402  -2.670   2.746  1.00  0.00     0.081 A 
ATOM     21  C   UNL     1       7.818  -1.830   3.793  1.00  0.00     0.079 A 
ATOM     22  C   UNL     1       8.317  -3.091   1.731  1.00  0.00     0.069 A 
ATOM     23  C   UNL     1       9.158  -1.504   3.840  1.00  0.00     0.167 A 
ATOM     24  C   UNL     1       9.684  -2.823   1.891  1.00  0.00     0.066 A 
ATOM     25  C   UNL     1      10.062  -2.015   2.936  1.00  0.00     0.166 A 
ATOM     26  O   UNL     1       9.760  -0.682   4.742  1.00  0.00    -0.454 OA
ATOM     27  O   UNL     1      11.332  -1.579   3.159  1.00  0.00    -0.454 OA
ATOM     28  C   UNL     1      11.079  -0.578   4.165  1.00  0.00     0.468 C 
BRANCH  22  29
ATOM     29  C   UNL     1       7.838  -3.606   0.402  1.00  0.00     0.251 C 
ATOM     30  N   UNL     1       8.729  -3.713  -0.629  1.00  0.00    -0.366 N 
ATOM     31  O   UNL     1       6.662  -3.851   0.159  1.00  0.00    -0.269 OA
ATOM     32  H   UNL     1       9.683  -3.525  -0.476  1.00  0.00     0.159 HD
ATOM     33  H   UNL     1       8.417  -3.979  -1.524  1.00  0.00     0.159 HD
ENDBRANCH  22  29
ENDBRANCH  10  20
ENDBRANCH   4   7
ENDBRANCH   2   3
ENDBRANCH   1   2
BRANCH   1  34
ATOM     34  C   UNL     1       6.153  -9.326   2.006  1.00  0.00     0.118 C 
BRANCH  34  35
ATOM     35  N   UNL     1       6.752  -9.957   0.819  1.00  0.00    -0.352 N 
ATOM     36  C   UNL     1       6.638 -11.266   0.367  1.00  0.00     0.251 C 
ATOM     37  H   UNL     1       7.314  -9.367   0.265  1.00  0.00     0.163 HD
ATOM     38  O   UNL     1       7.470 -11.728  -0.403  1.00  0.00    -0.269 OA
BRANCH  36  39
ATOM     39  C   UNL     1       5.496 -12.074   0.834  1.00  0.00     0.039 A 
ATOM     40  C   UNL     1       5.554 -13.449   1.071  1.00  0.00     0.014 A 
ATOM     41  C   UNL     1       4.332 -11.373   1.099  1.00  0.00     0.014 A 
ATOM     42  C   UNL     1       4.426 -14.072   1.609  1.00  0.00     0.010 A 
ATOM     43  C   UNL     1       3.424 -11.899   1.958  1.00  0.00     0.010 A 
ATOM     44  C   UNL     1       3.359 -13.272   2.047  1.00  0.00    -0.014 A 
BRANCH  44  45
ATOM     45  C   UNL     1       2.163 -13.781   2.699  1.00  0.00     0.031 A 
ATOM     46  C   UNL     1       2.464 -14.468   3.972  1.00  0.00     0.074 A 
ATOM     47  C   UNL     1       0.915 -13.389   2.344  1.00  0.00     0.049 A 
ATOM     48  N   UNL     1       2.512 -15.739   4.184  1.00  0.00    -0.248 NA
ATOM     49  C   UNL     1       3.020 -13.663   5.075  1.00  0.00     0.031 C 
ATOM     50  C   UNL     1       0.509 -12.401   1.331  1.00  0.00     0.029 A 
ATOM     51  N   UNL     1      -0.279 -13.727   2.898  1.00  0.00    -0.354 N 
ATOM     52  C   UNL     1       2.805 -15.872   5.535  1.00  0.00     0.074 A 
ATOM     53  C   UNL     1       3.391 -14.621   5.926  1.00  0.00     0.031 C 
ATOM     54  C   UNL     1      -0.792 -12.069   1.504  1.00  0.00     0.029 A 
ATOM     55  C   UNL     1      -1.364 -12.934   2.520  1.00  0.00     0.049 A 
ATOM     56  H   UNL     1      -0.372 -14.481   3.525  1.00  0.00     0.167 HD
ATOM     57  C   UNL     1       2.248 -16.873   6.272  1.00  0.00     0.034 A 
ATOM     58  C   UNL     1      -2.632 -12.978   3.023  1.00  0.00     0.034 A 
ATOM     59  C   UNL     1       1.636 -17.859   5.402  1.00  0.00     0.049 A 
ATOM     60  C   UNL     1      -2.765 -14.306   3.683  1.00  0.00     0.074 A 
ATOM     61  C   UNL     1       2.099 -18.657   4.372  1.00  0.00     0.029 A 
ATOM     62  N   UNL     1       0.267 -17.804   5.239  1.00  0.00    -0.354 N 
ATOM     63  N   UNL     1      -2.705 -15.436   3.027  1.00  0.00    -0.248 NA
ATOM     64  C   UNL     1      -2.414 -14.393   5.094  1.00  0.00     0.031 C 
ATOM     65  C   UNL     1       1.075 -18.602   3.380  1.00  0.00     0.029 A 
ATOM     66  C   UNL     1      -0.003 -17.875   3.894  1.00  0.00     0.049 A 
ATOM     67  H   UNL     1      -0.399 -17.727   5.960  1.00  0.00     0.167 HD
ATOM     68  C   UNL     1      -1.913 -16.268   3.808  1.00  0.00     0.074 A 
ATOM     69  C   UNL     1      -1.827 -15.595   5.105  1.00  0.00     0.031 C 
ATOM     70  C   UNL     1      -1.153 -17.259   3.251  1.00  0.00     0.034 A 
BRANCH  57  71
ATOM     71  C   UNL     1       1.892 -16.779   7.742  1.00  0.00     0.023 A 
ATOM     72  C   UNL     1       1.298 -17.917   8.320  1.00  0.00     0.031 A 
ATOM     73  C   UNL     1       1.842 -15.603   8.525  1.00  0.00     0.131 A 
ATOM     74  C   UNL     1       0.600 -17.832   9.535  1.00  0.00     0.055 A 
ATOM     75  C   UNL     1       1.202 -15.540   9.766  1.00  0.00     0.041 A 
ATOM     76  F   UNL     1       2.324 -14.426   8.115  1.00  0.00    -0.206 F 
ATOM     77  C   UNL     1       0.545 -16.649  10.263  1.00  0.00     0.022 A 
BRANCH  74  78
ATOM     78  S   UNL     1      -0.387 -19.257  10.054  1.00  0.00     0.124 S 
ATOM     79  O   UNL     1      -1.226 -19.474   8.880  1.00  0.00    -0.237 OA
ATOM     80  O   UNL     1       0.643 -20.258  10.306  1.00  0.00    -0.237 OA
ATOM     81  O   UNL     1      -1.087 -18.768  11.240  1.00  0.00    -0.744 OA
ENDBRANCH  74  78
ENDBRANCH  57  71
BRANCH  58  82
ATOM     82  C   UNL     1      -3.535 -11.815   3.302  1.00  0.00     0.023 A 
ATOM     83  C   UNL     1      -4.945 -11.903   3.406  1.00  0.00     0.031 A 
ATOM     84  C   UNL     1      -2.956 -10.591   3.709  1.00  0.00     0.131 A 
ATOM     85  C   UNL     1      -5.701 -10.799   3.887  1.00  0.00     0.055 A 
ATOM     86  C   UNL     1      -3.704  -9.509   4.182  1.00  0.00     0.041 A 
ATOM     87  F   UNL     1      -1.622 -10.435   3.735  1.00  0.00    -0.206 F 
ATOM     88  C   UNL     1      -5.081  -9.610   4.278  1.00  0.00     0.022 A 
BRANCH  85  89
ATOM     89  S   UNL     1      -7.519 -10.899   4.062  1.00  0.00     0.124 S 
ATOM     90  O   UNL     1      -7.953 -11.172   2.697  1.00  0.00    -0.237 OA
ATOM     91  O   UNL     1      -7.680 -11.983   5.024  1.00  0.00    -0.237 OA
ATOM     92  O   UNL     1      -7.890  -9.576   4.567  1.00  0.00    -0.744 OA
ENDBRANCH  85  89
ENDBRANCH  58  82
BRANCH  70  93
ATOM     93  C   UNL     1      -1.397 -17.646   1.802  1.00  0.00     0.023 A 
ATOM     94  C   UNL     1      -1.218 -16.805   0.677  1.00  0.00     0.031 A 
ATOM     95  C   UNL     1      -1.672 -19.005   1.561  1.00  0.00     0.131 A 
ATOM     96  C   UNL     1      -1.310 -17.345  -0.625  1.00  0.00     0.055 A 
ATOM     97  C   UNL     1      -1.737 -19.537   0.276  1.00  0.00     0.041 A 
ATOM     98  F   UNL     1      -1.830 -19.856   2.588  1.00  0.00    -0.206 F 
ATOM     99  C   UNL     1      -1.558 -18.708  -0.823  1.00  0.00     0.022 A 
BRANCH  96 100
ATOM    100  S   UNL     1      -1.112 -16.290  -2.103  1.00  0.00     0.124 S 
ATOM    101  O   UNL     1      -2.036 -15.188  -1.857  1.00  0.00    -0.237 OA
ATOM    102  O   UNL     1       0.309 -15.955  -2.068  1.00  0.00    -0.237 OA
ATOM    103  O   UNL     1      -1.499 -17.171  -3.207  1.00  0.00    -0.744 OA
ENDBRANCH  96 100
ENDBRANCH  70  93
ENDBRANCH  44  45
ENDBRANCH  36  39
ENDBRANCH  34  35
ENDBRANCH   1  34
TORSDOF 17
