REMARK SMILES Nc1cc(C(=O)NCCCNC(=O)c2ccc(-c3c4nc(c(-c5cc(S(=O)(=O)[O-])ccc5F)c5ccc([nH]5)c(-c5cc(S(=O)(=O)[O-])ccc5F)c5nc(c(-c6cc(S(=O)(=O)[O-])ccc6F)c6ccc3[nH]6)C=C5)C=C4)cc2)nc2ccccc12
REMARK SMILES IDX 10 1 9 2 8 3 7 4 5 5 6 6 4 8 2 9 3 10 83 11 78 12 82 13
REMARK SMILES IDX 77 14 79 15 81 16 80 17 1 18 11 21 12 22 13 24 14 25 15 26
REMARK SMILES IDX 76 27 16 28 75 29 17 30 18 31 19 32 69 33 20 34 74 35 68 36
REMARK SMILES IDX 70 37 21 38 73 39 67 40 66 41 22 43 54 44 34 45 53 46 35 47
REMARK SMILES IDX 38 48 52 49 71 50 36 51 37 52 51 54 72 55 39 56 23 57 24 58
REMARK SMILES IDX 32 59 25 60 31 61 33 62 30 63 26 64 27 65 28 66 29 67 55 68
REMARK SMILES IDX 56 69 64 70 57 71 63 72 65 73 62 74 58 75 59 76 60 77 61 78
REMARK SMILES IDX 40 79 41 80 49 81 42 82 48 83 50 84 47 85 43 86 44 87 45 88
REMARK SMILES IDX 46 89
REMARK H PARENT 7 7 1 19 1 20 11 23 70 42 38 53
REMARK Flexibility Score: inf
ROOT
ATOM      1  C   UNL     1       3.337  -2.401  -5.076  1.00  0.00     0.118 C 
ENDROOT
BRANCH   1   2
ATOM      2  C   UNL     1       2.865  -1.612  -3.858  1.00  0.00     0.042 C 
BRANCH   2   3
ATOM      3  C   UNL     1       2.798  -0.107  -4.108  1.00  0.00     0.118 C 
BRANCH   3   4
ATOM      4  N   UNL     1       1.611   0.250  -4.859  1.00  0.00    -0.351 N 
ATOM      5  C   UNL     1       0.355   0.684  -4.496  1.00  0.00     0.269 C 
ATOM      6  O   UNL     1      -0.404   0.953  -5.431  1.00  0.00    -0.268 OA
ATOM      7  H   UNL     1       1.726   0.165  -5.833  1.00  0.00     0.163 HD
BRANCH   5   8
ATOM      8  C   UNL     1      -0.116   0.864  -3.073  1.00  0.00     0.130 A 
ATOM      9  C   UNL     1      -0.030   0.543  -0.691  1.00  0.00     0.043 A 
ATOM     10  C   UNL     1       0.488   0.299  -1.964  1.00  0.00     0.060 A 
ATOM     11  C   UNL     1      -1.178   1.355  -0.561  1.00  0.00     0.023 A 
ATOM     12  C   UNL     1      -1.761   1.842  -1.749  1.00  0.00     0.073 A 
ATOM     13  C   UNL     1      -1.777   1.690   0.677  1.00  0.00     0.012 A 
ATOM     14  N   UNL     1      -1.239   1.619  -2.962  1.00  0.00    -0.242 NA
ATOM     15  C   UNL     1      -2.929   2.588  -1.670  1.00  0.00     0.029 A 
ATOM     16  C   UNL     1      -2.949   2.445   0.731  1.00  0.00     0.001 A 
ATOM     17  C   UNL     1      -3.533   2.885  -0.447  1.00  0.00     0.002 A 
BRANCH   9  18
ATOM     18  N   UNL     1       0.666   0.042   0.411  1.00  0.00    -0.398 N 
ATOM     19  H   UNL     1       1.462  -0.520   0.276  1.00  0.00     0.156 HD
ATOM     20  H   UNL     1       0.360   0.252   1.323  1.00  0.00     0.156 HD
ENDBRANCH   9  18
ENDBRANCH   5   8
ENDBRANCH   3   4
ENDBRANCH   2   3
ENDBRANCH   1   2
BRANCH   1  21
ATOM     21  N   UNL     1       4.743  -2.156  -5.374  1.00  0.00    -0.352 N 
ATOM     22  C   UNL     1       5.806  -3.028  -5.429  1.00  0.00     0.251 C 
ATOM     23  H   UNL     1       4.968  -1.217  -5.567  1.00  0.00     0.163 HD
ATOM     24  O   UNL     1       6.945  -2.582  -5.474  1.00  0.00    -0.269 OA
BRANCH  22  25
ATOM     25  C   UNL     1       5.574  -4.490  -5.404  1.00  0.00     0.039 A 
ATOM     26  C   UNL     1       4.517  -5.059  -6.116  1.00  0.00     0.014 A 
ATOM     27  C   UNL     1       6.435  -5.305  -4.663  1.00  0.00     0.014 A 
ATOM     28  C   UNL     1       4.213  -6.405  -5.943  1.00  0.00     0.010 A 
ATOM     29  C   UNL     1       6.184  -6.677  -4.569  1.00  0.00     0.010 A 
ATOM     30  C   UNL     1       5.039  -7.230  -5.163  1.00  0.00    -0.014 A 
BRANCH  30  31
ATOM     31  C   UNL     1       4.682  -8.662  -4.981  1.00  0.00     0.031 A 
ATOM     32  C   UNL     1       4.344  -9.201  -3.617  1.00  0.00     0.074 A 
ATOM     33  C   UNL     1       4.612  -9.465  -6.061  1.00  0.00     0.049 A 
ATOM     34  N   UNL     1       3.983 -10.412  -3.277  1.00  0.00    -0.248 NA
ATOM     35  C   UNL     1       4.428  -8.264  -2.485  1.00  0.00     0.031 C 
ATOM     36  C   UNL     1       4.913  -9.046  -7.430  1.00  0.00     0.029 A 
ATOM     37  N   UNL     1       4.248 -10.782  -6.188  1.00  0.00    -0.354 N 
ATOM     38  C   UNL     1       3.810 -10.387  -1.898  1.00  0.00     0.074 A 
ATOM     39  C   UNL     1       4.151  -9.053  -1.456  1.00  0.00     0.031 C 
ATOM     40  C   UNL     1       4.671 -10.066  -8.264  1.00  0.00     0.029 A 
ATOM     41  C   UNL     1       4.271 -11.236  -7.487  1.00  0.00     0.049 A 
ATOM     42  H   UNL     1       3.995 -11.348  -5.423  1.00  0.00     0.167 HD
ATOM     43  C   UNL     1       3.388 -11.381  -1.080  1.00  0.00     0.034 A 
ATOM     44  C   UNL     1       4.015 -12.458  -7.999  1.00  0.00     0.034 A 
ATOM     45  C   UNL     1       3.037 -12.700  -1.543  1.00  0.00     0.049 A 
ATOM     46  C   UNL     1       3.580 -13.557  -7.067  1.00  0.00     0.074 A 
ATOM     47  C   UNL     1       2.574 -13.770  -0.798  1.00  0.00     0.029 A 
ATOM     48  N   UNL     1       3.104 -13.133  -2.861  1.00  0.00    -0.354 N 
ATOM     49  N   UNL     1       3.380 -13.505  -5.771  1.00  0.00    -0.248 NA
ATOM     50  C   UNL     1       3.330 -14.879  -7.658  1.00  0.00     0.031 C 
ATOM     51  C   UNL     1       2.431 -14.866  -1.650  1.00  0.00     0.029 A 
ATOM     52  C   UNL     1       2.720 -14.461  -2.944  1.00  0.00     0.049 A 
ATOM     53  H   UNL     1       3.384 -12.577  -3.624  1.00  0.00     0.167 HD
ATOM     54  C   UNL     1       2.963 -14.778  -5.394  1.00  0.00     0.074 A 
ATOM     55  C   UNL     1       2.913 -15.571  -6.605  1.00  0.00     0.031 C 
ATOM     56  C   UNL     1       2.657 -15.245  -4.157  1.00  0.00     0.034 A 
BRANCH  43  57
ATOM     57  C   UNL     1       3.264 -11.102   0.399  1.00  0.00     0.023 A 
ATOM     58  C   UNL     1       4.033 -11.837   1.322  1.00  0.00     0.031 A 
ATOM     59  C   UNL     1       2.304 -10.206   0.903  1.00  0.00     0.131 A 
ATOM     60  C   UNL     1       3.804 -11.690   2.696  1.00  0.00     0.055 A 
ATOM     61  C   UNL     1       2.112 -10.029   2.275  1.00  0.00     0.041 A 
ATOM     62  F   UNL     1       1.543  -9.480   0.068  1.00  0.00    -0.206 F 
ATOM     63  C   UNL     1       2.855 -10.783   3.177  1.00  0.00     0.022 A 
BRANCH  60  64
ATOM     64  S   UNL     1       4.675 -12.719   3.910  1.00  0.00     0.124 S 
ATOM     65  O   UNL     1       5.367 -11.712   4.712  1.00  0.00    -0.237 OA
ATOM     66  O   UNL     1       3.571 -13.399   4.581  1.00  0.00    -0.237 OA
ATOM     67  O   UNL     1       5.539 -13.567   3.096  1.00  0.00    -0.744 OA
ENDBRANCH  60  64
ENDBRANCH  43  57
BRANCH  44  68
ATOM     68  C   UNL     1       4.129 -12.658  -9.474  1.00  0.00     0.023 A 
ATOM     69  C   UNL     1       5.350 -12.434 -10.138  1.00  0.00     0.031 A 
ATOM     70  C   UNL     1       2.996 -12.938 -10.255  1.00  0.00     0.131 A 
ATOM     71  C   UNL     1       5.388 -12.402 -11.538  1.00  0.00     0.055 A 
ATOM     72  C   UNL     1       3.056 -12.986 -11.650  1.00  0.00     0.041 A 
ATOM     73  F   UNL     1       1.806 -13.146  -9.671  1.00  0.00    -0.206 F 
ATOM     74  C   UNL     1       4.253 -12.694 -12.298  1.00  0.00     0.022 A 
BRANCH  71  75
ATOM     75  S   UNL     1       6.870 -11.823 -12.412  1.00  0.00     0.124 S 
ATOM     76  O   UNL     1       7.196 -12.971 -13.253  1.00  0.00    -0.237 OA
ATOM     77  O   UNL     1       6.359 -10.649 -13.115  1.00  0.00    -0.237 OA
ATOM     78  O   UNL     1       7.815 -11.539 -11.337  1.00  0.00    -0.744 OA
ENDBRANCH  71  75
ENDBRANCH  44  68
BRANCH  56  79
ATOM     79  C   UNL     1       2.228 -16.686  -4.010  1.00  0.00     0.023 A 
ATOM     80  C   UNL     1       0.950 -16.988  -3.498  1.00  0.00     0.031 A 
ATOM     81  C   UNL     1       3.130 -17.744  -4.209  1.00  0.00     0.131 A 
ATOM     82  C   UNL     1       0.631 -18.306  -3.150  1.00  0.00     0.055 A 
ATOM     83  C   UNL     1       2.787 -19.065  -3.914  1.00  0.00     0.041 A 
ATOM     84  F   UNL     1       4.364 -17.509  -4.683  1.00  0.00    -0.206 F 
ATOM     85  C   UNL     1       1.539 -19.348  -3.365  1.00  0.00     0.022 A 
BRANCH  82  86
ATOM     86  S   UNL     1      -0.928 -18.701  -2.311  1.00  0.00     0.124 S 
ATOM     87  O   UNL     1      -1.548 -19.633  -3.250  1.00  0.00    -0.237 OA
ATOM     88  O   UNL     1      -0.462 -19.293  -1.060  1.00  0.00    -0.237 OA
ATOM     89  O   UNL     1      -1.597 -17.410  -2.184  1.00  0.00    -0.744 OA
ENDBRANCH  82  86
ENDBRANCH  56  79
ENDBRANCH  30  31
ENDBRANCH  22  25
ENDBRANCH   1  21
TORSDOF 14
