REMARK SMILES O=C(NC1(C(=O)NCCCNC(=O)c2ccc(-c3c4nc(c(-c5cc(S(=O)(=O)[O-])ccc5F)c5ccc([nH]5)c(-c5cc(S(=O)(=O)[O-])ccc5F)c5nc(c(-c6cc(S(=O)(=O)[O-])ccc6F)c6ccc3[nH]6)C=C5)C=C4)cc2)Cc2ccccc2C1)OCC1c2ccccc2-c2ccccc21
REMARK SMILES IDX 8 1 7 2 5 3 6 4 4 6 77 7 84 8 78 9 83 10 79 11 82 12 80 13
REMARK SMILES IDX 81 14 3 15 1 16 2 17 85 19 86 20 87 21 88 22 99 23 89 24
REMARK SMILES IDX 93 25 94 26 98 27 90 28 92 29 95 30 97 31 91 32 96 33 9 34
REMARK SMILES IDX 10 35 11 36 12 37 13 39 14 40 15 41 76 42 16 43 75 44 17 45
REMARK SMILES IDX 18 46 19 47 69 48 20 49 74 50 68 51 70 52 21 53 73 54 67 55
REMARK SMILES IDX 66 56 22 58 54 59 34 60 53 61 35 62 38 63 52 64 71 65 36 66
REMARK SMILES IDX 37 67 51 69 72 70 39 71 23 72 24 73 32 74 25 75 31 76 33 77
REMARK SMILES IDX 30 78 26 79 27 80 28 81 29 82 55 83 56 84 64 85 57 86 63 87
REMARK SMILES IDX 65 88 62 89 58 90 59 91 60 92 61 93 40 94 41 95 49 96 42 97
REMARK SMILES IDX 48 98 50 99 47 100 43 101 44 102 45 103 46 104
REMARK H PARENT 7 5 3 18 11 38 70 57 38 68
REMARK Flexibility Score: inf
ROOT
ATOM      1  C   UNL     1       5.795   1.690  -3.641  1.00  0.00     0.117 C 
ENDROOT
BRANCH   1   2
ATOM      2  N   UNL     1       4.863   1.082  -2.606  1.00  0.00    -0.354 N 
ATOM      3  C   UNL     1       4.043   1.757  -1.694  1.00  0.00     0.246 C 
ATOM      4  O   UNL     1       3.531   2.825  -2.059  1.00  0.00    -0.272 OA
ATOM      5  H   UNL     1       4.832   0.098  -2.573  1.00  0.00     0.163 HD
BRANCH   3   6
ATOM      6  C   UNL     1       3.676   1.163  -0.104  1.00  0.00     0.130 C 
ATOM      7  C   UNL     1       3.566   2.478   0.822  1.00  0.00     0.075 C 
ATOM      8  C   UNL     1       4.286   0.226   1.011  1.00  0.00     0.075 C 
ATOM      9  C   UNL     1       4.728   2.343   1.829  1.00  0.00    -0.042 A 
ATOM     10  C   UNL     1       5.006   1.009   2.022  1.00  0.00    -0.042 A 
ATOM     11  C   UNL     1       5.625   3.237   2.394  1.00  0.00     0.004 A 
ATOM     12  C   UNL     1       6.022   0.486   2.827  1.00  0.00     0.004 A 
ATOM     13  C   UNL     1       6.740   2.745   3.128  1.00  0.00     0.000 A 
ATOM     14  C   UNL     1       6.923   1.376   3.368  1.00  0.00     0.000 A 
BRANCH   6  15
ATOM     15  N   UNL     1       2.539   0.342  -0.487  1.00  0.00    -0.306 N 
ATOM     16  O   UNL     1       1.992  -1.804  -1.059  1.00  0.00    -0.225 OA
ATOM     17  C   UNL     1       2.819  -0.924  -1.012  1.00  0.00     0.408 C 
ATOM     18  H   UNL     1       1.614   0.662  -0.381  1.00  0.00     0.168 HD
BRANCH  17  19
ATOM     19  O   UNL     1       4.073  -1.011  -1.581  1.00  0.00    -0.449 OA
BRANCH  19  20
ATOM     20  C   UNL     1       5.276  -1.610  -0.964  1.00  0.00     0.248 C 
BRANCH  20  21
ATOM     21  C   UNL     1       6.640  -0.675  -0.985  1.00  0.00     0.088 C 
ATOM     22  C   UNL     1       7.918  -1.460  -0.658  1.00  0.00    -0.029 A 
ATOM     23  C   UNL     1       7.156   0.814  -0.591  1.00  0.00    -0.029 A 
ATOM     24  C   UNL     1       8.150  -2.820  -0.723  1.00  0.00     0.005 A 
ATOM     25  C   UNL     1       8.993  -0.576  -0.407  1.00  0.00    -0.014 A 
ATOM     26  C   UNL     1       8.546   0.785  -0.403  1.00  0.00    -0.014 A 
ATOM     27  C   UNL     1       6.668   2.122  -0.610  1.00  0.00     0.005 A 
ATOM     28  C   UNL     1       9.460  -3.274  -0.545  1.00  0.00     0.000 A 
ATOM     29  C   UNL     1      10.287  -1.022  -0.233  1.00  0.00     0.009 A 
ATOM     30  C   UNL     1       9.353   1.943  -0.307  1.00  0.00     0.009 A 
ATOM     31  C   UNL     1       7.442   3.300  -0.545  1.00  0.00     0.000 A 
ATOM     32  C   UNL     1      10.518  -2.385  -0.307  1.00  0.00     0.001 A 
ATOM     33  C   UNL     1       8.801   3.211  -0.405  1.00  0.00     0.001 A 
ENDBRANCH  20  21
ENDBRANCH  19  20
ENDBRANCH  17  19
ENDBRANCH   6  15
ENDBRANCH   3   6
ENDBRANCH   1   2
BRANCH   1  34
ATOM     34  C   UNL     1       7.035   0.788  -3.981  1.00  0.00     0.042 C 
BRANCH  34  35
ATOM     35  C   UNL     1       8.264   1.255  -4.790  1.00  0.00     0.118 C 
BRANCH  35  36
ATOM     36  N   UNL     1       9.292   1.942  -3.989  1.00  0.00    -0.352 N 
ATOM     37  C   UNL     1      10.639   1.756  -3.718  1.00  0.00     0.251 C 
ATOM     38  H   UNL     1       8.931   2.734  -3.529  1.00  0.00     0.163 HD
ATOM     39  O   UNL     1      11.165   2.588  -2.969  1.00  0.00    -0.269 OA
BRANCH  37  40
ATOM     40  C   UNL     1      11.506   0.631  -4.210  1.00  0.00     0.039 A 
ATOM     41  C   UNL     1      12.677   0.323  -3.482  1.00  0.00     0.014 A 
ATOM     42  C   UNL     1      11.271  -0.105  -5.366  1.00  0.00     0.014 A 
ATOM     43  C   UNL     1      13.521  -0.747  -3.846  1.00  0.00     0.010 A 
ATOM     44  C   UNL     1      12.068  -1.222  -5.687  1.00  0.00     0.010 A 
ATOM     45  C   UNL     1      13.189  -1.583  -4.920  1.00  0.00    -0.014 A 
BRANCH  45  46
ATOM     46  C   UNL     1      13.945  -2.845  -5.235  1.00  0.00     0.031 A 
ATOM     47  C   UNL     1      14.525  -3.080  -6.614  1.00  0.00     0.074 A 
ATOM     48  C   UNL     1      14.012  -3.845  -4.327  1.00  0.00     0.049 A 
ATOM     49  N   UNL     1      14.996  -4.183  -7.145  1.00  0.00    -0.248 NA
ATOM     50  C   UNL     1      14.545  -1.927  -7.524  1.00  0.00     0.031 C 
ATOM     51  C   UNL     1      13.486  -3.785  -2.961  1.00  0.00     0.029 A 
ATOM     52  N   UNL     1      14.523  -5.123  -4.418  1.00  0.00    -0.354 N 
ATOM     53  C   UNL     1      15.319  -3.871  -8.464  1.00  0.00     0.074 A 
ATOM     54  C   UNL     1      14.965  -2.479  -8.655  1.00  0.00     0.031 C 
ATOM     55  C   UNL     1      13.708  -4.957  -2.345  1.00  0.00     0.029 A 
ATOM     56  C   UNL     1      14.330  -5.884  -3.284  1.00  0.00     0.049 A 
ATOM     57  H   UNL     1      14.984  -5.460  -5.220  1.00  0.00     0.167 HD
ATOM     58  C   UNL     1      15.865  -4.664  -9.423  1.00  0.00     0.034 A 
ATOM     59  C   UNL     1      14.586  -7.186  -3.030  1.00  0.00     0.034 A 
ATOM     60  C   UNL     1      16.266  -6.036  -9.213  1.00  0.00     0.049 A 
ATOM     61  C   UNL     1      15.187  -8.047  -4.117  1.00  0.00     0.074 A 
ATOM     62  C   UNL     1      16.906  -6.891 -10.098  1.00  0.00     0.029 A 
ATOM     63  N   UNL     1      16.072  -6.757  -8.044  1.00  0.00    -0.354 N 
ATOM     64  N   UNL     1      15.512  -7.719  -5.346  1.00  0.00    -0.248 NA
ATOM     65  C   UNL     1      15.455  -9.453  -3.781  1.00  0.00     0.031 C 
ATOM     66  C   UNL     1      17.037  -8.143  -9.488  1.00  0.00     0.029 A 
ATOM     67  C   UNL     1      16.547  -8.052  -8.196  1.00  0.00     0.049 A 
ATOM     68  H   UNL     1      15.656  -6.402  -7.225  1.00  0.00     0.167 HD
ATOM     69  C   UNL     1      16.049  -8.872  -5.915  1.00  0.00     0.074 A 
ATOM     70  C   UNL     1      16.026  -9.894  -4.891  1.00  0.00     0.031 C 
ATOM     71  C   UNL     1      16.517  -9.069  -7.173  1.00  0.00     0.034 A 
BRANCH  58  72
ATOM     72  C   UNL     1      16.043  -4.081 -10.807  1.00  0.00     0.023 A 
ATOM     73  C   UNL     1      16.922  -3.014 -11.059  1.00  0.00     0.031 A 
ATOM     74  C   UNL     1      15.334  -4.619 -11.899  1.00  0.00     0.131 A 
ATOM     75  C   UNL     1      17.021  -2.478 -12.352  1.00  0.00     0.055 A 
ATOM     76  C   UNL     1      15.496  -4.131 -13.197  1.00  0.00     0.041 A 
ATOM     77  F   UNL     1      14.471  -5.631 -11.721  1.00  0.00    -0.206 F 
ATOM     78  C   UNL     1      16.334  -3.045 -13.428  1.00  0.00     0.022 A 
BRANCH  75  79
ATOM     79  S   UNL     1      17.974  -0.953 -12.586  1.00  0.00     0.124 S 
ATOM     80  O   UNL     1      17.248  -0.019 -11.728  1.00  0.00    -0.237 OA
ATOM     81  O   UNL     1      19.304  -1.337 -12.131  1.00  0.00    -0.237 OA
ATOM     82  O   UNL     1      17.856  -0.691 -14.019  1.00  0.00    -0.744 OA
ENDBRANCH  75  79
ENDBRANCH  58  72
BRANCH  59  83
ATOM     83  C   UNL     1      14.247  -7.791  -1.705  1.00  0.00     0.023 A 
ATOM     84  C   UNL     1      15.250  -8.331  -0.883  1.00  0.00     0.031 A 
ATOM     85  C   UNL     1      12.913  -7.911  -1.275  1.00  0.00     0.131 A 
ATOM     86  C   UNL     1      14.902  -9.018   0.292  1.00  0.00     0.055 A 
ATOM     87  C   UNL     1      12.577  -8.540  -0.074  1.00  0.00     0.041 A 
ATOM     88  F   UNL     1      11.911  -7.415  -2.019  1.00  0.00    -0.206 F 
ATOM     89  C   UNL     1      13.573  -9.114   0.709  1.00  0.00     0.022 A 
BRANCH  86  90
ATOM     90  S   UNL     1      16.206  -9.887   1.207  1.00  0.00     0.124 S 
ATOM     91  O   UNL     1      16.762 -10.756   0.176  1.00  0.00    -0.237 OA
ATOM     92  O   UNL     1      17.054  -8.783   1.643  1.00  0.00    -0.237 OA
ATOM     93  O   UNL     1      15.475 -10.569   2.273  1.00  0.00    -0.744 OA
ENDBRANCH  86  90
ENDBRANCH  59  83
BRANCH  71  94
ATOM     94  C   UNL     1      17.084 -10.431  -7.492  1.00  0.00     0.023 A 
ATOM     95  C   UNL     1      16.273 -11.578  -7.535  1.00  0.00     0.031 A 
ATOM     96  C   UNL     1      18.460 -10.586  -7.739  1.00  0.00     0.131 A 
ATOM     97  C   UNL     1      16.851 -12.837  -7.762  1.00  0.00     0.055 A 
ATOM     98  C   UNL     1      19.021 -11.833  -8.024  1.00  0.00     0.041 A 
ATOM     99  F   UNL     1      19.284  -9.526  -7.708  1.00  0.00    -0.206 F 
ATOM    100  C   UNL     1      18.217 -12.969  -8.024  1.00  0.00     0.022 A 
BRANCH  97 101
ATOM    101  S   UNL     1      15.806 -14.314  -7.624  1.00  0.00     0.124 S 
ATOM    102  O   UNL     1      15.328 -14.220  -6.249  1.00  0.00    -0.237 OA
ATOM    103  O   UNL     1      14.806 -14.087  -8.663  1.00  0.00    -0.237 OA
ATOM    104  O   UNL     1      16.731 -15.415  -7.886  1.00  0.00    -0.744 OA
ENDBRANCH  97 101
ENDBRANCH  71  94
ENDBRANCH  45  46
ENDBRANCH  37  40
ENDBRANCH  35  36
ENDBRANCH  34  35
ENDBRANCH   1  34
TORSDOF 17
