REMARK SMILES O=C(NCCCNC(=O)c1cc(O)cc(-c2cc(O)ccc2Cl)c1)c1ccc(-c2c3nc(c(-c4cc(S(=O)(=O)[O-])ccc4F)c4ccc([nH]4)c(-c4cc(S(=O)(=O)[O-])ccc4F)c4nc(c(-c5cc(S(=O)(=O)[O-])ccc5F)c5ccc2[nH]5)C=C4)C=C3)cc1
REMARK SMILES IDX 4 1 3 2 1 3 2 4 25 6 26 7 87 8 27 9 86 10 28 11 29 12 30 13
REMARK SMILES IDX 80 14 31 15 85 16 79 17 81 18 32 19 84 20 78 21 77 22 33 24
REMARK SMILES IDX 65 25 45 26 64 27 46 28 49 29 63 30 82 31 47 32 48 33 62 35
REMARK SMILES IDX 83 36 50 37 34 38 35 39 43 40 36 41 42 42 44 43 41 44 37 45
REMARK SMILES IDX 38 46 39 47 40 48 66 49 67 50 75 51 68 52 74 53 76 54 73 55
REMARK SMILES IDX 69 56 70 57 71 58 72 59 51 60 52 61 60 62 53 63 59 64 61 65
REMARK SMILES IDX 58 66 54 67 55 68 56 69 57 70 5 71 6 72 7 73 8 74 9 76 10 77
REMARK SMILES IDX 11 78 24 79 12 80 15 81 14 82 13 83 16 85 17 86 22 87 18 88
REMARK SMILES IDX 21 89 23 90 20 91 19 92
REMARK H PARENT 3 5 81 23 49 34 7 75 13 84 19 93
REMARK Flexibility Score: inf
ROOT
ATOM      1  C   UNL     1       4.603   0.365  -1.419  1.00  0.00     0.118 C 
ENDROOT
BRANCH   1   2
ATOM      2  N   UNL     1       3.170   0.410  -1.150  1.00  0.00    -0.352 N 
ATOM      3  O   UNL     1       1.232  -0.010  -0.087  1.00  0.00    -0.269 OA
ATOM      4  C   UNL     1       2.461   0.026  -0.036  1.00  0.00     0.251 C 
ATOM      5  H   UNL     1       2.623   0.774  -1.884  1.00  0.00     0.163 HD
BRANCH   4   6
ATOM      6  C   UNL     1       3.164  -0.359   1.207  1.00  0.00     0.039 A 
ATOM      7  C   UNL     1       4.281   0.353   1.642  1.00  0.00     0.014 A 
ATOM      8  C   UNL     1       2.694  -1.440   1.961  1.00  0.00     0.014 A 
ATOM      9  C   UNL     1       5.034  -0.122   2.707  1.00  0.00     0.010 A 
ATOM     10  C   UNL     1       3.387  -1.845   3.108  1.00  0.00     0.010 A 
ATOM     11  C   UNL     1       4.586  -1.212   3.471  1.00  0.00    -0.014 A 
BRANCH  11  12
ATOM     12  C   UNL     1       5.370  -1.615   4.669  1.00  0.00     0.031 A 
ATOM     13  C   UNL     1       6.011  -2.973   4.765  1.00  0.00     0.074 A 
ATOM     14  C   UNL     1       5.553  -0.708   5.650  1.00  0.00     0.049 A 
ATOM     15  N   UNL     1       6.758  -3.465   5.721  1.00  0.00    -0.248 NA
ATOM     16  C   UNL     1       5.777  -3.902   3.650  1.00  0.00     0.031 C 
ATOM     17  C   UNL     1       4.972   0.639   5.667  1.00  0.00     0.029 A 
ATOM     18  N   UNL     1       6.295  -0.759   6.802  1.00  0.00    -0.354 N 
ATOM     19  C   UNL     1       7.081  -4.760   5.329  1.00  0.00     0.074 A 
ATOM     20  C   UNL     1       6.409  -4.991   4.067  1.00  0.00     0.031 C 
ATOM     21  C   UNL     1       5.428   1.303   6.737  1.00  0.00     0.029 A 
ATOM     22  C   UNL     1       6.264   0.410   7.528  1.00  0.00     0.049 A 
ATOM     23  H   UNL     1       6.801  -1.555   7.083  1.00  0.00     0.167 HD
ATOM     24  C   UNL     1       7.874  -5.664   5.957  1.00  0.00     0.034 A 
ATOM     25  C   UNL     1       6.826   0.725   8.710  1.00  0.00     0.034 A 
ATOM     26  C   UNL     1       8.531  -5.418   7.221  1.00  0.00     0.049 A 
ATOM     27  C   UNL     1       7.668  -0.311   9.404  1.00  0.00     0.074 A 
ATOM     28  C   UNL     1       9.350  -6.265   7.949  1.00  0.00     0.029 A 
ATOM     29  N   UNL     1       8.444  -4.236   7.948  1.00  0.00    -0.354 N 
ATOM     30  N   UNL     1       7.959  -1.531   9.016  1.00  0.00    -0.248 NA
ATOM     31  C   UNL     1       8.260   0.073  10.690  1.00  0.00     0.031 C 
ATOM     32  C   UNL     1       9.708  -5.620   9.139  1.00  0.00     0.029 A 
ATOM     33  C   UNL     1       9.175  -4.341   9.123  1.00  0.00     0.049 A 
ATOM     34  H   UNL     1       7.937  -3.440   7.669  1.00  0.00     0.167 HD
ATOM     35  C   UNL     1       8.783  -2.054  10.007  1.00  0.00     0.074 A 
ATOM     36  C   UNL     1       8.967  -1.005  10.989  1.00  0.00     0.031 C 
ATOM     37  C   UNL     1       9.334  -3.291  10.101  1.00  0.00     0.034 A 
BRANCH  24  38
ATOM     38  C   UNL     1       8.045  -7.015   5.302  1.00  0.00     0.023 A 
ATOM     39  C   UNL     1       8.682  -7.155   4.056  1.00  0.00     0.031 A 
ATOM     40  C   UNL     1       7.554  -8.178   5.922  1.00  0.00     0.131 A 
ATOM     41  C   UNL     1       8.755  -8.416   3.443  1.00  0.00     0.055 A 
ATOM     42  C   UNL     1       7.697  -9.440   5.342  1.00  0.00     0.041 A 
ATOM     43  F   UNL     1       6.918  -8.106   7.103  1.00  0.00    -0.206 F 
ATOM     44  C   UNL     1       8.290  -9.563   4.089  1.00  0.00     0.022 A 
BRANCH  41  45
ATOM     45  S   UNL     1       9.352  -8.515   1.733  1.00  0.00     0.124 S 
ATOM     46  O   UNL     1       8.398  -7.656   1.035  1.00  0.00    -0.237 OA
ATOM     47  O   UNL     1      10.712  -8.000   1.842  1.00  0.00    -0.237 OA
ATOM     48  O   UNL     1       9.247  -9.937   1.414  1.00  0.00    -0.744 OA
ENDBRANCH  41  45
ENDBRANCH  24  38
BRANCH  25  49
ATOM     49  C   UNL     1       6.577   2.058   9.330  1.00  0.00     0.023 A 
ATOM     50  C   UNL     1       7.627   2.955   9.578  1.00  0.00     0.031 A 
ATOM     51  C   UNL     1       5.280   2.438   9.722  1.00  0.00     0.131 A 
ATOM     52  C   UNL     1       7.370   4.163  10.244  1.00  0.00     0.055 A 
ATOM     53  C   UNL     1       5.020   3.667  10.326  1.00  0.00     0.041 A 
ATOM     54  F   UNL     1       4.238   1.619   9.506  1.00  0.00    -0.206 F 
ATOM     55  C   UNL     1       6.073   4.532  10.605  1.00  0.00     0.022 A 
BRANCH  52  56
ATOM     56  S   UNL     1       8.776   5.204  10.725  1.00  0.00     0.124 S 
ATOM     57  O   UNL     1       9.589   4.268  11.494  1.00  0.00    -0.237 OA
ATOM     58  O   UNL     1       9.312   5.604   9.429  1.00  0.00    -0.237 OA
ATOM     59  O   UNL     1       8.155   6.276  11.500  1.00  0.00    -0.744 OA
ENDBRANCH  52  56
ENDBRANCH  25  49
BRANCH  37  60
ATOM     60  C   UNL     1      10.213  -3.547  11.300  1.00  0.00     0.023 A 
ATOM     61  C   UNL     1       9.689  -3.572  12.605  1.00  0.00     0.031 A 
ATOM     62  C   UNL     1      11.598  -3.725  11.138  1.00  0.00     0.131 A 
ATOM     63  C   UNL     1      10.554  -3.700  13.702  1.00  0.00     0.055 A 
ATOM     64  C   UNL     1      12.445  -3.915  12.230  1.00  0.00     0.041 A 
ATOM     65  F   UNL     1      12.151  -3.708   9.915  1.00  0.00    -0.206 F 
ATOM     66  C   UNL     1      11.927  -3.886  13.522  1.00  0.00     0.022 A 
BRANCH  63  67
ATOM     67  S   UNL     1       9.873  -3.509  15.372  1.00  0.00     0.124 S 
ATOM     68  O   UNL     1       9.286  -2.174  15.310  1.00  0.00    -0.237 OA
ATOM     69  O   UNL     1       8.929  -4.618  15.452  1.00  0.00    -0.237 OA
ATOM     70  O   UNL     1      11.046  -3.631  16.236  1.00  0.00    -0.744 OA
ENDBRANCH  63  67
ENDBRANCH  37  60
ENDBRANCH  11  12
ENDBRANCH   4   6
ENDBRANCH   1   2
BRANCH   1  71
ATOM     71  C   UNL     1       4.976  -0.650  -2.488  1.00  0.00     0.042 C 
BRANCH  71  72
ATOM     72  C   UNL     1       4.421  -0.332  -3.866  1.00  0.00     0.118 C 
BRANCH  72  73
ATOM     73  N   UNL     1       4.927   0.926  -4.399  1.00  0.00    -0.352 N 
ATOM     74  C   UNL     1       5.738   1.173  -5.478  1.00  0.00     0.251 C 
ATOM     75  H   UNL     1       4.641   1.729  -3.905  1.00  0.00     0.163 HD
ATOM     76  O   UNL     1       6.200   2.298  -5.647  1.00  0.00    -0.269 OA
BRANCH  74  77
ATOM     77  C   UNL     1       6.064   0.097  -6.438  1.00  0.00     0.044 A 
ATOM     78  C   UNL     1       5.073  -0.764  -6.916  1.00  0.00     0.060 A 
ATOM     79  C   UNL     1       7.377  -0.002  -6.917  1.00  0.00     0.023 A 
ATOM     80  C   UNL     1       5.428  -1.794  -7.772  1.00  0.00     0.116 A 
ATOM     81  C   UNL     1       7.727  -1.005  -7.835  1.00  0.00    -0.012 A 
ATOM     82  C   UNL     1       6.738  -1.926  -8.221  1.00  0.00     0.055 A 
BRANCH  80  83
ATOM     83  O   UNL     1       4.509  -2.703  -8.204  1.00  0.00    -0.508 OA
ATOM     84  H   UNL     1       3.619  -2.641  -7.919  1.00  0.00     0.293 HD
ENDBRANCH  80  83
BRANCH  81  85
ATOM     85  C   UNL     1       9.088  -1.084  -8.395  1.00  0.00     0.004 A 
ATOM     86  C   UNL     1      10.177  -1.349  -7.541  1.00  0.00     0.056 A 
ATOM     87  C   UNL     1       9.356  -0.901  -9.770  1.00  0.00     0.049 A 
ATOM     88  C   UNL     1      11.471  -1.440  -8.052  1.00  0.00     0.116 A 
ATOM     89  C   UNL     1      10.659  -1.003 -10.270  1.00  0.00     0.025 A 
ATOM     90  Cl  UNL     1       8.111  -0.509 -10.911  1.00  0.00    -0.084 Cl
ATOM     91  C   UNL     1      11.718  -1.274  -9.408  1.00  0.00     0.048 A 
BRANCH  88  92
ATOM     92  O   UNL     1      12.541  -1.693  -7.247  1.00  0.00    -0.508 OA
ATOM     93  H   UNL     1      12.417  -1.812  -6.326  1.00  0.00     0.293 HD
ENDBRANCH  88  92
ENDBRANCH  81  85
ENDBRANCH  74  77
ENDBRANCH  72  73
ENDBRANCH  71  72
ENDBRANCH   1  71
TORSDOF 16
