REMARK SMILES CC(C)[C@@H]1CSC[C@@H](C(=O)NCCCNC(=O)c2ccc(-c3c4nc(c(-c5cc(S(=O)(=O)[O-])ccc5F)c5ccc([nH]5)c(-c5cc(S(=O)(=O)[O-])ccc5F)c5nc(c(-c6cc(S(=O)(=O)[O-])ccc6F)c6ccc3[nH]6)C=C5)C=C4)cc2)[NH2+]1
REMARK SMILES IDX 14 1 13 2 12 3 11 4 9 5 10 6 8 8 4 9 5 10 81 11 6 12 7 15
REMARK SMILES IDX 2 16 1 17 3 18 15 19 16 20 17 22 18 23 19 24 80 25 20 26
REMARK SMILES IDX 79 27 21 28 22 29 23 30 73 31 24 32 78 33 72 34 74 35 25 36
REMARK SMILES IDX 77 37 71 38 70 39 26 41 58 42 38 43 57 44 39 45 42 46 56 47
REMARK SMILES IDX 75 48 40 49 41 50 55 52 76 53 43 54 27 55 28 56 36 57 29 58
REMARK SMILES IDX 35 59 37 60 34 61 30 62 31 63 32 64 33 65 59 66 60 67 68 68
REMARK SMILES IDX 61 69 67 70 69 71 66 72 62 73 63 74 64 75 65 76 44 77 45 78
REMARK SMILES IDX 53 79 46 80 52 81 54 82 51 83 47 84 48 85 49 86 50 87
REMARK H PARENT 11 7 81 13 81 14 15 21 74 40 42 51
REMARK Flexibility Score: inf
ROOT
ATOM      1  C   UNL     1      -5.538   4.543  -0.355  1.00  0.00     0.118 C 
ENDROOT
BRANCH   1   2
ATOM      2  C   UNL     1      -4.778   3.286  -0.751  1.00  0.00     0.042 C 
BRANCH   2   3
ATOM      3  C   UNL     1      -3.936   3.448  -2.005  1.00  0.00     0.118 C 
BRANCH   3   4
ATOM      4  N   UNL     1      -2.878   4.435  -1.848  1.00  0.00    -0.351 N 
ATOM      5  C   UNL     1      -1.525   4.274  -1.941  1.00  0.00     0.279 C 
ATOM      6  O   UNL     1      -0.804   5.257  -1.750  1.00  0.00    -0.268 OA
ATOM      7  H   UNL     1      -3.182   5.350  -1.647  1.00  0.00     0.163 HD
BRANCH   5   8
ATOM      8  C   UNL     1      -0.918   2.902  -2.292  1.00  0.00     0.282 C 
ATOM      9  C   UNL     1      -0.805   0.564  -1.469  1.00  0.00     0.195 C 
ATOM     10  C   UNL     1      -1.431  -0.002  -2.759  1.00  0.00     0.135 C 
ATOM     11  N   UNL     1      -1.280   1.940  -1.218  1.00  0.00    -0.332 N 
ATOM     12  S   UNL     1      -0.948   0.865  -4.282  1.00  0.00    -0.149 SA
ATOM     13  H   UNL     1      -0.871   2.267  -0.343  1.00  0.00     0.347 HD
ATOM     14  H   UNL     1      -2.298   1.902  -1.183  1.00  0.00     0.347 HD
ATOM     15  C   UNL     1      -1.298   2.566  -3.748  1.00  0.00     0.145 C 
BRANCH   9  16
ATOM     16  C   UNL     1       0.743   0.432  -1.265  1.00  0.00     0.042 C 
ATOM     17  C   UNL     1       1.044  -0.094   0.148  1.00  0.00     0.014 C 
ATOM     18  C   UNL     1       1.485  -0.440  -2.279  1.00  0.00     0.014 C 
ENDBRANCH   9  16
ENDBRANCH   5   8
ENDBRANCH   3   4
ENDBRANCH   2   3
ENDBRANCH   1   2
BRANCH   1  19
ATOM     19  N   UNL     1      -6.467   4.990  -1.385  1.00  0.00    -0.352 N 
ATOM     20  C   UNL     1      -7.833   5.120  -1.349  1.00  0.00     0.251 C 
ATOM     21  H   UNL     1      -6.049   5.237  -2.242  1.00  0.00     0.163 HD
ATOM     22  O   UNL     1      -8.445   5.323  -2.396  1.00  0.00    -0.269 OA
BRANCH  20  23
ATOM     23  C   UNL     1      -8.563   4.990  -0.069  1.00  0.00     0.039 A 
ATOM     24  C   UNL     1      -9.778   4.303  -0.048  1.00  0.00     0.014 A 
ATOM     25  C   UNL     1      -8.055   5.545   1.108  1.00  0.00     0.014 A 
ATOM     26  C   UNL     1     -10.444   4.112   1.165  1.00  0.00     0.010 A 
ATOM     27  C   UNL     1      -8.663   5.265   2.326  1.00  0.00     0.010 A 
ATOM     28  C   UNL     1      -9.870   4.553   2.369  1.00  0.00    -0.014 A 
BRANCH  28  29
ATOM     29  C   UNL     1     -10.524   4.294   3.679  1.00  0.00     0.031 A 
ATOM     30  C   UNL     1     -10.956   5.446   4.547  1.00  0.00     0.074 A 
ATOM     31  C   UNL     1     -10.675   3.026   4.111  1.00  0.00     0.049 A 
ATOM     32  N   UNL     1     -11.479   5.430   5.746  1.00  0.00    -0.248 NA
ATOM     33  C   UNL     1     -10.740   6.797   4.006  1.00  0.00     0.031 C 
ATOM     34  C   UNL     1     -10.259   1.828   3.378  1.00  0.00     0.029 A 
ATOM     35  N   UNL     1     -11.216   2.530   5.271  1.00  0.00    -0.354 N 
ATOM     36  C   UNL     1     -11.642   6.763   6.107  1.00  0.00     0.074 A 
ATOM     37  C   UNL     1     -11.094   7.558   5.030  1.00  0.00     0.031 C 
ATOM     38  C   UNL     1     -10.594   0.739   4.087  1.00  0.00     0.029 A 
ATOM     39  C   UNL     1     -11.196   1.156   5.348  1.00  0.00     0.049 A 
ATOM     40  H   UNL     1     -11.585   3.104   5.981  1.00  0.00     0.167 HD
ATOM     41  C   UNL     1     -12.220   7.277   7.222  1.00  0.00     0.034 A 
ATOM     42  C   UNL     1     -11.606   0.327   6.329  1.00  0.00     0.034 A 
ATOM     43  C   UNL     1     -12.770   6.467   8.281  1.00  0.00     0.049 A 
ATOM     44  C   UNL     1     -12.212   0.922   7.576  1.00  0.00     0.074 A 
ATOM     45  C   UNL     1     -13.425   6.879   9.429  1.00  0.00     0.029 A 
ATOM     46  N   UNL     1     -12.721   5.079   8.331  1.00  0.00    -0.354 N 
ATOM     47  N   UNL     1     -12.408   2.186   7.879  1.00  0.00    -0.248 NA
ATOM     48  C   UNL     1     -12.662  -0.020   8.607  1.00  0.00     0.031 C 
ATOM     49  C   UNL     1     -13.698   5.750  10.207  1.00  0.00     0.029 A 
ATOM     50  C   UNL     1     -13.300   4.623   9.506  1.00  0.00     0.049 A 
ATOM     51  H   UNL     1     -12.333   4.503   7.633  1.00  0.00     0.167 HD
ATOM     52  C   UNL     1     -13.038   2.184   9.121  1.00  0.00     0.074 A 
ATOM     53  C   UNL     1     -13.202   0.796   9.499  1.00  0.00     0.031 C 
ATOM     54  C   UNL     1     -13.449   3.234   9.877  1.00  0.00     0.034 A 
BRANCH  41  55
ATOM     55  C   UNL     1     -12.258   8.782   7.356  1.00  0.00     0.023 A 
ATOM     56  C   UNL     1     -12.939   9.592   6.430  1.00  0.00     0.031 A 
ATOM     57  C   UNL     1     -11.580   9.421   8.410  1.00  0.00     0.131 A 
ATOM     58  C   UNL     1     -12.859  10.989   6.526  1.00  0.00     0.055 A 
ATOM     59  C   UNL     1     -11.581  10.810   8.553  1.00  0.00     0.041 A 
ATOM     60  F   UNL     1     -10.892   8.705   9.314  1.00  0.00    -0.206 F 
ATOM     61  C   UNL     1     -12.208  11.604   7.598  1.00  0.00     0.022 A 
BRANCH  58  62
ATOM     62  S   UNL     1     -13.479  11.988   5.146  1.00  0.00     0.124 S 
ATOM     63  O   UNL     1     -12.687  11.475   4.031  1.00  0.00    -0.237 OA
ATOM     64  O   UNL     1     -14.899  11.655   5.128  1.00  0.00    -0.237 OA
ATOM     65  O   UNL     1     -13.164  13.358   5.545  1.00  0.00    -0.744 OA
ENDBRANCH  58  62
ENDBRANCH  41  55
BRANCH  42  66
ATOM     66  C   UNL     1     -11.456  -1.151   6.186  1.00  0.00     0.023 A 
ATOM     67  C   UNL     1     -12.579  -1.993   6.166  1.00  0.00     0.031 A 
ATOM     68  C   UNL     1     -10.185  -1.749   6.117  1.00  0.00     0.131 A 
ATOM     69  C   UNL     1     -12.410  -3.386   6.134  1.00  0.00     0.055 A 
ATOM     70  C   UNL     1     -10.023  -3.132   6.023  1.00  0.00     0.041 A 
ATOM     71  F   UNL     1      -9.075  -0.992   6.130  1.00  0.00    -0.206 F 
ATOM     72  C   UNL     1     -11.141  -3.961   6.047  1.00  0.00     0.022 A 
BRANCH  69  73
ATOM     73  S   UNL     1     -13.874  -4.442   6.311  1.00  0.00     0.124 S 
ATOM     74  O   UNL     1     -14.409  -3.993   7.592  1.00  0.00    -0.237 OA
ATOM     75  O   UNL     1     -14.651  -4.083   5.129  1.00  0.00    -0.237 OA
ATOM     76  O   UNL     1     -13.320  -5.794   6.305  1.00  0.00    -0.744 OA
ENDBRANCH  69  73
ENDBRANCH  42  66
BRANCH  54  77
ATOM     77  C   UNL     1     -14.165   2.913  11.168  1.00  0.00     0.023 A 
ATOM     78  C   UNL     1     -13.520   2.262  12.234  1.00  0.00     0.031 A 
ATOM     79  C   UNL     1     -15.521   3.254  11.327  1.00  0.00     0.131 A 
ATOM     80  C   UNL     1     -14.247   1.914  13.383  1.00  0.00     0.055 A 
ATOM     81  C   UNL     1     -16.219   2.970  12.501  1.00  0.00     0.041 A 
ATOM     82  F   UNL     1     -16.190   3.873  10.341  1.00  0.00    -0.206 F 
ATOM     83  C   UNL     1     -15.586   2.281  13.531  1.00  0.00     0.022 A 
BRANCH  80  84
ATOM     84  S   UNL     1     -13.447   0.875  14.637  1.00  0.00     0.124 S 
ATOM     85  O   UNL     1     -13.070  -0.301  13.861  1.00  0.00    -0.237 OA
ATOM     86  O   UNL     1     -12.346   1.721  15.087  1.00  0.00    -0.237 OA
ATOM     87  O   UNL     1     -14.503   0.655  15.624  1.00  0.00    -0.744 OA
ENDBRANCH  80  84
ENDBRANCH  54  77
ENDBRANCH  28  29
ENDBRANCH  20  23
ENDBRANCH   1  19
TORSDOF 14
