REMARK SMILES C[C@@](O)(CSc1ccc(N)c(F)c1)C(=O)NCCCNC(=O)c1ccc(-c2c3nc(c(-c4cc(S(=O)(=O)[O-])ccc4F)c4ccc([nH]4)c(-c4cc(S(=O)(=O)[O-])ccc4F)c4nc(c(-c5cc(S(=O)(=O)[O-])ccc5F)c5ccc2[nH]5)C=C4)C=C3)cc1
REMARK SMILES IDX 17 1 16 2 14 3 15 4 2 6 1 7 3 8 4 10 5 11 6 12 7 13 13 14
REMARK SMILES IDX 8 15 11 16 9 17 12 18 10 19 18 22 19 23 20 24 21 25 22 27
REMARK SMILES IDX 23 28 24 29 85 30 25 31 84 32 26 33 27 34 28 35 78 36 29 37
REMARK SMILES IDX 83 38 77 39 79 40 30 41 82 42 76 43 75 44 31 46 63 47 43 48
REMARK SMILES IDX 62 49 44 50 47 51 61 52 80 53 45 54 46 55 60 57 81 58 48 59
REMARK SMILES IDX 32 60 33 61 41 62 34 63 40 64 42 65 39 66 35 67 36 68 37 69
REMARK SMILES IDX 38 70 64 71 65 72 73 73 66 74 72 75 74 76 71 77 67 78 68 79
REMARK SMILES IDX 69 80 70 81 49 82 50 83 58 84 51 85 57 86 59 87 56 88 52 89
REMARK SMILES IDX 53 90 54 91 55 92
REMARK H PARENT 16 5 3 9 10 20 10 21 20 26 79 45 47 56
REMARK Flexibility Score: inf
ROOT
ATOM      1  C   UNL     1       0.026   1.391  -4.186  1.00  0.00     0.117 C 
ENDROOT
BRANCH   1   2
ATOM      2  N   UNL     1       0.803   2.059  -3.156  1.00  0.00    -0.354 N 
ATOM      3  C   UNL     1       1.105   1.681  -1.883  1.00  0.00     0.252 C 
ATOM      4  O   UNL     1       1.823   2.445  -1.231  1.00  0.00    -0.272 OA
ATOM      5  H   UNL     1       1.173   2.931  -3.424  1.00  0.00     0.163 HD
BRANCH   3   6
ATOM      6  C   UNL     1       0.608   0.329  -1.303  1.00  0.00     0.149 C 
ATOM      7  C   UNL     1       1.386   0.006  -0.021  1.00  0.00     0.054 C 
BRANCH   6   8
ATOM      8  O   UNL     1       0.932  -0.744  -2.211  1.00  0.00    -0.379 OA
ATOM      9  H   UNL     1       0.619  -1.585  -1.842  1.00  0.00     0.212 HD
ENDBRANCH   6   8
BRANCH   6  10
ATOM     10  C   UNL     1      -0.923   0.303  -1.091  1.00  0.00     0.120 C 
BRANCH  10  11
ATOM     11  S   UNL     1      -1.705   1.659  -0.129  1.00  0.00    -0.122 SA
BRANCH  11  12
ATOM     12  C   UNL     1      -1.222   1.272   1.540  1.00  0.00     0.010 A 
ATOM     13  C   UNL     1      -1.320  -0.019   2.071  1.00  0.00     0.017 A 
ATOM     14  C   UNL     1      -0.697   2.293   2.333  1.00  0.00     0.056 A 
ATOM     15  C   UNL     1      -0.826  -0.304   3.349  1.00  0.00     0.030 A 
ATOM     16  C   UNL     1      -0.219   2.001   3.607  1.00  0.00     0.147 A 
ATOM     17  C   UNL     1      -0.277   0.706   4.138  1.00  0.00     0.068 A 
ATOM     18  F   UNL     1       0.321   2.989   4.338  1.00  0.00    -0.205 F 
BRANCH  17  19
ATOM     19  N   UNL     1       0.313   0.404   5.359  1.00  0.00    -0.396 N 
ATOM     20  H   UNL     1       0.262  -0.512   5.717  1.00  0.00     0.156 HD
ATOM     21  H   UNL     1       0.781   1.105   5.867  1.00  0.00     0.156 HD
ENDBRANCH  17  19
ENDBRANCH  11  12
ENDBRANCH  10  11
ENDBRANCH   6  10
ENDBRANCH   3   6
ENDBRANCH   1   2
BRANCH   1  22
ATOM     22  C   UNL     1      -1.279   2.121  -4.479  1.00  0.00     0.042 C 
BRANCH  22  23
ATOM     23  C   UNL     1      -1.094   3.521  -5.055  1.00  0.00     0.118 C 
BRANCH  23  24
ATOM     24  N   UNL     1      -0.414   3.509  -6.343  1.00  0.00    -0.352 N 
ATOM     25  C   UNL     1      -0.838   3.959  -7.568  1.00  0.00     0.251 C 
ATOM     26  H   UNL     1       0.489   3.118  -6.333  1.00  0.00     0.163 HD
ATOM     27  O   UNL     1      -0.187   3.663  -8.571  1.00  0.00    -0.269 OA
BRANCH  25  28
ATOM     28  C   UNL     1      -2.069   4.769  -7.692  1.00  0.00     0.039 A 
ATOM     29  C   UNL     1      -2.934   4.525  -8.762  1.00  0.00     0.014 A 
ATOM     30  C   UNL     1      -2.367   5.779  -6.772  1.00  0.00     0.014 A 
ATOM     31  C   UNL     1      -4.126   5.245  -8.870  1.00  0.00     0.010 A 
ATOM     32  C   UNL     1      -3.593   6.436  -6.834  1.00  0.00     0.010 A 
ATOM     33  C   UNL     1      -4.486   6.179  -7.885  1.00  0.00    -0.014 A 
BRANCH  33  34
ATOM     34  C   UNL     1      -5.790   6.893  -7.937  1.00  0.00     0.031 A 
ATOM     35  C   UNL     1      -5.828   8.392  -8.073  1.00  0.00     0.074 A 
ATOM     36  C   UNL     1      -6.937   6.197  -7.805  1.00  0.00     0.049 A 
ATOM     37  N   UNL     1      -6.858   9.198  -8.062  1.00  0.00    -0.248 NA
ATOM     38  C   UNL     1      -4.533   9.075  -8.211  1.00  0.00     0.031 C 
ATOM     39  C   UNL     1      -7.027   4.745  -7.633  1.00  0.00     0.029 A 
ATOM     40  N   UNL     1      -8.245   6.613  -7.786  1.00  0.00    -0.354 N 
ATOM     41  C   UNL     1      -6.337  10.482  -8.180  1.00  0.00     0.074 A 
ATOM     42  C   UNL     1      -4.896  10.348  -8.196  1.00  0.00     0.031 C 
ATOM     43  C   UNL     1      -8.320   4.391  -7.554  1.00  0.00     0.029 A 
ATOM     44  C   UNL     1      -9.149   5.590  -7.614  1.00  0.00     0.049 A 
ATOM     45  H   UNL     1      -8.511   7.555  -7.886  1.00  0.00     0.167 HD
ATOM     46  C   UNL     1      -7.000  11.661  -8.287  1.00  0.00     0.034 A 
ATOM     47  C   UNL     1     -10.492   5.614  -7.500  1.00  0.00     0.034 A 
ATOM     48  C   UNL     1      -8.439  11.776  -8.274  1.00  0.00     0.049 A 
ATOM     49  C   UNL     1     -11.205   6.941  -7.580  1.00  0.00     0.074 A 
ATOM     50  C   UNL     1      -9.213  12.913  -8.426  1.00  0.00     0.029 A 
ATOM     51  N   UNL     1      -9.321  10.719  -8.087  1.00  0.00    -0.354 N 
ATOM     52  N   UNL     1     -10.699   8.143  -7.742  1.00  0.00    -0.248 NA
ATOM     53  C   UNL     1     -12.669   6.915  -7.474  1.00  0.00     0.031 C 
ATOM     54  C   UNL     1     -10.555  12.557  -8.252  1.00  0.00     0.029 A 
ATOM     55  C   UNL     1     -10.628  11.184  -8.083  1.00  0.00     0.049 A 
ATOM     56  H   UNL     1      -9.058   9.777  -7.974  1.00  0.00     0.167 HD
ATOM     57  C   UNL     1     -11.788   9.009  -7.791  1.00  0.00     0.074 A 
ATOM     58  C   UNL     1     -12.975   8.190  -7.658  1.00  0.00     0.031 C 
ATOM     59  C   UNL     1     -11.806  10.359  -7.939  1.00  0.00     0.034 A 
BRANCH  46  60
ATOM     60  C   UNL     1      -6.170  12.920  -8.398  1.00  0.00     0.023 A 
ATOM     61  C   UNL     1      -5.295  13.137  -9.477  1.00  0.00     0.031 A 
ATOM     62  C   UNL     1      -6.239  13.910  -7.401  1.00  0.00     0.131 A 
ATOM     63  C   UNL     1      -4.471  14.273  -9.495  1.00  0.00     0.055 A 
ATOM     64  C   UNL     1      -5.480  15.080  -7.470  1.00  0.00     0.041 A 
ATOM     65  F   UNL     1      -7.039  13.752  -6.335  1.00  0.00    -0.206 F 
ATOM     66  C   UNL     1      -4.577  15.259  -8.513  1.00  0.00     0.022 A 
BRANCH  63  67
ATOM     67  S   UNL     1      -3.153  14.366 -10.738  1.00  0.00     0.124 S 
ATOM     68  O   UNL     1      -2.392  13.151 -10.453  1.00  0.00    -0.237 OA
ATOM     69  O   UNL     1      -3.900  14.372 -11.990  1.00  0.00    -0.237 OA
ATOM     70  O   UNL     1      -2.464  15.613 -10.415  1.00  0.00    -0.744 OA
ENDBRANCH  63  67
ENDBRANCH  46  60
BRANCH  47  71
ATOM     71  C   UNL     1     -11.257   4.351  -7.282  1.00  0.00     0.023 A 
ATOM     72  C   UNL     1     -12.191   3.898  -8.227  1.00  0.00     0.031 A 
ATOM     73  C   UNL     1     -11.100   3.603  -6.101  1.00  0.00     0.131 A 
ATOM     74  C   UNL     1     -12.967   2.761  -7.955  1.00  0.00     0.055 A 
ATOM     75  C   UNL     1     -11.832   2.439  -5.862  1.00  0.00     0.041 A 
ATOM     76  F   UNL     1     -10.220   3.990  -5.163  1.00  0.00    -0.206 F 
ATOM     77  C   UNL     1     -12.783   2.019  -6.786  1.00  0.00     0.022 A 
BRANCH  74  78
ATOM     78  S   UNL     1     -14.294   2.318  -9.110  1.00  0.00     0.124 S 
ATOM     79  O   UNL     1     -15.102   3.533  -9.112  1.00  0.00    -0.237 OA
ATOM     80  O   UNL     1     -13.550   2.040 -10.334  1.00  0.00    -0.237 OA
ATOM     81  O   UNL     1     -14.917   1.155  -8.483  1.00  0.00    -0.744 OA
ENDBRANCH  74  78
ENDBRANCH  47  71
BRANCH  59  82
ATOM     82  C   UNL     1     -13.159  11.026  -8.018  1.00  0.00     0.023 A 
ATOM     83  C   UNL     1     -14.047  11.040  -6.927  1.00  0.00     0.031 A 
ATOM     84  C   UNL     1     -13.569  11.650  -9.210  1.00  0.00     0.131 A 
ATOM     85  C   UNL     1     -15.320  11.612  -7.069  1.00  0.00     0.055 A 
ATOM     86  C   UNL     1     -14.810  12.278  -9.323  1.00  0.00     0.041 A 
ATOM     87  F   UNL     1     -12.765  11.664 -10.286  1.00  0.00    -0.206 F 
ATOM     88  C   UNL     1     -15.699  12.249  -8.254  1.00  0.00     0.022 A 
BRANCH  85  89
ATOM     89  S   UNL     1     -16.516  11.426  -5.718  1.00  0.00     0.124 S 
ATOM     90  O   UNL     1     -16.601   9.975  -5.587  1.00  0.00    -0.237 OA
ATOM     91  O   UNL     1     -15.858  12.127  -4.620  1.00  0.00    -0.237 OA
ATOM     92  O   UNL     1     -17.720  12.074  -6.234  1.00  0.00    -0.744 OA
ENDBRANCH  85  89
ENDBRANCH  59  82
ENDBRANCH  33  34
ENDBRANCH  25  28
ENDBRANCH  23  24
ENDBRANCH  22  23
ENDBRANCH   1  22
TORSDOF 18
