REMARK SMILES C[C@@H]1CN(c2cc(C(=O)NCCCNC(=O)c3ccc(-c4c5nc(c(-c6cc(S(=O)(=O)[O-])ccc6F)c6ccc([nH]6)c(-c6cc(S(=O)(=O)[O-])ccc6F)c6nc(c(-c7cc(S(=O)(=O)[O-])ccc7F)c7ccc4[nH]7)C=C6)C=C5)cc3)c(F)cc2F)S(=O)(=O)C1
REMARK SMILES IDX 13 1 12 2 11 3 10 4 8 5 9 6 7 8 5 9 6 10 83 11 82 12 84 13
REMARK SMILES IDX 80 14 81 15 4 16 1 17 2 18 3 19 88 20 85 21 86 22 87 23
REMARK SMILES IDX 14 24 15 25 16 27 17 28 18 29 79 30 19 31 78 32 20 33 21 34
REMARK SMILES IDX 22 35 72 36 23 37 77 38 71 39 73 40 24 41 76 42 70 43 69 44
REMARK SMILES IDX 25 46 57 47 37 48 56 49 38 50 41 51 55 52 74 53 39 54 40 55
REMARK SMILES IDX 54 57 75 58 42 59 26 60 27 61 35 62 28 63 34 64 36 65 33 66
REMARK SMILES IDX 29 67 30 68 31 69 32 70 58 71 59 72 67 73 60 74 66 75 68 76
REMARK SMILES IDX 65 77 61 78 62 79 63 80 64 81 43 82 44 83 52 84 45 85 51 86
REMARK SMILES IDX 53 87 50 88 46 89 47 90 48 91 49 92
REMARK H PARENT 10 7 14 26 73 45 41 56
REMARK Flexibility Score: inf
ROOT
ATOM      1  C   UNL     1      -7.907  -5.101   5.711  1.00  0.00     0.118 C 
ENDROOT
BRANCH   1   2
ATOM      2  C   UNL     1      -6.411  -5.318   5.492  1.00  0.00     0.042 C 
BRANCH   2   3
ATOM      3  C   UNL     1      -6.075  -5.928   4.131  1.00  0.00     0.118 C 
BRANCH   3   4
ATOM      4  N   UNL     1      -6.167  -4.930   3.085  1.00  0.00    -0.352 N 
ATOM      5  C   UNL     1      -5.234  -4.182   2.428  1.00  0.00     0.254 C 
ATOM      6  O   UNL     1      -5.661  -3.393   1.581  1.00  0.00    -0.269 OA
ATOM      7  H   UNL     1      -7.089  -4.756   2.788  1.00  0.00     0.163 HD
BRANCH   5   8
ATOM      8  C   UNL     1      -3.762  -4.273   2.611  1.00  0.00     0.077 A 
ATOM      9  C   UNL     1      -1.606  -3.789   1.550  1.00  0.00     0.088 A 
ATOM     10  C   UNL     1      -3.001  -3.850   1.504  1.00  0.00     0.047 A 
ATOM     11  C   UNL     1      -0.956  -4.121   2.740  1.00  0.00     0.150 A 
ATOM     12  C   UNL     1      -1.680  -4.573   3.836  1.00  0.00     0.081 A 
ATOM     13  F   UNL     1       0.363  -3.924   2.880  1.00  0.00    -0.205 F 
ATOM     14  C   UNL     1      -3.074  -4.622   3.775  1.00  0.00     0.139 A 
ATOM     15  F   UNL     1      -3.703  -4.933   4.912  1.00  0.00    -0.206 F 
BRANCH   9  16
ATOM     16  N   UNL     1      -0.964  -3.178   0.422  1.00  0.00    -0.267 N 
ATOM     17  C   UNL     1       1.106  -0.038  -0.072  1.00  0.00     0.011 C 
ATOM     18  C   UNL     1       0.479  -1.389  -0.376  1.00  0.00     0.023 C 
ATOM     19  C   UNL     1      -0.723  -1.708   0.523  1.00  0.00     0.140 C 
ATOM     20  C   UNL     1       1.442  -2.558  -0.178  1.00  0.00     0.165 C 
ATOM     21  S   UNL     1       0.370  -3.979  -0.302  1.00  0.00     0.235 S 
ATOM     22  O   UNL     1       0.871  -5.056   0.524  1.00  0.00    -0.206 OA
ATOM     23  O   UNL     1       0.059  -4.174  -1.699  1.00  0.00    -0.206 OA
ENDBRANCH   9  16
ENDBRANCH   5   8
ENDBRANCH   3   4
ENDBRANCH   2   3
ENDBRANCH   1   2
BRANCH   1  24
ATOM     24  N   UNL     1      -8.634  -6.361   5.735  1.00  0.00    -0.352 N 
ATOM     25  C   UNL     1      -9.397  -6.934   6.718  1.00  0.00     0.251 C 
ATOM     26  H   UNL     1      -8.568  -6.889   4.907  1.00  0.00     0.163 HD
ATOM     27  O   UNL     1      -9.666  -8.129   6.628  1.00  0.00    -0.269 OA
BRANCH  25  28
ATOM     28  C   UNL     1      -9.895  -6.144   7.867  1.00  0.00     0.039 A 
ATOM     29  C   UNL     1     -10.038  -6.786   9.100  1.00  0.00     0.014 A 
ATOM     30  C   UNL     1     -10.294  -4.811   7.729  1.00  0.00     0.014 A 
ATOM     31  C   UNL     1     -10.550  -6.087  10.193  1.00  0.00     0.010 A 
ATOM     32  C   UNL     1     -10.723  -4.089   8.842  1.00  0.00     0.010 A 
ATOM     33  C   UNL     1     -10.873  -4.723  10.082  1.00  0.00    -0.014 A 
BRANCH  33  34
ATOM     34  C   UNL     1     -11.366  -3.973  11.266  1.00  0.00     0.031 A 
ATOM     35  C   UNL     1     -12.753  -3.386  11.281  1.00  0.00     0.074 A 
ATOM     36  C   UNL     1     -10.551  -3.820  12.328  1.00  0.00     0.049 A 
ATOM     37  N   UNL     1     -13.365  -2.739  12.240  1.00  0.00    -0.248 NA
ATOM     38  C   UNL     1     -13.545  -3.518  10.049  1.00  0.00     0.031 C 
ATOM     39  C   UNL     1      -9.168  -4.300  12.402  1.00  0.00     0.029 A 
ATOM     40  N   UNL     1     -10.763  -3.237  13.551  1.00  0.00    -0.354 N 
ATOM     41  C   UNL     1     -14.611  -2.388  11.729  1.00  0.00     0.074 A 
ATOM     42  C   UNL     1     -14.635  -2.829  10.351  1.00  0.00     0.031 C 
ATOM     43  C   UNL     1      -8.676  -4.041  13.623  1.00  0.00     0.029 A 
ATOM     44  C   UNL     1      -9.686  -3.335  14.403  1.00  0.00     0.049 A 
ATOM     45  H   UNL     1     -11.605  -2.791  13.796  1.00  0.00     0.167 HD
ATOM     46  C   UNL     1     -15.647  -1.779  12.359  1.00  0.00     0.034 A 
ATOM     47  C   UNL     1      -9.531  -2.906  15.671  1.00  0.00     0.034 A 
ATOM     48  C   UNL     1     -15.600  -1.348  13.737  1.00  0.00     0.049 A 
ATOM     49  C   UNL     1     -10.693  -2.223  16.345  1.00  0.00     0.074 A 
ATOM     50  C   UNL     1     -16.601  -0.762  14.492  1.00  0.00     0.029 A 
ATOM     51  N   UNL     1     -14.489  -1.448  14.566  1.00  0.00    -0.354 N 
ATOM     52  N   UNL     1     -11.887  -1.955  15.866  1.00  0.00    -0.248 NA
ATOM     53  C   UNL     1     -10.492  -1.803  17.735  1.00  0.00     0.031 C 
ATOM     54  C   UNL     1     -16.073  -0.437  15.747  1.00  0.00     0.029 A 
ATOM     55  C   UNL     1     -14.769  -0.903  15.811  1.00  0.00     0.049 A 
ATOM     56  H   UNL     1     -13.627  -1.847  14.307  1.00  0.00     0.167 HD
ATOM     57  C   UNL     1     -12.589  -1.359  16.911  1.00  0.00     0.074 A 
ATOM     58  C   UNL     1     -11.692  -1.341  18.049  1.00  0.00     0.031 C 
ATOM     59  C   UNL     1     -13.856  -0.871  16.931  1.00  0.00     0.034 A 
BRANCH  46  60
ATOM     60  C   UNL     1     -16.902  -1.523  11.554  1.00  0.00     0.023 A 
ATOM     61  C   UNL     1     -17.651  -2.574  10.994  1.00  0.00     0.031 A 
ATOM     62  C   UNL     1     -17.347  -0.209  11.324  1.00  0.00     0.131 A 
ATOM     63  C   UNL     1     -18.754  -2.292  10.174  1.00  0.00     0.055 A 
ATOM     64  C   UNL     1     -18.498   0.061  10.579  1.00  0.00     0.041 A 
ATOM     65  F   UNL     1     -16.665   0.840  11.811  1.00  0.00    -0.206 F 
ATOM     66  C   UNL     1     -19.200  -0.983   9.985  1.00  0.00     0.022 A 
BRANCH  63  67
ATOM     67  S   UNL     1     -19.506  -3.651   9.235  1.00  0.00     0.124 S 
ATOM     68  O   UNL     1     -18.370  -4.134   8.455  1.00  0.00    -0.237 OA
ATOM     69  O   UNL     1     -19.981  -4.538  10.290  1.00  0.00    -0.237 OA
ATOM     70  O   UNL     1     -20.552  -2.991   8.456  1.00  0.00    -0.744 OA
ENDBRANCH  63  67
ENDBRANCH  46  60
BRANCH  47  71
ATOM     71  C   UNL     1      -8.239  -3.110  16.388  1.00  0.00     0.023 A 
ATOM     72  C   UNL     1      -8.168  -3.896  17.550  1.00  0.00     0.031 A 
ATOM     73  C   UNL     1      -7.060  -2.483  15.946  1.00  0.00     0.131 A 
ATOM     74  C   UNL     1      -6.961  -3.990  18.260  1.00  0.00     0.055 A 
ATOM     75  C   UNL     1      -5.847  -2.631  16.620  1.00  0.00     0.041 A 
ATOM     76  F   UNL     1      -7.068  -1.724  14.839  1.00  0.00    -0.206 F 
ATOM     77  C   UNL     1      -5.796  -3.376  17.794  1.00  0.00     0.022 A 
BRANCH  74  78
ATOM     78  S   UNL     1      -6.958  -4.844  19.860  1.00  0.00     0.124 S 
ATOM     79  O   UNL     1      -7.973  -4.100  20.596  1.00  0.00    -0.237 OA
ATOM     80  O   UNL     1      -7.312  -6.206  19.476  1.00  0.00    -0.237 OA
ATOM     81  O   UNL     1      -5.587  -4.669  20.335  1.00  0.00    -0.744 OA
ENDBRANCH  74  78
ENDBRANCH  47  71
BRANCH  59  82
ATOM     82  C   UNL     1     -14.346  -0.308  18.246  1.00  0.00     0.023 A 
ATOM     83  C   UNL     1     -13.736   0.809  18.843  1.00  0.00     0.031 A 
ATOM     84  C   UNL     1     -15.401  -0.930  18.936  1.00  0.00     0.131 A 
ATOM     85  C   UNL     1     -14.122   1.212  20.130  1.00  0.00     0.055 A 
ATOM     86  C   UNL     1     -15.836  -0.473  20.181  1.00  0.00     0.041 A 
ATOM     87  F   UNL     1     -16.020  -2.003  18.419  1.00  0.00    -0.206 F 
ATOM     88  C   UNL     1     -15.181   0.590  20.795  1.00  0.00     0.022 A 
BRANCH  85  89
ATOM     89  S   UNL     1     -13.118   2.458  20.984  1.00  0.00     0.124 S 
ATOM     90  O   UNL     1     -11.788   1.860  20.936  1.00  0.00    -0.237 OA
ATOM     91  O   UNL     1     -13.315   3.640  20.152  1.00  0.00    -0.237 OA
ATOM     92  O   UNL     1     -13.719   2.529  22.315  1.00  0.00    -0.744 OA
ENDBRANCH  85  89
ENDBRANCH  59  82
ENDBRANCH  33  34
ENDBRANCH  25  28
ENDBRANCH   1  24
TORSDOF 14
