REMARK SMILES Cn1c(=O)[nH]c(=O)c2c1nc(N1CCOCC1)n2CC(=O)NCCCNC(=O)c1ccc(-c2c3nc(c(-c4cc(S(=O)(=O)[O-])ccc4F)c4ccc([nH]4)c(-c4cc(S(=O)(=O)[O-])ccc4F)c4nc(c(-c5cc(S(=O)(=O)[O-])ccc5F)c5ccc2[nH]5)C=C4)C=C3)cc1
REMARK SMILES IDX 24 1 23 2 22 3 20 4 21 5 19 7 18 8 1 9 2 10 3 11 9 12 4 13
REMARK SMILES IDX 5 14 8 15 10 16 6 17 11 19 7 20 12 21 13 22 17 23 14 24
REMARK SMILES IDX 16 25 15 26 25 27 26 28 27 29 28 31 29 32 30 33 91 34 31 35
REMARK SMILES IDX 90 36 32 37 33 38 34 39 84 40 35 41 89 42 83 43 85 44 36 45
REMARK SMILES IDX 88 46 82 47 81 48 37 50 69 51 49 52 68 53 50 54 53 55 67 56
REMARK SMILES IDX 86 57 51 58 52 59 66 61 87 62 54 63 38 64 39 65 47 66 40 67
REMARK SMILES IDX 46 68 48 69 45 70 41 71 42 72 43 73 44 74 70 75 71 76 79 77
REMARK SMILES IDX 72 78 78 79 80 80 77 81 73 82 74 83 75 84 76 85 55 86 56 87
REMARK SMILES IDX 64 88 57 89 63 90 65 91 62 92 58 93 59 94 60 95 61 96
REMARK H PARENT 22 6 5 18 26 30 85 49 53 60
REMARK Flexibility Score: inf
ROOT
ATOM      1  C   UNL     1       0.468  -3.239   4.269  1.00  0.00     0.042 C 
ENDROOT
BRANCH   1   2
ATOM      2  C   UNL     1      -0.318  -4.552   4.212  1.00  0.00     0.117 C 
BRANCH   2   3
ATOM      3  N   UNL     1      -1.675  -4.446   4.713  1.00  0.00    -0.354 N 
ATOM      4  C   UNL     1      -2.853  -4.358   4.031  1.00  0.00     0.240 C 
ATOM      5  O   UNL     1      -3.892  -4.505   4.682  1.00  0.00    -0.273 OA
ATOM      6  H   UNL     1      -1.758  -4.436   5.694  1.00  0.00     0.163 HD
BRANCH   4   7
ATOM      7  C   UNL     1      -2.908  -4.151   2.532  1.00  0.00     0.226 C 
BRANCH   7   8
ATOM      8  N   UNL     1      -2.183  -2.987   2.052  1.00  0.00    -0.295 N 
ATOM      9  C   UNL     1       0.745   0.094   0.231  1.00  0.00     0.157 C 
ATOM     10  N   UNL     1       0.390  -1.300   0.397  1.00  0.00    -0.279 N 
ATOM     11  C   UNL     1       1.208  -2.285  -0.146  1.00  0.00     0.329 A 
ATOM     12  C   UNL     1      -0.755  -1.681   1.069  1.00  0.00     0.170 A 
ATOM     13  O   UNL     1       2.246  -2.055  -0.769  1.00  0.00    -0.248 OA
ATOM     14  N   UNL     1       0.814  -3.595   0.021  1.00  0.00    -0.272 N 
ATOM     15  C   UNL     1      -1.083  -2.995   1.232  1.00  0.00     0.154 A 
ATOM     16  N   UNL     1      -1.678  -0.858   1.636  1.00  0.00    -0.194 NA
ATOM     17  C   UNL     1      -0.317  -4.053   0.660  1.00  0.00     0.279 A 
ATOM     18  H   UNL     1       1.409  -4.282  -0.359  1.00  0.00     0.175 HD
ATOM     19  C   UNL     1      -2.543  -1.659   2.227  1.00  0.00     0.208 A 
ATOM     20  O   UNL     1      -0.584  -5.238   0.717  1.00  0.00    -0.267 OA
BRANCH  19  21
ATOM     21  N   UNL     1      -3.727  -1.329   2.784  1.00  0.00    -0.338 N 
ATOM     22  C   UNL     1      -3.929  -1.299   4.240  1.00  0.00     0.148 C 
ATOM     23  C   UNL     1      -4.605  -0.374   2.098  1.00  0.00     0.148 C 
ATOM     24  C   UNL     1      -5.398  -1.671   4.519  1.00  0.00     0.181 C 
ATOM     25  C   UNL     1      -6.059  -0.754   2.431  1.00  0.00     0.181 C 
ATOM     26  O   UNL     1      -6.298  -0.762   3.850  1.00  0.00    -0.378 OA
ENDBRANCH  19  21
ENDBRANCH   7   8
ENDBRANCH   4   7
ENDBRANCH   2   3
ENDBRANCH   1   2
BRANCH   1  27
ATOM     27  C   UNL     1       0.894  -2.866   5.680  1.00  0.00     0.118 C 
BRANCH  27  28
ATOM     28  N   UNL     1       1.835  -3.826   6.245  1.00  0.00    -0.352 N 
ATOM     29  C   UNL     1       2.423  -3.825   7.492  1.00  0.00     0.251 C 
ATOM     30  H   UNL     1       2.084  -4.576   5.657  1.00  0.00     0.163 HD
ATOM     31  O   UNL     1       3.409  -4.525   7.694  1.00  0.00    -0.269 OA
BRANCH  29  32
ATOM     32  C   UNL     1       1.881  -2.954   8.551  1.00  0.00     0.039 A 
ATOM     33  C   UNL     1       2.749  -2.256   9.394  1.00  0.00     0.014 A 
ATOM     34  C   UNL     1       0.500  -2.815   8.688  1.00  0.00     0.014 A 
ATOM     35  C   UNL     1       2.222  -1.349  10.309  1.00  0.00     0.010 A 
ATOM     36  C   UNL     1      -0.015  -1.836   9.509  1.00  0.00     0.010 A 
ATOM     37  C   UNL     1       0.838  -1.117  10.342  1.00  0.00    -0.014 A 
BRANCH  37  38
ATOM     38  C   UNL     1       0.299  -0.025  11.152  1.00  0.00     0.031 A 
ATOM     39  C   UNL     1       0.891   1.315  10.878  1.00  0.00     0.074 A 
ATOM     40  C   UNL     1      -0.800  -0.131  11.926  1.00  0.00     0.049 A 
ATOM     41  N   UNL     1       1.617   2.038  11.664  1.00  0.00    -0.248 NA
ATOM     42  C   UNL     1       0.756   1.869   9.521  1.00  0.00     0.031 C 
ATOM     43  C   UNL     1      -1.694  -1.283  12.077  1.00  0.00     0.029 A 
ATOM     44  N   UNL     1      -1.421   0.832  12.664  1.00  0.00    -0.354 N 
ATOM     45  C   UNL     1       1.845   3.235  10.991  1.00  0.00     0.074 A 
ATOM     46  C   UNL     1       1.455   3.001   9.626  1.00  0.00     0.031 C 
ATOM     47  C   UNL     1      -2.846  -0.886  12.662  1.00  0.00     0.029 A 
ATOM     48  C   UNL     1      -2.705   0.497  13.079  1.00  0.00     0.049 A 
ATOM     49  H   UNL     1      -0.996   1.692  12.883  1.00  0.00     0.167 HD
ATOM     50  C   UNL     1       2.126   4.387  11.664  1.00  0.00     0.034 A 
ATOM     51  C   UNL     1      -3.598   1.304  13.708  1.00  0.00     0.034 A 
ATOM     52  C   UNL     1       2.518   4.112  13.027  1.00  0.00     0.049 A 
ATOM     53  C   UNL     1      -2.800   2.360  14.380  1.00  0.00     0.074 A 
ATOM     54  C   UNL     1       3.517   3.359  13.616  1.00  0.00     0.029 A 
ATOM     55  N   UNL     1       1.593   4.337  14.021  1.00  0.00    -0.354 N 
ATOM     56  N   UNL     1      -1.936   2.116  15.329  1.00  0.00    -0.248 NA
ATOM     57  C   UNL     1      -2.631   3.633  13.698  1.00  0.00     0.031 C 
ATOM     58  C   UNL     1       2.893   2.748  14.744  1.00  0.00     0.029 A 
ATOM     59  C   UNL     1       1.581   3.220  14.818  1.00  0.00     0.049 A 
ATOM     60  H   UNL     1       1.044   5.146  14.138  1.00  0.00     0.167 HD
ATOM     61  C   UNL     1      -0.882   2.983  15.083  1.00  0.00     0.074 A 
ATOM     62  C   UNL     1      -1.412   3.962  14.136  1.00  0.00     0.031 C 
ATOM     63  C   UNL     1       0.396   2.675  15.451  1.00  0.00     0.034 A 
BRANCH  50  64
ATOM     64  C   UNL     1       1.722   5.776  11.220  1.00  0.00     0.023 A 
ATOM     65  C   UNL     1       2.139   6.864  12.013  1.00  0.00     0.031 A 
ATOM     66  C   UNL     1       0.734   6.067  10.252  1.00  0.00     0.131 A 
ATOM     67  C   UNL     1       1.530   8.126  11.892  1.00  0.00     0.055 A 
ATOM     68  C   UNL     1       0.181   7.341  10.088  1.00  0.00     0.041 A 
ATOM     69  F   UNL     1       0.177   5.126   9.482  1.00  0.00    -0.206 F 
ATOM     70  C   UNL     1       0.555   8.373  10.930  1.00  0.00     0.022 A 
BRANCH  67  71
ATOM     71  S   UNL     1       1.915   9.395  13.127  1.00  0.00     0.124 S 
ATOM     72  O   UNL     1       1.540   8.722  14.366  1.00  0.00    -0.237 OA
ATOM     73  O   UNL     1       3.344   9.601  12.913  1.00  0.00    -0.237 OA
ATOM     74  O   UNL     1       1.061  10.515  12.741  1.00  0.00    -0.744 OA
ENDBRANCH  67  71
ENDBRANCH  50  64
BRANCH  51  75
ATOM     75  C   UNL     1      -5.076   1.359  13.530  1.00  0.00     0.023 A 
ATOM     76  C   UNL     1      -5.905   2.098  14.401  1.00  0.00     0.031 A 
ATOM     77  C   UNL     1      -5.678   0.886  12.341  1.00  0.00     0.131 A 
ATOM     78  C   UNL     1      -7.257   2.345  14.067  1.00  0.00     0.055 A 
ATOM     79  C   UNL     1      -7.018   1.124  12.021  1.00  0.00     0.041 A 
ATOM     80  F   UNL     1      -4.963   0.248  11.401  1.00  0.00    -0.206 F 
ATOM     81  C   UNL     1      -7.811   1.868  12.878  1.00  0.00     0.022 A 
BRANCH  78  82
ATOM     82  S   UNL     1      -8.286   3.415  15.122  1.00  0.00     0.124 S 
ATOM     83  O   UNL     1      -8.670   2.505  16.195  1.00  0.00    -0.237 OA
ATOM     84  O   UNL     1      -7.367   4.489  15.480  1.00  0.00    -0.237 OA
ATOM     85  O   UNL     1      -9.377   3.816  14.232  1.00  0.00    -0.744 OA
ENDBRANCH  78  82
ENDBRANCH  51  75
BRANCH  63  86
ATOM     86  C   UNL     1       0.629   1.542  16.425  1.00  0.00     0.023 A 
ATOM     87  C   UNL     1       0.387   0.177  16.151  1.00  0.00     0.031 A 
ATOM     88  C   UNL     1       1.314   1.865  17.610  1.00  0.00     0.131 A 
ATOM     89  C   UNL     1       0.840  -0.808  17.054  1.00  0.00     0.055 A 
ATOM     90  C   UNL     1       1.778   0.887  18.488  1.00  0.00     0.041 A 
ATOM     91  F   UNL     1       1.601   3.145  17.901  1.00  0.00    -0.206 F 
ATOM     92  C   UNL     1       1.544  -0.454  18.211  1.00  0.00     0.022 A 
BRANCH  89  93
ATOM     93  S   UNL     1       0.574  -2.579  16.708  1.00  0.00     0.124 S 
ATOM     94  O   UNL     1      -0.879  -2.706  16.735  1.00  0.00    -0.237 OA
ATOM     95  O   UNL     1       1.210  -2.758  15.406  1.00  0.00    -0.237 OA
ATOM     96  O   UNL     1       1.262  -3.251  17.812  1.00  0.00    -0.744 OA
ENDBRANCH  89  93
ENDBRANCH  63  86
ENDBRANCH  37  38
ENDBRANCH  29  32
ENDBRANCH  27  28
ENDBRANCH   1  27
TORSDOF 15
