REMARK SMILES Cc1onc(-c2cccc(Br)c2)c1C(=O)NCCCNC(=O)c1ccc(-c2c3nc(c(-c4cc(S(=O)(=O)[O-])ccc4F)c4ccc([nH]4)c(-c4cc(S(=O)(=O)[O-])ccc4F)c4nc(c(-c5cc(S(=O)(=O)[O-])ccc5F)c5ccc2[nH]5)C=C4)C=C3)cc1
REMARK SMILES IDX 19 1 18 2 17 3 16 4 14 5 15 6 13 8 1 9 2 10 3 11 4 12 5 13
REMARK SMILES IDX 6 14 7 15 12 16 8 17 10 18 9 19 11 20 20 21 21 22 22 24
REMARK SMILES IDX 23 25 24 26 85 27 25 28 84 29 26 30 27 31 28 32 78 33 29 34
REMARK SMILES IDX 83 35 77 36 79 37 30 38 82 39 76 40 75 41 31 43 63 44 43 45
REMARK SMILES IDX 62 46 44 47 47 48 61 49 80 50 45 51 46 52 60 54 81 55 48 56
REMARK SMILES IDX 32 57 33 58 41 59 34 60 40 61 42 62 39 63 35 64 36 65 37 66
REMARK SMILES IDX 38 67 64 68 65 69 73 70 66 71 72 72 74 73 71 74 67 75 68 76
REMARK SMILES IDX 69 77 70 78 49 79 50 80 58 81 51 82 57 83 59 84 56 85 52 86
REMARK SMILES IDX 53 87 54 88 55 89
REMARK H PARENT 16 7 20 23 79 42 47 53
REMARK Flexibility Score: inf
ROOT
ATOM      1  C   UNL     1       4.388  -3.548   1.017  1.00  0.00     0.118 C 
ENDROOT
BRANCH   1   2
ATOM      2  C   UNL     1       3.745  -2.209   0.661  1.00  0.00     0.042 C 
BRANCH   2   3
ATOM      3  C   UNL     1       2.837  -2.265  -0.566  1.00  0.00     0.118 C 
BRANCH   3   4
ATOM      4  N   UNL     1       1.580  -2.896  -0.245  1.00  0.00    -0.352 N 
ATOM      5  C   UNL     1       0.319  -2.458   0.034  1.00  0.00     0.257 C 
ATOM      6  O   UNL     1      -0.471  -3.387   0.242  1.00  0.00    -0.269 OA
ATOM      7  H   UNL     1       1.649  -3.877  -0.222  1.00  0.00     0.163 HD
BRANCH   5   8
ATOM      8  C   UNL     1      -0.133  -1.071   0.052  1.00  0.00     0.110 A 
ATOM      9  C   UNL     1       1.871   0.704   0.290  1.00  0.00     0.092 C 
ATOM     10  C   UNL     1       0.510   0.159   0.130  1.00  0.00     0.147 A 
ATOM     11  O   UNL     1      -0.411   1.159   0.054  1.00  0.00    -0.360 OA
ATOM     12  N   UNL     1      -1.671   0.646  -0.016  1.00  0.00    -0.079 NA
ATOM     13  C   UNL     1      -1.532  -0.684   0.029  1.00  0.00     0.126 A 
BRANCH  13  14
ATOM     14  C   UNL     1      -2.735  -1.511   0.033  1.00  0.00     0.006 A 
ATOM     15  C   UNL     1      -3.017  -2.356   1.116  1.00  0.00     0.010 A 
ATOM     16  C   UNL     1      -3.638  -1.435  -1.034  1.00  0.00     0.026 A 
ATOM     17  C   UNL     1      -4.166  -3.148   1.114  1.00  0.00     0.002 A 
ATOM     18  C   UNL     1      -4.788  -2.224  -1.025  1.00  0.00     0.018 A 
ATOM     19  C   UNL     1      -5.053  -3.085   0.040  1.00  0.00     0.016 A 
ATOM     20  Br  UNL     1      -6.001  -2.125  -2.472  1.00  0.00    -0.051 Br
ENDBRANCH  13  14
ENDBRANCH   5   8
ENDBRANCH   3   4
ENDBRANCH   2   3
ENDBRANCH   1   2
BRANCH   1  21
ATOM     21  N   UNL     1       5.358  -3.965   0.018  1.00  0.00    -0.352 N 
ATOM     22  C   UNL     1       6.711  -4.168   0.131  1.00  0.00     0.251 C 
ATOM     23  H   UNL     1       4.987  -4.127  -0.880  1.00  0.00     0.163 HD
ATOM     24  O   UNL     1       7.383  -4.253  -0.896  1.00  0.00    -0.269 OA
BRANCH  22  25
ATOM     25  C   UNL     1       7.360  -4.275   1.457  1.00  0.00     0.039 A 
ATOM     26  C   UNL     1       8.632  -3.720   1.631  1.00  0.00     0.014 A 
ATOM     27  C   UNL     1       6.753  -4.965   2.510  1.00  0.00     0.014 A 
ATOM     28  C   UNL     1       9.271  -3.815   2.870  1.00  0.00     0.010 A 
ATOM     29  C   UNL     1       7.359  -4.995   3.765  1.00  0.00     0.010 A 
ATOM     30  C   UNL     1       8.627  -4.428   3.957  1.00  0.00    -0.014 A 
BRANCH  30  31
ATOM     31  C   UNL     1       9.272  -4.497   5.295  1.00  0.00     0.031 A 
ATOM     32  C   UNL     1       9.627  -5.832   5.895  1.00  0.00     0.074 A 
ATOM     33  C   UNL     1       9.482  -3.363   5.991  1.00  0.00     0.049 A 
ATOM     34  N   UNL     1      10.119  -6.105   7.077  1.00  0.00    -0.248 NA
ATOM     35  C   UNL     1       9.363  -7.018   5.066  1.00  0.00     0.031 C 
ATOM     36  C   UNL     1       9.146  -2.014   5.526  1.00  0.00     0.029 A 
ATOM     37  N   UNL     1      10.018  -3.158   7.237  1.00  0.00    -0.354 N 
ATOM     38  C   UNL     1      10.209  -7.492   7.140  1.00  0.00     0.074 A 
ATOM     39  C   UNL     1       9.664  -8.002   5.900  1.00  0.00     0.031 C 
ATOM     40  C   UNL     1       9.508  -1.124   6.463  1.00  0.00     0.029 A 
ATOM     41  C   UNL     1      10.054  -1.835   7.614  1.00  0.00     0.049 A 
ATOM     42  H   UNL     1      10.345  -3.890   7.809  1.00  0.00     0.167 HD
ATOM     43  C   UNL     1      10.718  -8.265   8.132  1.00  0.00     0.034 A 
ATOM     44  C   UNL     1      10.469  -1.262   8.761  1.00  0.00     0.034 A 
ATOM     45  C   UNL     1      11.271  -7.735   9.355  1.00  0.00     0.049 A 
ATOM     46  C   UNL     1      11.013  -2.143   9.857  1.00  0.00     0.074 A 
ATOM     47  C   UNL     1      11.865  -8.419  10.401  1.00  0.00     0.029 A 
ATOM     48  N   UNL     1      11.291  -6.389   9.702  1.00  0.00    -0.354 N 
ATOM     49  N   UNL     1      11.135  -3.451   9.882  1.00  0.00    -0.248 NA
ATOM     50  C   UNL     1      11.484  -1.470  11.073  1.00  0.00     0.031 C 
ATOM     51  C   UNL     1      12.180  -7.499  11.407  1.00  0.00     0.029 A 
ATOM     52  C   UNL     1      11.858  -6.228  10.958  1.00  0.00     0.049 A 
ATOM     53  H   UNL     1      10.953  -5.656   9.138  1.00  0.00     0.167 HD
ATOM     54  C   UNL     1      11.728  -3.752  11.105  1.00  0.00     0.074 A 
ATOM     55  C   UNL     1      11.950  -2.489  11.779  1.00  0.00     0.031 C 
ATOM     56  C   UNL     1      12.062  -4.962  11.623  1.00  0.00     0.034 A 
BRANCH  43  57
ATOM     57  C   UNL     1      10.671  -9.764   7.942  1.00  0.00     0.023 A 
ATOM     58  C   UNL     1      11.357 -10.399   6.892  1.00  0.00     0.031 A 
ATOM     59  C   UNL     1       9.908 -10.569   8.807  1.00  0.00     0.131 A 
ATOM     60  C   UNL     1      11.203 -11.779   6.685  1.00  0.00     0.055 A 
ATOM     61  C   UNL     1       9.827 -11.954   8.648  1.00  0.00     0.041 A 
ATOM     62  F   UNL     1       9.213 -10.020   9.816  1.00  0.00    -0.206 F 
ATOM     63  C   UNL     1      10.464 -12.565   7.572  1.00  0.00     0.022 A 
BRANCH  60  64
ATOM     64  S   UNL     1      11.859 -12.504   5.157  1.00  0.00     0.124 S 
ATOM     65  O   UNL     1      11.148 -11.735   4.138  1.00  0.00    -0.237 OA
ATOM     66  O   UNL     1      13.289 -12.244   5.273  1.00  0.00    -0.237 OA
ATOM     67  O   UNL     1      11.470 -13.910   5.250  1.00  0.00    -0.744 OA
ENDBRANCH  60  64
ENDBRANCH  43  57
BRANCH  44  68
ATOM     68  C   UNL     1      10.386   0.216   8.940  1.00  0.00     0.023 A 
ATOM     69  C   UNL     1      11.546   0.992   9.090  1.00  0.00     0.031 A 
ATOM     70  C   UNL     1       9.143   0.871   9.001  1.00  0.00     0.131 A 
ATOM     71  C   UNL     1      11.441   2.368   9.340  1.00  0.00     0.055 A 
ATOM     72  C   UNL     1       9.044   2.250   9.197  1.00  0.00     0.041 A 
ATOM     73  F   UNL     1       8.002   0.178   8.857  1.00  0.00    -0.206 F 
ATOM     74  C   UNL     1      10.198   3.005   9.381  1.00  0.00     0.022 A 
BRANCH  71  75
ATOM     75  S   UNL     1      12.953   3.304   9.696  1.00  0.00     0.124 S 
ATOM     76  O   UNL     1      13.477   2.592  10.855  1.00  0.00    -0.237 OA
ATOM     77  O   UNL     1      13.703   3.150   8.453  1.00  0.00    -0.237 OA
ATOM     78  O   UNL     1      12.462   4.655   9.961  1.00  0.00    -0.744 OA
ENDBRANCH  71  75
ENDBRANCH  44  68
BRANCH  56  79
ATOM     79  C   UNL     1      12.748  -4.965  12.967  1.00  0.00     0.023 A 
ATOM     80  C   UNL     1      12.086  -4.553  14.137  1.00  0.00     0.031 A 
ATOM     81  C   UNL     1      14.090  -5.372  13.074  1.00  0.00     0.131 A 
ATOM     82  C   UNL     1      12.784  -4.503  15.353  1.00  0.00     0.055 A 
ATOM     83  C   UNL     1      14.760  -5.380  14.298  1.00  0.00     0.041 A 
ATOM     84  F   UNL     1      14.772  -5.771  11.989  1.00  0.00    -0.206 F 
ATOM     85  C   UNL     1      14.112  -4.930  15.444  1.00  0.00     0.022 A 
BRANCH  82  86
ATOM     86  S   UNL     1      11.963  -3.777  16.799  1.00  0.00     0.124 S 
ATOM     87  O   UNL     1      11.642  -2.436  16.324  1.00  0.00    -0.237 OA
ATOM     88  O   UNL     1      10.828  -4.673  16.994  1.00  0.00    -0.237 OA
ATOM     89  O   UNL     1      12.986  -3.838  17.841  1.00  0.00    -0.744 OA
ENDBRANCH  82  86
ENDBRANCH  56  79
ENDBRANCH  30  31
ENDBRANCH  22  25
ENDBRANCH   1  21
TORSDOF 14
