REMARK SMILES Cc1ccc(Cl)cc1NC(=O)N[C@@](C)(C(=O)NCCCNC(=O)c1ccc(-c2c3nc(c(-c4cc(S(=O)(=O)[O-])ccc4F)c4ccc([nH]4)c(-c4cc(S(=O)(=O)[O-])ccc4F)c4nc(c(-c5cc(S(=O)(=O)[O-])ccc5F)c5ccc2[nH]5)C=C4)C=C3)cc1)C(F)(F)F
REMARK SMILES IDX 19 1 18 2 17 3 15 4 16 5 13 7 14 8 12 9 9 10 10 11 11 13
REMARK SMILES IDX 8 15 1 16 2 17 3 18 4 19 7 20 5 21 6 22 87 23 88 24 89 25
REMARK SMILES IDX 90 26 20 27 21 28 22 29 23 31 24 32 25 33 86 34 26 35 85 36
REMARK SMILES IDX 27 37 28 38 29 39 79 40 30 41 84 42 78 43 80 44 31 45 83 46
REMARK SMILES IDX 77 47 76 48 32 50 64 51 44 52 63 53 45 54 48 55 62 56 81 57
REMARK SMILES IDX 46 58 47 59 61 61 82 62 49 63 33 64 34 65 42 66 35 67 41 68
REMARK SMILES IDX 43 69 40 70 36 71 37 72 38 73 39 74 65 75 66 76 74 77 67 78
REMARK SMILES IDX 73 79 75 80 72 81 68 82 69 83 70 84 71 85 50 86 51 87 59 88
REMARK SMILES IDX 52 89 58 90 60 91 57 92 53 93 54 94 55 95 56 96
REMARK H PARENT 17 6 9 12 12 14 21 30 80 49 48 60
REMARK Flexibility Score: inf
ROOT
ATOM      1  C   UNL     1      -2.955   6.234  -0.790  1.00  0.00     0.042 C 
ENDROOT
BRANCH   1   2
ATOM      2  C   UNL     1      -3.170   4.909  -0.063  1.00  0.00     0.117 C 
BRANCH   2   3
ATOM      3  N   UNL     1      -3.077   3.783  -0.975  1.00  0.00    -0.354 N 
ATOM      4  C   UNL     1      -1.855   3.346  -1.420  1.00  0.00     0.255 C 
ATOM      5  O   UNL     1      -1.423   3.837  -2.462  1.00  0.00    -0.272 OA
ATOM      6  H   UNL     1      -3.897   3.330  -1.277  1.00  0.00     0.163 HD
BRANCH   4   7
ATOM      7  C   UNL     1      -1.039   2.378  -0.521  1.00  0.00     0.213 C 
ATOM      8  C   UNL     1      -1.946   1.769   0.564  1.00  0.00     0.056 C 
BRANCH   7   9
ATOM      9  N   UNL     1       0.041   3.211   0.099  1.00  0.00    -0.316 N 
ATOM     10  N   UNL     1       1.883   1.932   0.947  1.00  0.00    -0.308 N 
ATOM     11  C   UNL     1       1.215   3.069   0.716  1.00  0.00     0.320 C 
ATOM     12  H   UNL     1       2.835   2.099   1.137  1.00  0.00     0.171 HD
ATOM     13  O   UNL     1       1.800   4.121   0.999  1.00  0.00    -0.248 OA
ATOM     14  H   UNL     1      -0.189   4.166   0.030  1.00  0.00     0.166 HD
BRANCH  10  15
ATOM     15  C   UNL     1       1.575   0.571   0.988  1.00  0.00     0.047 A 
ATOM     16  C   UNL     1       3.826   0.007  -0.109  1.00  0.00     0.046 C 
ATOM     17  C   UNL     1       2.462  -0.360   0.412  1.00  0.00    -0.027 A 
ATOM     18  C   UNL     1       2.072  -1.709   0.322  1.00  0.00     0.007 A 
ATOM     19  C   UNL     1       0.854  -2.136   0.847  1.00  0.00     0.021 A 
ATOM     20  C   UNL     1       0.437   0.107   1.644  1.00  0.00     0.047 A 
ATOM     21  C   UNL     1       0.062  -1.234   1.544  1.00  0.00     0.043 A 
ATOM     22  Cl  UNL     1      -1.410  -1.767   2.260  1.00  0.00    -0.084 Cl
ENDBRANCH  10  15
ENDBRANCH   7   9
BRANCH   7  23
ATOM     23  C   UNL     1      -0.620   1.343  -1.597  1.00  0.00     0.420 C 
ATOM     24  F   UNL     1       0.302   1.815  -2.464  1.00  0.00    -0.168 F 
ATOM     25  F   UNL     1      -0.109   0.212  -1.073  1.00  0.00    -0.168 F 
ATOM     26  F   UNL     1      -1.697   0.932  -2.320  1.00  0.00    -0.168 F 
ENDBRANCH   7  23
ENDBRANCH   4   7
ENDBRANCH   2   3
ENDBRANCH   1   2
BRANCH   1  27
ATOM     27  C   UNL     1      -3.802   6.394  -2.049  1.00  0.00     0.118 C 
BRANCH  27  28
ATOM     28  N   UNL     1      -5.234   6.307  -1.781  1.00  0.00    -0.352 N 
ATOM     29  C   UNL     1      -6.207   7.240  -2.049  1.00  0.00     0.251 C 
ATOM     30  H   UNL     1      -5.542   5.475  -1.353  1.00  0.00     0.163 HD
ATOM     31  O   UNL     1      -7.344   7.097  -1.614  1.00  0.00    -0.269 OA
BRANCH  29  32
ATOM     32  C   UNL     1      -5.835   8.428  -2.839  1.00  0.00     0.039 A 
ATOM     33  C   UNL     1      -6.067   9.700  -2.315  1.00  0.00     0.014 A 
ATOM     34  C   UNL     1      -5.163   8.263  -4.053  1.00  0.00     0.014 A 
ATOM     35  C   UNL     1      -5.555  10.816  -2.979  1.00  0.00     0.010 A 
ATOM     36  C   UNL     1      -4.582   9.366  -4.662  1.00  0.00     0.010 A 
ATOM     37  C   UNL     1      -4.774  10.654  -4.134  1.00  0.00    -0.014 A 
BRANCH  37  38
ATOM     38  C   UNL     1      -4.174  11.806  -4.855  1.00  0.00     0.031 A 
ATOM     39  C   UNL     1      -4.577  12.052  -6.284  1.00  0.00     0.074 A 
ATOM     40  C   UNL     1      -3.207  12.546  -4.279  1.00  0.00     0.049 A 
ATOM     41  N   UNL     1      -4.037  12.837  -7.177  1.00  0.00    -0.248 NA
ATOM     42  C   UNL     1      -5.714  11.262  -6.784  1.00  0.00     0.031 C 
ATOM     43  C   UNL     1      -2.715  12.385  -2.909  1.00  0.00     0.029 A 
ATOM     44  N   UNL     1      -2.444  13.570  -4.784  1.00  0.00    -0.354 N 
ATOM     45  C   UNL     1      -4.737  12.603  -8.355  1.00  0.00     0.074 A 
ATOM     46  C   UNL     1      -5.704  11.564  -8.072  1.00  0.00     0.031 C 
ATOM     47  C   UNL     1      -1.742  13.283  -2.682  1.00  0.00     0.029 A 
ATOM     48  C   UNL     1      -1.499  14.045  -3.903  1.00  0.00     0.049 A 
ATOM     49  H   UNL     1      -2.561  13.930  -5.693  1.00  0.00     0.167 HD
ATOM     50  C   UNL     1      -4.597  13.213  -9.558  1.00  0.00     0.034 A 
ATOM     51  C   UNL     1      -0.533  14.971  -4.072  1.00  0.00     0.034 A 
ATOM     52  C   UNL     1      -3.656  14.276  -9.803  1.00  0.00     0.049 A 
ATOM     53  C   UNL     1      -0.402  15.646  -5.416  1.00  0.00     0.074 A 
ATOM     54  C   UNL     1      -3.463  15.007 -10.961  1.00  0.00     0.029 A 
ATOM     55  N   UNL     1      -2.754  14.765  -8.867  1.00  0.00    -0.354 N 
ATOM     56  N   UNL     1      -1.086  15.431  -6.516  1.00  0.00    -0.248 NA
ATOM     57  C   UNL     1       0.622  16.692  -5.541  1.00  0.00     0.031 C 
ATOM     58  C   UNL     1      -2.412  15.902 -10.743  1.00  0.00     0.029 A 
ATOM     59  C   UNL     1      -1.995  15.779  -9.427  1.00  0.00     0.049 A 
ATOM     60  H   UNL     1      -2.666  14.439  -7.942  1.00  0.00     0.167 HD
ATOM     61  C   UNL     1      -0.604  16.346  -7.448  1.00  0.00     0.074 A 
ATOM     62  C   UNL     1       0.430  17.111  -6.783  1.00  0.00     0.031 C 
ATOM     63  C   UNL     1      -0.986  16.543  -8.735  1.00  0.00     0.034 A 
BRANCH  50  64
ATOM     64  C   UNL     1      -5.465  12.724 -10.691  1.00  0.00     0.023 A 
ATOM     65  C   UNL     1      -6.867  12.818 -10.642  1.00  0.00     0.031 A 
ATOM     66  C   UNL     1      -4.886  12.122 -11.822  1.00  0.00     0.131 A 
ATOM     67  C   UNL     1      -7.644  12.244 -11.659  1.00  0.00     0.055 A 
ATOM     68  C   UNL     1      -5.662  11.631 -12.873  1.00  0.00     0.041 A 
ATOM     69  F   UNL     1      -3.554  11.985 -11.917  1.00  0.00    -0.206 F 
ATOM     70  C   UNL     1      -7.051  11.675 -12.787  1.00  0.00     0.022 A 
BRANCH  67  71
ATOM     71  S   UNL     1      -9.436  12.122 -11.412  1.00  0.00     0.124 S 
ATOM     72  O   UNL     1      -9.511  11.293 -10.211  1.00  0.00    -0.237 OA
ATOM     73  O   UNL     1      -9.829  13.517 -11.249  1.00  0.00    -0.237 OA
ATOM     74  O   UNL     1      -9.908  11.479 -12.636  1.00  0.00    -0.744 OA
ENDBRANCH  67  71
ENDBRANCH  50  64
BRANCH  51  75
ATOM     75  C   UNL     1       0.398  15.310  -2.957  1.00  0.00     0.023 A 
ATOM     76  C   UNL     1       0.406  16.595  -2.389  1.00  0.00     0.031 A 
ATOM     77  C   UNL     1       1.328  14.373  -2.473  1.00  0.00     0.131 A 
ATOM     78  C   UNL     1       1.357  16.924  -1.411  1.00  0.00     0.055 A 
ATOM     79  C   UNL     1       2.237  14.688  -1.461  1.00  0.00     0.041 A 
ATOM     80  F   UNL     1       1.361  13.128  -2.975  1.00  0.00    -0.206 F 
ATOM     81  C   UNL     1       2.264  15.976  -0.934  1.00  0.00     0.022 A 
BRANCH  78  82
ATOM     82  S   UNL     1       1.451  18.642  -0.835  1.00  0.00     0.124 S 
ATOM     83  O   UNL     1       1.671  19.361  -2.085  1.00  0.00    -0.237 OA
ATOM     84  O   UNL     1       0.145  18.823  -0.211  1.00  0.00    -0.237 OA
ATOM     85  O   UNL     1       2.584  18.630   0.086  1.00  0.00    -0.744 OA
ENDBRANCH  78  82
ENDBRANCH  51  75
BRANCH  63  86
ATOM     86  C   UNL     1      -0.348  17.687  -9.479  1.00  0.00     0.023 A 
ATOM     87  C   UNL     1       0.991  17.649  -9.900  1.00  0.00     0.031 A 
ATOM     88  C   UNL     1      -1.118  18.819  -9.803  1.00  0.00     0.131 A 
ATOM     89  C   UNL     1       1.530  18.741 -10.597  1.00  0.00     0.055 A 
ATOM     90  C   UNL     1      -0.590  19.880 -10.537  1.00  0.00     0.041 A 
ATOM     91  F   UNL     1      -2.404  18.900  -9.424  1.00  0.00    -0.206 F 
ATOM     92  C   UNL     1       0.744  19.847 -10.933  1.00  0.00     0.022 A 
BRANCH  89  93
ATOM     93  S   UNL     1       3.292  18.720 -11.027  1.00  0.00     0.124 S 
ATOM     94  O   UNL     1       3.924  18.674  -9.712  1.00  0.00    -0.237 OA
ATOM     95  O   UNL     1       3.405  17.508 -11.831  1.00  0.00    -0.237 OA
ATOM     96  O   UNL     1       3.481  19.969 -11.762  1.00  0.00    -0.744 OA
ENDBRANCH  89  93
ENDBRANCH  63  86
ENDBRANCH  37  38
ENDBRANCH  29  32
ENDBRANCH  27  28
ENDBRANCH   1  27
TORSDOF 16
