REMARK SMILES O=Cc1ccc(-c2ccc(C(=O)NCCCNC(=O)c3ccc(-c4c5nc(c(-c6cc(S(=O)(=O)[O-])ccc6F)c6ccc([nH]6)c(-c6cc(S(=O)(=O)[O-])ccc6F)c6nc(c(-c7cc(S(=O)(=O)[O-])ccc7F)c7ccc4[nH]7)C=C6)C=C5)cc3)cn2)cc1
REMARK SMILES IDX 15 1 14 2 13 3 11 4 12 5 10 7 7 8 8 9 84 10 9 11 83 12 6 13
REMARK SMILES IDX 3 14 4 15 86 16 5 17 85 18 2 19 1 20 16 21 17 22 18 23 19 25
REMARK SMILES IDX 20 26 21 27 82 28 22 29 81 30 23 31 24 32 25 33 75 34 26 35
REMARK SMILES IDX 80 36 74 37 76 38 27 39 79 40 73 41 72 42 28 44 60 45 40 46
REMARK SMILES IDX 59 47 41 48 44 49 58 50 77 51 42 52 43 53 57 55 78 56 45 57
REMARK SMILES IDX 29 58 30 59 38 60 31 61 37 62 39 63 36 64 32 65 33 66 34 67
REMARK SMILES IDX 35 68 61 69 62 70 70 71 63 72 69 73 71 74 68 75 64 76 65 77
REMARK SMILES IDX 66 78 67 79 46 80 47 81 55 82 48 83 54 84 56 85 53 86 49 87
REMARK SMILES IDX 50 88 51 89 52 90
REMARK H PARENT 13 6 17 24 76 43 44 54
REMARK Flexibility Score: inf
ROOT
ATOM      1  C   UNL     1       8.661   4.545   7.800  1.00  0.00     0.042 C 
ENDROOT
BRANCH   1   2
ATOM      2  C   UNL     1       7.556   5.553   7.483  1.00  0.00     0.118 C 
BRANCH   2   3
ATOM      3  N   UNL     1       7.961   6.474   6.434  1.00  0.00    -0.352 N 
ATOM      4  C   UNL     1       7.681   6.526   5.093  1.00  0.00     0.252 C 
ATOM      5  O   UNL     1       8.094   7.497   4.460  1.00  0.00    -0.269 OA
ATOM      6  H   UNL     1       8.548   7.199   6.747  1.00  0.00     0.163 HD
BRANCH   4   7
ATOM      7  C   UNL     1       6.879   5.502   4.381  1.00  0.00     0.058 A 
ATOM      8  C   UNL     1       5.306   3.801   2.867  1.00  0.00     0.070 A 
ATOM      9  C   UNL     1       5.942   3.313   4.005  1.00  0.00     0.030 A 
ATOM     10  N   UNL     1       5.454   5.077   2.446  1.00  0.00    -0.255 NA
ATOM     11  C   UNL     1       6.754   4.167   4.750  1.00  0.00     0.018 A 
ATOM     12  C   UNL     1       6.231   5.892   3.211  1.00  0.00     0.125 A 
BRANCH   8  13
ATOM     13  C   UNL     1       4.469   2.928   2.044  1.00  0.00     0.000 A 
ATOM     14  C   UNL     1       2.965   1.093   0.545  1.00  0.00     0.014 A 
ATOM     15  C   UNL     1       4.168   1.584   0.034  1.00  0.00     0.012 A 
ATOM     16  C   UNL     1       2.490   1.532   1.783  1.00  0.00     0.012 A 
ATOM     17  C   UNL     1       4.909   2.505   0.779  1.00  0.00     0.011 A 
ATOM     18  C   UNL     1       3.242   2.443   2.528  1.00  0.00     0.011 A 
BRANCH  14  19
ATOM     19  C   UNL     1       2.206   0.090  -0.227  1.00  0.00     0.260 C 
ATOM     20  O   UNL     1       1.114  -0.328   0.139  1.00  0.00    -0.298 OA
ENDBRANCH  14  19
ENDBRANCH   8  13
ENDBRANCH   4   7
ENDBRANCH   2   3
ENDBRANCH   1   2
BRANCH   1  21
ATOM     21  C   UNL     1       9.803   5.134   8.625  1.00  0.00     0.118 C 
BRANCH  21  22
ATOM     22  N   UNL     1       9.379   5.454   9.980  1.00  0.00    -0.352 N 
ATOM     23  C   UNL     1       9.840   4.987  11.185  1.00  0.00     0.251 C 
ATOM     24  H   UNL     1       8.646   6.109  10.042  1.00  0.00     0.163 HD
ATOM     25  O   UNL     1       9.171   5.191  12.194  1.00  0.00    -0.269 OA
BRANCH  23  26
ATOM     26  C   UNL     1      11.116   4.240  11.276  1.00  0.00     0.039 A 
ATOM     27  C   UNL     1      11.207   3.169  12.170  1.00  0.00     0.014 A 
ATOM     28  C   UNL     1      12.237   4.622  10.533  1.00  0.00     0.014 A 
ATOM     29  C   UNL     1      12.402   2.454  12.283  1.00  0.00     0.010 A 
ATOM     30  C   UNL     1      13.405   3.864  10.594  1.00  0.00     0.010 A 
ATOM     31  C   UNL     1      13.503   2.777  11.476  1.00  0.00    -0.014 A 
BRANCH  31  32
ATOM     32  C   UNL     1      14.766   1.997  11.546  1.00  0.00     0.031 A 
ATOM     33  C   UNL     1      16.039   2.657  12.004  1.00  0.00     0.074 A 
ATOM     34  C   UNL     1      14.780   0.717  11.125  1.00  0.00     0.049 A 
ATOM     35  N   UNL     1      17.254   2.174  12.049  1.00  0.00    -0.248 NA
ATOM     36  C   UNL     1      15.933   4.059  12.435  1.00  0.00     0.031 C 
ATOM     37  C   UNL     1      13.619  -0.014  10.612  1.00  0.00     0.029 A 
ATOM     38  N   UNL     1      15.805  -0.191  11.043  1.00  0.00    -0.354 N 
ATOM     39  C   UNL     1      18.062   3.218  12.489  1.00  0.00     0.074 A 
ATOM     40  C   UNL     1      17.202   4.373  12.643  1.00  0.00     0.031 C 
ATOM     41  C   UNL     1      13.995  -1.258  10.278  1.00  0.00     0.029 A 
ATOM     42  C   UNL     1      15.429  -1.402  10.510  1.00  0.00     0.049 A 
ATOM     43  H   UNL     1      16.724   0.006  11.337  1.00  0.00     0.167 HD
ATOM     44  C   UNL     1      19.392   3.207  12.757  1.00  0.00     0.034 A 
ATOM     45  C   UNL     1      16.157  -2.498  10.222  1.00  0.00     0.034 A 
ATOM     46  C   UNL     1      20.226   2.037  12.613  1.00  0.00     0.049 A 
ATOM     47  C   UNL     1      17.632  -2.493  10.531  1.00  0.00     0.074 A 
ATOM     48  C   UNL     1      21.565   1.887  12.931  1.00  0.00     0.029 A 
ATOM     49  N   UNL     1      19.805   0.818  12.094  1.00  0.00    -0.354 N 
ATOM     50  N   UNL     1      18.369  -1.520  11.015  1.00  0.00    -0.248 NA
ATOM     51  C   UNL     1      18.368  -3.736  10.271  1.00  0.00     0.031 C 
ATOM     52  C   UNL     1      21.970   0.606  12.539  1.00  0.00     0.029 A 
ATOM     53  C   UNL     1      20.866  -0.075  12.049  1.00  0.00     0.049 A 
ATOM     54  H   UNL     1      18.887   0.617  11.801  1.00  0.00     0.167 HD
ATOM     55  C   UNL     1      19.653  -2.043  11.139  1.00  0.00     0.074 A 
ATOM     56  C   UNL     1      19.583  -3.421  10.695  1.00  0.00     0.031 C 
ATOM     57  C   UNL     1      20.786  -1.441  11.585  1.00  0.00     0.034 A 
BRANCH  44  58
ATOM     58  C   UNL     1      20.025   4.508  13.198  1.00  0.00     0.023 A 
ATOM     59  C   UNL     1      19.627   5.167  14.375  1.00  0.00     0.031 A 
ATOM     60  C   UNL     1      21.015   5.121  12.409  1.00  0.00     0.131 A 
ATOM     61  C   UNL     1      20.146   6.434  14.681  1.00  0.00     0.055 A 
ATOM     62  C   UNL     1      21.593   6.341  12.766  1.00  0.00     0.041 A 
ATOM     63  F   UNL     1      21.426   4.553  11.264  1.00  0.00    -0.206 F 
ATOM     64  C   UNL     1      21.145   7.015  13.898  1.00  0.00     0.022 A 
BRANCH  61  65
ATOM     65  S   UNL     1      19.375   7.383  16.022  1.00  0.00     0.124 S 
ATOM     66  O   UNL     1      17.983   7.440  15.580  1.00  0.00    -0.237 OA
ATOM     67  O   UNL     1      19.642   6.552  17.190  1.00  0.00    -0.237 OA
ATOM     68  O   UNL     1      20.083   8.661  15.988  1.00  0.00    -0.744 OA
ENDBRANCH  61  65
ENDBRANCH  44  58
BRANCH  45  69
ATOM     69  C   UNL     1      15.508  -3.682   9.591  1.00  0.00     0.023 A 
ATOM     70  C   UNL     1      15.392  -4.901  10.277  1.00  0.00     0.031 A 
ATOM     71  C   UNL     1      15.003  -3.612   8.280  1.00  0.00     0.131 A 
ATOM     72  C   UNL     1      14.818  -6.011   9.638  1.00  0.00     0.055 A 
ATOM     73  C   UNL     1      14.389  -4.705   7.666  1.00  0.00     0.041 A 
ATOM     74  F   UNL     1      15.079  -2.466   7.584  1.00  0.00    -0.206 F 
ATOM     75  C   UNL     1      14.304  -5.917   8.342  1.00  0.00     0.022 A 
BRANCH  72  76
ATOM     76  S   UNL     1      14.807  -7.604  10.504  1.00  0.00     0.124 S 
ATOM     77  O   UNL     1      16.230  -7.828  10.734  1.00  0.00    -0.237 OA
ATOM     78  O   UNL     1      14.005  -7.301  11.685  1.00  0.00    -0.237 OA
ATOM     79  O   UNL     1      14.179  -8.509   9.544  1.00  0.00    -0.744 OA
ENDBRANCH  72  76
ENDBRANCH  45  69
BRANCH  57  80
ATOM     80  C   UNL     1      22.033  -2.290  11.646  1.00  0.00     0.023 A 
ATOM     81  C   UNL     1      22.656  -2.776  10.483  1.00  0.00     0.031 A 
ATOM     82  C   UNL     1      22.599  -2.625  12.889  1.00  0.00     0.131 A 
ATOM     83  C   UNL     1      23.775  -3.615  10.589  1.00  0.00     0.055 A 
ATOM     84  C   UNL     1      23.749  -3.409  12.985  1.00  0.00     0.041 A 
ATOM     85  F   UNL     1      22.044  -2.192  14.032  1.00  0.00    -0.206 F 
ATOM     86  C   UNL     1      24.336  -3.920  11.832  1.00  0.00     0.022 A 
BRANCH  83  87
ATOM     87  S   UNL     1      24.436  -4.380   9.083  1.00  0.00     0.124 S 
ATOM     88  O   UNL     1      23.280  -5.119   8.586  1.00  0.00    -0.237 OA
ATOM     89  O   UNL     1      24.840  -3.221   8.294  1.00  0.00    -0.237 OA
ATOM     90  O   UNL     1      25.536  -5.209   9.573  1.00  0.00    -0.744 OA
ENDBRANCH  83  87
ENDBRANCH  57  80
ENDBRANCH  31  32
ENDBRANCH  23  26
ENDBRANCH  21  22
ENDBRANCH   1  21
TORSDOF 15
