REMARK SMILES Cc1ccc([C@H]2CC(c3cccs3)=NN2C(=O)CCC(=O)NCCCNC(=O)c2ccc(-c3c4nc(c(-c5cc(S(=O)(=O)[O-])ccc5F)c5ccc([nH]5)c(-c5cc(S(=O)(=O)[O-])ccc5F)c5nc(c(-c6cc(S(=O)(=O)[O-])ccc6F)c6ccc3[nH]6)C=C5)C=C4)cc2)o1
REMARK SMILES IDX 23 1 22 2 20 3 21 4 19 6 18 7 16 8 17 9 15 10 6 11 7 12 8 13
REMARK SMILES IDX 14 14 5 15 1 16 2 17 3 18 92 19 4 20 9 21 10 22 13 23 11 24
REMARK SMILES IDX 12 25 24 26 25 27 26 28 27 29 28 31 29 32 30 33 91 34 31 35
REMARK SMILES IDX 90 36 32 37 33 38 34 39 84 40 35 41 89 42 83 43 85 44 36 45
REMARK SMILES IDX 88 46 82 47 81 48 37 50 69 51 49 52 68 53 50 54 53 55 67 56
REMARK SMILES IDX 86 57 51 58 52 59 66 61 87 62 54 63 38 64 39 65 47 66 40 67
REMARK SMILES IDX 46 68 48 69 45 70 41 71 42 72 43 73 44 74 70 75 71 76 79 77
REMARK SMILES IDX 72 78 78 79 80 80 77 81 73 82 74 83 75 84 76 85 55 86 56 87
REMARK SMILES IDX 64 88 57 89 63 90 65 91 62 92 58 93 59 94 60 95 61 96
REMARK H PARENT 22 5 26 30 85 49 53 60
REMARK Flexibility Score: inf
ROOT
ATOM      1  C   UNL     1      -4.638   0.183   2.687  1.00  0.00     0.117 C 
ENDROOT
BRANCH   1   2
ATOM      2  N   UNL     1      -3.474  -0.139   1.881  1.00  0.00    -0.356 N 
ATOM      3  C   UNL     1      -2.173  -0.165   2.308  1.00  0.00     0.220 C 
ATOM      4  O   UNL     1      -1.452  -1.107   1.976  1.00  0.00    -0.275 OA
ATOM      5  H   UNL     1      -3.635  -0.359   0.935  1.00  0.00     0.163 HD
BRANCH   3   6
ATOM      6  C   UNL     1      -1.620   0.974   3.137  1.00  0.00     0.110 C 
BRANCH   6   7
ATOM      7  C   UNL     1      -1.141   2.169   2.302  1.00  0.00     0.112 C 
BRANCH   7   8
ATOM      8  C   UNL     1      -2.239   2.763   1.453  1.00  0.00     0.243 C 
ATOM      9  O   UNL     1      -2.960   3.629   1.960  1.00  0.00    -0.273 OA
BRANCH   8  10
ATOM     10  N   UNL     1      -2.485   2.213   0.208  1.00  0.00    -0.222 N 
ATOM     11  C   UNL     1      -1.569   1.970  -0.917  1.00  0.00     0.183 C 
ATOM     12  C   UNL     1      -2.499   1.852  -2.130  1.00  0.00     0.095 C 
ATOM     13  C   UNL     1      -3.825   1.889  -1.448  1.00  0.00     0.081 C 
ATOM     14  N   UNL     1      -3.790   2.196  -0.198  1.00  0.00    -0.173 NA
BRANCH  11  15
ATOM     15  C   UNL     1      -0.719   0.758  -0.767  1.00  0.00     0.129 A 
ATOM     16  C   UNL     1       2.669  -0.173  -0.138  1.00  0.00     0.087 C 
ATOM     17  C   UNL     1       1.228  -0.210  -0.447  1.00  0.00     0.101 A 
ATOM     18  C   UNL     1       0.325  -1.226  -0.664  1.00  0.00     0.045 A 
ATOM     19  O   UNL     1       0.605   0.996  -0.530  1.00  0.00    -0.464 OA
ATOM     20  C   UNL     1      -0.929  -0.603  -0.881  1.00  0.00     0.048 A 
ENDBRANCH  11  15
BRANCH  13  21
ATOM     21  C   UNL     1      -5.059   1.614  -2.130  1.00  0.00     0.050 A 
ATOM     22  C   UNL     1      -5.504   0.388  -3.212  1.00  0.00     0.022 A 
ATOM     23  S   UNL     1      -6.692   3.201  -1.798  1.00  0.00    -0.142 S 
ATOM     24  C   UNL     1      -7.202   0.505  -3.988  1.00  0.00     0.012 A 
ATOM     25  C   UNL     1      -8.099   1.929  -3.457  1.00  0.00     0.065 A 
ENDBRANCH  13  21
ENDBRANCH   8  10
ENDBRANCH   7   8
ENDBRANCH   6   7
ENDBRANCH   3   6
ENDBRANCH   1   2
BRANCH   1  26
ATOM     26  C   UNL     1      -5.505   1.381   2.311  1.00  0.00     0.042 C 
BRANCH  26  27
ATOM     27  C   UNL     1      -6.360   1.405   1.030  1.00  0.00     0.118 C 
BRANCH  27  28
ATOM     28  N   UNL     1      -6.486   0.185   0.239  1.00  0.00    -0.352 N 
ATOM     29  C   UNL     1      -6.860  -0.003  -1.093  1.00  0.00     0.251 C 
ATOM     30  H   UNL     1      -6.271  -0.644   0.726  1.00  0.00     0.163 HD
ATOM     31  O   UNL     1      -7.057  -1.158  -1.471  1.00  0.00    -0.269 OA
BRANCH  29  32
ATOM     32  C   UNL     1      -7.163   1.235  -2.038  1.00  0.00     0.039 A 
ATOM     33  C   UNL     1      -8.683   1.835  -1.381  1.00  0.00     0.014 A 
ATOM     34  C   UNL     1      -6.340   2.322  -3.582  1.00  0.00     0.014 A 
ATOM     35  C   UNL     1      -9.300   3.275  -1.993  1.00  0.00     0.010 A 
ATOM     36  C   UNL     1      -7.156   3.807  -4.068  1.00  0.00     0.010 A 
ATOM     37  C   UNL     1      -8.571   4.255  -3.219  1.00  0.00    -0.014 A 
BRANCH  37  38
ATOM     38  C   UNL     1      -9.177   5.614  -3.449  1.00  0.00     0.031 A 
ATOM     39  C   UNL     1      -9.350   6.142  -4.849  1.00  0.00     0.074 A 
ATOM     40  C   UNL     1      -9.545   6.389  -2.400  1.00  0.00     0.049 A 
ATOM     41  N   UNL     1      -9.709   7.337  -5.245  1.00  0.00    -0.248 NA
ATOM     42  C   UNL     1      -9.033   5.224  -5.951  1.00  0.00     0.031 C 
ATOM     43  C   UNL     1      -9.392   6.045  -0.983  1.00  0.00     0.029 A 
ATOM     44  N   UNL     1     -10.145   7.629  -2.349  1.00  0.00    -0.354 N 
ATOM     45  C   UNL     1      -9.606   7.324  -6.632  1.00  0.00     0.074 A 
ATOM     46  C   UNL     1      -9.075   6.031  -6.999  1.00  0.00     0.031 C 
ATOM     47  C   UNL     1      -9.984   6.973  -0.220  1.00  0.00     0.029 A 
ATOM     48  C   UNL     1     -10.431   8.065  -1.069  1.00  0.00     0.049 A 
ATOM     49  H   UNL     1     -10.353   8.158  -3.153  1.00  0.00     0.167 HD
ATOM     50  C   UNL     1      -9.960   8.284  -7.521  1.00  0.00     0.034 A 
ATOM     51  C   UNL     1     -10.949   9.225  -0.612  1.00  0.00     0.034 A 
ATOM     52  C   UNL     1     -10.543   9.545  -7.143  1.00  0.00     0.049 A 
ATOM     53  C   UNL     1     -11.286  10.293  -1.620  1.00  0.00     0.074 A 
ATOM     54  C   UNL     1     -10.974  10.572  -7.964  1.00  0.00     0.029 A 
ATOM     55  N   UNL     1     -10.784   9.950  -5.837  1.00  0.00    -0.354 N 
ATOM     56  N   UNL     1     -11.183  10.252  -2.929  1.00  0.00    -0.248 NA
ATOM     57  C   UNL     1     -11.798  11.565  -1.095  1.00  0.00     0.031 C 
ATOM     58  C   UNL     1     -11.392  11.630  -7.154  1.00  0.00     0.029 A 
ATOM     59  C   UNL     1     -11.323  11.226  -5.830  1.00  0.00     0.049 A 
ATOM     60  H   UNL     1     -10.600   9.410  -5.034  1.00  0.00     0.167 HD
ATOM     61  C   UNL     1     -11.648  11.483  -3.382  1.00  0.00     0.074 A 
ATOM     62  C   UNL     1     -12.055  12.230  -2.210  1.00  0.00     0.031 C 
ATOM     63  C   UNL     1     -11.728  11.955  -4.652  1.00  0.00     0.034 A 
BRANCH  50  64
ATOM     64  C   UNL     1      -9.701   8.010  -8.983  1.00  0.00     0.023 A 
ATOM     65  C   UNL     1     -10.310   6.937  -9.656  1.00  0.00     0.031 A 
ATOM     66  C   UNL     1      -8.804   8.815  -9.708  1.00  0.00     0.131 A 
ATOM     67  C   UNL     1      -9.947   6.642 -10.977  1.00  0.00     0.055 A 
ATOM     68  C   UNL     1      -8.524   8.577 -11.055  1.00  0.00     0.041 A 
ATOM     69  F   UNL     1      -8.170   9.839  -9.115  1.00  0.00    -0.206 F 
ATOM     70  C   UNL     1      -9.083   7.474 -11.693  1.00  0.00     0.022 A 
BRANCH  67  71
ATOM     71  S   UNL     1     -10.480   5.060 -11.684  1.00  0.00     0.124 S 
ATOM     72  O   UNL     1      -9.884   4.106 -10.751  1.00  0.00    -0.237 OA
ATOM     73  O   UNL     1     -11.934   5.169 -11.644  1.00  0.00    -0.237 OA
ATOM     74  O   UNL     1      -9.889   5.065 -13.021  1.00  0.00    -0.744 OA
ENDBRANCH  67  71
ENDBRANCH  50  64
BRANCH  51  75
ATOM     75  C   UNL     1     -11.128   9.480   0.855  1.00  0.00     0.023 A 
ATOM     76  C   UNL     1     -12.388   9.803   1.389  1.00  0.00     0.031 A 
ATOM     77  C   UNL     1     -10.030   9.490   1.735  1.00  0.00     0.131 A 
ATOM     78  C   UNL     1     -12.505  10.185   2.737  1.00  0.00     0.055 A 
ATOM     79  C   UNL     1     -10.166   9.789   3.093  1.00  0.00     0.041 A 
ATOM     80  F   UNL     1      -8.796   9.207   1.288  1.00  0.00    -0.206 F 
ATOM     81  C   UNL     1     -11.407  10.158   3.597  1.00  0.00     0.022 A 
BRANCH  78  82
ATOM     82  S   UNL     1     -14.089  10.859   3.316  1.00  0.00     0.124 S 
ATOM     83  O   UNL     1     -14.290  11.971   2.394  1.00  0.00    -0.237 OA
ATOM     84  O   UNL     1     -14.983   9.719   3.152  1.00  0.00    -0.237 OA
ATOM     85  O   UNL     1     -13.811  11.239   4.700  1.00  0.00    -0.744 OA
ENDBRANCH  78  82
ENDBRANCH  51  75
BRANCH  63  86
ATOM     86  C   UNL     1     -12.334  13.322  -4.841  1.00  0.00     0.023 A 
ATOM     87  C   UNL     1     -11.726  14.479  -4.329  1.00  0.00     0.031 A 
ATOM     88  C   UNL     1     -13.542  13.464  -5.547  1.00  0.00     0.131 A 
ATOM     89  C   UNL     1     -12.361  15.720  -4.473  1.00  0.00     0.055 A 
ATOM     90  C   UNL     1     -14.124  14.713  -5.763  1.00  0.00     0.041 A 
ATOM     91  F   UNL     1     -14.172  12.390  -6.050  1.00  0.00    -0.206 F 
ATOM     92  C   UNL     1     -13.541  15.849  -5.210  1.00  0.00     0.022 A 
BRANCH  89  93
ATOM     93  S   UNL     1     -11.688  17.145  -3.577  1.00  0.00     0.124 S 
ATOM     94  O   UNL     1     -11.723  16.675  -2.196  1.00  0.00    -0.237 OA
ATOM     95  O   UNL     1     -10.361  17.288  -4.168  1.00  0.00    -0.237 OA
ATOM     96  O   UNL     1     -12.627  18.220  -3.891  1.00  0.00    -0.744 OA
ENDBRANCH  89  93
ENDBRANCH  63  86
ENDBRANCH  37  38
ENDBRANCH  29  32
ENDBRANCH  27  28
ENDBRANCH  26  27
ENDBRANCH   1  26
TORSDOF 18
