REMARK SMILES Cc1noc(C)c1C[NH2+][C@H](C)[C@H](C)C(=O)NCCCNC(=O)c1ccc(-c2c3nc(c(-c4cc(S(=O)(=O)[O-])ccc4F)c4ccc([nH]4)c(-c4cc(S(=O)(=O)[O-])ccc4F)c4nc(c(-c5cc(S(=O)(=O)[O-])ccc5F)c5ccc2[nH]5)C=C4)C=C3)cc1
REMARK SMILES IDX 17 1 16 2 14 3 15 4 12 6 13 7 10 8 11 9 9 10 8 13 7 14 1 15
REMARK SMILES IDX 2 16 3 17 4 18 5 19 6 20 18 21 19 22 20 23 21 24 22 26 23 27
REMARK SMILES IDX 24 28 85 29 25 30 84 31 26 32 27 33 28 34 78 35 29 36 83 37
REMARK SMILES IDX 77 38 79 39 30 40 82 41 76 42 75 43 31 45 63 46 43 47 62 48
REMARK SMILES IDX 44 49 47 50 61 51 80 52 45 53 46 54 60 56 81 57 48 58 32 59
REMARK SMILES IDX 33 60 41 61 34 62 40 63 42 64 39 65 35 66 36 67 37 68 38 69
REMARK SMILES IDX 64 70 65 71 73 72 66 73 72 74 74 75 71 76 67 77 68 78 69 79
REMARK SMILES IDX 70 80 49 81 50 82 58 83 51 84 57 85 59 86 56 87 52 88 53 89
REMARK SMILES IDX 54 90 55 91
REMARK H PARENT 16 5 9 11 9 12 20 25 79 44 47 55
REMARK Flexibility Score: inf
ROOT
ATOM      1  C   UNL     1      -2.766   6.575  -0.110  1.00  0.00     0.117 C 
ENDROOT
BRANCH   1   2
ATOM      2  N   UNL     1      -2.097   7.121  -1.277  1.00  0.00    -0.356 N 
ATOM      3  C   UNL     1      -1.508   6.503  -2.333  1.00  0.00     0.228 C 
ATOM      4  O   UNL     1      -0.975   7.210  -3.191  1.00  0.00    -0.275 OA
ATOM      5  H   UNL     1      -2.065   8.104  -1.308  1.00  0.00     0.163 HD
BRANCH   3   6
ATOM      6  C   UNL     1      -1.526   4.987  -2.478  1.00  0.00     0.133 C 
ATOM      7  C   UNL     1      -0.715   4.324  -1.360  1.00  0.00     0.024 C 
BRANCH   6   8
ATOM      8  C   UNL     1      -2.974   4.461  -2.649  1.00  0.00     0.191 C 
ATOM      9  C   UNL     1      -3.674   5.123  -3.843  1.00  0.00     0.076 C 
BRANCH   8  10
ATOM     10  N   UNL     1      -3.038   3.003  -2.838  1.00  0.00    -0.339 N 
ATOM     11  H   UNL     1      -3.501   2.802  -3.725  1.00  0.00     0.346 HD
ATOM     12  H   UNL     1      -2.087   2.634  -2.838  1.00  0.00     0.346 HD
BRANCH  10  13
ATOM     13  C   UNL     1      -3.785   2.362  -1.755  1.00  0.00     0.303 C 
BRANCH  13  14
ATOM     14  C   UNL     1      -3.964   0.930  -2.084  1.00  0.00     0.071 A 
ATOM     15  C   UNL     1      -5.467   1.082  -4.210  1.00  0.00     0.071 C 
ATOM     16  C   UNL     1      -4.712   0.367  -3.154  1.00  0.00     0.090 A 
ATOM     17  N   UNL     1      -4.684  -0.971  -3.123  1.00  0.00    -0.085 NA
ATOM     18  O   UNL     1      -3.919  -1.304  -2.020  1.00  0.00    -0.361 OA
ATOM     19  C   UNL     1      -3.497  -0.171  -1.400  1.00  0.00     0.142 A 
ATOM     20  C   UNL     1      -2.687  -0.350  -0.179  1.00  0.00     0.091 C 
ENDBRANCH  13  14
ENDBRANCH  10  13
ENDBRANCH   8  10
ENDBRANCH   6   8
ENDBRANCH   3   6
ENDBRANCH   1   2
BRANCH   1  21
ATOM     21  C   UNL     1      -2.088   6.985   1.183  1.00  0.00     0.042 C 
BRANCH  21  22
ATOM     22  C   UNL     1      -2.133   8.482   1.438  1.00  0.00     0.118 C 
BRANCH  22  23
ATOM     23  N   UNL     1      -3.495   8.981   1.581  1.00  0.00    -0.352 N 
ATOM     24  C   UNL     1      -4.115   9.542   2.670  1.00  0.00     0.251 C 
ATOM     25  H   UNL     1      -4.055   8.905   0.775  1.00  0.00     0.163 HD
ATOM     26  O   UNL     1      -5.335   9.692   2.657  1.00  0.00    -0.269 OA
BRANCH  24  27
ATOM     27  C   UNL     1      -3.322   9.932   3.855  1.00  0.00     0.039 A 
ATOM     28  C   UNL     1      -3.835   9.684   5.130  1.00  0.00     0.014 A 
ATOM     29  C   UNL     1      -2.070  10.534   3.710  1.00  0.00     0.014 A 
ATOM     30  C   UNL     1      -3.058   9.974   6.254  1.00  0.00     0.010 A 
ATOM     31  C   UNL     1      -1.257  10.719   4.822  1.00  0.00     0.010 A 
ATOM     32  C   UNL     1      -1.745  10.453   6.108  1.00  0.00    -0.014 A 
BRANCH  32  33
ATOM     33  C   UNL     1      -0.876  10.702   7.287  1.00  0.00     0.031 A 
ATOM     34  C   UNL     1      -0.353  12.088   7.556  1.00  0.00     0.074 A 
ATOM     35  C   UNL     1      -0.512   9.672   8.078  1.00  0.00     0.049 A 
ATOM     36  N   UNL     1       0.467  12.497   8.490  1.00  0.00    -0.248 NA
ATOM     37  C   UNL     1      -0.783  13.149   6.633  1.00  0.00     0.031 C 
ATOM     38  C   UNL     1      -0.921   8.278   7.894  1.00  0.00     0.029 A 
ATOM     39  N   UNL     1       0.285   9.636   9.195  1.00  0.00    -0.354 N 
ATOM     40  C   UNL     1       0.662  13.854   8.257  1.00  0.00     0.074 A 
ATOM     41  C   UNL     1      -0.070  14.182   7.053  1.00  0.00     0.031 C 
ATOM     42  C   UNL     1      -0.406   7.532   8.884  1.00  0.00     0.029 A 
ATOM     43  C   UNL     1       0.415   8.380   9.743  1.00  0.00     0.049 A 
ATOM     44  H   UNL     1       0.723  10.434   9.570  1.00  0.00     0.167 HD
ATOM     45  C   UNL     1       1.365  14.750   8.993  1.00  0.00     0.034 A 
ATOM     46  C   UNL     1       1.124   7.957  10.809  1.00  0.00     0.034 A 
ATOM     47  C   UNL     1       2.075  14.408  10.201  1.00  0.00     0.049 A 
ATOM     48  C   UNL     1       1.923   8.968  11.594  1.00  0.00     0.074 A 
ATOM     49  C   UNL     1       2.769  15.244  11.058  1.00  0.00     0.029 A 
ATOM     50  N   UNL     1       2.192  13.124  10.719  1.00  0.00    -0.354 N 
ATOM     51  N   UNL     1       2.049  10.260  11.392  1.00  0.00    -0.248 NA
ATOM     52  C   UNL     1       2.664   8.465  12.757  1.00  0.00     0.031 C 
ATOM     53  C   UNL     1       3.372  14.458  12.044  1.00  0.00     0.029 A 
ATOM     54  C   UNL     1       2.979  13.142  11.861  1.00  0.00     0.049 A 
ATOM     55  H   UNL     1       1.778  12.319  10.332  1.00  0.00     0.167 HD
ATOM     56  C   UNL     1       2.854  10.728  12.429  1.00  0.00     0.074 A 
ATOM     57  C   UNL     1       3.167   9.583  13.258  1.00  0.00     0.031 C 
ATOM     58  C   UNL     1       3.290  11.990  12.676  1.00  0.00     0.034 A 
BRANCH  45  59
ATOM     59  C   UNL     1       1.419  16.176   8.495  1.00  0.00     0.023 A 
ATOM     60  C   UNL     1       0.260  16.961   8.363  1.00  0.00     0.031 A 
ATOM     61  C   UNL     1       2.647  16.753   8.126  1.00  0.00     0.131 A 
ATOM     62  C   UNL     1       0.343  18.246   7.805  1.00  0.00     0.055 A 
ATOM     63  C   UNL     1       2.734  18.065   7.655  1.00  0.00     0.041 A 
ATOM     64  F   UNL     1       3.786  16.047   8.205  1.00  0.00    -0.206 F 
ATOM     65  C   UNL     1       1.575  18.814   7.477  1.00  0.00     0.022 A 
BRANCH  62  66
ATOM     66  S   UNL     1      -1.197  19.103   7.373  1.00  0.00     0.124 S 
ATOM     67  O   UNL     1      -1.812  18.154   6.448  1.00  0.00    -0.237 OA
ATOM     68  O   UNL     1      -1.851  19.247   8.668  1.00  0.00    -0.237 OA
ATOM     69  O   UNL     1      -0.736  20.348   6.763  1.00  0.00    -0.744 OA
ENDBRANCH  62  66
ENDBRANCH  45  59
BRANCH  46  70
ATOM     70  C   UNL     1       1.122   6.518  11.203  1.00  0.00     0.023 A 
ATOM     71  C   UNL     1       0.623   6.113  12.452  1.00  0.00     0.031 A 
ATOM     72  C   UNL     1       1.670   5.532  10.364  1.00  0.00     0.131 A 
ATOM     73  C   UNL     1       0.737   4.772  12.850  1.00  0.00     0.055 A 
ATOM     74  C   UNL     1       1.722   4.188  10.738  1.00  0.00     0.041 A 
ATOM     75  F   UNL     1       2.158   5.861   9.157  1.00  0.00    -0.206 F 
ATOM     76  C   UNL     1       1.269   3.804  11.996  1.00  0.00     0.022 A 
BRANCH  73  77
ATOM     77  S   UNL     1       0.275   4.330  14.548  1.00  0.00     0.124 S 
ATOM     78  O   UNL     1       1.142   5.207  15.327  1.00  0.00    -0.237 OA
ATOM     79  O   UNL     1      -1.148   4.650  14.567  1.00  0.00    -0.237 OA
ATOM     80  O   UNL     1       0.593   2.906  14.626  1.00  0.00    -0.744 OA
ENDBRANCH  73  77
ENDBRANCH  46  70
BRANCH  58  81
ATOM     81  C   UNL     1       4.107  12.202  13.929  1.00  0.00     0.023 A 
ATOM     82  C   UNL     1       5.373  11.615  14.100  1.00  0.00     0.031 A 
ATOM     83  C   UNL     1       3.601  12.994  14.976  1.00  0.00     0.131 A 
ATOM     84  C   UNL     1       6.059  11.772  15.313  1.00  0.00     0.055 A 
ATOM     85  C   UNL     1       4.320  13.207  16.152  1.00  0.00     0.041 A 
ATOM     86  F   UNL     1       2.395  13.576  14.871  1.00  0.00    -0.206 F 
ATOM     87  C   UNL     1       5.550  12.581  16.332  1.00  0.00     0.022 A 
BRANCH  84  88
ATOM     88  S   UNL     1       7.574  10.813  15.587  1.00  0.00     0.124 S 
ATOM     89  O   UNL     1       7.103   9.444  15.403  1.00  0.00    -0.237 OA
ATOM     90  O   UNL     1       8.460  11.327  14.549  1.00  0.00    -0.237 OA
ATOM     91  O   UNL     1       7.955  11.159  16.955  1.00  0.00    -0.744 OA
ENDBRANCH  84  88
ENDBRANCH  58  81
ENDBRANCH  32  33
ENDBRANCH  24  27
ENDBRANCH  22  23
ENDBRANCH  21  22
ENDBRANCH   1  21
TORSDOF 17
