REMARK SMILES CC[N@@H+](C[C@@H](C)C(=O)NCCCNC(=O)c1ccc(-c2c3nc(c(-c4cc(S(=O)(=O)[O-])ccc4F)c4ccc([nH]4)c(-c4cc(S(=O)(=O)[O-])ccc4F)c4nc(c(-c5cc(S(=O)(=O)[O-])ccc5F)c5ccc2[nH]5)C=C4)C=C3)cc1)[C@@H](C)c1ccoc1
REMARK SMILES IDX 10 1 9 2 7 3 8 4 5 6 6 7 4 8 3 9 2 11 1 12 79 13 80 14 81 15
REMARK SMILES IDX 82 16 85 17 83 18 84 19 11 20 12 21 13 22 14 23 15 25 16 26
REMARK SMILES IDX 17 27 78 28 18 29 77 30 19 31 20 32 21 33 71 34 22 35 76 36
REMARK SMILES IDX 70 37 72 38 23 39 75 40 69 41 68 42 24 44 56 45 36 46 55 47
REMARK SMILES IDX 37 48 40 49 54 50 73 51 38 52 39 53 53 55 74 56 41 57 25 58
REMARK SMILES IDX 26 59 34 60 27 61 33 62 35 63 32 64 28 65 29 66 30 67 31 68
REMARK SMILES IDX 57 69 58 70 66 71 59 72 65 73 67 74 64 75 60 76 61 77 62 78
REMARK SMILES IDX 63 79 42 80 43 81 51 82 44 83 50 84 52 85 49 86 45 87 46 88
REMARK SMILES IDX 47 89 48 90
REMARK H PARENT 9 5 3 10 13 24 72 43 40 54
REMARK Flexibility Score: inf
ROOT
ATOM      1  C   UNL     1       1.629   6.805   0.447  1.00  0.00     0.117 C 
ENDROOT
BRANCH   1   2
ATOM      2  N   UNL     1       0.640   6.481   1.462  1.00  0.00    -0.356 N 
ATOM      3  C   UNL     1       0.394   5.304   2.097  1.00  0.00     0.228 C 
ATOM      4  O   UNL     1      -0.512   5.270   2.931  1.00  0.00    -0.275 OA
ATOM      5  H   UNL     1       0.059   7.228   1.730  1.00  0.00     0.163 HD
BRANCH   3   6
ATOM      6  C   UNL     1       1.249   4.077   1.817  1.00  0.00     0.130 C 
ATOM      7  C   UNL     1       2.696   4.384   2.234  1.00  0.00     0.024 C 
BRANCH   6   8
ATOM      8  C   UNL     1       1.006   3.542   0.378  1.00  0.00     0.275 C 
BRANCH   8   9
ATOM      9  N   UNL     1       1.238   2.100   0.084  1.00  0.00    -0.328 N 
ATOM     10  H   UNL     1       1.095   1.922  -0.910  1.00  0.00     0.348 HD
BRANCH   9  11
ATOM     11  C   UNL     1       0.211   1.271   0.730  1.00  0.00     0.259 C 
ATOM     12  C   UNL     1       0.087  -0.150   0.200  1.00  0.00     0.071 C 
ENDBRANCH   9  11
BRANCH   9  13
ATOM     13  C   UNL     1       2.650   1.697   0.213  1.00  0.00     0.215 C 
ATOM     14  C   UNL     1       3.086   1.205   1.601  1.00  0.00     0.081 C 
BRANCH  13  15
ATOM     15  C   UNL     1       3.063   0.736  -0.880  1.00  0.00     0.047 A 
ATOM     16  C   UNL     1       3.498   1.067  -2.202  1.00  0.00     0.052 A 
ATOM     17  C   UNL     1       3.225  -0.637  -0.801  1.00  0.00     0.204 A 
ATOM     18  C   UNL     1       3.901  -0.106  -2.797  1.00  0.00     0.195 A 
ATOM     19  O   UNL     1       3.729  -1.148  -1.949  1.00  0.00    -0.472 OA
ENDBRANCH  13  15
ENDBRANCH   9  13
ENDBRANCH   8   9
ENDBRANCH   6   8
ENDBRANCH   3   6
ENDBRANCH   1   2
BRANCH   1  20
ATOM     20  C   UNL     1       0.975   7.380  -0.793  1.00  0.00     0.042 C 
BRANCH  20  21
ATOM     21  C   UNL     1       0.430   8.778  -0.552  1.00  0.00     0.118 C 
BRANCH  21  22
ATOM     22  N   UNL     1       1.489   9.725  -0.218  1.00  0.00    -0.352 N 
ATOM     23  C   UNL     1       1.915  10.833  -0.913  1.00  0.00     0.251 C 
ATOM     24  H   UNL     1       1.967   9.545   0.624  1.00  0.00     0.163 HD
ATOM     25  O   UNL     1       2.979  11.362  -0.634  1.00  0.00    -0.269 OA
BRANCH  23  26
ATOM     26  C   UNL     1       1.067  11.345  -2.007  1.00  0.00     0.039 A 
ATOM     27  C   UNL     1       1.651  11.699  -3.223  1.00  0.00     0.014 A 
ATOM     28  C   UNL     1      -0.317  11.419  -1.831  1.00  0.00     0.014 A 
ATOM     29  C   UNL     1       0.830  12.055  -4.293  1.00  0.00     0.010 A 
ATOM     30  C   UNL     1      -1.132  11.660  -2.925  1.00  0.00     0.010 A 
ATOM     31  C   UNL     1      -0.568  11.992  -4.164  1.00  0.00    -0.014 A 
BRANCH  31  32
ATOM     32  C   UNL     1      -1.470  12.287  -5.303  1.00  0.00     0.031 A 
ATOM     33  C   UNL     1      -2.449  13.423  -5.200  1.00  0.00     0.074 A 
ATOM     34  C   UNL     1      -1.461  11.487  -6.386  1.00  0.00     0.049 A 
ATOM     35  N   UNL     1      -3.383  13.792  -6.038  1.00  0.00    -0.248 NA
ATOM     36  C   UNL     1      -2.396  14.223  -3.967  1.00  0.00     0.031 C 
ATOM     37  C   UNL     1      -0.583  10.331  -6.578  1.00  0.00     0.029 A 
ATOM     38  N   UNL     1      -2.214  11.524  -7.530  1.00  0.00    -0.354 N 
ATOM     39  C   UNL     1      -4.035  14.858  -5.428  1.00  0.00     0.074 A 
ATOM     40  C   UNL     1      -3.449  15.009  -4.113  1.00  0.00     0.031 C 
ATOM     41  C   UNL     1      -0.814   9.800  -7.788  1.00  0.00     0.029 A 
ATOM     42  C   UNL     1      -1.893  10.539  -8.435  1.00  0.00     0.049 A 
ATOM     43  H   UNL     1      -2.920  12.192  -7.690  1.00  0.00     0.167 HD
ATOM     44  C   UNL     1      -5.006  15.660  -5.931  1.00  0.00     0.034 A 
ATOM     45  C   UNL     1      -2.414  10.264  -9.646  1.00  0.00     0.034 A 
ATOM     46  C   UNL     1      -5.573  15.488  -7.245  1.00  0.00     0.049 A 
ATOM     47  C   UNL     1      -3.538  11.126 -10.162  1.00  0.00     0.074 A 
ATOM     48  C   UNL     1      -6.528  16.260  -7.883  1.00  0.00     0.029 A 
ATOM     49  N   UNL     1      -5.246  14.459  -8.122  1.00  0.00    -0.354 N 
ATOM     50  N   UNL     1      -4.112  12.164  -9.598  1.00  0.00    -0.248 NA
ATOM     51  C   UNL     1      -4.080  10.779 -11.481  1.00  0.00     0.031 C 
ATOM     52  C   UNL     1      -6.833  15.655  -9.107  1.00  0.00     0.029 A 
ATOM     53  C   UNL     1      -6.009  14.554  -9.276  1.00  0.00     0.049 A 
ATOM     54  H   UNL     1      -4.571  13.764  -7.948  1.00  0.00     0.167 HD
ATOM     55  C   UNL     1      -5.061  12.615 -10.511  1.00  0.00     0.074 A 
ATOM     56  C   UNL     1      -4.973  11.740 -11.664  1.00  0.00     0.031 C 
ATOM     57  C   UNL     1      -5.921  13.661 -10.410  1.00  0.00     0.034 A 
BRANCH  44  58
ATOM     58  C   UNL     1      -5.517  16.764  -5.032  1.00  0.00     0.023 A 
ATOM     59  C   UNL     1      -4.657  17.753  -4.520  1.00  0.00     0.031 A 
ATOM     60  C   UNL     1      -6.859  16.787  -4.615  1.00  0.00     0.131 A 
ATOM     61  C   UNL     1      -5.114  18.642  -3.536  1.00  0.00     0.055 A 
ATOM     62  C   UNL     1      -7.335  17.743  -3.714  1.00  0.00     0.041 A 
ATOM     63  F   UNL     1      -7.728  15.860  -5.049  1.00  0.00    -0.206 F 
ATOM     64  C   UNL     1      -6.455  18.663  -3.150  1.00  0.00     0.022 A 
BRANCH  61  65
ATOM     65  S   UNL     1      -3.888  19.619  -2.623  1.00  0.00     0.124 S 
ATOM     66  O   UNL     1      -3.011  18.575  -2.097  1.00  0.00    -0.237 OA
ATOM     67  O   UNL     1      -3.320  20.465  -3.665  1.00  0.00    -0.237 OA
ATOM     68  O   UNL     1      -4.686  20.316  -1.616  1.00  0.00    -0.744 OA
ENDBRANCH  61  65
ENDBRANCH  44  58
BRANCH  45  69
ATOM     69  C   UNL     1      -1.872   9.142 -10.462  1.00  0.00     0.023 A 
ATOM     70  C   UNL     1      -1.221   9.395 -11.679  1.00  0.00     0.031 A 
ATOM     71  C   UNL     1      -2.010   7.804 -10.052  1.00  0.00     0.131 A 
ATOM     72  C   UNL     1      -0.765   8.326 -12.464  1.00  0.00     0.055 A 
ATOM     73  C   UNL     1      -1.509   6.746 -10.813  1.00  0.00     0.041 A 
ATOM     74  F   UNL     1      -2.618   7.508  -8.893  1.00  0.00    -0.206 F 
ATOM     75  C   UNL     1      -0.891   7.004 -12.033  1.00  0.00     0.022 A 
BRANCH  72  76
ATOM     76  S   UNL     1      -0.061   8.688 -14.096  1.00  0.00     0.124 S 
ATOM     77  O   UNL     1      -1.178   9.350 -14.760  1.00  0.00    -0.237 OA
ATOM     78  O   UNL     1       1.077   9.535 -13.754  1.00  0.00    -0.237 OA
ATOM     79  O   UNL     1       0.283   7.367 -14.618  1.00  0.00    -0.744 OA
ENDBRANCH  72  76
ENDBRANCH  45  69
BRANCH  57  80
ATOM     80  C   UNL     1      -6.804  13.939 -11.602  1.00  0.00     0.023 A 
ATOM     81  C   UNL     1      -7.808  13.042 -12.007  1.00  0.00     0.031 A 
ATOM     82  C   UNL     1      -6.631  15.118 -12.349  1.00  0.00     0.131 A 
ATOM     83  C   UNL     1      -8.564  13.313 -13.157  1.00  0.00     0.055 A 
ATOM     84  C   UNL     1      -7.431  15.414 -13.453  1.00  0.00     0.041 A 
ATOM     85  F   UNL     1      -5.684  16.009 -12.011  1.00  0.00    -0.206 F 
ATOM     86  C   UNL     1      -8.395  14.502 -13.871  1.00  0.00     0.022 A 
BRANCH  83  87
ATOM     87  S   UNL     1      -9.709  12.045 -13.765  1.00  0.00     0.124 S 
ATOM     88  O   UNL     1      -8.814  10.915 -13.997  1.00  0.00    -0.237 OA
ATOM     89  O   UNL     1     -10.639  11.902 -12.650  1.00  0.00    -0.237 OA
ATOM     90  O   UNL     1     -10.276  12.644 -14.972  1.00  0.00    -0.744 OA
ENDBRANCH  83  87
ENDBRANCH  57  80
ENDBRANCH  31  32
ENDBRANCH  23  26
ENDBRANCH  21  22
ENDBRANCH  20  21
ENDBRANCH   1  20
TORSDOF 18
