REMARK SMILES CC1(C)[C@H](C(=O)NCCCNC(=O)c2ccc(-c3c4nc(c(-c5cc(S(=O)(=O)[O-])ccc5F)c5ccc([nH]5)c(-c5cc(S(=O)(=O)[O-])ccc5F)c5nc(c(-c6cc(S(=O)(=O)[O-])ccc6F)c6ccc3[nH]6)C=C5)C=C4)cc2)[C@@H]1c1nc2ccc(F)cc2s1
REMARK SMILES IDX 10 1 9 2 8 3 7 4 5 5 6 6 4 8 1 9 2 10 3 11 77 12 78 13 79 14
REMARK SMILES IDX 87 15 80 16 86 17 81 18 85 19 82 20 83 21 84 22 11 23 12 24
REMARK SMILES IDX 13 26 14 27 15 28 76 29 16 30 75 31 17 32 18 33 19 34 69 35
REMARK SMILES IDX 20 36 74 37 68 38 70 39 21 40 73 41 67 42 66 43 22 45 54 46
REMARK SMILES IDX 34 47 53 48 35 49 38 50 52 51 71 52 36 53 37 54 51 56 72 57
REMARK SMILES IDX 39 58 23 59 24 60 32 61 25 62 31 63 33 64 30 65 26 66 27 67
REMARK SMILES IDX 28 68 29 69 55 70 56 71 64 72 57 73 63 74 65 75 62 76 58 77
REMARK SMILES IDX 59 78 60 79 61 80 40 81 41 82 49 83 42 84 48 85 50 86 47 87
REMARK SMILES IDX 43 88 44 89 45 90 46 91
REMARK H PARENT 7 7 11 25 70 44 38 55
REMARK Flexibility Score: inf
ROOT
ATOM      1  C   UNL     1      -0.781   5.188  -1.809  1.00  0.00     0.118 C 
ENDROOT
BRANCH   1   2
ATOM      2  C   UNL     1      -0.258   4.053  -0.951  1.00  0.00     0.042 C 
BRANCH   2   3
ATOM      3  C   UNL     1      -1.348   3.094  -0.514  1.00  0.00     0.117 C 
BRANCH   3   4
ATOM      4  N   UNL     1      -1.691   2.116  -1.506  1.00  0.00    -0.356 N 
ATOM      5  C   UNL     1      -1.633   0.753  -1.516  1.00  0.00     0.224 C 
ATOM      6  O   UNL     1      -2.036   0.222  -2.554  1.00  0.00    -0.275 OA
ATOM      7  H   UNL     1      -2.034   2.504  -2.343  1.00  0.00     0.163 HD
BRANCH   5   8
ATOM      8  C   UNL     1      -1.151  -0.168  -0.450  1.00  0.00     0.095 C 
ATOM      9  C   UNL     1       0.977  -1.449   0.179  1.00  0.00     0.013 C 
ATOM     10  C   UNL     1       0.217  -0.138   0.253  1.00  0.00    -0.013 C 
ATOM     11  C   UNL     1       1.143   1.040   0.094  1.00  0.00     0.013 C 
ATOM     12  C   UNL     1      -1.084  -0.115   1.045  1.00  0.00     0.068 C 
BRANCH  12  13
ATOM     13  C   UNL     1      -1.762   0.958   1.880  1.00  0.00     0.098 A 
ATOM     14  N   UNL     1      -3.073   0.948   1.973  1.00  0.00    -0.241 NA
ATOM     15  S   UNL     1      -0.979   2.141   2.848  1.00  0.00    -0.118 S 
ATOM     16  C   UNL     1      -3.505   2.118   2.570  1.00  0.00     0.082 A 
ATOM     17  C   UNL     1      -2.489   2.967   3.017  1.00  0.00     0.057 A 
ATOM     18  C   UNL     1      -4.848   2.525   2.709  1.00  0.00     0.033 A 
ATOM     19  C   UNL     1      -2.762   4.253   3.510  1.00  0.00     0.060 A 
ATOM     20  C   UNL     1      -5.134   3.796   3.215  1.00  0.00     0.041 A 
ATOM     21  C   UNL     1      -4.099   4.644   3.583  1.00  0.00     0.124 A 
ATOM     22  F   UNL     1      -4.396   5.871   4.031  1.00  0.00    -0.207 F 
ENDBRANCH  12  13
ENDBRANCH   5   8
ENDBRANCH   3   4
ENDBRANCH   2   3
ENDBRANCH   1   2
BRANCH   1  23
ATOM     23  N   UNL     1      -1.640   6.093  -1.054  1.00  0.00    -0.352 N 
ATOM     24  C   UNL     1      -1.426   7.389  -0.647  1.00  0.00     0.251 C 
ATOM     25  H   UNL     1      -2.512   5.716  -0.795  1.00  0.00     0.163 HD
ATOM     26  O   UNL     1      -2.173   7.888   0.187  1.00  0.00    -0.269 OA
BRANCH  24  27
ATOM     27  C   UNL     1      -0.288   8.162  -1.194  1.00  0.00     0.039 A 
ATOM     28  C   UNL     1       0.420   9.026  -0.354  1.00  0.00     0.014 A 
ATOM     29  C   UNL     1       0.083   8.037  -2.533  1.00  0.00     0.014 A 
ATOM     30  C   UNL     1       1.543   9.699  -0.843  1.00  0.00     0.010 A 
ATOM     31  C   UNL     1       1.265   8.610  -2.982  1.00  0.00     0.010 A 
ATOM     32  C   UNL     1       2.002   9.460  -2.148  1.00  0.00    -0.014 A 
BRANCH  32  33
ATOM     33  C   UNL     1       3.225  10.114  -2.685  1.00  0.00     0.031 A 
ATOM     34  C   UNL     1       3.121  10.995  -3.903  1.00  0.00     0.074 A 
ATOM     35  C   UNL     1       4.426   9.861  -2.127  1.00  0.00     0.049 A 
ATOM     36  N   UNL     1       4.072  11.553  -4.606  1.00  0.00    -0.248 NA
ATOM     37  C   UNL     1       1.766  11.252  -4.420  1.00  0.00     0.031 C 
ATOM     38  C   UNL     1       4.657   9.002  -0.963  1.00  0.00     0.029 A 
ATOM     39  N   UNL     1       5.683  10.296  -2.468  1.00  0.00    -0.354 N 
ATOM     40  C   UNL     1       3.433  12.213  -5.650  1.00  0.00     0.074 A 
ATOM     41  C   UNL     1       2.022  11.921  -5.532  1.00  0.00     0.031 C 
ATOM     42  C   UNL     1       5.967   8.999  -0.669  1.00  0.00     0.029 A 
ATOM     43  C   UNL     1       6.680   9.805  -1.655  1.00  0.00     0.049 A 
ATOM     44  H   UNL     1       5.855  10.903  -3.224  1.00  0.00     0.167 HD
ATOM     45  C   UNL     1       3.969  13.017  -6.600  1.00  0.00     0.034 A 
ATOM     46  C   UNL     1       8.017   9.971  -1.711  1.00  0.00     0.034 A 
ATOM     47  C   UNL     1       5.376  13.314  -6.692  1.00  0.00     0.049 A 
ATOM     48  C   UNL     1       8.594  10.832  -2.810  1.00  0.00     0.074 A 
ATOM     49  C   UNL     1       6.025  14.140  -7.594  1.00  0.00     0.029 A 
ATOM     50  N   UNL     1       6.353  12.797  -5.852  1.00  0.00    -0.354 N 
ATOM     51  N   UNL     1       7.970  11.475  -3.771  1.00  0.00    -0.248 NA
ATOM     52  C   UNL     1      10.053  10.999  -2.826  1.00  0.00     0.031 C 
ATOM     53  C   UNL     1       7.398  14.069  -7.342  1.00  0.00     0.029 A 
ATOM     54  C   UNL     1       7.601  13.268  -6.230  1.00  0.00     0.049 A 
ATOM     55  H   UNL     1       6.185  12.186  -5.099  1.00  0.00     0.167 HD
ATOM     56  C   UNL     1       8.959  12.158  -4.474  1.00  0.00     0.074 A 
ATOM     57  C   UNL     1      10.215  11.858  -3.821  1.00  0.00     0.031 C 
ATOM     58  C   UNL     1       8.842  12.966  -5.559  1.00  0.00     0.034 A 
BRANCH  45  59
ATOM     59  C   UNL     1       3.029  13.620  -7.616  1.00  0.00     0.023 A 
ATOM     60  C   UNL     1       2.008  14.510  -7.237  1.00  0.00     0.031 A 
ATOM     61  C   UNL     1       3.146  13.297  -8.979  1.00  0.00     0.131 A 
ATOM     62  C   UNL     1       1.105  14.991  -8.195  1.00  0.00     0.055 A 
ATOM     63  C   UNL     1       2.296  13.846  -9.941  1.00  0.00     0.041 A 
ATOM     64  F   UNL     1       4.085  12.435  -9.399  1.00  0.00    -0.206 F 
ATOM     65  C   UNL     1       1.259  14.688  -9.550  1.00  0.00     0.022 A 
BRANCH  62  66
ATOM     66  S   UNL     1      -0.352  15.909  -7.627  1.00  0.00     0.124 S 
ATOM     67  O   UNL     1      -1.008  14.919  -6.776  1.00  0.00    -0.237 OA
ATOM     68  O   UNL     1       0.241  17.050  -6.940  1.00  0.00    -0.237 OA
ATOM     69  O   UNL     1      -1.062  16.224  -8.865  1.00  0.00    -0.744 OA
ENDBRANCH  62  66
ENDBRANCH  45  59
BRANCH  46  70
ATOM     70  C   UNL     1       8.915   9.311  -0.718  1.00  0.00     0.023 A 
ATOM     71  C   UNL     1       9.741  10.074   0.123  1.00  0.00     0.031 A 
ATOM     72  C   UNL     1       9.022   7.910  -0.646  1.00  0.00     0.131 A 
ATOM     73  C   UNL     1      10.686   9.439   0.943  1.00  0.00     0.055 A 
ATOM     74  C   UNL     1       9.915   7.281   0.223  1.00  0.00     0.041 A 
ATOM     75  F   UNL     1       8.256   7.129  -1.425  1.00  0.00    -0.206 F 
ATOM     76  C   UNL     1      10.769   8.047   1.010  1.00  0.00     0.022 A 
BRANCH  73  77
ATOM     77  S   UNL     1      11.898  10.465   1.821  1.00  0.00     0.124 S 
ATOM     78  O   UNL     1      12.496  11.217   0.724  1.00  0.00    -0.237 OA
ATOM     79  O   UNL     1      11.048  11.223   2.732  1.00  0.00    -0.237 OA
ATOM     80  O   UNL     1      12.775   9.484   2.457  1.00  0.00    -0.744 OA
ENDBRANCH  73  77
ENDBRANCH  46  70
BRANCH  58  81
ATOM     81  C   UNL     1      10.097  13.637  -6.059  1.00  0.00     0.023 A 
ATOM     82  C   UNL     1      11.158  12.909  -6.625  1.00  0.00     0.031 A 
ATOM     83  C   UNL     1      10.226  15.036  -5.971  1.00  0.00     0.131 A 
ATOM     84  C   UNL     1      12.323  13.576  -7.031  1.00  0.00     0.055 A 
ATOM     85  C   UNL     1      11.361  15.700  -6.437  1.00  0.00     0.041 A 
ATOM     86  F   UNL     1       9.245  15.781  -5.438  1.00  0.00    -0.206 F 
ATOM     87  C   UNL     1      12.423  14.968  -6.959  1.00  0.00     0.022 A 
BRANCH  84  88
ATOM     88  S   UNL     1      13.746  12.591  -7.573  1.00  0.00     0.124 S 
ATOM     89  O   UNL     1      14.008  11.765  -6.399  1.00  0.00    -0.237 OA
ATOM     90  O   UNL     1      13.215  11.892  -8.739  1.00  0.00    -0.237 OA
ATOM     91  O   UNL     1      14.767  13.595  -7.866  1.00  0.00    -0.744 OA
ENDBRANCH  84  88
ENDBRANCH  58  81
ENDBRANCH  32  33
ENDBRANCH  24  27
ENDBRANCH   1  23
TORSDOF 14
