REMARK SMILES Nc1cc(C(=O)NCCCNC(=O)c2ccc(-c3c4nc(c(-c5cc(S(=O)(=O)[O-])ccc5F)c5ccc([nH]5)c(-c5cc(S(=O)(=O)[O-])ccc5F)c5nc(c(-c6cc(S(=O)(=O)[O-])ccc6F)c6ccc3[nH]6)C=C5)C=C4)cc2)ccc1N1CC2(CCOCC2)C1
REMARK SMILES IDX 10 1 9 2 8 3 7 4 5 5 6 6 4 8 2 9 3 10 79 11 78 12 77 13 1 14
REMARK SMILES IDX 80 17 81 18 88 19 82 20 83 21 87 22 84 23 86 24 85 25 11 26
REMARK SMILES IDX 12 27 13 29 14 30 15 31 76 32 16 33 75 34 17 35 18 36 19 37
REMARK SMILES IDX 69 38 20 39 74 40 68 41 70 42 21 43 73 44 67 45 66 46 22 48
REMARK SMILES IDX 54 49 34 50 53 51 35 52 38 53 52 54 71 55 36 56 37 57 51 59
REMARK SMILES IDX 72 60 39 61 23 62 24 63 32 64 25 65 31 66 33 67 30 68 26 69
REMARK SMILES IDX 27 70 28 71 29 72 55 73 56 74 64 75 57 76 63 77 65 78 62 79
REMARK SMILES IDX 58 80 59 81 60 82 61 83 40 84 41 85 49 86 42 87 48 88 50 89
REMARK SMILES IDX 47 90 43 91 44 92 45 93 46 94
REMARK H PARENT 7 7 1 15 1 16 11 28 70 47 38 58
REMARK Flexibility Score: inf
ROOT
ATOM      1  C   UNL     1      -6.003  -2.254  -1.114  1.00  0.00     0.118 C 
ENDROOT
BRANCH   1   2
ATOM      2  C   UNL     1      -5.061  -1.128  -0.686  1.00  0.00     0.042 C 
BRANCH   2   3
ATOM      3  C   UNL     1      -4.222  -1.483   0.541  1.00  0.00     0.118 C 
BRANCH   3   4
ATOM      4  N   UNL     1      -3.187  -2.437   0.200  1.00  0.00    -0.352 N 
ATOM      5  C   UNL     1      -1.867  -2.313  -0.139  1.00  0.00     0.251 C 
ATOM      6  O   UNL     1      -1.264  -3.361  -0.380  1.00  0.00    -0.269 OA
ATOM      7  H   UNL     1      -3.498  -3.371   0.216  1.00  0.00     0.163 HD
BRANCH   5   8
ATOM      8  C   UNL     1      -1.117  -1.023  -0.181  1.00  0.00     0.041 A 
ATOM      9  C   UNL     1       1.113  -0.010  -0.114  1.00  0.00     0.056 A 
ATOM     10  C   UNL     1       0.281  -1.134  -0.109  1.00  0.00     0.041 A 
ATOM     11  C   UNL     1       0.537   1.278  -0.115  1.00  0.00     0.060 A 
ATOM     12  C   UNL     1      -0.853   1.394  -0.212  1.00  0.00     0.029 A 
ATOM     13  C   UNL     1      -1.668   0.255  -0.288  1.00  0.00     0.016 A 
BRANCH   9  14
ATOM     14  N   UNL     1       2.484  -0.197   0.079  1.00  0.00    -0.397 N 
ATOM     15  H   UNL     1       2.863  -1.105   0.075  1.00  0.00     0.156 HD
ATOM     16  H   UNL     1       3.071   0.581   0.218  1.00  0.00     0.156 HD
ENDBRANCH   9  14
BRANCH  11  17
ATOM     17  N   UNL     1       1.348   2.412   0.015  1.00  0.00    -0.369 N 
ATOM     18  C   UNL     1       2.287   2.993  -0.886  1.00  0.00     0.125 C 
ATOM     19  C   UNL     1       1.231   3.587   0.813  1.00  0.00     0.125 C 
ATOM     20  C   UNL     1       2.647   3.951   0.284  1.00  0.00     0.010 C 
ATOM     21  C   UNL     1       2.889   5.414  -0.072  1.00  0.00     0.039 C 
ATOM     22  C   UNL     1       3.788   3.438   1.184  1.00  0.00     0.039 C 
ATOM     23  C   UNL     1       4.271   5.540  -0.709  1.00  0.00     0.161 C 
ATOM     24  C   UNL     1       5.113   3.663   0.468  1.00  0.00     0.161 C 
ATOM     25  O   UNL     1       5.284   5.052   0.176  1.00  0.00    -0.381 OA
ENDBRANCH  11  17
ENDBRANCH   5   8
ENDBRANCH   3   4
ENDBRANCH   2   3
ENDBRANCH   1   2
BRANCH   1  26
ATOM     26  N   UNL     1      -7.055  -2.477  -0.131  1.00  0.00    -0.352 N 
ATOM     27  C   UNL     1      -8.417  -2.355  -0.251  1.00  0.00     0.251 C 
ATOM     28  H   UNL     1      -6.740  -2.758   0.758  1.00  0.00     0.163 HD
ATOM     29  O   UNL     1      -9.102  -2.319   0.767  1.00  0.00    -0.269 OA
BRANCH  27  30
ATOM     30  C   UNL     1      -9.055  -2.264  -1.583  1.00  0.00     0.039 A 
ATOM     31  C   UNL     1     -10.146  -1.405  -1.750  1.00  0.00     0.014 A 
ATOM     32  C   UNL     1      -8.626  -3.062  -2.647  1.00  0.00     0.014 A 
ATOM     33  C   UNL     1     -10.772  -1.310  -2.996  1.00  0.00     0.010 A 
ATOM     34  C   UNL     1      -9.208  -2.916  -3.905  1.00  0.00     0.010 A 
ATOM     35  C   UNL     1     -10.291  -2.044  -4.091  1.00  0.00    -0.014 A 
BRANCH  35  36
ATOM     36  C   UNL     1     -10.912  -1.920  -5.436  1.00  0.00     0.031 A 
ATOM     37  C   UNL     1     -11.595  -3.106  -6.064  1.00  0.00     0.074 A 
ATOM     38  C   UNL     1     -10.808  -0.760  -6.113  1.00  0.00     0.049 A 
ATOM     39  N   UNL     1     -12.114  -3.227  -7.258  1.00  0.00    -0.248 NA
ATOM     40  C   UNL     1     -11.676  -4.326  -5.247  1.00  0.00     0.031 C 
ATOM     41  C   UNL     1     -10.142   0.448  -5.619  1.00  0.00     0.029 A 
ATOM     42  N   UNL     1     -11.248  -0.407  -7.363  1.00  0.00    -0.354 N 
ATOM     43  C   UNL     1     -12.571  -4.538  -7.343  1.00  0.00     0.074 A 
ATOM     44  C   UNL     1     -12.213  -5.186  -6.099  1.00  0.00     0.031 C 
ATOM     45  C   UNL     1     -10.237   1.413  -6.547  1.00  0.00     0.029 A 
ATOM     46  C   UNL     1     -10.926   0.883  -7.719  1.00  0.00     0.049 A 
ATOM     47  H   UNL     1     -11.748  -1.019  -7.951  1.00  0.00     0.167 HD
ATOM     48  C   UNL     1     -13.245  -5.138  -8.357  1.00  0.00     0.034 A 
ATOM     49  C   UNL     1     -11.146   1.556  -8.866  1.00  0.00     0.034 A 
ATOM     50  C   UNL     1     -13.603  -4.471  -9.586  1.00  0.00     0.049 A 
ATOM     51  C   UNL     1     -11.874   0.860  -9.988  1.00  0.00     0.074 A 
ATOM     52  C   UNL     1     -14.325  -4.967 -10.658  1.00  0.00     0.029 A 
ATOM     53  N   UNL     1     -13.261  -3.164  -9.910  1.00  0.00    -0.354 N 
ATOM     54  N   UNL     1     -12.334  -0.369 -10.038  1.00  0.00    -0.248 NA
ATOM     55  C   UNL     1     -12.121   1.646 -11.203  1.00  0.00     0.031 C 
ATOM     56  C   UNL     1     -14.363  -3.985 -11.654  1.00  0.00     0.029 A 
ATOM     57  C   UNL     1     -13.732  -2.847 -11.176  1.00  0.00     0.049 A 
ATOM     58  H   UNL     1     -12.757  -2.552  -9.327  1.00  0.00     0.167 HD
ATOM     59  C   UNL     1     -12.953  -0.491 -11.279  1.00  0.00     0.074 A 
ATOM     60  C   UNL     1     -12.818   0.792 -11.937  1.00  0.00     0.031 C 
ATOM     61  C   UNL     1     -13.580  -1.565 -11.823  1.00  0.00     0.034 A 
BRANCH  48  62
ATOM     62  C   UNL     1     -13.611  -6.594  -8.181  1.00  0.00     0.023 A 
ATOM     63  C   UNL     1     -14.475  -7.020  -7.156  1.00  0.00     0.031 A 
ATOM     64  C   UNL     1     -13.069  -7.574  -9.031  1.00  0.00     0.131 A 
ATOM     65  C   UNL     1     -14.706  -8.390  -6.957  1.00  0.00     0.055 A 
ATOM     66  C   UNL     1     -13.370  -8.930  -8.880  1.00  0.00     0.041 A 
ATOM     67  F   UNL     1     -12.223  -7.234 -10.016  1.00  0.00    -0.206 F 
ATOM     68  C   UNL     1     -14.180  -9.347  -7.827  1.00  0.00     0.022 A 
BRANCH  65  69
ATOM     69  S   UNL     1     -15.582  -8.910  -5.456  1.00  0.00     0.124 S 
ATOM     70  O   UNL     1     -14.719  -8.369  -4.409  1.00  0.00    -0.237 OA
ATOM     71  O   UNL     1     -16.881  -8.266  -5.610  1.00  0.00    -0.237 OA
ATOM     72  O   UNL     1     -15.592 -10.368  -5.553  1.00  0.00    -0.744 OA
ENDBRANCH  65  69
ENDBRANCH  48  62
BRANCH  49  73
ATOM     73  C   UNL     1     -10.671   2.960  -9.020  1.00  0.00     0.023 A 
ATOM     74  C   UNL     1     -11.581   4.017  -9.177  1.00  0.00     0.031 A 
ATOM     75  C   UNL     1      -9.298   3.263  -9.051  1.00  0.00     0.131 A 
ATOM     76  C   UNL     1     -11.110   5.319  -9.404  1.00  0.00     0.055 A 
ATOM     77  C   UNL     1      -8.834   4.568  -9.224  1.00  0.00     0.041 A 
ATOM     78  F   UNL     1      -8.384   2.291  -8.899  1.00  0.00    -0.206 F 
ATOM     79  C   UNL     1      -9.742   5.604  -9.416  1.00  0.00     0.022 A 
BRANCH  76  80
ATOM     80  S   UNL     1     -12.313   6.627  -9.767  1.00  0.00     0.124 S 
ATOM     81  O   UNL     1     -12.987   6.092 -10.944  1.00  0.00    -0.237 OA
ATOM     82  O   UNL     1     -13.099   6.664  -8.538  1.00  0.00    -0.237 OA
ATOM     83  O   UNL     1     -11.477   7.801 -10.006  1.00  0.00    -0.744 OA
ENDBRANCH  76  80
ENDBRANCH  49  73
BRANCH  61  84
ATOM     84  C   UNL     1     -14.207  -1.373 -13.182  1.00  0.00     0.023 A 
ATOM     85  C   UNL     1     -13.431  -1.151 -14.332  1.00  0.00     0.031 A 
ATOM     86  C   UNL     1     -15.606  -1.399 -13.323  1.00  0.00     0.131 A 
ATOM     87  C   UNL     1     -14.059  -0.908 -15.563  1.00  0.00     0.055 A 
ATOM     88  C   UNL     1     -16.224  -1.217 -14.560  1.00  0.00     0.041 A 
ATOM     89  F   UNL     1     -16.397  -1.605 -12.257  1.00  0.00    -0.206 F 
ATOM     90  C   UNL     1     -15.450  -0.957 -15.688  1.00  0.00     0.022 A 
BRANCH  87  91
ATOM     91  S   UNL     1     -13.037  -0.436 -16.985  1.00  0.00     0.124 S 
ATOM     92  O   UNL     1     -12.377   0.771 -16.498  1.00  0.00    -0.237 OA
ATOM     93  O   UNL     1     -12.180  -1.606 -17.156  1.00  0.00    -0.237 OA
ATOM     94  O   UNL     1     -14.012  -0.222 -18.053  1.00  0.00    -0.744 OA
ENDBRANCH  87  91
ENDBRANCH  61  84
ENDBRANCH  35  36
ENDBRANCH  27  30
ENDBRANCH   1  26
TORSDOF 15
