REMARK SMILES COC(=O)c1sc(SCC(=O)NCCCNC(=O)c2ccc(-c3c4nc(c(-c5cc(S(=O)(=O)[O-])ccc5F)c5ccc([nH]5)c(-c5cc(S(=O)(=O)[O-])ccc5F)c5nc(c(-c6cc(S(=O)(=O)[O-])ccc6F)c6ccc3[nH]6)C=C5)C=C4)cc2)c(NC(=O)c2ccccc2)c1O
REMARK SMILES IDX 13 1 12 2 10 3 11 4 9 6 8 7 7 8 5 9 6 10 92 11 82 12 3 13
REMARK SMILES IDX 4 14 2 15 1 16 93 17 83 19 84 20 85 22 86 23 87 24 91 25
REMARK SMILES IDX 88 26 90 27 89 28 14 29 15 30 16 31 17 32 18 34 19 35 20 36
REMARK SMILES IDX 81 37 21 38 80 39 22 40 23 41 24 42 74 43 25 44 79 45 73 46
REMARK SMILES IDX 75 47 26 48 78 49 72 50 71 51 27 53 59 54 39 55 58 56 40 57
REMARK SMILES IDX 43 58 57 59 76 60 41 61 42 62 56 64 77 65 44 66 28 67 29 68
REMARK SMILES IDX 37 69 30 70 36 71 38 72 35 73 31 74 32 75 33 76 34 77 60 78
REMARK SMILES IDX 61 79 69 80 62 81 68 82 70 83 67 84 63 85 64 86 65 87 66 88
REMARK SMILES IDX 45 89 46 90 54 91 47 92 53 93 55 94 52 95 48 96 49 97 50 98
REMARK SMILES IDX 51 99
REMARK H PARENT 12 5 93 18 83 21 16 33 75 52 43 63
REMARK Flexibility Score: inf
ROOT
ATOM      1  C   UNL     1      -0.014   5.561   9.082  1.00  0.00     0.117 C 
ENDROOT
BRANCH   1   2
ATOM      2  N   UNL     1      -1.229   5.105   8.428  1.00  0.00    -0.355 N 
ATOM      3  C   UNL     1      -1.901   3.908   8.477  1.00  0.00     0.230 C 
ATOM      4  O   UNL     1      -3.068   3.950   8.073  1.00  0.00    -0.274 OA
ATOM      5  H   UNL     1      -1.646   5.777   7.842  1.00  0.00     0.163 HD
BRANCH   3   6
ATOM      6  C   UNL     1      -1.175   2.499   9.204  1.00  0.00     0.175 C 
BRANCH   6   7
ATOM      7  S   UNL     1      -0.408   0.280   8.111  1.00  0.00    -0.103 SA
BRANCH   7   8
ATOM      8  C   UNL     1      -0.437   0.128   6.269  1.00  0.00     0.089 A 
ATOM      9  C   UNL     1       0.306  -0.228   3.904  1.00  0.00     0.157 A 
ATOM     10  S   UNL     1       1.014  -0.367   5.463  1.00  0.00    -0.116 S 
ATOM     11  C   UNL     1      -1.026   0.103   4.011  1.00  0.00     0.166 A 
ATOM     12  C   UNL     1      -1.470   0.303   5.348  1.00  0.00     0.109 A 
BRANCH   9  13
ATOM     13  C   UNL     1       1.109  -0.457   2.717  1.00  0.00     0.352 C 
ATOM     14  O   UNL     1       2.229  -0.950   2.671  1.00  0.00    -0.245 OA
BRANCH  13  15
ATOM     15  O   UNL     1       0.407  -0.031   1.621  1.00  0.00    -0.465 OA
ATOM     16  C   UNL     1       1.061  -0.168   0.355  1.00  0.00     0.282 C 
ENDBRANCH  13  15
ENDBRANCH   9  13
BRANCH  11  17
ATOM     17  O   UNL     1      -1.854   0.282   2.955  1.00  0.00    -0.504 OA
ATOM     18  H   UNL     1      -1.539   0.144   2.084  1.00  0.00     0.293 HD
ENDBRANCH  11  17
BRANCH  12  19
ATOM     19  N   UNL     1      -2.788   0.686   5.582  1.00  0.00    -0.317 N 
ATOM     20  C   UNL     1      -3.292   1.155   6.758  1.00  0.00     0.255 C 
ATOM     21  H   UNL     1      -3.414   0.612   4.826  1.00  0.00     0.170 HD
ATOM     22  O   UNL     1      -4.485   1.184   7.026  1.00  0.00    -0.269 OA
BRANCH  20  23
ATOM     23  C   UNL     1      -2.285   1.557   7.738  1.00  0.00     0.040 A 
ATOM     24  C   UNL     1      -2.369   0.733   9.327  1.00  0.00     0.014 A 
ATOM     25  C   UNL     1      -0.734   2.396   7.209  1.00  0.00     0.014 A 
ATOM     26  C   UNL     1      -0.923   0.728  10.391  1.00  0.00     0.001 A 
ATOM     27  C   UNL     1       0.707   2.335   8.291  1.00  0.00     0.001 A 
ATOM     28  C   UNL     1       0.606   1.493   9.875  1.00  0.00     0.000 A 
ENDBRANCH  20  23
ENDBRANCH  12  19
ENDBRANCH   7   8
ENDBRANCH   6   7
ENDBRANCH   3   6
ENDBRANCH   1   2
BRANCH   1  29
ATOM     29  C   UNL     1       1.213   5.577   8.173  1.00  0.00     0.042 C 
BRANCH  29  30
ATOM     30  C   UNL     1       1.185   6.679   7.140  1.00  0.00     0.118 C 
BRANCH  30  31
ATOM     31  N   UNL     1       1.336   8.013   7.705  1.00  0.00    -0.352 N 
ATOM     32  C   UNL     1       1.481   9.198   7.006  1.00  0.00     0.251 C 
ATOM     33  H   UNL     1       1.334   8.078   8.687  1.00  0.00     0.163 HD
ATOM     34  O   UNL     1       1.926  10.193   7.566  1.00  0.00    -0.269 OA
BRANCH  32  35
ATOM     35  C   UNL     1       1.127   9.213   5.573  1.00  0.00     0.039 A 
ATOM     36  C   UNL     1       1.926   9.869   4.638  1.00  0.00     0.014 A 
ATOM     37  C   UNL     1       0.013   8.483   5.161  1.00  0.00     0.014 A 
ATOM     38  C   UNL     1       1.641   9.702   3.285  1.00  0.00     0.010 A 
ATOM     39  C   UNL     1      -0.150   8.168   3.836  1.00  0.00     0.010 A 
ATOM     40  C   UNL     1       0.622   8.817   2.885  1.00  0.00    -0.014 A 
BRANCH  40  41
ATOM     41  C   UNL     1       0.415   8.502   1.474  1.00  0.00     0.031 A 
ATOM     42  C   UNL     1       1.656   8.193   0.723  1.00  0.00     0.074 A 
ATOM     43  C   UNL     1      -0.790   8.376   0.878  1.00  0.00     0.049 A 
ATOM     44  N   UNL     1       2.290   8.996  -0.062  1.00  0.00    -0.248 NA
ATOM     45  C   UNL     1       2.375   6.942   0.997  1.00  0.00     0.031 C 
ATOM     46  C   UNL     1      -2.127   8.399   1.481  1.00  0.00     0.029 A 
ATOM     47  N   UNL     1      -1.061   8.123  -0.432  1.00  0.00    -0.354 N 
ATOM     48  C   UNL     1       3.357   8.276  -0.578  1.00  0.00     0.074 A 
ATOM     49  C   UNL     1       3.474   7.106   0.253  1.00  0.00     0.031 C 
ATOM     50  C   UNL     1      -3.040   7.958   0.588  1.00  0.00     0.029 A 
ATOM     51  C   UNL     1      -2.388   7.805  -0.699  1.00  0.00     0.049 A 
ATOM     52  H   UNL     1      -0.372   8.164  -1.135  1.00  0.00     0.167 HD
ATOM     53  C   UNL     1       3.902   8.612  -1.780  1.00  0.00     0.034 A 
ATOM     54  C   UNL     1      -2.929   7.462  -1.897  1.00  0.00     0.034 A 
ATOM     55  C   UNL     1       3.431   9.912  -2.213  1.00  0.00     0.049 A 
ATOM     56  C   UNL     1      -2.058   8.060  -2.938  1.00  0.00     0.074 A 
ATOM     57  C   UNL     1       3.495  11.188  -1.684  1.00  0.00     0.029 A 
ATOM     58  N   UNL     1       2.415   9.950  -3.144  1.00  0.00    -0.354 N 
ATOM     59  N   UNL     1      -1.928   9.349  -3.096  1.00  0.00    -0.248 NA
ATOM     60  C   UNL     1      -0.959   7.264  -3.464  1.00  0.00     0.031 C 
ATOM     61  C   UNL     1       2.211  11.755  -1.941  1.00  0.00     0.029 A 
ATOM     62  C   UNL     1       1.469  10.838  -2.691  1.00  0.00     0.049 A 
ATOM     63  H   UNL     1       2.375   9.435  -3.982  1.00  0.00     0.167 HD
ATOM     64  C   UNL     1      -0.573   9.550  -3.310  1.00  0.00     0.074 A 
ATOM     65  C   UNL     1      -0.046   8.226  -3.636  1.00  0.00     0.031 C 
ATOM     66  C   UNL     1       0.041  10.712  -2.933  1.00  0.00     0.034 A 
BRANCH  53  67
ATOM     67  C   UNL     1       4.570   7.657  -2.739  1.00  0.00     0.023 A 
ATOM     68  C   UNL     1       5.116   8.204  -3.916  1.00  0.00     0.031 A 
ATOM     69  C   UNL     1       4.451   6.250  -2.710  1.00  0.00     0.131 A 
ATOM     70  C   UNL     1       5.415   7.389  -5.020  1.00  0.00     0.055 A 
ATOM     71  C   UNL     1       4.817   5.437  -3.787  1.00  0.00     0.041 A 
ATOM     72  F   UNL     1       3.887   5.592  -1.691  1.00  0.00    -0.206 F 
ATOM     73  C   UNL     1       5.271   6.006  -4.963  1.00  0.00     0.022 A 
BRANCH  70  74
ATOM     74  S   UNL     1       5.818   8.192  -6.593  1.00  0.00     0.124 S 
ATOM     75  O   UNL     1       4.658   9.054  -6.789  1.00  0.00    -0.237 OA
ATOM     76  O   UNL     1       7.074   8.862  -6.274  1.00  0.00    -0.237 OA
ATOM     77  O   UNL     1       5.928   7.072  -7.525  1.00  0.00    -0.744 OA
ENDBRANCH  70  74
ENDBRANCH  53  67
BRANCH  54  78
ATOM     78  C   UNL     1      -3.956   6.417  -2.155  1.00  0.00     0.023 A 
ATOM     79  C   UNL     1      -4.688   6.341  -3.358  1.00  0.00     0.031 A 
ATOM     80  C   UNL     1      -4.047   5.304  -1.286  1.00  0.00     0.131 A 
ATOM     81  C   UNL     1      -5.455   5.188  -3.653  1.00  0.00     0.055 A 
ATOM     82  C   UNL     1      -4.808   4.172  -1.581  1.00  0.00     0.041 A 
ATOM     83  F   UNL     1      -3.322   5.242  -0.157  1.00  0.00    -0.206 F 
ATOM     84  C   UNL     1      -5.507   4.104  -2.774  1.00  0.00     0.022 A 
BRANCH  81  85
ATOM     85  S   UNL     1      -6.322   5.037  -5.251  1.00  0.00     0.124 S 
ATOM     86  O   UNL     1      -7.389   6.021  -5.120  1.00  0.00    -0.237 OA
ATOM     87  O   UNL     1      -5.266   5.345  -6.209  1.00  0.00    -0.237 OA
ATOM     88  O   UNL     1      -6.769   3.643  -5.265  1.00  0.00    -0.744 OA
ENDBRANCH  81  85
ENDBRANCH  54  78
BRANCH  66  89
ATOM     89  C   UNL     1      -0.829  11.897  -2.547  1.00  0.00     0.023 A 
ATOM     90  C   UNL     1      -1.805  11.892  -1.523  1.00  0.00     0.031 A 
ATOM     91  C   UNL     1      -0.565  13.122  -3.185  1.00  0.00     0.131 A 
ATOM     92  C   UNL     1      -2.481  13.083  -1.185  1.00  0.00     0.055 A 
ATOM     93  C   UNL     1      -1.217  14.303  -2.831  1.00  0.00     0.041 A 
ATOM     94  F   UNL     1       0.366  13.201  -4.150  1.00  0.00    -0.206 F 
ATOM     95  C   UNL     1      -2.184  14.286  -1.833  1.00  0.00     0.022 A 
BRANCH  92  96
ATOM     96  S   UNL     1      -3.780  13.087   0.094  1.00  0.00     0.124 S 
ATOM     97  O   UNL     1      -4.622  11.953  -0.270  1.00  0.00    -0.237 OA
ATOM     98  O   UNL     1      -3.012  12.943   1.327  1.00  0.00    -0.237 OA
ATOM     99  O   UNL     1      -4.418  14.395  -0.074  1.00  0.00    -0.744 OA
ENDBRANCH  92  96
ENDBRANCH  66  89
ENDBRANCH  40  41
ENDBRANCH  32  35
ENDBRANCH  30  31
ENDBRANCH  29  30
ENDBRANCH   1  29
TORSDOF 20
