REMARK SMILES Cc1nc(-c2ccccc2)sc1C(=O)N[C@@H](CC1=c2ccccc2=NC1)C(=O)NCCCNC(=O)c1ccc(-c2c3nc(c(-c4cc(S(=O)(=O)[O-])ccc4F)c4ccc([nH]4)c(-c4cc(S(=O)(=O)[O-])ccc4F)c4nc(c(-c5cc(S(=O)(=O)[O-])ccc5F)c5ccc2[nH]5)C=C4)C=C3)cc1
REMARK SMILES IDX 31 1 30 2 29 3 27 4 28 5 16 7 15 8 13 9 14 10 12 12 1 13
REMARK SMILES IDX 2 14 3 15 4 16 11 17 5 18 6 19 10 20 7 21 9 22 8 23 17 24
REMARK SMILES IDX 18 25 19 26 26 27 20 28 24 29 25 30 21 31 23 32 22 33 32 34
REMARK SMILES IDX 33 35 34 36 35 38 36 39 37 40 98 41 38 42 97 43 39 44 40 45
REMARK SMILES IDX 41 46 91 47 42 48 96 49 90 50 92 51 43 52 95 53 89 54 88 55
REMARK SMILES IDX 44 57 76 58 56 59 75 60 57 61 60 62 74 63 93 64 58 65 59 66
REMARK SMILES IDX 73 68 94 69 61 70 45 71 46 72 54 73 47 74 53 75 55 76 52 77
REMARK SMILES IDX 48 78 49 79 50 80 51 81 77 82 78 83 86 84 79 85 85 86 87 87
REMARK SMILES IDX 84 88 80 89 81 90 82 91 83 92 62 93 63 94 71 95 64 96 70 97
REMARK SMILES IDX 72 98 69 99 65 100 66 101 67 102 68 103
REMARK H PARENT 29 6 15 11 33 37 92 56 60 67
REMARK Flexibility Score: inf
ROOT
ATOM      1  C   UNL     1      -3.319  -6.231   2.041  1.00  0.00     0.042 C 
ENDROOT
BRANCH   1   2
ATOM      2  C   UNL     1      -3.848  -5.121   1.173  1.00  0.00     0.117 C 
BRANCH   2   3
ATOM      3  N   UNL     1      -4.148  -3.896   1.867  1.00  0.00    -0.354 N 
ATOM      4  C   UNL     1      -4.003  -2.624   1.418  1.00  0.00     0.242 C 
ATOM      5  O   UNL     1      -4.610  -1.738   2.030  1.00  0.00    -0.273 OA
ATOM      6  H   UNL     1      -4.502  -3.994   2.780  1.00  0.00     0.163 HD
BRANCH   4   7
ATOM      7  C   UNL     1      -3.157  -2.262   0.179  1.00  0.00     0.175 C 
BRANCH   7   8
ATOM      8  N   UNL     1      -1.770  -2.678   0.235  1.00  0.00    -0.339 N 
ATOM      9  C   UNL     1      -0.584  -2.008   0.089  1.00  0.00     0.263 C 
ATOM     10  O   UNL     1       0.385  -2.779   0.096  1.00  0.00    -0.268 OA
ATOM     11  H   UNL     1      -1.656  -3.639   0.415  1.00  0.00     0.164 HD
BRANCH   9  12
ATOM     12  C   UNL     1      -0.426  -0.557  -0.046  1.00  0.00     0.115 A 
ATOM     13  C   UNL     1      -2.648   0.820  -0.539  1.00  0.00     0.068 C 
ATOM     14  C   UNL     1      -1.207   0.582  -0.266  1.00  0.00     0.062 A 
ATOM     15  N   UNL     1      -0.518   1.780  -0.225  1.00  0.00    -0.241 NA
ATOM     16  C   UNL     1       0.764   1.599  -0.066  1.00  0.00     0.124 A 
ATOM     17  S   UNL     1       1.251  -0.015   0.081  1.00  0.00    -0.108 S 
BRANCH  16  18
ATOM     18  C   UNL     1       1.685   2.723  -0.008  1.00  0.00     0.010 A 
ATOM     19  C   UNL     1       1.490   3.691   0.988  1.00  0.00     0.011 A 
ATOM     20  C   UNL     1       2.613   2.959  -1.028  1.00  0.00     0.011 A 
ATOM     21  C   UNL     1       2.195   4.891   0.954  1.00  0.00     0.001 A 
ATOM     22  C   UNL     1       3.313   4.166  -1.064  1.00  0.00     0.001 A 
ATOM     23  C   UNL     1       3.097   5.132  -0.080  1.00  0.00     0.000 A 
ENDBRANCH  16  18
ENDBRANCH   9  12
ENDBRANCH   7   8
BRANCH   7  24
ATOM     24  C   UNL     1      -3.807  -2.464  -1.217  1.00  0.00     0.068 C 
BRANCH  24  25
ATOM     25  C   UNL     1      -4.019  -3.858  -1.728  1.00  0.00    -0.037 C 
ATOM     26  C   UNL     1      -3.121  -4.794  -2.042  1.00  0.00     0.001 A 
ATOM     27  C   UNL     1      -5.410  -4.412  -1.848  1.00  0.00     0.174 C 
ATOM     28  C   UNL     1      -1.696  -4.859  -2.098  1.00  0.00     0.010 A 
ATOM     29  C   UNL     1      -3.949  -6.015  -2.095  1.00  0.00     0.065 A 
ATOM     30  N   UNL     1      -5.237  -5.869  -2.026  1.00  0.00    -0.280 NA
ATOM     31  C   UNL     1      -1.102  -6.064  -2.092  1.00  0.00     0.001 A 
ATOM     32  C   UNL     1      -3.223  -7.304  -2.088  1.00  0.00     0.028 A 
ATOM     33  C   UNL     1      -1.879  -7.291  -2.047  1.00  0.00     0.002 A 
ENDBRANCH  24  25
ENDBRANCH   7  24
ENDBRANCH   4   7
ENDBRANCH   2   3
ENDBRANCH   1   2
BRANCH   1  34
ATOM     34  C   UNL     1      -4.302  -6.683   3.099  1.00  0.00     0.118 C 
BRANCH  34  35
ATOM     35  N   UNL     1      -5.579  -7.129   2.554  1.00  0.00    -0.352 N 
ATOM     36  C   UNL     1      -6.167  -8.377   2.538  1.00  0.00     0.251 C 
ATOM     37  H   UNL     1      -6.111  -6.421   2.125  1.00  0.00     0.163 HD
ATOM     38  O   UNL     1      -7.186  -8.559   1.894  1.00  0.00    -0.269 OA
BRANCH  36  39
ATOM     39  C   UNL     1      -5.528  -9.492   3.269  1.00  0.00     0.039 A 
ATOM     40  C   UNL     1      -5.490 -10.758   2.684  1.00  0.00     0.014 A 
ATOM     41  C   UNL     1      -4.924  -9.275   4.505  1.00  0.00     0.014 A 
ATOM     42  C   UNL     1      -4.761 -11.774   3.303  1.00  0.00     0.010 A 
ATOM     43  C   UNL     1      -4.068 -10.230   5.028  1.00  0.00     0.010 A 
ATOM     44  C   UNL     1      -3.993 -11.501   4.448  1.00  0.00    -0.014 A 
BRANCH  44  45
ATOM     45  C   UNL     1      -3.128 -12.536   5.067  1.00  0.00     0.031 A 
ATOM     46  C   UNL     1      -3.336 -12.927   6.508  1.00  0.00     0.074 A 
ATOM     47  C   UNL     1      -2.123 -13.075   4.348  1.00  0.00     0.049 A 
ATOM     48  N   UNL     1      -2.668 -13.781   7.238  1.00  0.00    -0.248 NA
ATOM     49  C   UNL     1      -4.406 -12.228   7.239  1.00  0.00     0.031 C 
ATOM     50  C   UNL     1      -1.775 -12.710   2.971  1.00  0.00     0.029 A 
ATOM     51  N   UNL     1      -1.214 -14.050   4.667  1.00  0.00    -0.354 N 
ATOM     52  C   UNL     1      -3.225 -13.707   8.511  1.00  0.00     0.074 A 
ATOM     53  C   UNL     1      -4.216 -12.657   8.476  1.00  0.00     0.031 C 
ATOM     54  C   UNL     1      -0.772 -13.493   2.546  1.00  0.00     0.029 A 
ATOM     55  C   UNL     1      -0.371 -14.381   3.631  1.00  0.00     0.049 A 
ATOM     56  H   UNL     1      -1.168 -14.474   5.554  1.00  0.00     0.167 HD
ATOM     57  C   UNL     1      -2.963 -14.472   9.598  1.00  0.00     0.034 A 
ATOM     58  C   UNL     1       0.610 -15.302   3.564  1.00  0.00     0.034 A 
ATOM     59  C   UNL     1      -1.989 -15.534   9.600  1.00  0.00     0.049 A 
ATOM     60  C   UNL     1       0.872 -16.154   4.779  1.00  0.00     0.074 A 
ATOM     61  C   UNL     1      -1.680 -16.422  10.614  1.00  0.00     0.029 A 
ATOM     62  N   UNL     1      -1.160 -15.850   8.528  1.00  0.00    -0.354 N 
ATOM     63  N   UNL     1       0.284 -16.123   5.954  1.00  0.00    -0.248 NA
ATOM     64  C   UNL     1       1.916 -17.176   4.651  1.00  0.00     0.031 C 
ATOM     65  C   UNL     1      -0.620 -17.228  10.181  1.00  0.00     0.029 A 
ATOM     66  C   UNL     1      -0.319 -16.898   8.869  1.00  0.00     0.049 A 
ATOM     67  H   UNL     1      -1.169 -15.395   7.655  1.00  0.00     0.167 HD
ATOM     68  C   UNL     1       0.876 -17.137   6.700  1.00  0.00     0.074 A 
ATOM     69  C   UNL     1       1.840 -17.780   5.827  1.00  0.00     0.031 C 
ATOM     70  C   UNL     1       0.652 -17.505   7.989  1.00  0.00     0.034 A 
BRANCH  57  71
ATOM     71  C   UNL     1      -3.736 -14.171  10.863  1.00  0.00     0.023 A 
ATOM     72  C   UNL     1      -5.140 -14.262  10.912  1.00  0.00     0.031 A 
ATOM     73  C   UNL     1      -3.068 -13.743  12.023  1.00  0.00     0.131 A 
ATOM     74  C   UNL     1      -5.832 -13.845  12.059  1.00  0.00     0.055 A 
ATOM     75  C   UNL     1      -3.758 -13.418  13.193  1.00  0.00     0.041 A 
ATOM     76  F   UNL     1      -1.732 -13.613  12.035  1.00  0.00    -0.206 F 
ATOM     77  C   UNL     1      -5.150 -13.450  13.210  1.00  0.00     0.022 A 
BRANCH  74  78
ATOM     78  S   UNL     1      -7.636 -13.675  11.967  1.00  0.00     0.124 S 
ATOM     79  O   UNL     1      -7.785 -12.704  10.886  1.00  0.00    -0.237 OA
ATOM     80  O   UNL     1      -8.067 -15.036  11.668  1.00  0.00    -0.237 OA
ATOM     81  O   UNL     1      -8.002 -13.181  13.293  1.00  0.00    -0.744 OA
ENDBRANCH  74  78
ENDBRANCH  57  71
BRANCH  58  82
ATOM     82  C   UNL     1       1.402 -15.479   2.313  1.00  0.00     0.023 A 
ATOM     83  C   UNL     1       1.349 -16.680   1.587  1.00  0.00     0.031 A 
ATOM     84  C   UNL     1       2.249 -14.461   1.839  1.00  0.00     0.131 A 
ATOM     85  C   UNL     1       2.164 -16.852   0.456  1.00  0.00     0.055 A 
ATOM     86  C   UNL     1       3.017 -14.617   0.683  1.00  0.00     0.041 A 
ATOM     87  F   UNL     1       2.332 -13.289   2.488  1.00  0.00    -0.206 F 
ATOM     88  C   UNL     1       2.987 -15.824  -0.008  1.00  0.00     0.022 A 
BRANCH  85  89
ATOM     89  S   UNL     1       2.193 -18.475  -0.355  1.00  0.00     0.124 S 
ATOM     90  O   UNL     1       2.602 -19.347   0.740  1.00  0.00    -0.237 OA
ATOM     91  O   UNL     1       0.812 -18.613  -0.805  1.00  0.00    -0.237 OA
ATOM     92  O   UNL     1       3.179 -18.304  -1.420  1.00  0.00    -0.744 OA
ENDBRANCH  85  89
ENDBRANCH  58  82
BRANCH  70  93
ATOM     93  C   UNL     1       1.458 -18.670   8.507  1.00  0.00     0.023 A 
ATOM     94  C   UNL     1       2.857 -18.597   8.630  1.00  0.00     0.031 A 
ATOM     95  C   UNL     1       0.827 -19.880   8.845  1.00  0.00     0.131 A 
ATOM     96  C   UNL     1       3.586 -19.736   8.999  1.00  0.00     0.055 A 
ATOM     97  C   UNL     1       1.551 -20.988   9.285  1.00  0.00     0.041 A 
ATOM     98  F   UNL     1      -0.506 -20.007   8.745  1.00  0.00    -0.206 F 
ATOM     99  C   UNL     1       2.940 -20.926   9.346  1.00  0.00     0.022 A 
BRANCH  96 100
ATOM    100  S   UNL     1       5.395 -19.679   8.891  1.00  0.00     0.124 S 
ATOM    101  O   UNL     1       5.602 -19.309   7.494  1.00  0.00    -0.237 OA
ATOM    102  O   UNL     1       5.734 -18.658   9.877  1.00  0.00    -0.237 OA
ATOM    103  O   UNL     1       5.802 -21.039   9.240  1.00  0.00    -0.744 OA
ENDBRANCH  96 100
ENDBRANCH  70  93
ENDBRANCH  44  45
ENDBRANCH  36  39
ENDBRANCH  34  35
ENDBRANCH   1  34
TORSDOF 18
