REMARK SMILES CCOc1ccc(-n2nnc(-c3nc(C)c(C(=O)NCCCNC(=O)c4ccc(-c5c6nc(c(-c7cc(S(=O)(=O)[O-])ccc7F)c7ccc([nH]7)c(-c7cc(S(=O)(=O)[O-])ccc7F)c7nc(c(-c8cc(S(=O)(=O)[O-])ccc8F)c8ccc5[nH]8)C=C7)C=C6)cc4)s3)c2C)cc1
REMARK SMILES IDX 20 1 19 2 17 3 18 4 16 6 12 7 13 8 89 9 14 10 15 11 11 12
REMARK SMILES IDX 8 13 9 14 90 15 10 16 91 17 7 18 4 19 5 20 93 21 6 22 92 23
REMARK SMILES IDX 3 24 2 25 1 26 21 27 22 28 23 29 24 30 25 32 26 33 27 34
REMARK SMILES IDX 88 35 28 36 87 37 29 38 30 39 31 40 81 41 32 42 86 43 80 44
REMARK SMILES IDX 82 45 33 46 85 47 79 48 78 49 34 51 66 52 46 53 65 54 47 55
REMARK SMILES IDX 50 56 64 57 83 58 48 59 49 60 63 62 84 63 51 64 35 65 36 66
REMARK SMILES IDX 44 67 37 68 43 69 45 70 42 71 38 72 39 73 40 74 41 75 67 76
REMARK SMILES IDX 68 77 76 78 69 79 75 80 77 81 74 82 70 83 71 84 72 85 73 86
REMARK SMILES IDX 52 87 53 88 61 89 54 90 60 91 62 92 59 93 55 94 56 95 57 96
REMARK SMILES IDX 58 97
REMARK H PARENT 19 5 23 31 82 50 50 61
REMARK Flexibility Score: inf
ROOT
ATOM      1  C   UNL     1       8.323  -5.244  -5.887  1.00  0.00     0.118 C 
ENDROOT
BRANCH   1   2
ATOM      2  N   UNL     1       9.649  -5.823  -5.696  1.00  0.00    -0.351 N 
ATOM      3  C   UNL     1      10.738  -5.362  -4.979  1.00  0.00     0.263 C 
ATOM      4  O   UNL     1      11.692  -6.125  -4.862  1.00  0.00    -0.268 OA
ATOM      5  H   UNL     1       9.791  -6.684  -6.152  1.00  0.00     0.163 HD
BRANCH   3   6
ATOM      6  C   UNL     1      10.667  -4.083  -4.307  1.00  0.00     0.115 A 
ATOM      7  C   UNL     1       9.816  -1.996  -3.511  1.00  0.00     0.146 A 
ATOM      8  N   UNL     1      10.501  -2.577  -2.546  1.00  0.00    -0.239 NA
ATOM      9  S   UNL     1      10.097  -2.650  -5.068  1.00  0.00    -0.107 S 
ATOM     10  C   UNL     1      11.163  -3.693  -3.070  1.00  0.00     0.062 A 
ATOM     11  C   UNL     1      12.196  -4.375  -2.243  1.00  0.00     0.068 C 
BRANCH   7  12
ATOM     12  C   UNL     1       8.697  -1.027  -3.322  1.00  0.00     0.145 A 
ATOM     13  N   UNL     1       6.655  -0.278  -3.192  1.00  0.00    -0.217 N 
ATOM     14  N   UNL     1       7.396   0.638  -3.858  1.00  0.00    -0.061 NA
ATOM     15  C   UNL     1       7.421  -1.405  -2.932  1.00  0.00     0.072 A 
ATOM     16  N   UNL     1       8.645   0.197  -3.926  1.00  0.00    -0.127 NA
ATOM     17  C   UNL     1       6.884  -2.756  -2.610  1.00  0.00     0.069 C 
BRANCH  13  18
ATOM     18  C   UNL     1       5.282  -0.062  -2.931  1.00  0.00     0.067 A 
ATOM     19  C   UNL     1       2.538   0.195  -2.489  1.00  0.00     0.119 A 
ATOM     20  C   UNL     1       3.111   0.746  -3.636  1.00  0.00     0.048 A 
ATOM     21  C   UNL     1       3.333  -0.481  -1.568  1.00  0.00     0.048 A 
ATOM     22  C   UNL     1       4.492   0.643  -3.850  1.00  0.00     0.032 A 
ATOM     23  C   UNL     1       4.705  -0.595  -1.775  1.00  0.00     0.032 A 
BRANCH  19  24
ATOM     24  O   UNL     1       1.176   0.202  -2.370  1.00  0.00    -0.494 OA
BRANCH  24  25
ATOM     25  C   UNL     1       0.686   0.998  -1.284  1.00  0.00     0.226 C 
ATOM     26  C   UNL     1       0.653   0.245   0.039  1.00  0.00     0.049 C 
ENDBRANCH  24  25
ENDBRANCH  19  24
ENDBRANCH  13  18
ENDBRANCH   7  12
ENDBRANCH   3   6
ENDBRANCH   1   2
BRANCH   1  27
ATOM     27  C   UNL     1       8.208  -4.452  -7.195  1.00  0.00     0.042 C 
BRANCH  27  28
ATOM     28  C   UNL     1       7.976  -5.357  -8.387  1.00  0.00     0.118 C 
BRANCH  28  29
ATOM     29  N   UNL     1       6.619  -5.902  -8.422  1.00  0.00    -0.352 N 
ATOM     30  C   UNL     1       6.072  -6.728  -9.389  1.00  0.00     0.251 C 
ATOM     31  H   UNL     1       6.029  -5.654  -7.674  1.00  0.00     0.163 HD
ATOM     32  O   UNL     1       4.861  -6.810  -9.525  1.00  0.00    -0.269 OA
BRANCH  30  33
ATOM     33  C   UNL     1       6.996  -7.501 -10.239  1.00  0.00     0.039 A 
ATOM     34  C   UNL     1       6.799  -7.639 -11.614  1.00  0.00     0.014 A 
ATOM     35  C   UNL     1       8.120  -8.043  -9.620  1.00  0.00     0.014 A 
ATOM     36  C   UNL     1       7.794  -8.260 -12.369  1.00  0.00     0.010 A 
ATOM     37  C   UNL     1       9.169  -8.482 -10.381  1.00  0.00     0.010 A 
ATOM     38  C   UNL     1       8.989  -8.659 -11.745  1.00  0.00    -0.014 A 
BRANCH  38  39
ATOM     39  C   UNL     1      10.142  -9.120 -12.512  1.00  0.00     0.031 A 
ATOM     40  C   UNL     1      10.572  -8.156 -13.559  1.00  0.00     0.074 A 
ATOM     41  C   UNL     1      10.890 -10.188 -12.148  1.00  0.00     0.049 A 
ATOM     42  N   UNL     1      10.417  -8.268 -14.835  1.00  0.00    -0.248 NA
ATOM     43  C   UNL     1      11.036  -6.820 -13.142  1.00  0.00     0.031 C 
ATOM     44  C   UNL     1      10.742 -11.042 -10.963  1.00  0.00     0.029 A 
ATOM     45  N   UNL     1      12.024 -10.683 -12.715  1.00  0.00    -0.354 N 
ATOM     46  C   UNL     1      11.033  -7.153 -15.391  1.00  0.00     0.074 A 
ATOM     47  C   UNL     1      11.151  -6.203 -14.320  1.00  0.00     0.031 C 
ATOM     48  C   UNL     1      11.864 -11.775 -10.779  1.00  0.00     0.029 A 
ATOM     49  C   UNL     1      12.743 -11.578 -11.918  1.00  0.00     0.049 A 
ATOM     50  H   UNL     1      12.317 -10.429 -13.620  1.00  0.00     0.167 HD
ATOM     51  C   UNL     1      11.651  -7.237 -16.604  1.00  0.00     0.034 A 
ATOM     52  C   UNL     1      13.973 -12.115 -12.170  1.00  0.00     0.034 A 
ATOM     53  C   UNL     1      11.252  -8.449 -17.292  1.00  0.00     0.049 A 
ATOM     54  C   UNL     1      14.176 -12.004 -13.637  1.00  0.00     0.074 A 
ATOM     55  C   UNL     1      10.038  -8.979 -17.689  1.00  0.00     0.029 A 
ATOM     56  N   UNL     1      12.130  -9.512 -17.281  1.00  0.00    -0.354 N 
ATOM     57  N   UNL     1      13.439 -12.643 -14.505  1.00  0.00    -0.248 NA
ATOM     58  C   UNL     1      14.818 -10.799 -14.142  1.00  0.00     0.031 C 
ATOM     59  C   UNL     1      10.130 -10.369 -17.381  1.00  0.00     0.029 A 
ATOM     60  C   UNL     1      11.424 -10.636 -16.927  1.00  0.00     0.049 A 
ATOM     61  H   UNL     1      13.092  -9.472 -17.489  1.00  0.00     0.167 HD
ATOM     62  C   UNL     1      13.156 -11.710 -15.491  1.00  0.00     0.074 A 
ATOM     63  C   UNL     1      14.105 -10.618 -15.258  1.00  0.00     0.031 C 
ATOM     64  C   UNL     1      11.994 -11.764 -16.209  1.00  0.00     0.034 A 
BRANCH  51  65
ATOM     65  C   UNL     1      12.902  -6.475 -16.999  1.00  0.00     0.023 A 
ATOM     66  C   UNL     1      13.427  -6.742 -18.278  1.00  0.00     0.031 A 
ATOM     67  C   UNL     1      13.754  -5.757 -16.129  1.00  0.00     0.131 A 
ATOM     68  C   UNL     1      14.759  -6.429 -18.596  1.00  0.00     0.055 A 
ATOM     69  C   UNL     1      15.057  -5.388 -16.474  1.00  0.00     0.041 A 
ATOM     70  F   UNL     1      13.421  -5.445 -14.873  1.00  0.00    -0.206 F 
ATOM     71  C   UNL     1      15.582  -5.756 -17.699  1.00  0.00     0.022 A 
BRANCH  68  72
ATOM     72  S   UNL     1      15.449  -7.093 -20.132  1.00  0.00     0.124 S 
ATOM     73  O   UNL     1      15.182  -8.519 -19.977  1.00  0.00    -0.237 OA
ATOM     74  O   UNL     1      14.660  -6.394 -21.140  1.00  0.00    -0.237 OA
ATOM     75  O   UNL     1      16.857  -6.708 -20.064  1.00  0.00    -0.744 OA
ENDBRANCH  68  72
ENDBRANCH  51  65
BRANCH  52  76
ATOM     76  C   UNL     1      15.084 -12.369 -11.199  1.00  0.00     0.023 A 
ATOM     77  C   UNL     1      16.182 -13.225 -11.462  1.00  0.00     0.031 A 
ATOM     78  C   UNL     1      15.197 -11.542 -10.059  1.00  0.00     0.131 A 
ATOM     79  C   UNL     1      17.317 -13.223 -10.607  1.00  0.00     0.055 A 
ATOM     80  C   UNL     1      16.320 -11.540  -9.225  1.00  0.00     0.041 A 
ATOM     81  F   UNL     1      14.251 -10.638  -9.762  1.00  0.00    -0.206 F 
ATOM     82  C   UNL     1      17.390 -12.374  -9.501  1.00  0.00     0.022 A 
BRANCH  79  83
ATOM     83  S   UNL     1      18.769 -14.280 -10.954  1.00  0.00     0.124 S 
ATOM     84  O   UNL     1      18.230 -15.623 -10.773  1.00  0.00    -0.237 OA
ATOM     85  O   UNL     1      19.119 -13.899 -12.318  1.00  0.00    -0.237 OA
ATOM     86  O   UNL     1      19.742 -13.872  -9.940  1.00  0.00    -0.744 OA
ENDBRANCH  79  83
ENDBRANCH  52  76
BRANCH  64  87
ATOM     87  C   UNL     1      11.142 -13.020 -16.123  1.00  0.00     0.023 A 
ATOM     88  C   UNL     1      10.580 -13.558 -14.940  1.00  0.00     0.031 A 
ATOM     89  C   UNL     1      10.788 -13.625 -17.342  1.00  0.00     0.131 A 
ATOM     90  C   UNL     1       9.707 -14.665 -15.015  1.00  0.00     0.055 A 
ATOM     91  C   UNL     1       9.906 -14.701 -17.413  1.00  0.00     0.041 A 
ATOM     92  F   UNL     1      11.271 -13.149 -18.503  1.00  0.00    -0.206 F 
ATOM     93  C   UNL     1       9.365 -15.229 -16.248  1.00  0.00     0.022 A 
BRANCH  90  94
ATOM     94  S   UNL     1       9.008 -15.418 -13.506  1.00  0.00     0.124 S 
ATOM     95  O   UNL     1      10.164 -15.567 -12.631  1.00  0.00    -0.237 OA
ATOM     96  O   UNL     1       8.013 -14.433 -13.090  1.00  0.00    -0.237 OA
ATOM     97  O   UNL     1       8.443 -16.681 -13.986  1.00  0.00    -0.744 OA
ENDBRANCH  90  94
ENDBRANCH  64  87
ENDBRANCH  38  39
ENDBRANCH  30  33
ENDBRANCH  28  29
ENDBRANCH  27  28
ENDBRANCH   1  27
TORSDOF 17
