REMARK SMILES CC(C)C[C@H](CNC(=O)N[C@@H](C)C1CCCCC1)C(=O)NCCCNC(=O)c1ccc(-c2c3nc(c(-c4cc(S(=O)(=O)[O-])ccc4F)c4ccc([nH]4)c(-c4cc(S(=O)(=O)[O-])ccc4F)c4nc(c(-c5cc(S(=O)(=O)[O-])ccc5F)c5ccc2[nH]5)C=C4)C=C3)cc1
REMARK SMILES IDX 22 1 21 2 19 3 20 4 5 6 4 7 2 8 1 9 3 10 6 11 7 12 8 13 9 15
REMARK SMILES IDX 10 16 11 18 12 19 13 20 14 21 18 22 15 23 17 24 16 25 23 26
REMARK SMILES IDX 24 27 25 28 26 29 27 31 28 32 29 33 90 34 30 35 89 36 31 37
REMARK SMILES IDX 32 38 33 39 83 40 34 41 88 42 82 43 84 44 35 45 87 46 81 47
REMARK SMILES IDX 80 48 36 50 68 51 48 52 67 53 49 54 52 55 66 56 85 57 50 58
REMARK SMILES IDX 51 59 65 61 86 62 53 63 37 64 38 65 46 66 39 67 45 68 47 69
REMARK SMILES IDX 44 70 40 71 41 72 42 73 43 74 69 75 70 76 78 77 71 78 77 79
REMARK SMILES IDX 79 80 76 81 72 82 73 83 74 84 75 85 54 86 55 87 63 88 56 89
REMARK SMILES IDX 62 90 64 91 61 92 57 93 58 94 59 95 60 96
REMARK H PARENT 21 5 7 14 10 17 25 30 84 49 52 60
REMARK Flexibility Score: inf
ROOT
ATOM      1  C   UNL     1      -3.603   3.385   1.567  1.00  0.00     0.117 C 
ENDROOT
BRANCH   1   2
ATOM      2  N   UNL     1      -4.076   2.023   1.391  1.00  0.00    -0.356 N 
ATOM      3  C   UNL     1      -3.363   0.871   1.258  1.00  0.00     0.224 C 
ATOM      4  O   UNL     1      -3.977  -0.190   1.135  1.00  0.00    -0.275 OA
ATOM      5  H   UNL     1      -5.055   1.917   1.363  1.00  0.00     0.163 HD
BRANCH   3   6
ATOM      6  C   UNL     1      -1.840   0.903   1.226  1.00  0.00     0.098 C 
BRANCH   6   7
ATOM      7  C   UNL     1      -1.166   1.394   2.539  1.00  0.00     0.018 C 
BRANCH   7   8
ATOM      8  C   UNL     1      -2.025   1.352   3.832  1.00  0.00    -0.017 C 
ATOM      9  C   UNL     1      -2.337  -0.065   4.309  1.00  0.00     0.007 C 
ATOM     10  C   UNL     1      -1.356   2.149   4.956  1.00  0.00     0.007 C 
ENDBRANCH   7   8
ENDBRANCH   6   7
BRANCH   6  11
ATOM     11  C   UNL     1      -1.431   1.569  -0.115  1.00  0.00     0.131 C 
BRANCH  11  12
ATOM     12  N   UNL     1      -0.645   2.788  -0.020  1.00  0.00    -0.337 N 
ATOM     13  C   UNL     1       0.643   3.123  -0.064  1.00  0.00     0.315 C 
ATOM     14  H   UNL     1      -1.218   3.577   0.112  1.00  0.00     0.165 HD
ATOM     15  O   UNL     1       0.928   4.303   0.153  1.00  0.00    -0.249 OA
ATOM     16  N   UNL     1       1.640   2.277  -0.316  1.00  0.00    -0.335 N 
ATOM     17  H   UNL     1       2.528   2.679  -0.181  1.00  0.00     0.165 HD
BRANCH  16  18
ATOM     18  C   UNL     1       1.702   0.892  -0.746  1.00  0.00     0.083 C 
ATOM     19  C   UNL     1       1.993   0.838  -2.245  1.00  0.00     0.031 C 
BRANCH  18  20
ATOM     20  C   UNL     1       2.643   0.078   0.164  1.00  0.00     0.011 C 
ATOM     21  C   UNL     1       2.518  -1.425  -0.142  1.00  0.00     0.006 C 
ATOM     22  C   UNL     1       4.107   0.538   0.130  1.00  0.00     0.006 C 
ATOM     23  C   UNL     1       3.402  -2.265   0.769  1.00  0.00     0.000 C 
ATOM     24  C   UNL     1       4.976  -0.320   1.047  1.00  0.00     0.000 C 
ATOM     25  C   UNL     1       4.853  -1.801   0.705  1.00  0.00     0.000 C 
ENDBRANCH  18  20
ENDBRANCH  16  18
ENDBRANCH  11  12
ENDBRANCH   6  11
ENDBRANCH   3   6
ENDBRANCH   1   2
BRANCH   1  26
ATOM     26  C   UNL     1      -3.796   4.225   0.317  1.00  0.00     0.042 C 
BRANCH  26  27
ATOM     27  C   UNL     1      -5.260   4.476   0.019  1.00  0.00     0.118 C 
BRANCH  27  28
ATOM     28  N   UNL     1      -5.878   5.291   1.054  1.00  0.00    -0.352 N 
ATOM     29  C   UNL     1      -6.337   6.582   0.972  1.00  0.00     0.251 C 
ATOM     30  H   UNL     1      -5.981   4.857   1.932  1.00  0.00     0.163 HD
ATOM     31  O   UNL     1      -6.549   7.222   1.993  1.00  0.00    -0.269 OA
BRANCH  29  32
ATOM     32  C   UNL     1      -6.551   7.179  -0.362  1.00  0.00     0.039 A 
ATOM     33  C   UNL     1      -6.139   8.490  -0.600  1.00  0.00     0.014 A 
ATOM     34  C   UNL     1      -7.132   6.421  -1.382  1.00  0.00     0.014 A 
ATOM     35  C   UNL     1      -6.250   9.017  -1.887  1.00  0.00     0.010 A 
ATOM     36  C   UNL     1      -7.142   6.908  -2.680  1.00  0.00     0.010 A 
ATOM     37  C   UNL     1      -6.711   8.215  -2.945  1.00  0.00    -0.014 A 
BRANCH  37  38
ATOM     38  C   UNL     1      -6.768   8.722  -4.338  1.00  0.00     0.031 A 
ATOM     39  C   UNL     1      -8.091   8.798  -5.047  1.00  0.00     0.074 A 
ATOM     40  C   UNL     1      -5.626   9.037  -4.979  1.00  0.00     0.049 A 
ATOM     41  N   UNL     1      -8.346   9.108  -6.291  1.00  0.00    -0.248 NA
ATOM     42  C   UNL     1      -9.284   8.444  -4.260  1.00  0.00     0.031 C 
ATOM     43  C   UNL     1      -4.282   8.965  -4.399  1.00  0.00     0.029 A 
ATOM     44  N   UNL     1      -5.408   9.470  -6.262  1.00  0.00    -0.354 N 
ATOM     45  C   UNL     1      -9.723   8.975  -6.439  1.00  0.00     0.074 A 
ATOM     46  C   UNL     1     -10.236   8.488  -5.178  1.00  0.00     0.031 C 
ATOM     47  C   UNL     1      -3.386   9.369  -5.313  1.00  0.00     0.029 A 
ATOM     48  C   UNL     1      -4.080   9.670  -6.560  1.00  0.00     0.049 A 
ATOM     49  H   UNL     1      -6.134   9.624  -6.909  1.00  0.00     0.167 HD
ATOM     50  C   UNL     1     -10.488   9.258  -7.521  1.00  0.00     0.034 A 
ATOM     51  C   UNL     1      -3.488  10.034  -7.715  1.00  0.00     0.034 A 
ATOM     52  C   UNL     1      -9.953   9.751  -8.766  1.00  0.00     0.049 A 
ATOM     53  C   UNL     1      -4.356  10.295  -8.921  1.00  0.00     0.074 A 
ATOM     54  C   UNL     1     -10.638  10.124  -9.909  1.00  0.00     0.029 A 
ATOM     55  N   UNL     1      -8.602   9.929  -9.037  1.00  0.00    -0.354 N 
ATOM     56  N   UNL     1      -5.663  10.216  -9.030  1.00  0.00    -0.248 NA
ATOM     57  C   UNL     1      -3.672  10.699 -10.155  1.00  0.00     0.031 C 
ATOM     58  C   UNL     1      -9.700  10.447 -10.895  1.00  0.00     0.029 A 
ATOM     59  C   UNL     1      -8.431  10.364 -10.342  1.00  0.00     0.049 A 
ATOM     60  H   UNL     1      -7.872   9.768  -8.396  1.00  0.00     0.167 HD
ATOM     61  C   UNL     1      -5.957  10.590 -10.338  1.00  0.00     0.074 A 
ATOM     62  C   UNL     1      -4.694  10.910 -10.971  1.00  0.00     0.031 C 
ATOM     63  C   UNL     1      -7.162  10.666 -10.961  1.00  0.00     0.034 A 
BRANCH  50  64
ATOM     64  C   UNL     1     -11.974   9.014  -7.408  1.00  0.00     0.023 A 
ATOM     65  C   UNL     1     -12.768   9.699  -6.471  1.00  0.00     0.031 A 
ATOM     66  C   UNL     1     -12.604   8.063  -8.231  1.00  0.00     0.131 A 
ATOM     67  C   UNL     1     -14.124   9.371  -6.327  1.00  0.00     0.055 A 
ATOM     68  C   UNL     1     -13.973   7.805  -8.143  1.00  0.00     0.041 A 
ATOM     69  F   UNL     1     -11.896   7.358  -9.127  1.00  0.00    -0.206 F 
ATOM     70  C   UNL     1     -14.739   8.449  -7.176  1.00  0.00     0.022 A 
BRANCH  67  71
ATOM     71  S   UNL     1     -15.033  10.055  -4.914  1.00  0.00     0.124 S 
ATOM     72  O   UNL     1     -14.240   9.566  -3.789  1.00  0.00    -0.237 OA
ATOM     73  O   UNL     1     -14.972  11.490  -5.164  1.00  0.00    -0.237 OA
ATOM     74  O   UNL     1     -16.360   9.455  -5.038  1.00  0.00    -0.744 OA
ENDBRANCH  67  71
ENDBRANCH  50  64
BRANCH  51  75
ATOM     75  C   UNL     1      -2.004  10.153  -7.801  1.00  0.00     0.023 A 
ATOM     76  C   UNL     1      -1.393  11.383  -8.091  1.00  0.00     0.031 A 
ATOM     77  C   UNL     1      -1.174   9.028  -7.640  1.00  0.00     0.131 A 
ATOM     78  C   UNL     1      -0.002  11.451  -8.262  1.00  0.00     0.055 A 
ATOM     79  C   UNL     1       0.215   9.114  -7.749  1.00  0.00     0.041 A 
ATOM     80  F   UNL     1      -1.704   7.826  -7.362  1.00  0.00    -0.206 F 
ATOM     81  C   UNL     1       0.808  10.329  -8.077  1.00  0.00     0.022 A 
BRANCH  78  82
ATOM     82  S   UNL     1       0.726  13.011  -8.832  1.00  0.00     0.124 S 
ATOM     83  O   UNL     1       0.014  13.229 -10.086  1.00  0.00    -0.237 OA
ATOM     84  O   UNL     1       0.394  13.919  -7.739  1.00  0.00    -0.237 OA
ATOM     85  O   UNL     1       2.147  12.695  -8.967  1.00  0.00    -0.744 OA
ENDBRANCH  78  82
ENDBRANCH  51  75
BRANCH  63  86
ATOM     86  C   UNL     1      -7.168  11.152 -12.390  1.00  0.00     0.023 A 
ATOM     87  C   UNL     1      -6.585  10.406 -13.428  1.00  0.00     0.031 A 
ATOM     88  C   UNL     1      -7.772  12.380 -12.715  1.00  0.00     0.131 A 
ATOM     89  C   UNL     1      -6.572  10.919 -14.734  1.00  0.00     0.055 A 
ATOM     90  C   UNL     1      -7.816  12.853 -14.027  1.00  0.00     0.041 A 
ATOM     91  F   UNL     1      -8.341  13.136 -11.762  1.00  0.00    -0.206 F 
ATOM     92  C   UNL     1      -7.203  12.127 -15.044  1.00  0.00     0.022 A 
BRANCH  89  93
ATOM     93  S   UNL     1      -5.643  10.027 -16.011  1.00  0.00     0.124 S 
ATOM     94  O   UNL     1      -4.293  10.026 -15.456  1.00  0.00    -0.237 OA
ATOM     95  O   UNL     1      -6.319   8.735 -16.045  1.00  0.00    -0.237 OA
ATOM     96  O   UNL     1      -5.822  10.852 -17.204  1.00  0.00    -0.744 OA
ENDBRANCH  89  93
ENDBRANCH  63  86
ENDBRANCH  37  38
ENDBRANCH  29  32
ENDBRANCH  27  28
ENDBRANCH  26  27
ENDBRANCH   1  26
TORSDOF 19
