REMARK SMILES O=C(CNC(=O)[C@@H](CC1=c2ccccc2=NC1)N1C(=O)N=C2C=CC=C[C@H]2C1=O)NCCCNC(=O)c1ccc(-c2c3nc(c(-c4cc(S(=O)(=O)[O-])ccc4F)c4ccc([nH]4)c(-c4cc(S(=O)(=O)[O-])ccc4F)c4nc(c(-c5cc(S(=O)(=O)[O-])ccc5F)c5ccc2[nH]5)C=C4)C=C3)cc1
REMARK SMILES IDX 31 1 30 2 1 3 2 4 3 6 4 7 5 8 6 10 7 11 8 12 9 13 10 14
REMARK SMILES IDX 17 15 11 16 15 17 16 18 12 19 14 20 13 21 18 22 19 23 28 24
REMARK SMILES IDX 21 25 20 26 27 27 29 28 22 29 26 30 23 31 25 32 24 33 32 34
REMARK SMILES IDX 33 35 34 36 35 37 36 39 37 40 38 41 99 42 39 43 98 44 40 45
REMARK SMILES IDX 41 46 42 47 92 48 43 49 97 50 91 51 93 52 44 53 96 54 90 55
REMARK SMILES IDX 89 56 45 58 77 59 57 60 76 61 58 62 61 63 75 64 94 65 59 66
REMARK SMILES IDX 60 67 74 69 95 70 62 71 46 72 47 73 55 74 48 75 54 76 56 77
REMARK SMILES IDX 53 78 49 79 50 80 51 81 52 82 78 83 79 84 87 85 80 86 86 87
REMARK SMILES IDX 88 88 85 89 81 90 82 91 83 92 84 93 63 94 64 95 72 96 65 97
REMARK SMILES IDX 71 98 73 99 70 100 66 101 67 102 68 103 69 104
REMARK H PARENT 30 5 4 9 34 38 93 57 61 68
REMARK Flexibility Score: inf
ROOT
ATOM      1  C   UNL     1       1.795   0.981  -2.788  1.00  0.00     0.117 C 
ENDROOT
BRANCH   1   2
ATOM      2  N   UNL     1       2.363   0.150  -1.721  1.00  0.00    -0.355 N 
ATOM      3  O   UNL     1       0.485   0.227  -0.745  1.00  0.00    -0.273 OA
ATOM      4  C   UNL     1       1.644  -0.226  -0.467  1.00  0.00     0.239 C 
ATOM      5  H   UNL     1       3.282  -0.183  -1.839  1.00  0.00     0.163 HD
BRANCH   4   6
ATOM      6  C   UNL     1       2.414  -1.022   1.420  1.00  0.00     0.216 C 
BRANCH   6   7
ATOM      7  N   UNL     1       3.698  -1.876   1.907  1.00  0.00    -0.345 N 
ATOM      8  C   UNL     1       4.982  -1.672   2.254  1.00  0.00     0.244 C 
ATOM      9  H   UNL     1       3.472  -2.832   1.969  1.00  0.00     0.164 HD
ATOM     10  O   UNL     1       5.553  -2.705   2.655  1.00  0.00    -0.273 OA
BRANCH   8  11
ATOM     11  C   UNL     1       5.817  -0.373   2.192  1.00  0.00     0.188 C 
BRANCH  11  12
ATOM     12  C   UNL     1       5.585   0.946   1.429  1.00  0.00     0.069 C 
BRANCH  12  13
ATOM     13  C   UNL     1       4.205   1.230   0.996  1.00  0.00    -0.037 C 
ATOM     14  C   UNL     1       3.435   0.355   0.369  1.00  0.00     0.001 A 
ATOM     15  C   UNL     1       3.423   2.436   1.535  1.00  0.00     0.174 C 
ATOM     16  C   UNL     1       3.439  -1.388  -0.346  1.00  0.00     0.010 A 
ATOM     17  C   UNL     1       1.806   0.968   1.181  1.00  0.00     0.065 A 
ATOM     18  N   UNL     1       1.959   2.115   1.751  1.00  0.00    -0.280 NA
ATOM     19  C   UNL     1       2.142  -2.289  -0.289  1.00  0.00     0.001 A 
ATOM     20  C   UNL     1       0.408  -0.373   1.298  1.00  0.00     0.028 A 
ATOM     21  C   UNL     1       0.564  -1.761   0.558  1.00  0.00     0.002 A 
ENDBRANCH  12  13
ENDBRANCH  11  12
BRANCH  11  22
ATOM     22  N   UNL     1       6.453  -0.234   3.518  1.00  0.00    -0.249 N 
ATOM     23  C   UNL     1       7.835  -0.295   3.521  1.00  0.00     0.351 C 
ATOM     24  C   UNL     1       5.710   0.065   4.649  1.00  0.00     0.244 C 
ATOM     25  N   UNL     1       8.498  -0.488   4.686  1.00  0.00    -0.197 NA
ATOM     26  O   UNL     1       8.476  -0.083   2.495  1.00  0.00    -0.246 OA
ATOM     27  C   UNL     1       6.399  -0.234   5.987  1.00  0.00     0.151 C 
ATOM     28  O   UNL     1       4.542   0.455   4.587  1.00  0.00    -0.273 OA
ATOM     29  C   UNL     1       7.894  -0.378   5.818  1.00  0.00     0.062 C 
ATOM     30  C   UNL     1       6.114   0.721   7.130  1.00  0.00    -0.007 C 
ATOM     31  C   UNL     1       8.787  -0.291   6.992  1.00  0.00     0.025 C 
ATOM     32  C   UNL     1       7.045   1.044   8.046  1.00  0.00    -0.003 C 
ATOM     33  C   UNL     1       8.375   0.485   7.998  1.00  0.00     0.002 C 
ENDBRANCH  11  22
ENDBRANCH   8  11
ENDBRANCH   6   7
ENDBRANCH   4   6
ENDBRANCH   1   2
BRANCH   1  34
ATOM     34  C   UNL     1       2.256   2.432  -2.665  1.00  0.00     0.042 C 
BRANCH  34  35
ATOM     35  C   UNL     1       3.772   2.622  -2.696  1.00  0.00     0.118 C 
BRANCH  35  36
ATOM     36  N   UNL     1       4.403   2.129  -3.915  1.00  0.00    -0.352 N 
ATOM     37  C   UNL     1       5.092   2.796  -4.901  1.00  0.00     0.251 C 
ATOM     38  H   UNL     1       4.324   1.158  -4.055  1.00  0.00     0.163 HD
ATOM     39  O   UNL     1       5.439   2.185  -5.908  1.00  0.00    -0.269 OA
BRANCH  37  40
ATOM     40  C   UNL     1       5.369   4.244  -4.774  1.00  0.00     0.039 A 
ATOM     41  C   UNL     1       5.830   4.787  -3.575  1.00  0.00     0.014 A 
ATOM     42  C   UNL     1       5.136   5.076  -5.872  1.00  0.00     0.014 A 
ATOM     43  C   UNL     1       5.854   6.168  -3.411  1.00  0.00     0.010 A 
ATOM     44  C   UNL     1       5.258   6.462  -5.733  1.00  0.00     0.010 A 
ATOM     45  C   UNL     1       5.552   7.026  -4.482  1.00  0.00    -0.014 A 
BRANCH  45  46
ATOM     46  C   UNL     1       5.530   8.499  -4.265  1.00  0.00     0.031 A 
ATOM     47  C   UNL     1       4.258   9.287  -4.445  1.00  0.00     0.074 A 
ATOM     48  C   UNL     1       6.651   9.125  -3.853  1.00  0.00     0.049 A 
ATOM     49  N   UNL     1       4.050  10.567  -4.261  1.00  0.00    -0.248 NA
ATOM     50  C   UNL     1       3.065   8.551  -4.895  1.00  0.00     0.031 C 
ATOM     51  C   UNL     1       7.942   8.469  -3.644  1.00  0.00     0.029 A 
ATOM     52  N   UNL     1       6.886  10.436  -3.518  1.00  0.00    -0.354 N 
ATOM     53  C   UNL     1       2.715  10.790  -4.584  1.00  0.00     0.074 A 
ATOM     54  C   UNL     1       2.172   9.523  -5.020  1.00  0.00     0.031 C 
ATOM     55  C   UNL     1       8.817   9.365  -3.168  1.00  0.00     0.029 A 
ATOM     56  C   UNL     1       8.177  10.677  -3.108  1.00  0.00     0.049 A 
ATOM     57  H   UNL     1       6.196  11.136  -3.566  1.00  0.00     0.167 HD
ATOM     58  C   UNL     1       2.003  11.940  -4.502  1.00  0.00     0.034 A 
ATOM     59  C   UNL     1       8.789  11.822  -2.738  1.00  0.00     0.034 A 
ATOM     60  C   UNL     1       2.552  13.191  -4.039  1.00  0.00     0.049 A 
ATOM     61  C   UNL     1       7.985  13.096  -2.689  1.00  0.00     0.074 A 
ATOM     62  C   UNL     1       1.897  14.400  -3.879  1.00  0.00     0.029 A 
ATOM     63  N   UNL     1       3.871  13.402  -3.663  1.00  0.00    -0.354 N 
ATOM     64  N   UNL     1       6.707  13.273  -2.933  1.00  0.00    -0.248 NA
ATOM     65  C   UNL     1       8.695  14.324  -2.308  1.00  0.00     0.031 C 
ATOM     66  C   UNL     1       2.832  15.357  -3.489  1.00  0.00     0.029 A 
ATOM     67  C   UNL     1       4.055  14.730  -3.310  1.00  0.00     0.049 A 
ATOM     68  H   UNL     1       4.572  12.711  -3.650  1.00  0.00     0.167 HD
ATOM     69  C   UNL     1       6.458  14.626  -2.716  1.00  0.00     0.074 A 
ATOM     70  C   UNL     1       7.711  15.213  -2.288  1.00  0.00     0.031 C 
ATOM     71  C   UNL     1       5.299  15.315  -2.866  1.00  0.00     0.034 A 
BRANCH  58  72
ATOM     72  C   UNL     1       0.544  11.930  -4.897  1.00  0.00     0.023 A 
ATOM     73  C   UNL     1       0.094  12.761  -5.942  1.00  0.00     0.031 A 
ATOM     74  C   UNL     1      -0.418  11.230  -4.146  1.00  0.00     0.131 A 
ATOM     75  C   UNL     1      -1.279  12.909  -6.174  1.00  0.00     0.055 A 
ATOM     76  C   UNL     1      -1.783  11.341  -4.417  1.00  0.00     0.041 A 
ATOM     77  F   UNL     1      -0.044  10.429  -3.135  1.00  0.00    -0.206 F 
ATOM     78  C   UNL     1      -2.220  12.196  -5.424  1.00  0.00     0.022 A 
BRANCH  75  79
ATOM     79  S   UNL     1      -1.901  14.097  -7.396  1.00  0.00     0.124 S 
ATOM     80  O   UNL     1      -2.669  13.233  -8.290  1.00  0.00    -0.237 OA
ATOM     81  O   UNL     1      -2.696  14.998  -6.567  1.00  0.00    -0.237 OA
ATOM     82  O   UNL     1      -0.693  14.672  -7.975  1.00  0.00    -0.744 OA
ENDBRANCH  75  79
ENDBRANCH  58  72
BRANCH  59  83
ATOM     83  C   UNL     1      10.230  11.780  -2.350  1.00  0.00     0.023 A 
ATOM     84  C   UNL     1      11.207  11.331  -3.259  1.00  0.00     0.031 A 
ATOM     85  C   UNL     1      10.636  12.072  -1.038  1.00  0.00     0.131 A 
ATOM     86  C   UNL     1      12.518  11.105  -2.820  1.00  0.00     0.055 A 
ATOM     87  C   UNL     1      11.963  11.927  -0.627  1.00  0.00     0.041 A 
ATOM     88  F   UNL     1       9.742  12.492  -0.130  1.00  0.00    -0.206 F 
ATOM     89  C   UNL     1      12.907  11.419  -1.515  1.00  0.00     0.022 A 
BRANCH  86  90
ATOM     90  S   UNL     1      13.717  10.251  -3.882  1.00  0.00     0.124 S 
ATOM     91  O   UNL     1      14.791  11.234  -3.981  1.00  0.00    -0.237 OA
ATOM     92  O   UNL     1      14.020   9.062  -3.089  1.00  0.00    -0.237 OA
ATOM     93  O   UNL     1      12.972  10.003  -5.112  1.00  0.00    -0.744 OA
ENDBRANCH  86  90
ENDBRANCH  59  83
BRANCH  71  94
ATOM     94  C   UNL     1       5.287  16.798  -2.568  1.00  0.00     0.023 A 
ATOM     95  C   UNL     1       4.430  17.307  -1.572  1.00  0.00     0.031 A 
ATOM     96  C   UNL     1       5.984  17.715  -3.374  1.00  0.00     0.131 A 
ATOM     97  C   UNL     1       4.250  18.691  -1.445  1.00  0.00     0.055 A 
ATOM     98  C   UNL     1       5.847  19.093  -3.203  1.00  0.00     0.041 A 
ATOM     99  F   UNL     1       6.803  17.283  -4.346  1.00  0.00    -0.206 F 
ATOM    100  C   UNL     1       4.963  19.587  -2.248  1.00  0.00     0.022 A 
BRANCH  97 101
ATOM    101  S   UNL     1       3.008  19.374  -0.312  1.00  0.00     0.124 S 
ATOM    102  O   UNL     1       3.827  20.203   0.569  1.00  0.00    -0.237 OA
ATOM    103  O   UNL     1       2.134  20.109  -1.223  1.00  0.00    -0.237 OA
ATOM    104  O   UNL     1       2.417  18.198   0.315  1.00  0.00    -0.744 OA
ENDBRANCH  97 101
ENDBRANCH  71  94
ENDBRANCH  45  46
ENDBRANCH  37  40
ENDBRANCH  35  36
ENDBRANCH  34  35
ENDBRANCH   1  34
TORSDOF 18
