REMARK SMILES O=C(NCCCNC(=O)c1ccn(Cc2c(Cl)cccc2Cl)c1)c1ccc(-c2c3nc(c(-c4cc(S(=O)(=O)[O-])ccc4F)c4ccc([nH]4)c(-c4cc(S(=O)(=O)[O-])ccc4F)c4nc(c(-c5cc(S(=O)(=O)[O-])ccc5F)c5ccc2[nH]5)C=C4)C=C3)cc1
REMARK SMILES IDX 4 1 3 2 1 3 2 4 24 6 25 7 86 8 26 9 85 10 27 11 28 12 29 13
REMARK SMILES IDX 79 14 30 15 84 16 78 17 80 18 31 19 83 20 77 21 76 22 32 24
REMARK SMILES IDX 64 25 44 26 63 27 45 28 48 29 62 30 81 31 46 32 47 33 61 35
REMARK SMILES IDX 82 36 49 37 33 38 34 39 42 40 35 41 41 42 43 43 40 44 36 45
REMARK SMILES IDX 37 46 38 47 39 48 65 49 66 50 74 51 67 52 73 53 75 54 72 55
REMARK SMILES IDX 68 56 69 57 70 58 71 59 50 60 51 61 59 62 52 63 58 64 60 65
REMARK SMILES IDX 57 66 53 67 54 68 55 69 56 70 5 71 6 72 7 73 8 74 9 76 10 77
REMARK SMILES IDX 11 78 23 79 12 80 13 81 14 82 15 83 16 84 21 85 17 86 18 87
REMARK SMILES IDX 20 88 22 89 19 90
REMARK H PARENT 3 5 80 23 48 34 7 75
REMARK Flexibility Score: inf
ROOT
ATOM      1  C   UNL     1       4.592   0.871   0.806  1.00  0.00     0.118 C 
ENDROOT
BRANCH   1   2
ATOM      2  N   UNL     1       3.194   0.477   0.853  1.00  0.00    -0.352 N 
ATOM      3  O   UNL     1       1.215  -0.393   0.322  1.00  0.00    -0.269 OA
ATOM      4  C   UNL     1       2.327  -0.043  -0.075  1.00  0.00     0.251 C 
ATOM      5  H   UNL     1       2.782   0.612   1.737  1.00  0.00     0.163 HD
BRANCH   4   6
ATOM      6  C   UNL     1       2.636  -0.120  -1.525  1.00  0.00     0.039 A 
ATOM      7  C   UNL     1       3.923  -0.269  -2.040  1.00  0.00     0.014 A 
ATOM      8  C   UNL     1       1.549  -0.031  -2.416  1.00  0.00     0.014 A 
ATOM      9  C   UNL     1       4.142  -0.200  -3.408  1.00  0.00     0.010 A 
ATOM     10  C   UNL     1       1.757  -0.002  -3.794  1.00  0.00     0.010 A 
ATOM     11  C   UNL     1       3.061  -0.063  -4.285  1.00  0.00    -0.014 A 
BRANCH  11  12
ATOM     12  C   UNL     1       3.367  -0.204  -5.726  1.00  0.00     0.031 A 
ATOM     13  C   UNL     1       3.613  -1.705  -6.076  1.00  0.00     0.074 A 
ATOM     14  C   UNL     1       3.508   0.971  -6.422  1.00  0.00     0.049 A 
ATOM     15  N   UNL     1       4.426  -2.263  -6.922  1.00  0.00    -0.248 NA
ATOM     16  C   UNL     1       2.915  -2.750  -5.266  1.00  0.00     0.031 C 
ATOM     17  C   UNL     1       3.189   2.329  -5.905  1.00  0.00     0.029 A 
ATOM     18  N   UNL     1       3.959   1.285  -7.686  1.00  0.00    -0.354 N 
ATOM     19  C   UNL     1       4.162  -3.661  -6.925  1.00  0.00     0.074 A 
ATOM     20  C   UNL     1       3.331  -3.906  -5.788  1.00  0.00     0.031 C 
ATOM     21  C   UNL     1       3.547   3.294  -6.789  1.00  0.00     0.029 A 
ATOM     22  C   UNL     1       4.126   2.678  -7.966  1.00  0.00     0.049 A 
ATOM     23  H   UNL     1       4.155   0.591  -8.357  1.00  0.00     0.167 HD
ATOM     24  C   UNL     1       4.541  -4.506  -7.936  1.00  0.00     0.034 A 
ATOM     25  C   UNL     1       4.741   3.270  -9.044  1.00  0.00     0.034 A 
ATOM     26  C   UNL     1       5.279  -3.776  -8.908  1.00  0.00     0.049 A 
ATOM     27  C   UNL     1       5.077   2.126  -9.904  1.00  0.00     0.074 A 
ATOM     28  C   UNL     1       6.557  -3.292  -8.922  1.00  0.00     0.029 A 
ATOM     29  N   UNL     1       4.564  -3.196  -9.928  1.00  0.00    -0.354 N 
ATOM     30  N   UNL     1       4.219   1.444 -10.597  1.00  0.00    -0.248 NA
ATOM     31  C   UNL     1       6.463   1.643  -9.918  1.00  0.00     0.031 C 
ATOM     32  C   UNL     1       6.416  -2.062  -9.595  1.00  0.00     0.029 A 
ATOM     33  C   UNL     1       5.134  -1.969 -10.155  1.00  0.00     0.049 A 
ATOM     34  H   UNL     1       3.794  -3.585 -10.403  1.00  0.00     0.167 HD
ATOM     35  C   UNL     1       4.901   0.287 -10.868  1.00  0.00     0.074 A 
ATOM     36  C   UNL     1       6.307   0.599 -10.727  1.00  0.00     0.031 C 
ATOM     37  C   UNL     1       4.298  -0.915 -10.688  1.00  0.00     0.034 A 
BRANCH  24  38
ATOM     38  C   UNL     1       4.191  -5.930  -8.306  1.00  0.00     0.023 A 
ATOM     39  C   UNL     1       4.990  -6.544  -9.311  1.00  0.00     0.031 A 
ATOM     40  C   UNL     1       3.000  -6.589  -7.983  1.00  0.00     0.131 A 
ATOM     41  C   UNL     1       4.551  -7.665 -10.029  1.00  0.00     0.055 A 
ATOM     42  C   UNL     1       2.587  -7.749  -8.664  1.00  0.00     0.041 A 
ATOM     43  F   UNL     1       2.156  -6.101  -7.065  1.00  0.00    -0.206 F 
ATOM     44  C   UNL     1       3.342  -8.272  -9.714  1.00  0.00     0.022 A 
BRANCH  41  45
ATOM     45  S   UNL     1       5.510  -8.197 -11.480  1.00  0.00     0.124 S 
ATOM     46  O   UNL     1       5.609  -6.967 -12.258  1.00  0.00    -0.237 OA
ATOM     47  O   UNL     1       6.750  -8.668 -10.870  1.00  0.00    -0.237 OA
ATOM     48  O   UNL     1       4.677  -9.241 -12.074  1.00  0.00    -0.744 OA
ENDBRANCH  41  45
ENDBRANCH  24  38
BRANCH  25  49
ATOM     49  C   UNL     1       5.245   4.626  -9.548  1.00  0.00     0.023 A 
ATOM     50  C   UNL     1       5.048   5.888  -8.960  1.00  0.00     0.031 A 
ATOM     51  C   UNL     1       6.084   4.652 -10.714  1.00  0.00     0.131 A 
ATOM     52  C   UNL     1       5.735   7.037  -9.470  1.00  0.00     0.055 A 
ATOM     53  C   UNL     1       6.821   5.753 -11.149  1.00  0.00     0.041 A 
ATOM     54  F   UNL     1       6.243   3.583 -11.507  1.00  0.00    -0.206 F 
ATOM     55  C   UNL     1       6.662   6.957 -10.513  1.00  0.00     0.022 A 
BRANCH  52  56
ATOM     56  S   UNL     1       5.473   8.698  -8.769  1.00  0.00     0.124 S 
ATOM     57  O   UNL     1       4.294   9.152  -9.497  1.00  0.00    -0.237 OA
ATOM     58  O   UNL     1       5.293   8.423  -7.347  1.00  0.00    -0.237 OA
ATOM     59  O   UNL     1       6.713   9.402  -9.097  1.00  0.00    -0.744 OA
ENDBRANCH  52  56
ENDBRANCH  25  49
BRANCH  37  60
ATOM     60  C   UNL     1       2.767  -0.867 -10.684  1.00  0.00     0.023 A 
ATOM     61  C   UNL     1       2.073  -0.340 -11.789  1.00  0.00     0.031 A 
ATOM     62  C   UNL     1       1.969  -1.216  -9.578  1.00  0.00     0.131 A 
ATOM     63  C   UNL     1       0.674  -0.159 -11.751  1.00  0.00     0.055 A 
ATOM     64  C   UNL     1       0.579  -1.044  -9.536  1.00  0.00     0.041 A 
ATOM     65  F   UNL     1       2.510  -1.737  -8.480  1.00  0.00    -0.206 F 
ATOM     66  C   UNL     1      -0.078  -0.508 -10.630  1.00  0.00     0.022 A 
BRANCH  63  67
ATOM     67  S   UNL     1      -0.169   0.522 -13.204  1.00  0.00     0.124 S 
ATOM     68  O   UNL     1       0.275   1.911 -13.210  1.00  0.00    -0.237 OA
ATOM     69  O   UNL     1       0.341  -0.318 -14.284  1.00  0.00    -0.237 OA
ATOM     70  O   UNL     1      -1.587   0.329 -12.899  1.00  0.00    -0.744 OA
ENDBRANCH  63  67
ENDBRANCH  37  60
ENDBRANCH  11  12
ENDBRANCH   4   6
ENDBRANCH   1   2
BRANCH   1  71
ATOM     71  C   UNL     1       4.882   2.172   0.059  1.00  0.00     0.042 C 
BRANCH  71  72
ATOM     72  C   UNL     1       4.361   3.418   0.774  1.00  0.00     0.118 C 
BRANCH  72  73
ATOM     73  N   UNL     1       4.999   3.593   2.072  1.00  0.00    -0.352 N 
ATOM     74  C   UNL     1       5.978   4.484   2.438  1.00  0.00     0.252 C 
ATOM     75  H   UNL     1       4.685   2.991   2.784  1.00  0.00     0.163 HD
ATOM     76  O   UNL     1       6.615   4.283   3.467  1.00  0.00    -0.269 OA
BRANCH  74  77
ATOM     77  C   UNL     1       6.183   5.654   1.603  1.00  0.00     0.057 A 
ATOM     78  C   UNL     1       5.197   6.582   1.167  1.00  0.00     0.033 A 
ATOM     79  C   UNL     1       7.401   6.133   1.144  1.00  0.00     0.099 A 
ATOM     80  C   UNL     1       5.836   7.569   0.457  1.00  0.00     0.087 A 
ATOM     81  N   UNL     1       7.168   7.255   0.381  1.00  0.00    -0.349 N 
BRANCH  81  82
ATOM     82  C   UNL     1       8.188   8.071  -0.282  1.00  0.00     0.160 C 
BRANCH  82  83
ATOM     83  C   UNL     1       8.370   7.715  -1.742  1.00  0.00     0.009 A 
ATOM     84  C   UNL     1       7.508   8.221  -2.741  1.00  0.00     0.047 A 
ATOM     85  C   UNL     1       9.413   6.869  -2.171  1.00  0.00     0.047 A 
ATOM     86  Cl  UNL     1       6.288   9.401  -2.406  1.00  0.00    -0.084 Cl
ATOM     87  C   UNL     1       7.642   7.846  -4.084  1.00  0.00     0.021 A 
ATOM     88  C   UNL     1       9.567   6.526  -3.522  1.00  0.00     0.021 A 
ATOM     89  Cl  UNL     1      10.597   6.234  -1.077  1.00  0.00    -0.084 Cl
ATOM     90  C   UNL     1       8.671   6.998  -4.474  1.00  0.00     0.003 A 
ENDBRANCH  82  83
ENDBRANCH  81  82
ENDBRANCH  74  77
ENDBRANCH  72  73
ENDBRANCH  71  72
ENDBRANCH   1  71
TORSDOF 15
