REMARK SMILES CC[NH+](CC)C[C@H](C)NC(=O)N[C@H]1C=C[C@@H](C(=O)NCCCNC(=O)c2ccc(-c3c4nc(c(-c5cc(S(=O)(=O)[O-])ccc5F)c5ccc([nH]5)c(-c5cc(S(=O)(=O)[O-])ccc5F)c5nc(c(-c6cc(S(=O)(=O)[O-])ccc6F)c6ccc3[nH]6)C=C5)C=C4)cc2)C1
REMARK SMILES IDX 20 1 19 2 17 3 18 4 16 6 13 7 14 8 89 9 15 10 12 11 9 12
REMARK SMILES IDX 10 13 11 15 7 17 8 18 6 19 3 20 2 22 1 23 4 24 5 25 21 26
REMARK SMILES IDX 22 27 23 28 24 29 25 31 26 32 27 33 88 34 28 35 87 36 29 37
REMARK SMILES IDX 30 38 31 39 81 40 32 41 86 42 80 43 82 44 33 45 85 46 79 47
REMARK SMILES IDX 78 48 34 50 66 51 46 52 65 53 47 54 50 55 64 56 83 57 48 58
REMARK SMILES IDX 49 59 63 61 84 62 51 63 35 64 36 65 44 66 37 67 43 68 45 69
REMARK SMILES IDX 42 70 38 71 39 72 40 73 41 74 67 75 68 76 76 77 69 78 75 79
REMARK SMILES IDX 77 80 74 81 70 82 71 83 72 84 73 85 52 86 53 87 61 88 54 89
REMARK SMILES IDX 60 90 62 91 59 92 55 93 56 94 57 95 58 96
REMARK H PARENT 19 5 9 14 12 16 3 21 23 30 82 49 50 60
REMARK Flexibility Score: inf
ROOT
ATOM      1  C   UNL     1       3.398   5.175   5.080  1.00  0.00     0.117 C 
ENDROOT
BRANCH   1   2
ATOM      2  N   UNL     1       2.354   6.103   5.496  1.00  0.00    -0.356 N 
ATOM      3  C   UNL     1       1.326   6.687   4.815  1.00  0.00     0.227 C 
ATOM      4  O   UNL     1       0.586   7.444   5.451  1.00  0.00    -0.274 OA
ATOM      5  H   UNL     1       2.398   6.356   6.446  1.00  0.00     0.163 HD
BRANCH   3   6
ATOM      6  C   UNL     1       1.024   6.384   3.346  1.00  0.00     0.103 C 
ATOM      7  C   UNL     1       2.318   5.500   1.427  1.00  0.00     0.107 C 
ATOM      8  C   UNL     1       1.660   4.452   2.242  1.00  0.00    -0.006 C 
ATOM      9  C   UNL     1       2.129   6.738   2.337  1.00  0.00     0.047 C 
ATOM     10  C   UNL     1       0.866   4.912   3.207  1.00  0.00    -0.016 C 
BRANCH   7  11
ATOM     11  N   UNL     1       3.716   5.224   1.177  1.00  0.00    -0.332 N 
ATOM     12  N   UNL     1       3.997   3.113   0.115  1.00  0.00    -0.330 N 
ATOM     13  C   UNL     1       4.430   4.299   0.537  1.00  0.00     0.315 C 
ATOM     14  H   UNL     1       4.744   2.564  -0.218  1.00  0.00     0.165 HD
ATOM     15  O   UNL     1       5.628   4.546   0.364  1.00  0.00    -0.249 OA
ATOM     16  H   UNL     1       4.296   5.904   1.589  1.00  0.00     0.165 HD
BRANCH  12  17
ATOM     17  C   UNL     1       2.731   2.394   0.004  1.00  0.00     0.135 C 
ATOM     18  C   UNL     1       2.637   1.799  -1.405  1.00  0.00     0.037 C 
BRANCH  17  19
ATOM     19  C   UNL     1       2.499   1.264   1.077  1.00  0.00     0.287 C 
BRANCH  19  20
ATOM     20  N   UNL     1       3.597   0.602   1.772  1.00  0.00    -0.334 N 
ATOM     21  H   UNL     1       3.005  -0.110   2.199  1.00  0.00     0.348 HD
BRANCH  20  22
ATOM     22  C   UNL     1       4.494  -0.243   1.009  1.00  0.00     0.258 C 
ATOM     23  C   UNL     1       3.754  -1.449   0.439  1.00  0.00     0.071 C 
ENDBRANCH  20  22
BRANCH  20  24
ATOM     24  C   UNL     1       4.133   1.200   2.991  1.00  0.00     0.258 C 
ATOM     25  C   UNL     1       5.327   2.135   2.865  1.00  0.00     0.071 C 
ENDBRANCH  20  24
ENDBRANCH  19  20
ENDBRANCH  17  19
ENDBRANCH  12  17
ENDBRANCH   7  11
ENDBRANCH   3   6
ENDBRANCH   1   2
BRANCH   1  26
ATOM     26  C   UNL     1       4.774   5.816   5.110  1.00  0.00     0.042 C 
BRANCH  26  27
ATOM     27  C   UNL     1       5.264   6.098   6.519  1.00  0.00     0.118 C 
BRANCH  27  28
ATOM     28  N   UNL     1       5.590   4.883   7.251  1.00  0.00    -0.352 N 
ATOM     29  C   UNL     1       6.758   4.547   7.902  1.00  0.00     0.251 C 
ATOM     30  H   UNL     1       4.877   4.205   7.286  1.00  0.00     0.163 HD
ATOM     31  O   UNL     1       6.912   3.407   8.318  1.00  0.00    -0.269 OA
BRANCH  29  32
ATOM     32  C   UNL     1       7.824   5.562   8.057  1.00  0.00     0.039 A 
ATOM     33  C   UNL     1       9.151   5.191   7.828  1.00  0.00     0.014 A 
ATOM     34  C   UNL     1       7.514   6.880   8.401  1.00  0.00     0.014 A 
ATOM     35  C   UNL     1      10.156   6.162   7.871  1.00  0.00     0.010 A 
ATOM     36  C   UNL     1       8.498   7.860   8.342  1.00  0.00     0.010 A 
ATOM     37  C   UNL     1       9.831   7.511   8.086  1.00  0.00    -0.014 A 
BRANCH  37  38
ATOM     38  C   UNL     1      10.870   8.574   8.069  1.00  0.00     0.031 A 
ATOM     39  C   UNL     1      11.115   9.399   9.303  1.00  0.00     0.074 A 
ATOM     40  C   UNL     1      11.533   8.845   6.928  1.00  0.00     0.049 A 
ATOM     41  N   UNL     1      11.901  10.432   9.469  1.00  0.00    -0.248 NA
ATOM     42  C   UNL     1      10.340   9.037  10.500  1.00  0.00     0.031 C 
ATOM     43  C   UNL     1      11.347   8.147   5.654  1.00  0.00     0.029 A 
ATOM     44  N   UNL     1      12.492   9.787   6.652  1.00  0.00    -0.354 N 
ATOM     45  C   UNL     1      11.699  10.855  10.779  1.00  0.00     0.074 A 
ATOM     46  C   UNL     1      10.663  10.011  11.335  1.00  0.00     0.031 C 
ATOM     47  C   UNL     1      12.186   8.664   4.742  1.00  0.00     0.029 A 
ATOM     48  C   UNL     1      12.935   9.759   5.350  1.00  0.00     0.049 A 
ATOM     49  H   UNL     1      12.831  10.423   7.322  1.00  0.00     0.167 HD
ATOM     50  C   UNL     1      12.337  11.837  11.463  1.00  0.00     0.034 A 
ATOM     51  C   UNL     1      13.837  10.534   4.715  1.00  0.00     0.034 A 
ATOM     52  C   UNL     1      13.381  12.655  10.896  1.00  0.00     0.049 A 
ATOM     53  C   UNL     1      14.525  11.629   5.489  1.00  0.00     0.074 A 
ATOM     54  C   UNL     1      14.142  13.633  11.511  1.00  0.00     0.029 A 
ATOM     55  N   UNL     1      13.808  12.594   9.574  1.00  0.00    -0.354 N 
ATOM     56  N   UNL     1      14.362  11.984   6.743  1.00  0.00    -0.248 NA
ATOM     57  C   UNL     1      15.526  12.421   4.763  1.00  0.00     0.031 C 
ATOM     58  C   UNL     1      14.980  14.208  10.548  1.00  0.00     0.029 A 
ATOM     59  C   UNL     1      14.798  13.539   9.348  1.00  0.00     0.049 A 
ATOM     60  H   UNL     1      13.459  11.971   8.897  1.00  0.00     0.167 HD
ATOM     61  C   UNL     1      15.261  13.023   6.962  1.00  0.00     0.074 A 
ATOM     62  C   UNL     1      15.971  13.227   5.716  1.00  0.00     0.031 C 
ATOM     63  C   UNL     1      15.485  13.741   8.093  1.00  0.00     0.034 A 
BRANCH  50  64
ATOM     64  C   UNL     1      11.898  12.084  12.888  1.00  0.00     0.023 A 
ATOM     65  C   UNL     1      11.996  11.086  13.876  1.00  0.00     0.031 A 
ATOM     66  C   UNL     1      11.322  13.313  13.255  1.00  0.00     0.131 A 
ATOM     67  C   UNL     1      11.442  11.299  15.147  1.00  0.00     0.055 A 
ATOM     68  C   UNL     1      10.856  13.551  14.550  1.00  0.00     0.041 A 
ATOM     69  F   UNL     1      11.181  14.299  12.355  1.00  0.00    -0.206 F 
ATOM     70  C   UNL     1      10.896  12.534  15.500  1.00  0.00     0.022 A 
BRANCH  67  71
ATOM     71  S   UNL     1      11.292   9.883  16.271  1.00  0.00     0.124 S 
ATOM     72  O   UNL     1      10.491   8.957  15.473  1.00  0.00    -0.237 OA
ATOM     73  O   UNL     1      12.683   9.502  16.487  1.00  0.00    -0.237 OA
ATOM     74  O   UNL     1      10.608  10.441  17.436  1.00  0.00    -0.744 OA
ENDBRANCH  67  71
ENDBRANCH  50  64
BRANCH  51  75
ATOM     75  C   UNL     1      14.143  10.307   3.275  1.00  0.00     0.023 A 
ATOM     76  C   UNL     1      15.409   9.859   2.869  1.00  0.00     0.031 A 
ATOM     77  C   UNL     1      13.180  10.557   2.281  1.00  0.00     0.131 A 
ATOM     78  C   UNL     1      15.694   9.710   1.503  1.00  0.00     0.055 A 
ATOM     79  C   UNL     1      13.453  10.361   0.925  1.00  0.00     0.041 A 
ATOM     80  F   UNL     1      11.951  10.980   2.616  1.00  0.00    -0.206 F 
ATOM     81  C   UNL     1      14.720   9.946   0.529  1.00  0.00     0.022 A 
BRANCH  78  82
ATOM     82  S   UNL     1      17.382   9.266   1.011  1.00  0.00     0.124 S 
ATOM     83  O   UNL     1      18.155  10.372   1.565  1.00  0.00    -0.237 OA
ATOM     84  O   UNL     1      17.557   7.971   1.661  1.00  0.00    -0.237 OA
ATOM     85  O   UNL     1      17.311   9.223  -0.448  1.00  0.00    -0.744 OA
ENDBRANCH  78  82
ENDBRANCH  51  75
BRANCH  63  86
ATOM     86  C   UNL     1      16.572  14.785   8.036  1.00  0.00     0.023 A 
ATOM     87  C   UNL     1      16.449  15.939   7.242  1.00  0.00     0.031 A 
ATOM     88  C   UNL     1      17.755  14.614   8.777  1.00  0.00     0.131 A 
ATOM     89  C   UNL     1      17.513  16.851   7.166  1.00  0.00     0.055 A 
ATOM     90  C   UNL     1      18.785  15.555   8.743  1.00  0.00     0.041 A 
ATOM     91  F   UNL     1      17.927  13.529   9.549  1.00  0.00    -0.206 F 
ATOM     92  C   UNL     1      18.673  16.674   7.925  1.00  0.00     0.022 A 
BRANCH  89  93
ATOM     93  S   UNL     1      17.398  18.228   5.991  1.00  0.00     0.124 S 
ATOM     94  O   UNL     1      17.228  17.530   4.721  1.00  0.00    -0.237 OA
ATOM     95  O   UNL     1      16.232  18.958   6.478  1.00  0.00    -0.237 OA
ATOM     96  O   UNL     1      18.674  18.923   6.151  1.00  0.00    -0.744 OA
ENDBRANCH  89  93
ENDBRANCH  63  86
ENDBRANCH  37  38
ENDBRANCH  29  32
ENDBRANCH  27  28
ENDBRANCH  26  27
ENDBRANCH   1  26
TORSDOF 19
