REMARK SMILES O=C(NCCCNC(=O)[C@H]1CCC[C@@H]1C[NH2+][C@@H]1CCOC2(CCC2)C1)c1ccc(-c2c3nc(c(-c4cc(S(=O)(=O)[O-])ccc4F)c4ccc([nH]4)c(-c4cc(S(=O)(=O)[O-])ccc4F)c4nc(c(-c5cc(S(=O)(=O)[O-])ccc5F)c5ccc2[nH]5)C=C4)C=C3)cc1
REMARK SMILES IDX 5 1 4 2 3 3 1 4 2 5 26 7 27 8 88 9 28 10 87 11 29 12 30 13
REMARK SMILES IDX 31 14 81 15 32 16 86 17 80 18 82 19 33 20 85 21 79 22 78 23
REMARK SMILES IDX 34 25 66 26 46 27 65 28 47 29 50 30 64 31 83 32 48 33 49 34
REMARK SMILES IDX 63 36 84 37 51 38 35 39 36 40 44 41 37 42 43 43 45 44 42 45
REMARK SMILES IDX 38 46 39 47 40 48 41 49 67 50 68 51 76 52 69 53 75 54 77 55
REMARK SMILES IDX 74 56 70 57 71 58 72 59 73 60 52 61 53 62 61 63 54 64 60 65
REMARK SMILES IDX 62 66 59 67 55 68 56 69 57 70 58 71 6 72 7 73 8 74 9 76
REMARK SMILES IDX 10 77 11 78 14 79 12 80 13 81 15 82 16 83 17 86 18 87 25 88
REMARK SMILES IDX 19 89 21 90 20 91 22 92 24 93 23 94
REMARK H PARENT 3 6 82 24 50 35 7 75 16 84 16 85
REMARK Flexibility Score: inf
ROOT
ATOM      1  C   UNL     1       7.859   7.093  -1.682  1.00  0.00     0.042 C 
ENDROOT
BRANCH   1   2
ATOM      2  C   UNL     1       9.339   7.228  -1.354  1.00  0.00     0.118 C 
BRANCH   2   3
ATOM      3  N   UNL     1       9.911   8.488  -1.818  1.00  0.00    -0.352 N 
ATOM      4  O   UNL     1      10.746  10.572  -1.673  1.00  0.00    -0.269 OA
ATOM      5  C   UNL     1      10.479   9.516  -1.104  1.00  0.00     0.251 C 
ATOM      6  H   UNL     1       9.886   8.622  -2.793  1.00  0.00     0.163 HD
BRANCH   5   7
ATOM      7  C   UNL     1      10.756   9.357   0.340  1.00  0.00     0.039 A 
ATOM      8  C   UNL     1      11.284   8.164   0.833  1.00  0.00     0.014 A 
ATOM      9  C   UNL     1      10.504  10.421   1.212  1.00  0.00     0.014 A 
ATOM     10  C   UNL     1      11.403   7.975   2.203  1.00  0.00     0.010 A 
ATOM     11  C   UNL     1      10.726  10.265   2.585  1.00  0.00     0.010 A 
ATOM     12  C   UNL     1      11.150   9.029   3.095  1.00  0.00    -0.014 A 
BRANCH  12  13
ATOM     13  C   UNL     1      11.415   8.813   4.542  1.00  0.00     0.031 A 
ATOM     14  C   UNL     1      10.306   8.851   5.556  1.00  0.00     0.074 A 
ATOM     15  C   UNL     1      12.675   8.513   4.919  1.00  0.00     0.049 A 
ATOM     16  N   UNL     1      10.363   8.622   6.844  1.00  0.00    -0.248 NA
ATOM     17  C   UNL     1       8.963   9.197   5.068  1.00  0.00     0.031 C 
ATOM     18  C   UNL     1      13.831   8.464   4.016  1.00  0.00     0.029 A 
ATOM     19  N   UNL     1      13.194   8.158   6.136  1.00  0.00    -0.354 N 
ATOM     20  C   UNL     1       9.070   8.804   7.324  1.00  0.00     0.074 A 
ATOM     21  C   UNL     1       8.257   9.196   6.192  1.00  0.00     0.031 C 
ATOM     22  C   UNL     1      14.904   8.038   4.696  1.00  0.00     0.029 A 
ATOM     23  C   UNL     1      14.536   7.855   6.094  1.00  0.00     0.049 A 
ATOM     24  H   UNL     1      12.659   8.124   6.962  1.00  0.00     0.167 HD
ATOM     25  C   UNL     1       8.608   8.650   8.591  1.00  0.00     0.034 A 
ATOM     26  C   UNL     1      15.383   7.485   7.073  1.00  0.00     0.034 A 
ATOM     27  C   UNL     1       9.436   8.255   9.707  1.00  0.00     0.049 A 
ATOM     28  C   UNL     1      14.842   7.336   8.469  1.00  0.00     0.074 A 
ATOM     29  C   UNL     1       9.068   8.061  11.028  1.00  0.00     0.029 A 
ATOM     30  N   UNL     1      10.799   7.995   9.637  1.00  0.00    -0.354 N 
ATOM     31  N   UNL     1      13.614   7.509   8.900  1.00  0.00    -0.248 NA
ATOM     32  C   UNL     1      15.800   6.939   9.507  1.00  0.00     0.031 C 
ATOM     33  C   UNL     1      10.215   7.739  11.764  1.00  0.00     0.029 A 
ATOM     34  C   UNL     1      11.289   7.666  10.893  1.00  0.00     0.049 A 
ATOM     35  H   UNL     1      11.339   8.038   8.815  1.00  0.00     0.167 HD
ATOM     36  C   UNL     1      13.653   7.236  10.263  1.00  0.00     0.074 A 
ATOM     37  C   UNL     1      15.015   6.847  10.569  1.00  0.00     0.031 C 
ATOM     38  C   UNL     1      12.657   7.309  11.182  1.00  0.00     0.034 A 
BRANCH  25  39
ATOM     39  C   UNL     1       7.150   8.947   8.844  1.00  0.00     0.023 A 
ATOM     40  C   UNL     1       6.127   8.149   8.303  1.00  0.00     0.031 A 
ATOM     41  C   UNL     1       6.777  10.040   9.646  1.00  0.00     0.131 A 
ATOM     42  C   UNL     1       4.783   8.485   8.530  1.00  0.00     0.055 A 
ATOM     43  C   UNL     1       5.440  10.331   9.923  1.00  0.00     0.041 A 
ATOM     44  F   UNL     1       7.710  10.848  10.175  1.00  0.00    -0.206 F 
ATOM     45  C   UNL     1       4.432   9.556   9.355  1.00  0.00     0.022 A 
BRANCH  42  46
ATOM     46  S   UNL     1       3.494   7.563   7.647  1.00  0.00     0.124 S 
ATOM     47  O   UNL     1       3.829   7.851   6.254  1.00  0.00    -0.237 OA
ATOM     48  O   UNL     1       3.725   6.194   8.091  1.00  0.00    -0.237 OA
ATOM     49  O   UNL     1       2.252   8.171   8.121  1.00  0.00    -0.744 OA
ENDBRANCH  42  46
ENDBRANCH  25  39
BRANCH  26  50
ATOM     50  C   UNL     1      16.828   7.272   6.780  1.00  0.00     0.023 A 
ATOM     51  C   UNL     1      17.432   6.019   6.966  1.00  0.00     0.031 A 
ATOM     52  C   UNL     1      17.638   8.337   6.344  1.00  0.00     0.131 A 
ATOM     53  C   UNL     1      18.813   5.873   6.763  1.00  0.00     0.055 A 
ATOM     54  C   UNL     1      18.999   8.172   6.087  1.00  0.00     0.041 A 
ATOM     55  F   UNL     1      17.110   9.555   6.147  1.00  0.00    -0.206 F 
ATOM     56  C   UNL     1      19.598   6.937   6.311  1.00  0.00     0.022 A 
BRANCH  53  57
ATOM     57  S   UNL     1      19.592   4.294   7.197  1.00  0.00     0.124 S 
ATOM     58  O   UNL     1      19.167   4.120   8.581  1.00  0.00    -0.237 OA
ATOM     59  O   UNL     1      18.994   3.386   6.224  1.00  0.00    -0.237 OA
ATOM     60  O   UNL     1      21.018   4.555   7.009  1.00  0.00    -0.744 OA
ENDBRANCH  53  57
ENDBRANCH  26  50
BRANCH  38  61
ATOM     61  C   UNL     1      13.027   6.943  12.598  1.00  0.00     0.023 A 
ATOM     62  C   UNL     1      13.918   7.731  13.347  1.00  0.00     0.031 A 
ATOM     63  C   UNL     1      12.528   5.767  13.182  1.00  0.00     0.131 A 
ATOM     64  C   UNL     1      14.342   7.296  14.611  1.00  0.00     0.055 A 
ATOM     65  C   UNL     1      12.905   5.371  14.466  1.00  0.00     0.041 A 
ATOM     66  F   UNL     1      11.676   4.977  12.510  1.00  0.00    -0.206 F 
ATOM     67  C   UNL     1      13.830   6.128  15.181  1.00  0.00     0.022 A 
BRANCH  64  68
ATOM     68  S   UNL     1      15.657   8.219  15.451  1.00  0.00     0.124 S 
ATOM     69  O   UNL     1      16.738   8.168  14.471  1.00  0.00    -0.237 OA
ATOM     70  O   UNL     1      15.041   9.526  15.653  1.00  0.00    -0.237 OA
ATOM     71  O   UNL     1      15.890   7.449  16.672  1.00  0.00    -0.744 OA
ENDBRANCH  64  68
ENDBRANCH  38  61
ENDBRANCH  12  13
ENDBRANCH   5   7
ENDBRANCH   2   3
ENDBRANCH   1   2
BRANCH   1  72
ATOM     72  C   UNL     1       7.562   7.061  -3.173  1.00  0.00     0.117 C 
BRANCH  72  73
ATOM     73  N   UNL     1       8.164   5.911  -3.827  1.00  0.00    -0.356 N 
ATOM     74  C   UNL     1       7.564   4.793  -4.327  1.00  0.00     0.223 C 
ATOM     75  H   UNL     1       9.144   5.944  -3.922  1.00  0.00     0.163 HD
ATOM     76  O   UNL     1       8.279   3.904  -4.788  1.00  0.00    -0.275 OA
BRANCH  74  77
ATOM     77  C   UNL     1       6.040   4.712  -4.306  1.00  0.00     0.087 C 
ATOM     78  C   UNL     1       5.425   5.674  -5.325  1.00  0.00     0.014 C 
ATOM     79  C   UNL     1       5.514   3.335  -4.748  1.00  0.00     0.056 C 
ATOM     80  C   UNL     1       5.311   4.891  -6.628  1.00  0.00     0.001 C 
ATOM     81  C   UNL     1       5.518   3.421  -6.279  1.00  0.00     0.010 C 
BRANCH  79  82
ATOM     82  C   UNL     1       4.100   3.033  -4.214  1.00  0.00     0.265 C 
BRANCH  82  83
ATOM     83  N   UNL     1       4.131   2.938  -2.754  1.00  0.00    -0.343 N 
ATOM     84  H   UNL     1       4.347   3.859  -2.373  1.00  0.00     0.346 HD
ATOM     85  H   UNL     1       4.842   2.247  -2.510  1.00  0.00     0.346 HD
BRANCH  83  86
ATOM     86  C   UNL     1       2.857   2.478  -2.176  1.00  0.00     0.187 C 
ATOM     87  C   UNL     1       1.828   3.611  -2.034  1.00  0.00     0.093 C 
ATOM     88  C   UNL     1       3.115   1.819  -0.809  1.00  0.00     0.100 C 
ATOM     89  C   UNL     1       2.173   4.571  -0.903  1.00  0.00     0.167 C 
ATOM     90  C   UNL     1       3.447   2.861   0.260  1.00  0.00     0.074 C 
ATOM     91  O   UNL     1       2.380   3.842   0.304  1.00  0.00    -0.375 OA
ATOM     92  C   UNL     1       3.782   2.212   1.637  1.00  0.00     0.036 C 
ATOM     93  C   UNL     1       4.901   3.432   0.290  1.00  0.00     0.036 C 
ATOM     94  C   UNL     1       4.865   3.288   1.821  1.00  0.00     0.006 C 
ENDBRANCH  83  86
ENDBRANCH  82  83
ENDBRANCH  79  82
ENDBRANCH  74  77
ENDBRANCH  72  73
ENDBRANCH   1  72
TORSDOF 16
