REMARK SMILES CCCCN(c1ccccc1C(=O)NCCCNC(=O)c1ccc(-c2c3nc(c(-c4cc(S(=O)(=O)[O-])ccc4F)c4ccc([nH]4)c(-c4cc(S(=O)(=O)[O-])ccc4F)c4nc(c(-c5cc(S(=O)(=O)[O-])ccc5F)c5ccc2[nH]5)C=C4)C=C3)cc1)S(=O)(=O)c1ccc2c(c1)oc(=O)n2C
REMARK SMILES IDX 15 1 14 2 12 3 13 4 11 6 6 7 7 8 8 9 10 10 9 11 5 12 4 13
REMARK SMILES IDX 3 14 2 15 1 16 84 17 85 18 86 19 87 20 88 21 92 22 89 23
REMARK SMILES IDX 91 24 90 25 93 26 96 27 94 28 97 29 95 30 16 31 17 32 18 33
REMARK SMILES IDX 19 34 20 36 21 37 22 38 83 39 23 40 82 41 24 42 25 43 26 44
REMARK SMILES IDX 76 45 27 46 81 47 75 48 77 49 28 50 80 51 74 52 73 53 29 55
REMARK SMILES IDX 61 56 41 57 60 58 42 59 45 60 59 61 78 62 43 63 44 64 58 66
REMARK SMILES IDX 79 67 46 68 30 69 31 70 39 71 32 72 38 73 40 74 37 75 33 76
REMARK SMILES IDX 34 77 35 78 36 79 62 80 63 81 71 82 64 83 70 84 72 85 69 86
REMARK SMILES IDX 65 87 66 88 67 89 68 90 47 91 48 92 56 93 49 94 55 95 57 96
REMARK SMILES IDX 54 97 50 98 51 99 52 100 53 101
REMARK H PARENT 14 5 18 35 77 54 45 65
REMARK Flexibility Score: inf
ROOT
ATOM      1  C   UNL     1       1.025   3.631   0.521  1.00  0.00     0.118 C 
ENDROOT
BRANCH   1   2
ATOM      2  N   UNL     1       0.689   4.941   0.928  1.00  0.00    -0.352 N 
ATOM      3  C   UNL     1      -0.124   5.271   1.984  1.00  0.00     0.253 C 
ATOM      4  O   UNL     1       0.123   6.390   2.458  1.00  0.00    -0.269 OA
ATOM      5  H   UNL     1       1.073   5.684   0.409  1.00  0.00     0.163 HD
BRANCH   3   6
ATOM      6  C   UNL     1      -1.293   4.484   2.587  1.00  0.00     0.064 A 
ATOM      7  C   UNL     1      -1.621   3.111   2.832  1.00  0.00     0.065 A 
ATOM      8  C   UNL     1      -2.740   2.828   3.663  1.00  0.00     0.028 A 
ATOM      9  C   UNL     1      -3.610   3.807   4.136  1.00  0.00     0.002 A 
ATOM     10  C   UNL     1      -2.235   5.444   3.075  1.00  0.00     0.016 A 
ATOM     11  C   UNL     1      -3.375   5.123   3.810  1.00  0.00     0.001 A 
BRANCH   7  12
ATOM     12  N   UNL     1      -1.161   1.856   2.208  1.00  0.00    -0.266 N 
BRANCH  12  13
ATOM     13  C   UNL     1       0.262   1.415   2.374  1.00  0.00     0.136 C 
BRANCH  13  14
ATOM     14  C   UNL     1       0.490   0.028   2.974  1.00  0.00     0.022 C 
BRANCH  14  15
ATOM     15  C   UNL     1       0.351  -1.175   2.027  1.00  0.00    -0.002 C 
ATOM     16  C   UNL     1       1.156  -1.116   0.728  1.00  0.00     0.004 C 
ENDBRANCH  14  15
ENDBRANCH  13  14
ENDBRANCH  12  13
BRANCH  12  17
ATOM     17  S   UNL     1      -1.944   1.543   0.675  1.00  0.00     0.264 S 
ATOM     18  O   UNL     1      -1.920   2.755  -0.121  1.00  0.00    -0.201 OA
ATOM     19  O   UNL     1      -1.452   0.302   0.128  1.00  0.00    -0.201 OA
BRANCH  17  20
ATOM     20  C   UNL     1      -3.659   1.256   1.080  1.00  0.00     0.091 A 
ATOM     21  C   UNL     1      -4.590   2.307   0.902  1.00  0.00     0.025 A 
ATOM     22  C   UNL     1      -4.077  -0.033   1.434  1.00  0.00     0.071 A 
ATOM     23  C   UNL     1      -5.955   2.091   1.105  1.00  0.00     0.032 A 
ATOM     24  C   UNL     1      -5.431  -0.214   1.623  1.00  0.00     0.157 A 
ATOM     25  C   UNL     1      -6.340   0.817   1.461  1.00  0.00     0.090 A 
ATOM     26  O   UNL     1      -6.040  -1.412   1.964  1.00  0.00    -0.408 OA
ATOM     27  N   UNL     1      -7.576   0.272   1.708  1.00  0.00    -0.277 N 
ATOM     28  C   UNL     1      -7.400  -1.068   1.995  1.00  0.00     0.419 A 
ATOM     29  C   UNL     1      -8.843   0.932   1.599  1.00  0.00     0.157 C 
ATOM     30  O   UNL     1      -8.288  -1.868   2.256  1.00  0.00    -0.223 OA
ENDBRANCH  17  20
ENDBRANCH  12  17
ENDBRANCH   7  12
ENDBRANCH   3   6
ENDBRANCH   1   2
BRANCH   1  31
ATOM     31  C   UNL     1       1.198   3.323  -0.941  1.00  0.00     0.042 C 
BRANCH  31  32
ATOM     32  C   UNL     1       2.630   3.027  -1.347  1.00  0.00     0.118 C 
BRANCH  32  33
ATOM     33  N   UNL     1       3.327   2.023  -0.532  1.00  0.00    -0.352 N 
ATOM     34  C   UNL     1       3.885   0.801  -0.844  1.00  0.00     0.251 C 
ATOM     35  H   UNL     1       3.412   2.270   0.417  1.00  0.00     0.163 HD
ATOM     36  O   UNL     1       4.414   0.144   0.050  1.00  0.00    -0.269 OA
BRANCH  34  37
ATOM     37  C   UNL     1       3.808   0.261  -2.218  1.00  0.00     0.039 A 
ATOM     38  C   UNL     1       3.568  -1.103  -2.423  1.00  0.00     0.014 A 
ATOM     39  C   UNL     1       3.927   1.107  -3.313  1.00  0.00     0.014 A 
ATOM     40  C   UNL     1       3.319  -1.578  -3.716  1.00  0.00     0.010 A 
ATOM     41  C   UNL     1       3.518   0.672  -4.563  1.00  0.00     0.010 A 
ATOM     42  C   UNL     1       3.224  -0.680  -4.790  1.00  0.00    -0.014 A 
BRANCH  42  43
ATOM     43  C   UNL     1       2.872  -1.091  -6.176  1.00  0.00     0.031 A 
ATOM     44  C   UNL     1       3.803  -0.715  -7.304  1.00  0.00     0.074 A 
ATOM     45  C   UNL     1       1.683  -1.666  -6.443  1.00  0.00     0.049 A 
ATOM     46  N   UNL     1       3.596  -0.730  -8.594  1.00  0.00    -0.248 NA
ATOM     47  C   UNL     1       5.122  -0.189  -6.915  1.00  0.00     0.031 C 
ATOM     48  C   UNL     1       0.677  -2.046  -5.448  1.00  0.00     0.029 A 
ATOM     49  N   UNL     1       1.104  -2.010  -7.641  1.00  0.00    -0.354 N 
ATOM     50  C   UNL     1       4.736  -0.170  -9.164  1.00  0.00     0.074 A 
ATOM     51  C   UNL     1       5.592   0.243  -8.074  1.00  0.00     0.031 C 
ATOM     52  C   UNL     1      -0.380  -2.590  -6.074  1.00  0.00     0.029 A 
ATOM     53  C   UNL     1      -0.162  -2.536  -7.516  1.00  0.00     0.049 A 
ATOM     54  H   UNL     1       1.554  -1.890  -8.509  1.00  0.00     0.167 HD
ATOM     55  C   UNL     1       5.053  -0.039 -10.475  1.00  0.00     0.034 A 
ATOM     56  C   UNL     1      -1.055  -2.906  -8.457  1.00  0.00     0.034 A 
ATOM     57  C   UNL     1       4.207  -0.503 -11.545  1.00  0.00     0.049 A 
ATOM     58  C   UNL     1      -0.685  -2.746  -9.912  1.00  0.00     0.074 A 
ATOM     59  C   UNL     1       4.457  -0.495 -12.905  1.00  0.00     0.029 A 
ATOM     60  N   UNL     1       2.947  -1.064 -11.374  1.00  0.00    -0.354 N 
ATOM     61  N   UNL     1       0.412  -2.249 -10.437  1.00  0.00    -0.248 NA
ATOM     62  C   UNL     1      -1.671  -3.199 -10.902  1.00  0.00     0.031 C 
ATOM     63  C   UNL     1       3.323  -0.983 -13.560  1.00  0.00     0.029 A 
ATOM     64  C   UNL     1       2.397  -1.377 -12.606  1.00  0.00     0.049 A 
ATOM     65  H   UNL     1       2.510  -1.216 -10.505  1.00  0.00     0.167 HD
ATOM     66  C   UNL     1       0.261  -2.368 -11.816  1.00  0.00     0.074 A 
ATOM     67  C   UNL     1      -1.027  -2.990 -12.040  1.00  0.00     0.031 C 
ATOM     68  C   UNL     1       1.111  -2.001 -12.809  1.00  0.00     0.034 A 
BRANCH  55  69
ATOM     69  C   UNL     1       6.356   0.645 -10.814  1.00  0.00     0.023 A 
ATOM     70  C   UNL     1       7.595   0.132 -10.390  1.00  0.00     0.031 A 
ATOM     71  C   UNL     1       6.361   1.847 -11.544  1.00  0.00     0.131 A 
ATOM     72  C   UNL     1       8.772   0.859 -10.621  1.00  0.00     0.055 A 
ATOM     73  C   UNL     1       7.546   2.518 -11.853  1.00  0.00     0.041 A 
ATOM     74  F   UNL     1       5.210   2.401 -11.958  1.00  0.00    -0.206 F 
ATOM     75  C   UNL     1       8.760   2.034 -11.375  1.00  0.00     0.022 A 
BRANCH  72  76
ATOM     76  S   UNL     1      10.292   0.330  -9.785  1.00  0.00     0.124 S 
ATOM     77  O   UNL     1       9.898   0.411  -8.380  1.00  0.00    -0.237 OA
ATOM     78  O   UNL     1      10.493  -1.013 -10.316  1.00  0.00    -0.237 OA
ATOM     79  O   UNL     1      11.278   1.323 -10.206  1.00  0.00    -0.744 OA
ENDBRANCH  72  76
ENDBRANCH  55  69
BRANCH  56  80
ATOM     80  C   UNL     1      -2.391  -3.448  -8.068  1.00  0.00     0.023 A 
ATOM     81  C   UNL     1      -2.759  -4.762  -8.399  1.00  0.00     0.031 A 
ATOM     82  C   UNL     1      -3.339  -2.648  -7.405  1.00  0.00     0.131 A 
ATOM     83  C   UNL     1      -4.056  -5.220  -8.118  1.00  0.00     0.055 A 
ATOM     84  C   UNL     1      -4.607  -3.129  -7.072  1.00  0.00     0.041 A 
ATOM     85  F   UNL     1      -3.042  -1.384  -7.064  1.00  0.00    -0.206 F 
ATOM     86  C   UNL     1      -4.977  -4.418  -7.442  1.00  0.00     0.022 A 
BRANCH  83  87
ATOM     87  S   UNL     1      -4.555  -6.849  -8.742  1.00  0.00     0.124 S 
ATOM     88  O   UNL     1      -4.334  -6.697 -10.175  1.00  0.00    -0.237 OA
ATOM     89  O   UNL     1      -3.635  -7.738  -8.041  1.00  0.00    -0.237 OA
ATOM     90  O   UNL     1      -5.954  -6.955  -8.334  1.00  0.00    -0.744 OA
ENDBRANCH  83  87
ENDBRANCH  56  80
BRANCH  68  91
ATOM     91  C   UNL     1       0.701  -2.322 -14.226  1.00  0.00     0.023 A 
ATOM     92  C   UNL     1      -0.390  -1.691 -14.846  1.00  0.00     0.031 A 
ATOM     93  C   UNL     1       1.431  -3.267 -14.969  1.00  0.00     0.131 A 
ATOM     94  C   UNL     1      -0.749  -2.047 -16.155  1.00  0.00     0.055 A 
ATOM     95  C   UNL     1       1.108  -3.571 -16.292  1.00  0.00     0.041 A 
ATOM     96  F   UNL     1       2.481  -3.902 -14.425  1.00  0.00    -0.206 F 
ATOM     97  C   UNL     1       0.005  -2.967 -16.888  1.00  0.00     0.022 A 
BRANCH  94  98
ATOM     98  S   UNL     1      -2.266  -1.350 -16.863  1.00  0.00     0.124 S 
ATOM     99  O   UNL     1      -3.280  -1.807 -15.918  1.00  0.00    -0.237 OA
ATOM    100  O   UNL     1      -1.987   0.082 -16.854  1.00  0.00    -0.237 OA
ATOM    101  O   UNL     1      -2.336  -1.958 -18.191  1.00  0.00    -0.744 OA
ENDBRANCH  94  98
ENDBRANCH  68  91
ENDBRANCH  42  43
ENDBRANCH  34  37
ENDBRANCH  32  33
ENDBRANCH  31  32
ENDBRANCH   1  31
TORSDOF 19
