REMARK SMILES Cc1ccc(S(=O)(=O)N(CC(=O)NCCCNC(=O)c2ccc(-c3c4nc(c(-c5cc(S(=O)(=O)[O-])ccc5F)c5ccc([nH]5)c(-c5cc(S(=O)(=O)[O-])ccc5F)c5nc(c(-c6cc(S(=O)(=O)[O-])ccc6F)c6ccc3[nH]6)C=C5)C=C4)cc2)c2cc(Cl)cc(Cl)c2)cc1
REMARK SMILES IDX 15 1 14 2 13 3 11 4 12 5 10 7 9 8 6 9 7 10 8 11 5 12 1 13
REMARK SMILES IDX 2 14 3 15 92 16 4 17 91 18 83 19 84 20 90 21 85 22 88 23
REMARK SMILES IDX 86 24 87 25 89 26 16 27 17 28 18 29 19 31 20 32 21 33 82 34
REMARK SMILES IDX 22 35 81 36 23 37 24 38 25 39 75 40 26 41 80 42 74 43 76 44
REMARK SMILES IDX 27 45 79 46 73 47 72 48 28 50 60 51 40 52 59 53 41 54 44 55
REMARK SMILES IDX 58 56 77 57 42 58 43 59 57 61 78 62 45 63 29 64 30 65 38 66
REMARK SMILES IDX 31 67 37 68 39 69 36 70 32 71 33 72 34 73 35 74 61 75 62 76
REMARK SMILES IDX 70 77 63 78 69 79 71 80 68 81 64 82 65 83 66 84 67 85 46 86
REMARK SMILES IDX 47 87 55 88 48 89 54 90 56 91 53 92 49 93 50 94 51 95 52 96
REMARK H PARENT 13 6 17 30 76 49 44 60
REMARK Flexibility Score: inf
ROOT
ATOM      1  C   UNL     1      -3.264   0.778  -3.096  1.00  0.00     0.042 C 
ENDROOT
BRANCH   1   2
ATOM      2  C   UNL     1      -2.196   1.732  -2.588  1.00  0.00     0.117 C 
BRANCH   2   3
ATOM      3  N   UNL     1      -2.657   3.098  -2.430  1.00  0.00    -0.354 N 
ATOM      4  C   UNL     1      -3.220   3.723  -1.358  1.00  0.00     0.240 C 
ATOM      5  O   UNL     1      -3.441   4.937  -1.426  1.00  0.00    -0.273 OA
ATOM      6  H   UNL     1      -2.545   3.665  -3.227  1.00  0.00     0.163 HD
BRANCH   4   7
ATOM      7  C   UNL     1      -3.522   2.998  -0.053  1.00  0.00     0.235 C 
BRANCH   7   8
ATOM      8  N   UNL     1      -4.138   1.631  -0.111  1.00  0.00    -0.257 N 
BRANCH   8   9
ATOM      9  S   UNL     1      -3.425   0.471   0.968  1.00  0.00     0.264 S 
ATOM     10  O   UNL     1      -4.083  -0.801   0.723  1.00  0.00    -0.201 OA
ATOM     11  O   UNL     1      -3.444   1.044   2.301  1.00  0.00    -0.201 OA
BRANCH   9  12
ATOM     12  C   UNL     1      -1.701   0.219   0.555  1.00  0.00     0.088 A 
ATOM     13  C   UNL     1       2.485  -0.533  -0.197  1.00  0.00     0.044 C 
ATOM     14  C   UNL     1       1.028  -0.270   0.044  1.00  0.00    -0.051 A 
ATOM     15  C   UNL     1       0.083  -1.292  -0.108  1.00  0.00     0.005 A 
ATOM     16  C   UNL     1       0.601   0.985   0.485  1.00  0.00     0.005 A 
ATOM     17  C   UNL     1      -1.276  -1.048   0.129  1.00  0.00     0.022 A 
ATOM     18  C   UNL     1      -0.745   1.214   0.785  1.00  0.00     0.022 A 
ENDBRANCH   9  12
ENDBRANCH   8   9
BRANCH   8  19
ATOM     19  C   UNL     1      -5.621   1.712  -0.085  1.00  0.00     0.055 A 
ATOM     20  C   UNL     1      -6.267   2.513  -1.044  1.00  0.00     0.047 A 
ATOM     21  C   UNL     1      -6.419   1.129   0.911  1.00  0.00     0.047 A 
ATOM     22  C   UNL     1      -7.642   2.759  -0.971  1.00  0.00     0.044 A 
ATOM     23  C   UNL     1      -7.800   1.354   0.953  1.00  0.00     0.044 A 
ATOM     24  Cl  UNL     1      -8.384   3.816  -2.108  1.00  0.00    -0.084 Cl
ATOM     25  C   UNL     1      -8.416   2.183   0.026  1.00  0.00     0.041 A 
ATOM     26  Cl  UNL     1      -8.747   0.616   2.190  1.00  0.00    -0.084 Cl
ENDBRANCH   8  19
ENDBRANCH   7   8
ENDBRANCH   4   7
ENDBRANCH   2   3
ENDBRANCH   1   2
BRANCH   1  27
ATOM     27  C   UNL     1      -3.458   0.843  -4.605  1.00  0.00     0.118 C 
BRANCH  27  28
ATOM     28  N   UNL     1      -2.825  -0.273  -5.313  1.00  0.00    -0.352 N 
ATOM     29  C   UNL     1      -3.051  -0.701  -6.611  1.00  0.00     0.251 C 
ATOM     30  H   UNL     1      -2.154  -0.782  -4.803  1.00  0.00     0.163 HD
ATOM     31  O   UNL     1      -2.455  -1.643  -7.109  1.00  0.00    -0.269 OA
BRANCH  29  32
ATOM     32  C   UNL     1      -3.971   0.112  -7.434  1.00  0.00     0.039 A 
ATOM     33  C   UNL     1      -3.392   0.890  -8.439  1.00  0.00     0.014 A 
ATOM     34  C   UNL     1      -5.268   0.350  -6.987  1.00  0.00     0.014 A 
ATOM     35  C   UNL     1      -4.021   2.068  -8.822  1.00  0.00     0.010 A 
ATOM     36  C   UNL     1      -5.851   1.564  -7.305  1.00  0.00     0.010 A 
ATOM     37  C   UNL     1      -5.186   2.456  -8.159  1.00  0.00    -0.014 A 
BRANCH  37  38
ATOM     38  C   UNL     1      -5.670   3.834  -8.182  1.00  0.00     0.031 A 
ATOM     39  C   UNL     1      -6.877   4.197  -8.946  1.00  0.00     0.074 A 
ATOM     40  C   UNL     1      -4.993   4.810  -7.535  1.00  0.00     0.049 A 
ATOM     41  N   UNL     1      -7.119   5.380  -9.405  1.00  0.00    -0.248 NA
ATOM     42  C   UNL     1      -7.865   3.210  -9.355  1.00  0.00     0.031 C 
ATOM     43  C   UNL     1      -5.438   6.179  -7.287  1.00  0.00     0.029 A 
ATOM     44  N   UNL     1      -3.629   4.827  -7.246  1.00  0.00    -0.354 N 
ATOM     45  C   UNL     1      -8.408   5.388  -9.881  1.00  0.00     0.074 A 
ATOM     46  C   UNL     1      -8.758   3.992  -9.966  1.00  0.00     0.031 C 
ATOM     47  C   UNL     1      -4.360   6.966  -7.164  1.00  0.00     0.029 A 
ATOM     48  C   UNL     1      -3.193   6.151  -7.444  1.00  0.00     0.049 A 
ATOM     49  H   UNL     1      -3.078   4.062  -6.960  1.00  0.00     0.167 HD
ATOM     50  C   UNL     1      -9.062   6.581  -9.996  1.00  0.00     0.034 A 
ATOM     51  C   UNL     1      -2.203   6.455  -8.328  1.00  0.00     0.034 A 
ATOM     52  C   UNL     1      -8.134   7.719  -9.872  1.00  0.00     0.049 A 
ATOM     53  C   UNL     1      -2.602   7.452  -9.387  1.00  0.00     0.074 A 
ATOM     54  C   UNL     1      -7.921   8.695  -8.911  1.00  0.00     0.029 A 
ATOM     55  N   UNL     1      -7.072   7.836 -10.769  1.00  0.00    -0.354 N 
ATOM     56  N   UNL     1      -3.825   7.838  -9.624  1.00  0.00    -0.248 NA
ATOM     57  C   UNL     1      -1.642   8.048 -10.306  1.00  0.00     0.031 C 
ATOM     58  C   UNL     1      -6.718   9.386  -9.232  1.00  0.00     0.029 A 
ATOM     59  C   UNL     1      -6.205   8.850 -10.400  1.00  0.00     0.049 A 
ATOM     60  H   UNL     1      -6.955   7.268 -11.565  1.00  0.00     0.167 HD
ATOM     61  C   UNL     1      -3.848   8.667 -10.722  1.00  0.00     0.074 A 
ATOM     62  C   UNL     1      -2.448   8.773 -11.099  1.00  0.00     0.031 C 
ATOM     63  C   UNL     1      -5.030   9.155 -11.222  1.00  0.00     0.034 A 
BRANCH  50  64
ATOM     64  C   UNL     1     -10.584   6.742  -9.955  1.00  0.00     0.023 A 
ATOM     65  C   UNL     1     -11.132   8.018  -9.680  1.00  0.00     0.031 A 
ATOM     66  C   UNL     1     -11.545   5.712 -10.062  1.00  0.00     0.131 A 
ATOM     67  C   UNL     1     -12.514   8.203  -9.451  1.00  0.00     0.055 A 
ATOM     68  C   UNL     1     -12.915   5.893  -9.828  1.00  0.00     0.041 A 
ATOM     69  F   UNL     1     -11.239   4.464 -10.416  1.00  0.00    -0.206 F 
ATOM     70  C   UNL     1     -13.407   7.140  -9.507  1.00  0.00     0.022 A 
BRANCH  67  71
ATOM     71  S   UNL     1     -13.143   9.854  -9.039  1.00  0.00     0.124 S 
ATOM     72  O   UNL     1     -12.434  10.154  -7.799  1.00  0.00    -0.237 OA
ATOM     73  O   UNL     1     -12.761  10.633 -10.210  1.00  0.00    -0.237 OA
ATOM     74  O   UNL     1     -14.582   9.641  -8.886  1.00  0.00    -0.744 OA
ENDBRANCH  67  71
ENDBRANCH  50  64
BRANCH  51  75
ATOM     75  C   UNL     1      -1.194   5.372  -8.488  1.00  0.00     0.023 A 
ATOM     76  C   UNL     1      -0.555   4.933  -7.311  1.00  0.00     0.031 A 
ATOM     77  C   UNL     1      -1.148   4.537  -9.611  1.00  0.00     0.131 A 
ATOM     78  C   UNL     1      -0.085   3.618  -7.213  1.00  0.00     0.055 A 
ATOM     79  C   UNL     1      -0.583   3.256  -9.538  1.00  0.00     0.041 A 
ATOM     80  F   UNL     1      -1.759   4.889 -10.751  1.00  0.00    -0.206 F 
ATOM     81  C   UNL     1      -0.095   2.772  -8.321  1.00  0.00     0.022 A 
BRANCH  78  82
ATOM     82  S   UNL     1       0.207   2.956  -5.548  1.00  0.00     0.124 S 
ATOM     83  O   UNL     1       1.597   3.320  -5.305  1.00  0.00    -0.237 OA
ATOM     84  O   UNL     1      -0.790   3.666  -4.743  1.00  0.00    -0.237 OA
ATOM     85  O   UNL     1      -0.057   1.526  -5.687  1.00  0.00    -0.744 OA
ENDBRANCH  78  82
ENDBRANCH  51  75
BRANCH  63  86
ATOM     86  C   UNL     1      -5.221   9.977 -12.498  1.00  0.00     0.023 A 
ATOM     87  C   UNL     1      -4.177  10.485 -13.286  1.00  0.00     0.031 A 
ATOM     88  C   UNL     1      -6.522  10.287 -12.978  1.00  0.00     0.131 A 
ATOM     89  C   UNL     1      -4.417  11.217 -14.468  1.00  0.00     0.055 A 
ATOM     90  C   UNL     1      -6.763  11.017 -14.150  1.00  0.00     0.041 A 
ATOM     91  F   UNL     1      -7.630   9.886 -12.340  1.00  0.00    -0.206 F 
ATOM     92  C   UNL     1      -5.706  11.485 -14.909  1.00  0.00     0.022 A 
BRANCH  89  93
ATOM     93  S   UNL     1      -2.987  11.819 -15.410  1.00  0.00     0.124 S 
ATOM     94  O   UNL     1      -2.305  12.660 -14.431  1.00  0.00    -0.237 OA
ATOM     95  O   UNL     1      -2.305  10.577 -15.759  1.00  0.00    -0.237 OA
ATOM     96  O   UNL     1      -3.587  12.535 -16.533  1.00  0.00    -0.744 OA
ENDBRANCH  89  93
ENDBRANCH  63  86
ENDBRANCH  37  38
ENDBRANCH  29  32
ENDBRANCH  27  28
ENDBRANCH   1  27
TORSDOF 17
