REMARK SMILES COc1ccc2c(c1)c(CC(=O)NCCCNC(=O)c1ccc(-c3c4nc(c(-c5cc(S(=O)(=O)[O-])ccc5F)c5ccc([nH]5)c(-c5cc(S(=O)(=O)[O-])ccc5F)c5nc(c(-c6cc(S(=O)(=O)[O-])ccc6F)c6ccc3[nH]6)C=C5)C=C4)cc1)c(C)n2Cc1ccn(C(F)F)c(=O)c1
REMARK SMILES IDX 14 1 13 2 11 3 12 4 10 6 9 7 3 8 4 9 8 10 5 11 7 12 6 13
REMARK SMILES IDX 85 14 83 15 84 16 2 17 1 18 86 19 87 20 88 21 96 22 89 23
REMARK SMILES IDX 94 24 90 25 95 26 91 27 92 28 93 29 15 30 16 31 17 32 18 33
REMARK SMILES IDX 19 35 20 36 21 37 82 38 22 39 81 40 23 41 24 42 25 43 75 44
REMARK SMILES IDX 26 45 80 46 74 47 76 48 27 49 79 50 73 51 72 52 28 54 60 55
REMARK SMILES IDX 40 56 59 57 41 58 44 59 58 60 77 61 42 62 43 63 57 65 78 66
REMARK SMILES IDX 45 67 29 68 30 69 38 70 31 71 37 72 39 73 36 74 32 75 33 76
REMARK SMILES IDX 34 77 35 78 61 79 62 80 70 81 63 82 69 83 71 84 68 85 64 86
REMARK SMILES IDX 65 87 66 88 67 89 46 90 47 91 55 92 48 93 54 94 56 95 53 96
REMARK SMILES IDX 49 97 50 98 51 99 52 100
REMARK H PARENT 13 5 17 34 76 53 44 64
REMARK Flexibility Score: inf
ROOT
ATOM      1  C   UNL     1      -0.626   3.970   6.884  1.00  0.00     0.117 C 
ENDROOT
BRANCH   1   2
ATOM      2  N   UNL     1      -1.529   3.888   5.742  1.00  0.00    -0.356 N 
ATOM      3  C   UNL     1      -2.153   2.807   5.185  1.00  0.00     0.224 C 
ATOM      4  O   UNL     1      -2.937   3.008   4.251  1.00  0.00    -0.275 OA
ATOM      5  H   UNL     1      -1.719   4.748   5.302  1.00  0.00     0.163 HD
BRANCH   3   6
ATOM      6  C   UNL     1      -1.956   1.405   5.742  1.00  0.00     0.138 C 
BRANCH   6   7
ATOM      7  C   UNL     1      -0.543   0.923   5.647  1.00  0.00    -0.010 A 
ATOM      8  C   UNL     1       1.026   0.917   2.176  1.00  0.00     0.119 A 
ATOM      9  C   UNL     1       2.311   0.584   2.591  1.00  0.00     0.048 A 
ATOM     10  C   UNL     1       0.014   1.111   3.115  1.00  0.00     0.057 A 
ATOM     11  C   UNL     1       2.601   0.379   3.948  1.00  0.00     0.031 A 
ATOM     12  C   UNL     1       0.270   0.870   4.481  1.00  0.00     0.007 A 
ATOM     13  C   UNL     1       1.556   0.492   4.883  1.00  0.00     0.049 A 
ATOM     14  N   UNL     1       1.512   0.309   6.261  1.00  0.00    -0.340 N 
ATOM     15  C   UNL     1       0.187   0.336   6.669  1.00  0.00     0.020 A 
ATOM     16  C   UNL     1      -0.333  -0.137   7.980  1.00  0.00     0.065 C 
BRANCH   8  17
ATOM     17  O   UNL     1       0.683   1.137   0.868  1.00  0.00    -0.497 OA
ATOM     18  C   UNL     1       1.112   0.100  -0.011  1.00  0.00     0.278 C 
ENDBRANCH   8  17
BRANCH  14  19
ATOM     19  C   UNL     1       2.682   0.044   7.115  1.00  0.00     0.158 C 
BRANCH  19  20
ATOM     20  C   UNL     1       3.020   1.181   8.055  1.00  0.00    -0.021 A 
ATOM     21  C   UNL     1       2.223   1.369   9.248  1.00  0.00     0.024 A 
ATOM     22  C   UNL     1       4.075   1.993   7.869  1.00  0.00     0.077 A 
ATOM     23  C   UNL     1       2.449   2.378  10.087  1.00  0.00     0.095 A 
ATOM     24  C   UNL     1       4.358   3.117   8.807  1.00  0.00     0.255 A 
ATOM     25  N   UNL     1       3.513   3.228   9.896  1.00  0.00    -0.258 N 
ATOM     26  O   UNL     1       5.296   3.861   8.517  1.00  0.00    -0.269 OA
BRANCH  25  27
ATOM     27  C   UNL     1       3.702   4.290  10.850  1.00  0.00     0.451 C 
ATOM     28  F   UNL     1       4.975   4.708  10.909  1.00  0.00    -0.185 F 
ATOM     29  F   UNL     1       2.898   5.332  10.524  1.00  0.00    -0.185 F 
ENDBRANCH  25  27
ENDBRANCH  19  20
ENDBRANCH  14  19
ENDBRANCH   6   7
ENDBRANCH   3   6
ENDBRANCH   1   2
BRANCH   1  30
ATOM     30  C   UNL     1       0.804   4.381   6.509  1.00  0.00     0.042 C 
BRANCH  30  31
ATOM     31  C   UNL     1       0.941   5.797   5.944  1.00  0.00     0.118 C 
BRANCH  31  32
ATOM     32  N   UNL     1       0.409   6.843   6.800  1.00  0.00    -0.352 N 
ATOM     33  C   UNL     1       0.903   7.736   7.713  1.00  0.00     0.251 C 
ATOM     34  H   UNL     1      -0.565   6.934   6.697  1.00  0.00     0.163 HD
ATOM     35  O   UNL     1       0.085   8.579   8.099  1.00  0.00    -0.269 OA
BRANCH  33  36
ATOM     36  C   UNL     1       2.264   7.737   8.320  1.00  0.00     0.039 A 
ATOM     37  C   UNL     1       3.331   6.930   7.945  1.00  0.00     0.014 A 
ATOM     38  C   UNL     1       2.441   8.604   9.425  1.00  0.00     0.014 A 
ATOM     39  C   UNL     1       4.489   6.913   8.729  1.00  0.00     0.010 A 
ATOM     40  C   UNL     1       3.588   8.571  10.220  1.00  0.00     0.010 A 
ATOM     41  C   UNL     1       4.590   7.666   9.914  1.00  0.00    -0.014 A 
BRANCH  41  42
ATOM     42  C   UNL     1       5.806   7.509  10.730  1.00  0.00     0.031 A 
ATOM     43  C   UNL     1       7.043   7.790   9.959  1.00  0.00     0.074 A 
ATOM     44  C   UNL     1       5.854   7.154  12.036  1.00  0.00     0.049 A 
ATOM     45  N   UNL     1       7.955   6.956   9.587  1.00  0.00    -0.248 NA
ATOM     46  C   UNL     1       7.173   9.130   9.368  1.00  0.00     0.031 C 
ATOM     47  C   UNL     1       4.734   7.095  12.981  1.00  0.00     0.029 A 
ATOM     48  N   UNL     1       6.927   6.814  12.825  1.00  0.00    -0.354 N 
ATOM     49  C   UNL     1       8.884   7.707   8.872  1.00  0.00     0.074 A 
ATOM     50  C   UNL     1       8.261   8.977   8.614  1.00  0.00     0.031 C 
ATOM     51  C   UNL     1       5.209   6.962  14.240  1.00  0.00     0.029 A 
ATOM     52  C   UNL     1       6.652   6.794  14.190  1.00  0.00     0.049 A 
ATOM     53  H   UNL     1       7.815   6.602  12.456  1.00  0.00     0.167 HD
ATOM     54  C   UNL     1      10.183   7.308   8.782  1.00  0.00     0.034 A 
ATOM     55  C   UNL     1       7.536   6.719  15.221  1.00  0.00     0.034 A 
ATOM     56  C   UNL     1      10.316   5.923   9.144  1.00  0.00     0.049 A 
ATOM     57  C   UNL     1       8.812   6.178  14.715  1.00  0.00     0.074 A 
ATOM     58  C   UNL     1       9.990   4.716   8.570  1.00  0.00     0.029 A 
ATOM     59  N   UNL     1      10.514   5.707  10.483  1.00  0.00    -0.354 N 
ATOM     60  N   UNL     1       8.991   4.936  14.370  1.00  0.00    -0.248 NA
ATOM     61  C   UNL     1       9.834   7.111  14.260  1.00  0.00     0.031 C 
ATOM     62  C   UNL     1       9.774   3.819   9.653  1.00  0.00     0.029 A 
ATOM     63  C   UNL     1      10.034   4.482  10.855  1.00  0.00     0.049 A 
ATOM     64  H   UNL     1      10.944   6.347  11.095  1.00  0.00     0.167 HD
ATOM     65  C   UNL     1       9.832   5.020  13.277  1.00  0.00     0.074 A 
ATOM     66  C   UNL     1      10.462   6.332  13.378  1.00  0.00     0.031 C 
ATOM     67  C   UNL     1       9.694   4.160  12.229  1.00  0.00     0.034 A 
BRANCH  54  68
ATOM     68  C   UNL     1      11.353   8.270   8.847  1.00  0.00     0.023 A 
ATOM     69  C   UNL     1      11.204   9.648   9.086  1.00  0.00     0.031 A 
ATOM     70  C   UNL     1      12.674   7.780   8.928  1.00  0.00     0.131 A 
ATOM     71  C   UNL     1      12.294  10.473   9.389  1.00  0.00     0.055 A 
ATOM     72  C   UNL     1      13.759   8.591   9.291  1.00  0.00     0.041 A 
ATOM     73  F   UNL     1      12.947   6.482   8.720  1.00  0.00    -0.206 F 
ATOM     74  C   UNL     1      13.571   9.946   9.529  1.00  0.00     0.022 A 
BRANCH  71  75
ATOM     75  S   UNL     1      12.045  12.254   9.636  1.00  0.00     0.124 S 
ATOM     76  O   UNL     1      12.599  12.458  10.969  1.00  0.00    -0.237 OA
ATOM     77  O   UNL     1      12.823  12.812   8.533  1.00  0.00    -0.237 OA
ATOM     78  O   UNL     1      10.599  12.420   9.517  1.00  0.00    -0.744 OA
ENDBRANCH  71  75
ENDBRANCH  54  68
BRANCH  55  79
ATOM     79  C   UNL     1       7.486   7.473  16.501  1.00  0.00     0.023 A 
ATOM     80  C   UNL     1       6.805   8.701  16.538  1.00  0.00     0.031 A 
ATOM     81  C   UNL     1       8.364   7.194  17.567  1.00  0.00     0.131 A 
ATOM     82  C   UNL     1       7.058   9.630  17.554  1.00  0.00     0.055 A 
ATOM     83  C   UNL     1       8.599   8.117  18.598  1.00  0.00     0.041 A 
ATOM     84  F   UNL     1       9.076   6.056  17.588  1.00  0.00    -0.206 F 
ATOM     85  C   UNL     1       7.957   9.352  18.583  1.00  0.00     0.022 A 
BRANCH  82  86
ATOM     86  S   UNL     1       6.297  11.273  17.479  1.00  0.00     0.124 S 
ATOM     87  O   UNL     1       5.786  11.438  18.837  1.00  0.00    -0.237 OA
ATOM     88  O   UNL     1       7.439  12.111  17.128  1.00  0.00    -0.237 OA
ATOM     89  O   UNL     1       5.273  11.129  16.449  1.00  0.00    -0.744 OA
ENDBRANCH  82  86
ENDBRANCH  55  79
BRANCH  67  90
ATOM     90  C   UNL     1       8.988   2.849  12.461  1.00  0.00     0.023 A 
ATOM     91  C   UNL     1       9.680   1.696  12.046  1.00  0.00     0.031 A 
ATOM     92  C   UNL     1       7.652   2.698  12.875  1.00  0.00     0.131 A 
ATOM     93  C   UNL     1       9.028   0.464  11.979  1.00  0.00     0.055 A 
ATOM     94  C   UNL     1       7.030   1.444  12.890  1.00  0.00     0.041 A 
ATOM     95  F   UNL     1       6.889   3.749  13.206  1.00  0.00    -0.206 F 
ATOM     96  C   UNL     1       7.710   0.324  12.418  1.00  0.00     0.022 A 
BRANCH  93  97
ATOM     97  S   UNL     1       9.822  -0.938  11.154  1.00  0.00     0.124 S 
ATOM     98  O   UNL     1       9.975  -1.893  12.247  1.00  0.00    -0.237 OA
ATOM     99  O   UNL     1       8.831  -1.301  10.141  1.00  0.00    -0.237 OA
ATOM    100  O   UNL     1      11.067  -0.386  10.628  1.00  0.00    -0.744 OA
ENDBRANCH  93  97
ENDBRANCH  67  90
ENDBRANCH  41  42
ENDBRANCH  33  36
ENDBRANCH  31  32
ENDBRANCH  30  31
ENDBRANCH   1  30
TORSDOF 18
