REMARK SMILES CCCCNC(=O)c1c(Cl)c(Cl)c(Cl)c(Cl)c1C(=O)NCCCNC(=O)c1ccc(-c2c3nc(c(-c4cc(S(=O)(=O)[O-])ccc4F)c4ccc([nH]4)c(-c4cc(S(=O)(=O)[O-])ccc4F)c4nc(c(-c5cc(S(=O)(=O)[O-])ccc5F)c5ccc2[nH]5)C=C4)C=C3)cc1
REMARK SMILES IDX 21 1 20 2 18 3 19 4 17 6 8 7 9 8 10 9 11 10 15 11 12 12
REMARK SMILES IDX 13 13 16 14 14 15 6 16 5 17 7 19 4 20 3 21 2 22 1 23 22 24
REMARK SMILES IDX 23 25 24 26 25 27 26 29 27 30 28 31 89 32 29 33 88 34 30 35
REMARK SMILES IDX 31 36 32 37 82 38 33 39 87 40 81 41 83 42 34 43 86 44 80 45
REMARK SMILES IDX 79 46 35 48 67 49 47 50 66 51 48 52 51 53 65 54 84 55 49 56
REMARK SMILES IDX 50 57 64 59 85 60 52 61 36 62 37 63 45 64 38 65 44 66 46 67
REMARK SMILES IDX 43 68 39 69 40 70 41 71 42 72 68 73 69 74 77 75 70 76 76 77
REMARK SMILES IDX 78 78 75 79 71 80 72 81 73 82 74 83 53 84 54 85 62 86 55 87
REMARK SMILES IDX 61 88 63 89 60 90 56 91 57 92 58 93 59 94
REMARK H PARENT 20 5 5 18 24 28 83 47 51 58
REMARK Flexibility Score: inf
ROOT
ATOM      1  C   UNL     1      -2.591   1.873  -3.521  1.00  0.00     0.118 C 
ENDROOT
BRANCH   1   2
ATOM      2  N   UNL     1      -2.958   2.423  -4.793  1.00  0.00    -0.352 N 
ATOM      3  C   UNL     1      -2.510   2.006  -6.027  1.00  0.00     0.253 C 
ATOM      4  O   UNL     1      -3.262   2.183  -6.987  1.00  0.00    -0.269 OA
ATOM      5  H   UNL     1      -3.593   3.175  -4.784  1.00  0.00     0.163 HD
BRANCH   3   6
ATOM      6  C   UNL     1      -1.147   1.442  -6.314  1.00  0.00     0.074 A 
ATOM      7  C   UNL     1      -0.611   0.252  -5.770  1.00  0.00     0.074 A 
ATOM      8  C   UNL     1       0.489  -0.394  -6.380  1.00  0.00     0.074 A 
ATOM      9  Cl  UNL     1       1.033  -1.949  -5.794  1.00  0.00    -0.082 Cl
ATOM     10  C   UNL     1       1.131   0.189  -7.481  1.00  0.00     0.080 A 
ATOM     11  C   UNL     1      -0.448   2.047  -7.392  1.00  0.00     0.074 A 
ATOM     12  Cl  UNL     1       2.503  -0.600  -8.210  1.00  0.00    -0.081 Cl
ATOM     13  C   UNL     1       0.677   1.421  -7.974  1.00  0.00     0.080 A 
ATOM     14  Cl  UNL     1      -0.903   3.636  -7.970  1.00  0.00    -0.082 Cl
ATOM     15  Cl  UNL     1       1.495   2.157  -9.329  1.00  0.00    -0.081 Cl
BRANCH   7  16
ATOM     16  C   UNL     1      -1.170  -0.409  -4.581  1.00  0.00     0.253 C 
ATOM     17  N   UNL     1      -0.479  -0.343  -3.378  1.00  0.00    -0.352 N 
ATOM     18  H   UNL     1      -0.949  -0.736  -2.607  1.00  0.00     0.163 HD
ATOM     19  O   UNL     1      -2.243  -0.983  -4.683  1.00  0.00    -0.269 OA
BRANCH  17  20
ATOM     20  C   UNL     1       0.839   0.220  -3.078  1.00  0.00     0.116 C 
BRANCH  20  21
ATOM     21  C   UNL     1       0.861   1.359  -2.049  1.00  0.00     0.021 C 
BRANCH  21  22
ATOM     22  C   UNL     1       0.384   1.033  -0.632  1.00  0.00    -0.002 C 
ATOM     23  C   UNL     1       1.066  -0.168   0.000  1.00  0.00     0.004 C 
ENDBRANCH  21  22
ENDBRANCH  20  21
ENDBRANCH  17  20
ENDBRANCH   7  16
ENDBRANCH   3   6
ENDBRANCH   1   2
BRANCH   1  24
ATOM     24  C   UNL     1      -2.796   2.702  -2.280  1.00  0.00     0.042 C 
BRANCH  24  25
ATOM     25  C   UNL     1      -4.230   3.048  -1.952  1.00  0.00     0.118 C 
BRANCH  25  26
ATOM     26  N   UNL     1      -5.057   1.898  -1.605  1.00  0.00    -0.352 N 
ATOM     27  C   UNL     1      -5.511   1.405  -0.400  1.00  0.00     0.251 C 
ATOM     28  H   UNL     1      -5.349   1.371  -2.384  1.00  0.00     0.163 HD
ATOM     29  O   UNL     1      -6.112   0.332  -0.393  1.00  0.00    -0.269 OA
BRANCH  27  30
ATOM     30  C   UNL     1      -5.250   2.105   0.882  1.00  0.00     0.039 A 
ATOM     31  C   UNL     1      -5.098   1.359   2.056  1.00  0.00     0.014 A 
ATOM     32  C   UNL     1      -5.175   3.492   0.955  1.00  0.00     0.014 A 
ATOM     33  C   UNL     1      -4.803   2.004   3.263  1.00  0.00     0.010 A 
ATOM     34  C   UNL     1      -4.703   4.112   2.103  1.00  0.00     0.010 A 
ATOM     35  C   UNL     1      -4.560   3.387   3.289  1.00  0.00    -0.014 A 
BRANCH  35  36
ATOM     36  C   UNL     1      -4.250   4.112   4.551  1.00  0.00     0.031 A 
ATOM     37  C   UNL     1      -5.134   5.257   4.993  1.00  0.00     0.074 A 
ATOM     38  C   UNL     1      -3.157   3.783   5.267  1.00  0.00     0.049 A 
ATOM     39  N   UNL     1      -5.006   6.057   6.021  1.00  0.00    -0.248 NA
ATOM     40  C   UNL     1      -6.289   5.577   4.137  1.00  0.00     0.031 C 
ATOM     41  C   UNL     1      -2.191   2.741   4.909  1.00  0.00     0.029 A 
ATOM     42  N   UNL     1      -2.675   4.284   6.450  1.00  0.00    -0.354 N 
ATOM     43  C   UNL     1      -6.044   6.979   5.915  1.00  0.00     0.074 A 
ATOM     44  C   UNL     1      -6.726   6.704   4.672  1.00  0.00     0.031 C 
ATOM     45  C   UNL     1      -1.268   2.643   5.878  1.00  0.00     0.029 A 
ATOM     46  C   UNL     1      -1.543   3.645   6.902  1.00  0.00     0.049 A 
ATOM     47  H   UNL     1      -3.099   5.031   6.930  1.00  0.00     0.167 HD
ATOM     48  C   UNL     1      -6.427   7.938   6.793  1.00  0.00     0.034 A 
ATOM     49  C   UNL     1      -0.814   3.845   8.018  1.00  0.00     0.034 A 
ATOM     50  C   UNL     1      -5.757   8.173   8.047  1.00  0.00     0.049 A 
ATOM     51  C   UNL     1      -1.260   4.913   8.985  1.00  0.00     0.074 A 
ATOM     52  C   UNL     1      -6.082   9.074   9.045  1.00  0.00     0.029 A 
ATOM     53  N   UNL     1      -4.621   7.497   8.476  1.00  0.00    -0.354 N 
ATOM     54  N   UNL     1      -2.281   5.736   8.898  1.00  0.00    -0.248 NA
ATOM     55  C   UNL     1      -0.465   5.066  10.209  1.00  0.00     0.031 C 
ATOM     56  C   UNL     1      -5.104   8.993  10.042  1.00  0.00     0.029 A 
ATOM     57  C   UNL     1      -4.217   7.981   9.710  1.00  0.00     0.049 A 
ATOM     58  H   UNL     1      -4.169   6.780   7.976  1.00  0.00     0.167 HD
ATOM     59  C   UNL     1      -2.267   6.482  10.074  1.00  0.00     0.074 A 
ATOM     60  C   UNL     1      -1.155   5.988  10.861  1.00  0.00     0.031 C 
ATOM     61  C   UNL     1      -3.095   7.484  10.471  1.00  0.00     0.034 A 
BRANCH  48  62
ATOM     62  C   UNL     1      -7.613   8.799   6.415  1.00  0.00     0.023 A 
ATOM     63  C   UNL     1      -8.886   8.245   6.184  1.00  0.00     0.031 A 
ATOM     64  C   UNL     1      -7.463  10.185   6.240  1.00  0.00     0.131 A 
ATOM     65  C   UNL     1      -9.928   9.053   5.705  1.00  0.00     0.055 A 
ATOM     66  C   UNL     1      -8.530  11.000   5.855  1.00  0.00     0.041 A 
ATOM     67  F   UNL     1      -6.269  10.773   6.422  1.00  0.00    -0.206 F 
ATOM     68  C   UNL     1      -9.768  10.432   5.567  1.00  0.00     0.022 A 
BRANCH  65  69
ATOM     69  S   UNL     1     -11.441   8.249   5.107  1.00  0.00     0.124 S 
ATOM     70  O   UNL     1     -10.917   7.388   4.049  1.00  0.00    -0.237 OA
ATOM     71  O   UNL     1     -11.930   7.569   6.301  1.00  0.00    -0.237 OA
ATOM     72  O   UNL     1     -12.262   9.366   4.643  1.00  0.00    -0.744 OA
ENDBRANCH  65  69
ENDBRANCH  48  62
BRANCH  49  73
ATOM     73  C   UNL     1       0.396   3.016   8.296  1.00  0.00     0.023 A 
ATOM     74  C   UNL     1       0.457   2.178   9.421  1.00  0.00     0.031 A 
ATOM     75  C   UNL     1       1.531   3.085   7.468  1.00  0.00     0.131 A 
ATOM     76  C   UNL     1       1.642   1.487   9.720  1.00  0.00     0.055 A 
ATOM     77  C   UNL     1       2.687   2.349   7.735  1.00  0.00     0.041 A 
ATOM     78  F   UNL     1       1.528   3.865   6.375  1.00  0.00    -0.206 F 
ATOM     79  C   UNL     1       2.753   1.556   8.876  1.00  0.00     0.022 A 
BRANCH  76  80
ATOM     80  S   UNL     1       1.746   0.574  11.284  1.00  0.00     0.124 S 
ATOM     81  O   UNL     1       1.463   1.621  12.258  1.00  0.00    -0.237 OA
ATOM     82  O   UNL     1       0.711  -0.440  11.110  1.00  0.00    -0.237 OA
ATOM     83  O   UNL     1       3.116   0.067  11.290  1.00  0.00    -0.744 OA
ENDBRANCH  76  80
ENDBRANCH  49  73
BRANCH  61  84
ATOM     84  C   UNL     1      -2.840   8.075  11.837  1.00  0.00     0.023 A 
ATOM     85  C   UNL     1      -1.646   8.754  12.136  1.00  0.00     0.031 A 
ATOM     86  C   UNL     1      -3.790   7.926  12.863  1.00  0.00     0.131 A 
ATOM     87  C   UNL     1      -1.396   9.182  13.447  1.00  0.00     0.055 A 
ATOM     88  C   UNL     1      -3.570   8.427  14.147  1.00  0.00     0.041 A 
ATOM     89  F   UNL     1      -4.948   7.286  12.637  1.00  0.00    -0.206 F 
ATOM     90  C   UNL     1      -2.358   9.041  14.450  1.00  0.00     0.022 A 
BRANCH  87  91
ATOM     91  S   UNL     1       0.260   9.798  13.854  1.00  0.00     0.124 S 
ATOM     92  O   UNL     1       1.107   8.683  13.443  1.00  0.00    -0.237 OA
ATOM     93  O   UNL     1       0.354  11.003  13.036  1.00  0.00    -0.237 OA
ATOM     94  O   UNL     1       0.195  10.030  15.296  1.00  0.00    -0.744 OA
ENDBRANCH  87  91
ENDBRANCH  61  84
ENDBRANCH  35  36
ENDBRANCH  27  30
ENDBRANCH  25  26
ENDBRANCH  24  25
ENDBRANCH   1  24
TORSDOF 17
