REMARK SMILES O=C(NCCCNC(=O)c1cc(-c2ccc(C(F)(F)F)cc2)cc([N+](=O)[O-])c1)c1ccc(-c2c3nc(c(-c4cc(S(=O)(=O)[O-])ccc4F)c4ccc([nH]4)c(-c4cc(S(=O)(=O)[O-])ccc4F)c4nc(c(-c5cc(S(=O)(=O)[O-])ccc5F)c5ccc2[nH]5)C=C4)C=C3)cc1
REMARK SMILES IDX 4 1 3 2 1 3 2 4 29 6 30 7 91 8 31 9 90 10 32 11 33 12 34 13
REMARK SMILES IDX 84 14 35 15 89 16 83 17 85 18 36 19 88 20 82 21 81 22 37 24
REMARK SMILES IDX 69 25 49 26 68 27 50 28 53 29 67 30 86 31 51 32 52 33 66 35
REMARK SMILES IDX 87 36 54 37 38 38 39 39 47 40 40 41 46 42 48 43 45 44 41 45
REMARK SMILES IDX 42 46 43 47 44 48 70 49 71 50 79 51 72 52 78 53 80 54 77 55
REMARK SMILES IDX 73 56 74 57 75 58 76 59 55 60 56 61 64 62 57 63 63 64 65 65
REMARK SMILES IDX 62 66 58 67 59 68 60 69 61 70 5 71 6 72 7 73 8 74 9 76 10 77
REMARK SMILES IDX 11 78 28 79 12 80 24 81 23 82 13 83 14 84 22 85 15 86 21 87
REMARK SMILES IDX 16 88 17 89 18 90 19 91 20 92 25 93 26 94 27 95
REMARK H PARENT 3 5 85 23 53 34 7 75
REMARK Flexibility Score: inf
ROOT
ATOM      1  C   UNL     1       4.599  -0.797   1.101  1.00  0.00     0.118 C 
ENDROOT
BRANCH   1   2
ATOM      2  N   UNL     1       3.160  -0.850   0.890  1.00  0.00    -0.352 N 
ATOM      3  O   UNL     1       1.153  -0.255   0.076  1.00  0.00    -0.269 OA
ATOM      4  C   UNL     1       2.377  -0.215  -0.041  1.00  0.00     0.251 C 
ATOM      5  H   UNL     1       2.671  -1.434   1.515  1.00  0.00     0.163 HD
BRANCH   4   6
ATOM      6  C   UNL     1       2.988   0.524  -1.167  1.00  0.00     0.039 A 
ATOM      7  C   UNL     1       4.066  -0.008  -1.880  1.00  0.00     0.014 A 
ATOM      8  C   UNL     1       2.444   1.756  -1.542  1.00  0.00     0.014 A 
ATOM      9  C   UNL     1       4.685   0.748  -2.872  1.00  0.00     0.010 A 
ATOM     10  C   UNL     1       3.014   2.477  -2.594  1.00  0.00     0.010 A 
ATOM     11  C   UNL     1       4.157   1.991  -3.249  1.00  0.00    -0.014 A 
BRANCH  11  12
ATOM     12  C   UNL     1       4.774   2.754  -4.363  1.00  0.00     0.031 A 
ATOM     13  C   UNL     1       5.407   4.094  -4.117  1.00  0.00     0.074 A 
ATOM     14  C   UNL     1       4.737   2.239  -5.606  1.00  0.00     0.049 A 
ATOM     15  N   UNL     1       5.919   4.938  -4.976  1.00  0.00    -0.248 NA
ATOM     16  C   UNL     1       5.457   4.550  -2.721  1.00  0.00     0.031 C 
ATOM     17  C   UNL     1       4.140   0.950  -5.965  1.00  0.00     0.029 A 
ATOM     18  N   UNL     1       5.196   2.736  -6.799  1.00  0.00    -0.354 N 
ATOM     19  C   UNL     1       6.332   6.037  -4.231  1.00  0.00     0.074 A 
ATOM     20  C   UNL     1       5.978   5.761  -2.853  1.00  0.00     0.031 C 
ATOM     21  C   UNL     1       4.271   0.758  -7.285  1.00  0.00     0.029 A 
ATOM     22  C   UNL     1       4.902   1.933  -7.874  1.00  0.00     0.049 A 
ATOM     23  H   UNL     1       5.687   3.586  -6.877  1.00  0.00     0.167 HD
ATOM     24  C   UNL     1       6.955   7.165  -4.659  1.00  0.00     0.034 A 
ATOM     25  C   UNL     1       5.079   2.134  -9.194  1.00  0.00     0.034 A 
ATOM     26  C   UNL     1       7.297   7.416  -6.039  1.00  0.00     0.049 A 
ATOM     27  C   UNL     1       5.728   3.407  -9.655  1.00  0.00     0.074 A 
ATOM     28  C   UNL     1       7.974   8.497  -6.579  1.00  0.00     0.029 A 
ATOM     29  N   UNL     1       6.973   6.583  -7.104  1.00  0.00    -0.354 N 
ATOM     30  N   UNL     1       6.140   4.426  -8.937  1.00  0.00    -0.248 NA
ATOM     31  C   UNL     1       5.940   3.558 -11.099  1.00  0.00     0.031 C 
ATOM     32  C   UNL     1       8.001   8.349  -7.971  1.00  0.00     0.029 A 
ATOM     33  C   UNL     1       7.402   7.142  -8.298  1.00  0.00     0.049 A 
ATOM     34  H   UNL     1       6.505   5.720  -7.021  1.00  0.00     0.167 HD
ATOM     35  C   UNL     1       6.676   5.335  -9.842  1.00  0.00     0.074 A 
ATOM     36  C   UNL     1       6.540   4.739 -11.158  1.00  0.00     0.031 C 
ATOM     37  C   UNL     1       7.240   6.545  -9.604  1.00  0.00     0.034 A 
BRANCH  24  38
ATOM     38  C   UNL     1       7.252   8.225  -3.624  1.00  0.00     0.023 A 
ATOM     39  C   UNL     1       8.117   7.983  -2.542  1.00  0.00     0.031 A 
ATOM     40  C   UNL     1       6.619   9.479  -3.689  1.00  0.00     0.131 A 
ATOM     41  C   UNL     1       8.256   8.941  -1.526  1.00  0.00     0.055 A 
ATOM     42  C   UNL     1       6.826  10.461  -2.718  1.00  0.00     0.041 A 
ATOM     43  F   UNL     1       5.768   9.764  -4.687  1.00  0.00    -0.206 F 
ATOM     44  C   UNL     1       7.633  10.188  -1.617  1.00  0.00     0.022 A 
BRANCH  41  45
ATOM     45  S   UNL     1       9.118   8.466  -0.002  1.00  0.00     0.124 S 
ATOM     46  O   UNL     1       8.394   7.259   0.389  1.00  0.00    -0.237 OA
ATOM     47  O   UNL     1      10.487   8.268  -0.463  1.00  0.00    -0.237 OA
ATOM     48  O   UNL     1       8.915   9.614   0.880  1.00  0.00    -0.744 OA
ENDBRANCH  41  45
ENDBRANCH  24  38
BRANCH  25  49
ATOM     49  C   UNL     1       4.574   1.121 -10.159  1.00  0.00     0.023 A 
ATOM     50  C   UNL     1       5.452   0.314 -10.897  1.00  0.00     0.031 A 
ATOM     51  C   UNL     1       3.191   0.922 -10.321  1.00  0.00     0.131 A 
ATOM     52  C   UNL     1       4.934  -0.649 -11.777  1.00  0.00     0.055 A 
ATOM     53  C   UNL     1       2.682  -0.062 -11.167  1.00  0.00     0.041 A 
ATOM     54  F   UNL     1       2.313   1.661  -9.623  1.00  0.00    -0.206 F 
ATOM     55  C   UNL     1       3.557  -0.852 -11.906  1.00  0.00     0.022 A 
BRANCH  52  56
ATOM     56  S   UNL     1       6.090  -1.628 -12.773  1.00  0.00     0.124 S 
ATOM     57  O   UNL     1       6.742  -0.596 -13.572  1.00  0.00    -0.237 OA
ATOM     58  O   UNL     1       6.914  -2.262 -11.749  1.00  0.00    -0.237 OA
ATOM     59  O   UNL     1       5.218  -2.535 -13.516  1.00  0.00    -0.744 OA
ENDBRANCH  52  56
ENDBRANCH  25  49
BRANCH  37  60
ATOM     60  C   UNL     1       7.788   7.288 -10.795  1.00  0.00     0.023 A 
ATOM     61  C   UNL     1       6.944   7.881 -11.749  1.00  0.00     0.031 A 
ATOM     62  C   UNL     1       9.178   7.407 -10.968  1.00  0.00     0.131 A 
ATOM     63  C   UNL     1       7.500   8.540 -12.855  1.00  0.00     0.055 A 
ATOM     64  C   UNL     1       9.725   8.103 -12.046  1.00  0.00     0.041 A 
ATOM     65  F   UNL     1      10.025   6.856 -10.085  1.00  0.00    -0.206 F 
ATOM     66  C   UNL     1       8.885   8.668 -13.002  1.00  0.00     0.022 A 
BRANCH  63  67
ATOM     67  S   UNL     1       6.392   9.193 -14.134  1.00  0.00     0.124 S 
ATOM     68  O   UNL     1       5.771   7.975 -14.646  1.00  0.00    -0.237 OA
ATOM     69  O   UNL     1       5.521  10.082 -13.373  1.00  0.00    -0.237 OA
ATOM     70  O   UNL     1       7.298   9.864 -15.064  1.00  0.00    -0.744 OA
ENDBRANCH  63  67
ENDBRANCH  37  60
ENDBRANCH  11  12
ENDBRANCH   4   6
ENDBRANCH   1   2
BRANCH   1  71
ATOM     71  C   UNL     1       4.983  -0.085   2.391  1.00  0.00     0.042 C 
BRANCH  71  72
ATOM     72  C   UNL     1       4.453  -0.739   3.660  1.00  0.00     0.118 C 
BRANCH  72  73
ATOM     73  N   UNL     1       4.905  -2.114   3.815  1.00  0.00    -0.352 N 
ATOM     74  C   UNL     1       5.623  -2.715   4.812  1.00  0.00     0.251 C 
ATOM     75  H   UNL     1       4.650  -2.714   3.077  1.00  0.00     0.163 HD
ATOM     76  O   UNL     1       6.034  -3.864   4.656  1.00  0.00    -0.269 OA
BRANCH  74  77
ATOM     77  C   UNL     1       5.907  -2.020   6.086  1.00  0.00     0.047 A 
ATOM     78  C   UNL     1       7.149  -2.243   6.699  1.00  0.00     0.023 A 
ATOM     79  C   UNL     1       4.932  -1.267   6.742  1.00  0.00     0.099 A 
ATOM     80  C   UNL     1       7.446  -1.693   7.957  1.00  0.00    -0.011 A 
ATOM     81  C   UNL     1       5.242  -0.662   7.963  1.00  0.00     0.270 A 
ATOM     82  C   UNL     1       6.489  -0.866   8.568  1.00  0.00     0.094 A 
BRANCH  80  83
ATOM     83  C   UNL     1       8.678  -2.064   8.664  1.00  0.00    -0.018 A 
ATOM     84  C   UNL     1       9.949  -1.812   8.130  1.00  0.00     0.009 A 
ATOM     85  C   UNL     1       8.596  -2.740   9.893  1.00  0.00     0.009 A 
ATOM     86  C   UNL     1      11.104  -2.231   8.804  1.00  0.00     0.014 A 
ATOM     87  C   UNL     1       9.745  -3.163  10.565  1.00  0.00     0.014 A 
ATOM     88  C   UNL     1      11.012  -2.918  10.024  1.00  0.00     0.056 A 
BRANCH  88  89
ATOM     89  C   UNL     1      12.258  -3.395  10.727  1.00  0.00     0.416 C 
ATOM     90  F   UNL     1      12.986  -4.263   9.972  1.00  0.00    -0.166 F 
ATOM     91  F   UNL     1      13.103  -2.377  11.049  1.00  0.00    -0.166 F 
ATOM     92  F   UNL     1      12.005  -4.048  11.898  1.00  0.00    -0.166 F 
ENDBRANCH  88  89
ENDBRANCH  80  83
BRANCH  81  93
ATOM     93  N   UNL     1       4.231   0.161   8.637  1.00  0.00     0.062 N 
ATOM     94  O   UNL     1       4.497   0.589   9.768  1.00  0.00    -0.258 OA
ATOM     95  O   UNL     1       3.166   0.366   8.038  1.00  0.00    -0.258 OA
ENDBRANCH  81  93
ENDBRANCH  74  77
ENDBRANCH  72  73
ENDBRANCH  71  72
ENDBRANCH   1  71
TORSDOF 16
