REMARK SMILES O=C(NCCCNC(=O)c1ccnc(Oc2cccc(C(F)(F)F)c2)c1)c1ccc(-c2c3nc(c(-c4cc(S(=O)(=O)[O-])ccc4F)c4ccc([nH]4)c(-c4cc(S(=O)(=O)[O-])ccc4F)c4nc(c(-c5cc(S(=O)(=O)[O-])ccc5F)c5ccc2[nH]5)C=C4)C=C3)cc1
REMARK SMILES IDX 5 1 4 2 3 3 1 4 2 5 27 7 28 8 89 9 29 10 88 11 30 12 31 13
REMARK SMILES IDX 32 14 82 15 33 16 87 17 81 18 83 19 34 20 86 21 80 22 79 23
REMARK SMILES IDX 35 25 67 26 47 27 66 28 48 29 51 30 65 31 84 32 49 33 50 34
REMARK SMILES IDX 64 36 85 37 52 38 36 39 37 40 45 41 38 42 44 43 46 44 43 45
REMARK SMILES IDX 39 46 40 47 41 48 42 49 68 50 69 51 77 52 70 53 76 54 78 55
REMARK SMILES IDX 75 56 71 57 72 58 73 59 74 60 53 61 54 62 62 63 55 64 61 65
REMARK SMILES IDX 63 66 60 67 56 68 57 69 58 70 59 71 6 72 7 73 8 74 9 76
REMARK SMILES IDX 10 77 11 78 26 79 12 80 14 81 13 82 15 83 16 84 17 85 25 86
REMARK SMILES IDX 18 87 20 88 19 89 21 90 22 91 23 92 24 93
REMARK H PARENT 3 6 83 24 51 35 7 75
REMARK Flexibility Score: inf
ROOT
ATOM      1  C   UNL     1       4.959  -2.461   0.128  1.00  0.00     0.042 C 
ENDROOT
BRANCH   1   2
ATOM      2  C   UNL     1       4.636  -1.205  -0.671  1.00  0.00     0.118 C 
BRANCH   2   3
ATOM      3  N   UNL     1       3.211  -0.896  -0.705  1.00  0.00    -0.352 N 
ATOM      4  O   UNL     1       1.264   0.080  -0.156  1.00  0.00    -0.269 OA
ATOM      5  C   UNL     1       2.493   0.121  -0.121  1.00  0.00     0.251 C 
ATOM      6  H   UNL     1       2.671  -1.524  -1.238  1.00  0.00     0.163 HD
BRANCH   5   7
ATOM      7  C   UNL     1       3.176   1.242   0.563  1.00  0.00     0.039 A 
ATOM      8  C   UNL     1       4.328   1.818   0.031  1.00  0.00     0.014 A 
ATOM      9  C   UNL     1       2.638   1.746   1.753  1.00  0.00     0.014 A 
ATOM     10  C   UNL     1       5.044   2.751   0.772  1.00  0.00     0.010 A 
ATOM     11  C   UNL     1       3.303   2.764   2.446  1.00  0.00     0.010 A 
ATOM     12  C   UNL     1       4.541   3.241   1.988  1.00  0.00    -0.014 A 
BRANCH  12  13
ATOM     13  C   UNL     1       5.327   4.254   2.745  1.00  0.00     0.031 A 
ATOM     14  C   UNL     1       5.864   3.950   4.119  1.00  0.00     0.074 A 
ATOM     15  C   UNL     1       5.601   5.439   2.162  1.00  0.00     0.049 A 
ATOM     16  N   UNL     1       6.604   4.695   4.902  1.00  0.00    -0.248 NA
ATOM     17  C   UNL     1       5.512   2.645   4.696  1.00  0.00     0.031 C 
ATOM     18  C   UNL     1       5.133   5.852   0.837  1.00  0.00     0.029 A 
ATOM     19  N   UNL     1       6.360   6.499   2.588  1.00  0.00    -0.354 N 
ATOM     20  C   UNL     1       6.786   3.963   6.071  1.00  0.00     0.074 A 
ATOM     21  C   UNL     1       6.045   2.730   5.906  1.00  0.00     0.031 C 
ATOM     22  C   UNL     1       5.666   7.044   0.533  1.00  0.00     0.029 A 
ATOM     23  C   UNL     1       6.455   7.514   1.665  1.00  0.00     0.049 A 
ATOM     24  H   UNL     1       6.795   6.530   3.471  1.00  0.00     0.167 HD
ATOM     25  C   UNL     1       7.511   4.284   7.173  1.00  0.00     0.034 A 
ATOM     26  C   UNL     1       7.096   8.697   1.723  1.00  0.00     0.034 A 
ATOM     27  C   UNL     1       8.258   5.514   7.314  1.00  0.00     0.049 A 
ATOM     28  C   UNL     1       7.875   9.040   2.964  1.00  0.00     0.074 A 
ATOM     29  C   UNL     1       9.055   5.923   8.370  1.00  0.00     0.029 A 
ATOM     30  N   UNL     1       8.295   6.537   6.375  1.00  0.00    -0.354 N 
ATOM     31  N   UNL     1       8.051   8.327   4.053  1.00  0.00    -0.248 NA
ATOM     32  C   UNL     1       8.545  10.345   2.981  1.00  0.00     0.031 C 
ATOM     33  C   UNL     1       9.516   7.217   8.101  1.00  0.00     0.029 A 
ATOM     34  C   UNL     1       9.074   7.587   6.840  1.00  0.00     0.049 A 
ATOM     35  H   UNL     1       7.835   6.520   5.505  1.00  0.00     0.167 HD
ATOM     36  C   UNL     1       8.880   9.088   4.872  1.00  0.00     0.074 A 
ATOM     37  C   UNL     1       9.178  10.305   4.144  1.00  0.00     0.031 C 
ATOM     38  C   UNL     1       9.355   8.803   6.112  1.00  0.00     0.034 A 
BRANCH  25  39
ATOM     39  C   UNL     1       7.486   3.312   8.331  1.00  0.00     0.023 A 
ATOM     40  C   UNL     1       7.991   2.004   8.219  1.00  0.00     0.031 A 
ATOM     41  C   UNL     1       6.914   3.689   9.560  1.00  0.00     0.131 A 
ATOM     42  C   UNL     1       7.841   1.099   9.283  1.00  0.00     0.055 A 
ATOM     43  C   UNL     1       6.845   2.811  10.644  1.00  0.00     0.041 A 
ATOM     44  F   UNL     1       6.397   4.917   9.725  1.00  0.00    -0.206 F 
ATOM     45  C   UNL     1       7.294   1.501  10.503  1.00  0.00     0.022 A 
BRANCH  42  46
ATOM     46  S   UNL     1       8.224  -0.651   8.994  1.00  0.00     0.124 S 
ATOM     47  O   UNL     1       7.361  -0.959   7.855  1.00  0.00    -0.237 OA
ATOM     48  O   UNL     1       9.655  -0.619   8.720  1.00  0.00    -0.237 OA
ATOM     49  O   UNL     1       7.840  -1.297  10.247  1.00  0.00    -0.744 OA
ENDBRANCH  42  46
ENDBRANCH  25  39
BRANCH  26  50
ATOM     50  C   UNL     1       7.021   9.649   0.579  1.00  0.00     0.023 A 
ATOM     51  C   UNL     1       8.167   9.994  -0.153  1.00  0.00     0.031 A 
ATOM     52  C   UNL     1       5.800  10.246   0.216  1.00  0.00     0.131 A 
ATOM     53  C   UNL     1       8.077  10.940  -1.185  1.00  0.00     0.055 A 
ATOM     54  C   UNL     1       5.706  11.146  -0.846  1.00  0.00     0.041 A 
ATOM     55  F   UNL     1       4.673   9.946   0.881  1.00  0.00    -0.206 F 
ATOM     56  C   UNL     1       6.853  11.507  -1.546  1.00  0.00     0.022 A 
BRANCH  53  57
ATOM     57  S   UNL     1       9.603  11.476  -2.007  1.00  0.00     0.124 S 
ATOM     58  O   UNL     1      10.373  12.005  -0.888  1.00  0.00    -0.237 OA
ATOM     59  O   UNL     1      10.088  10.229  -2.589  1.00  0.00    -0.237 OA
ATOM     60  O   UNL     1       9.138  12.471  -2.971  1.00  0.00    -0.744 OA
ENDBRANCH  53  57
ENDBRANCH  26  50
BRANCH  38  61
ATOM     61  C   UNL     1      10.293   9.813   6.728  1.00  0.00     0.023 A 
ATOM     62  C   UNL     1       9.864  11.103   7.087  1.00  0.00     0.031 A 
ATOM     63  C   UNL     1      11.647   9.488   6.923  1.00  0.00     0.131 A 
ATOM     64  C   UNL     1      10.794  12.042   7.560  1.00  0.00     0.055 A 
ATOM     65  C   UNL     1      12.555  10.406   7.453  1.00  0.00     0.041 A 
ATOM     66  F   UNL     1      12.113   8.272   6.595  1.00  0.00    -0.206 F 
ATOM     67  C   UNL     1      12.133  11.697   7.759  1.00  0.00     0.022 A 
BRANCH  64  68
ATOM     68  S   UNL     1      10.253  13.756   7.805  1.00  0.00     0.124 S 
ATOM     69  O   UNL     1       9.735  14.104   6.486  1.00  0.00    -0.237 OA
ATOM     70  O   UNL     1       9.259  13.620   8.865  1.00  0.00    -0.237 OA
ATOM     71  O   UNL     1      11.480  14.451   8.192  1.00  0.00    -0.744 OA
ENDBRANCH  64  68
ENDBRANCH  38  61
ENDBRANCH  12  13
ENDBRANCH   5   7
ENDBRANCH   2   3
ENDBRANCH   1   2
BRANCH   1  72
ATOM     72  C   UNL     1       4.342  -3.736  -0.431  1.00  0.00     0.118 C 
BRANCH  72  73
ATOM     73  N   UNL     1       4.833  -4.064  -1.763  1.00  0.00    -0.352 N 
ATOM     74  C   UNL     1       5.685  -5.058  -2.171  1.00  0.00     0.251 C 
ATOM     75  H   UNL     1       4.502  -3.481  -2.483  1.00  0.00     0.163 HD
ATOM     76  O   UNL     1       6.106  -5.081  -3.325  1.00  0.00    -0.269 OA
BRANCH  74  77
ATOM     77  C   UNL     1       6.122  -6.100  -1.225  1.00  0.00     0.046 A 
ATOM     78  C   UNL     1       5.199  -6.838  -0.494  1.00  0.00     0.034 A 
ATOM     79  C   UNL     1       7.488  -6.354  -1.105  1.00  0.00     0.082 A 
ATOM     80  C   UNL     1       5.696  -7.754   0.406  1.00  0.00     0.116 A 
ATOM     81  C   UNL     1       7.898  -7.280  -0.160  1.00  0.00     0.219 A 
ATOM     82  N   UNL     1       7.013  -7.980   0.591  1.00  0.00    -0.222 NA
BRANCH  81  83
ATOM     83  O   UNL     1       9.206  -7.606   0.123  1.00  0.00    -0.439 OA
BRANCH  83  84
ATOM     84  C   UNL     1      10.227  -6.986  -0.550  1.00  0.00     0.130 A 
ATOM     85  C   UNL     1      11.069  -7.795  -1.312  1.00  0.00     0.047 A 
ATOM     86  C   UNL     1      10.488  -5.620  -0.416  1.00  0.00     0.060 A 
ATOM     87  C   UNL     1      12.145  -7.230  -1.994  1.00  0.00     0.004 A 
ATOM     88  C   UNL     1      11.545  -5.035  -1.130  1.00  0.00     0.059 A 
ATOM     89  C   UNL     1      12.374  -5.856  -1.914  1.00  0.00     0.013 A 
BRANCH  88  90
ATOM     90  C   UNL     1      11.793  -3.547  -1.079  1.00  0.00     0.416 C 
ATOM     91  F   UNL     1      12.996  -3.238  -0.524  1.00  0.00    -0.166 F 
ATOM     92  F   UNL     1      11.801  -2.989  -2.323  1.00  0.00    -0.166 F 
ATOM     93  F   UNL     1      10.855  -2.862  -0.371  1.00  0.00    -0.166 F 
ENDBRANCH  88  90
ENDBRANCH  83  84
ENDBRANCH  81  83
ENDBRANCH  74  77
ENDBRANCH  72  73
ENDBRANCH   1  72
TORSDOF 16
