REMARK SMILES O=C(NCCCNC(=O)[C@@H](c1ccccc1)N1C(=O)/C(=C\c2ccc(-c3ccc(F)cc3)o2)SC1=S)c1ccc(-c2c3nc(c(-c4cc(S(=O)(=O)[O-])ccc4F)c4ccc([nH]4)c(-c4cc(S(=O)(=O)[O-])ccc4F)c4nc(c(-c5cc(S(=O)(=O)[O-])ccc5F)c5ccc2[nH]5)C=C4)C=C3)cc1
REMARK SMILES IDX 5 1 4 2 3 3 1 4 2 5 37 7 38 8 99 9 39 10 98 11 40 12 41 13
REMARK SMILES IDX 42 14 92 15 43 16 97 17 91 18 93 19 44 20 96 21 90 22 89 23
REMARK SMILES IDX 45 25 77 26 57 27 76 28 58 29 61 30 75 31 94 32 59 33 60 34
REMARK SMILES IDX 74 36 95 37 62 38 46 39 47 40 55 41 48 42 54 43 56 44 53 45
REMARK SMILES IDX 49 46 50 47 51 48 52 49 78 50 79 51 87 52 80 53 86 54 88 55
REMARK SMILES IDX 85 56 81 57 82 58 83 59 84 60 63 61 64 62 72 63 65 64 71 65
REMARK SMILES IDX 73 66 70 67 66 68 67 69 68 70 69 71 6 72 7 73 8 74 9 76
REMARK SMILES IDX 10 77 11 78 12 79 16 80 13 81 15 82 14 83 17 84 18 85 35 86
REMARK SMILES IDX 19 87 20 88 34 89 36 90 21 91 22 92 23 93 33 94 24 95 25 96
REMARK SMILES IDX 26 97 27 98 32 99 28 100 31 101 29 102 30 103
REMARK H PARENT 3 6 93 24 61 35 7 75
REMARK Flexibility Score: inf
ROOT
ATOM      1  C   UNL     1       4.246  -1.877   1.361  1.00  0.00     0.042 C 
ENDROOT
BRANCH   1   2
ATOM      2  C   UNL     1       4.038  -1.422  -0.073  1.00  0.00     0.118 C 
BRANCH   2   3
ATOM      3  N   UNL     1       2.645  -1.080  -0.319  1.00  0.00    -0.352 N 
ATOM      4  O   UNL     1       0.805   0.205  -0.221  1.00  0.00    -0.269 OA
ATOM      5  C   UNL     1       2.030   0.150  -0.295  1.00  0.00     0.251 C 
ATOM      6  H   UNL     1       2.057  -1.840  -0.533  1.00  0.00     0.163 HD
BRANCH   5   7
ATOM      7  C   UNL     1       2.830   1.396  -0.356  1.00  0.00     0.039 A 
ATOM      8  C   UNL     1       3.957   1.480  -1.175  1.00  0.00     0.014 A 
ATOM      9  C   UNL     1       2.415   2.522   0.363  1.00  0.00     0.014 A 
ATOM     10  C   UNL     1       4.748   2.622  -1.162  1.00  0.00     0.010 A 
ATOM     11  C   UNL     1       3.145   3.714   0.279  1.00  0.00     0.010 A 
ATOM     12  C   UNL     1       4.327   3.771  -0.475  1.00  0.00    -0.014 A 
BRANCH  12  13
ATOM     13  C   UNL     1       5.090   5.036  -0.650  1.00  0.00     0.031 A 
ATOM     14  C   UNL     1       5.737   5.729   0.516  1.00  0.00     0.074 A 
ATOM     15  C   UNL     1       5.208   5.548  -1.893  1.00  0.00     0.049 A 
ATOM     16  N   UNL     1       6.415   6.848   0.536  1.00  0.00    -0.248 NA
ATOM     17  C   UNL     1       5.595   5.089   1.831  1.00  0.00     0.031 C 
ATOM     18  C   UNL     1       4.619   4.963  -3.103  1.00  0.00     0.029 A 
ATOM     19  N   UNL     1       5.870   6.655  -2.357  1.00  0.00    -0.354 N 
ATOM     20  C   UNL     1       6.767   7.060   1.865  1.00  0.00     0.074 A 
ATOM     21  C   UNL     1       6.194   5.967   2.624  1.00  0.00     0.031 C 
ATOM     22  C   UNL     1       4.992   5.681  -4.169  1.00  0.00     0.029 A 
ATOM     23  C   UNL     1       5.764   6.830  -3.718  1.00  0.00     0.049 A 
ATOM     24  H   UNL     1       6.373   7.267  -1.772  1.00  0.00     0.167 HD
ATOM     25  C   UNL     1       7.503   8.070   2.395  1.00  0.00     0.034 A 
ATOM     26  C   UNL     1       6.206   7.821  -4.516  1.00  0.00     0.034 A 
ATOM     27  C   UNL     1       8.062   9.152   1.616  1.00  0.00     0.049 A 
ATOM     28  C   UNL     1       6.969   8.957  -3.893  1.00  0.00     0.074 A 
ATOM     29  C   UNL     1       8.842  10.211   2.047  1.00  0.00     0.029 A 
ATOM     30  N   UNL     1       7.891   9.322   0.247  1.00  0.00    -0.354 N 
ATOM     31  N   UNL     1       7.300   9.137  -2.635  1.00  0.00    -0.248 NA
ATOM     32  C   UNL     1       7.417  10.023  -4.796  1.00  0.00     0.031 C 
ATOM     33  C   UNL     1       9.077  11.058   0.959  1.00  0.00     0.029 A 
ATOM     34  C   UNL     1       8.520  10.486  -0.173  1.00  0.00     0.049 A 
ATOM     35  H   UNL     1       7.395   8.707  -0.340  1.00  0.00     0.167 HD
ATOM     36  C   UNL     1       8.016  10.328  -2.601  1.00  0.00     0.074 A 
ATOM     37  C   UNL     1       8.087  10.809  -3.966  1.00  0.00     0.031 C 
ATOM     38  C   UNL     1       8.568  10.965  -1.536  1.00  0.00     0.034 A 
BRANCH  25  39
ATOM     39  C   UNL     1       7.702   8.076   3.894  1.00  0.00     0.023 A 
ATOM     40  C   UNL     1       8.397   7.050   4.558  1.00  0.00     0.031 A 
ATOM     41  C   UNL     1       7.170   9.119   4.676  1.00  0.00     0.131 A 
ATOM     42  C   UNL     1       8.480   7.050   5.959  1.00  0.00     0.055 A 
ATOM     43  C   UNL     1       7.327   9.156   6.063  1.00  0.00     0.041 A 
ATOM     44  F   UNL     1       6.478  10.117   4.105  1.00  0.00    -0.206 F 
ATOM     45  C   UNL     1       7.972   8.109   6.715  1.00  0.00     0.022 A 
BRANCH  42  46
ATOM     46  S   UNL     1       9.132   5.574   6.789  1.00  0.00     0.124 S 
ATOM     47  O   UNL     1       8.240   4.532   6.284  1.00  0.00    -0.237 OA
ATOM     48  O   UNL     1      10.508   5.523   6.309  1.00  0.00    -0.237 OA
ATOM     49  O   UNL     1       8.977   5.882   8.209  1.00  0.00    -0.744 OA
ENDBRANCH  42  46
ENDBRANCH  25  39
BRANCH  26  50
ATOM     50  C   UNL     1       5.898   7.804  -5.975  1.00  0.00     0.023 A 
ATOM     51  C   UNL     1       6.921   7.734  -6.932  1.00  0.00     0.031 A 
ATOM     52  C   UNL     1       4.570   7.883  -6.434  1.00  0.00     0.131 A 
ATOM     53  C   UNL     1       6.603   7.787  -8.298  1.00  0.00     0.055 A 
ATOM     54  C   UNL     1       4.255   7.872  -7.793  1.00  0.00     0.041 A 
ATOM     55  F   UNL     1       3.552   7.950  -5.561  1.00  0.00    -0.206 F 
ATOM     56  C   UNL     1       5.277   7.838  -8.735  1.00  0.00     0.022 A 
BRANCH  53  57
ATOM     57  S   UNL     1       7.958   7.877  -9.501  1.00  0.00     0.124 S 
ATOM     58  O   UNL     1       8.664   9.075  -9.062  1.00  0.00    -0.237 OA
ATOM     59  O   UNL     1       8.645   6.609  -9.278  1.00  0.00    -0.237 OA
ATOM     60  O   UNL     1       7.267   7.992 -10.783  1.00  0.00    -0.744 OA
ENDBRANCH  53  57
ENDBRANCH  26  50
BRANCH  38  61
ATOM     61  C   UNL     1       9.335  12.233  -1.826  1.00  0.00     0.023 A 
ATOM     62  C   UNL     1       8.700  13.389  -2.312  1.00  0.00     0.031 A 
ATOM     63  C   UNL     1      10.728  12.273  -1.637  1.00  0.00     0.131 A 
ATOM     64  C   UNL     1       9.464  14.516  -2.651  1.00  0.00     0.055 A 
ATOM     65  C   UNL     1      11.474  13.420  -1.911  1.00  0.00     0.041 A 
ATOM     66  F   UNL     1      11.387  11.196  -1.181  1.00  0.00    -0.206 F 
ATOM     67  C   UNL     1      10.844  14.545  -2.436  1.00  0.00     0.022 A 
BRANCH  64  68
ATOM     68  S   UNL     1       8.645  15.909  -3.474  1.00  0.00     0.124 S 
ATOM     69  O   UNL     1       8.096  15.274  -4.668  1.00  0.00    -0.237 OA
ATOM     70  O   UNL     1       7.672  16.335  -2.474  1.00  0.00    -0.237 OA
ATOM     71  O   UNL     1       9.735  16.852  -3.719  1.00  0.00    -0.744 OA
ENDBRANCH  64  68
ENDBRANCH  38  61
ENDBRANCH  12  13
ENDBRANCH   5   7
ENDBRANCH   2   3
ENDBRANCH   1   2
BRANCH   1  72
ATOM     72  C   UNL     1       3.845  -3.330   1.575  1.00  0.00     0.117 C 
BRANCH  72  73
ATOM     73  N   UNL     1       4.736  -4.278   0.935  1.00  0.00    -0.354 N 
ATOM     74  C   UNL     1       5.734  -5.079   1.406  1.00  0.00     0.247 C 
ATOM     75  H   UNL     1       4.591  -4.361  -0.035  1.00  0.00     0.163 HD
ATOM     76  O   UNL     1       6.421  -5.622   0.530  1.00  0.00    -0.272 OA
BRANCH  74  77
ATOM     77  C   UNL     1       6.113  -5.244   2.912  1.00  0.00     0.211 C 
BRANCH  77  78
ATOM     78  C   UNL     1       7.090  -4.210   3.449  1.00  0.00    -0.016 A 
ATOM     79  C   UNL     1       7.717  -4.426   4.689  1.00  0.00     0.006 A 
ATOM     80  C   UNL     1       7.386  -3.024   2.763  1.00  0.00     0.006 A 
ATOM     81  C   UNL     1       8.486  -3.423   5.282  1.00  0.00     0.000 A 
ATOM     82  C   UNL     1       8.131  -2.011   3.366  1.00  0.00     0.000 A 
ATOM     83  C   UNL     1       8.659  -2.201   4.637  1.00  0.00     0.000 A 
ENDBRANCH  77  78
BRANCH  77  84
ATOM     84  N   UNL     1       4.939  -5.582   3.766  1.00  0.00    -0.276 N 
ATOM     85  C   UNL     1       4.481  -6.887   3.633  1.00  0.00     0.267 C 
ATOM     86  C   UNL     1       4.199  -4.788   4.624  1.00  0.00     0.149 C 
ATOM     87  O   UNL     1       4.980  -7.743   2.915  1.00  0.00    -0.268 OA
ATOM     88  C   UNL     1       3.259  -7.113   4.450  1.00  0.00     0.084 C 
ATOM     89  S   UNL     1       2.679  -5.605   5.023  1.00  0.00    -0.054 SA
ATOM     90  S   UNL     1       4.498  -3.291   5.296  1.00  0.00    -0.052 S 
ATOM     91  C   UNL     1       2.689  -8.277   4.785  1.00  0.00     0.068 C 
BRANCH  91  92
ATOM     92  C   UNL     1       3.322  -9.527   4.574  1.00  0.00     0.128 A 
ATOM     93  C   UNL     1       4.551  -9.962   5.059  1.00  0.00     0.051 A 
ATOM     94  O   UNL     1       2.746 -10.568   3.889  1.00  0.00    -0.457 OA
ATOM     95  C   UNL     1       4.729 -11.298   4.646  1.00  0.00     0.051 A 
ATOM     96  C   UNL     1       3.608 -11.623   3.921  1.00  0.00     0.134 A 
BRANCH  96  97
ATOM     97  C   UNL     1       3.177 -12.827   3.239  1.00  0.00     0.017 A 
ATOM     98  C   UNL     1       2.713 -12.772   1.917  1.00  0.00     0.015 A 
ATOM     99  C   UNL     1       3.254 -14.067   3.890  1.00  0.00     0.015 A 
ATOM    100  C   UNL     1       2.340 -13.942   1.253  1.00  0.00     0.040 A 
ATOM    101  C   UNL     1       2.869 -15.234   3.230  1.00  0.00     0.040 A 
ATOM    102  C   UNL     1       2.420 -15.161   1.917  1.00  0.00     0.123 A 
ATOM    103  F   UNL     1       2.061 -16.284   1.282  1.00  0.00    -0.207 F 
ENDBRANCH  96  97
ENDBRANCH  91  92
ENDBRANCH  77  84
ENDBRANCH  74  77
ENDBRANCH  72  73
ENDBRANCH   1  72
TORSDOF 17
