REMARK SMILES O=C(NCCCNC(=O)[C@@H]1CS[C@H](c2ncc(-c3ccccc3)s2)[NH2+]1)c1ccc(-c2c3nc(c(-c4cc(S(=O)(=O)[O-])ccc4F)c4ccc([nH]4)c(-c4cc(S(=O)(=O)[O-])ccc4F)c4nc(c(-c5cc(S(=O)(=O)[O-])ccc5F)c5ccc2[nH]5)C=C4)C=C3)cc1
REMARK SMILES IDX 4 1 3 2 1 3 2 4 26 6 27 7 88 8 28 9 87 10 29 11 30 12 31 13
REMARK SMILES IDX 81 14 32 15 86 16 80 17 82 18 33 19 85 20 79 21 78 22 34 24
REMARK SMILES IDX 66 25 46 26 65 27 47 28 50 29 64 30 83 31 48 32 49 33 63 35
REMARK SMILES IDX 84 36 51 37 35 38 36 39 44 40 37 41 43 42 45 43 42 44 38 45
REMARK SMILES IDX 39 46 40 47 41 48 67 49 68 50 76 51 69 52 75 53 77 54 74 55
REMARK SMILES IDX 70 56 71 57 72 58 73 59 52 60 53 61 61 62 54 63 60 64 62 65
REMARK SMILES IDX 59 66 55 67 56 68 57 69 58 70 5 71 6 72 7 73 8 74 9 76 10 77
REMARK SMILES IDX 11 78 25 79 12 80 13 81 14 84 15 85 24 86 16 87 17 88 18 89
REMARK SMILES IDX 19 90 23 91 20 92 22 93 21 94
REMARK H PARENT 3 5 82 23 50 34 7 75 25 82 25 83
REMARK Flexibility Score: inf
ROOT
ATOM      1  C   UNL     1       8.651  -3.776   6.358  1.00  0.00     0.118 C 
ENDROOT
BRANCH   1   2
ATOM      2  N   UNL     1       9.043  -2.408   6.675  1.00  0.00    -0.352 N 
ATOM      3  O   UNL     1       9.560  -0.642   7.972  1.00  0.00    -0.269 OA
ATOM      4  C   UNL     1       9.427  -1.863   7.878  1.00  0.00     0.251 C 
ATOM      5  H   UNL     1       9.030  -1.782   5.916  1.00  0.00     0.163 HD
BRANCH   4   6
ATOM      6  C   UNL     1       9.671  -2.726   9.056  1.00  0.00     0.039 A 
ATOM      7  C   UNL     1      10.390  -3.915   8.932  1.00  0.00     0.014 A 
ATOM      8  C   UNL     1       9.205  -2.327  10.312  1.00  0.00     0.014 A 
ATOM      9  C   UNL     1      10.520  -4.768  10.024  1.00  0.00     0.010 A 
ATOM     10  C   UNL     1       9.422  -3.142  11.430  1.00  0.00     0.010 A 
ATOM     11  C   UNL     1      10.064  -4.383  11.293  1.00  0.00    -0.014 A 
BRANCH  11  12
ATOM     12  C   UNL     1      10.323  -5.264  12.466  1.00  0.00     0.031 A 
ATOM     13  C   UNL     1       9.190  -5.853  13.260  1.00  0.00     0.074 A 
ATOM     14  C   UNL     1      11.598  -5.542  12.808  1.00  0.00     0.049 A 
ATOM     15  N   UNL     1       9.234  -6.588  14.342  1.00  0.00    -0.248 NA
ATOM     16  C   UNL     1       7.829  -5.574  12.780  1.00  0.00     0.031 C 
ATOM     17  C   UNL     1      12.786  -5.044  12.106  1.00  0.00     0.029 A 
ATOM     18  N   UNL     1      12.115  -6.310  13.821  1.00  0.00    -0.354 N 
ATOM     19  C   UNL     1       7.911  -6.845  14.688  1.00  0.00     0.074 A 
ATOM     20  C   UNL     1       7.089  -6.155  13.714  1.00  0.00     0.031 C 
ATOM     21  C   UNL     1      13.884  -5.546  12.687  1.00  0.00     0.029 A 
ATOM     22  C   UNL     1      13.491  -6.328  13.852  1.00  0.00     0.049 A 
ATOM     23  H   UNL     1      11.555  -6.801  14.465  1.00  0.00     0.167 HD
ATOM     24  C   UNL     1       7.431  -7.589  15.717  1.00  0.00     0.034 A 
ATOM     25  C   UNL     1      14.346  -6.875  14.738  1.00  0.00     0.034 A 
ATOM     26  C   UNL     1       8.268  -8.268  16.679  1.00  0.00     0.049 A 
ATOM     27  C   UNL     1      13.786  -7.630  15.915  1.00  0.00     0.074 A 
ATOM     28  C   UNL     1       7.884  -9.069  17.742  1.00  0.00     0.029 A 
ATOM     29  N   UNL     1       9.657  -8.220  16.708  1.00  0.00    -0.354 N 
ATOM     30  N   UNL     1      12.532  -7.867  16.223  1.00  0.00    -0.248 NA
ATOM     31  C   UNL     1      14.757  -8.191  16.862  1.00  0.00     0.031 C 
ATOM     32  C   UNL     1       9.029  -9.433  18.458  1.00  0.00     0.029 A 
ATOM     33  C   UNL     1      10.139  -8.942  17.791  1.00  0.00     0.049 A 
ATOM     34  H   UNL     1      10.218  -7.743  16.055  1.00  0.00     0.167 HD
ATOM     35  C   UNL     1      12.567  -8.631  17.386  1.00  0.00     0.074 A 
ATOM     36  C   UNL     1      13.965  -8.830  17.709  1.00  0.00     0.031 C 
ATOM     37  C   UNL     1      11.535  -9.126  18.117  1.00  0.00     0.034 A 
BRANCH  24  38
ATOM     38  C   UNL     1       5.931  -7.665  15.886  1.00  0.00     0.023 A 
ATOM     39  C   UNL     1       5.101  -8.248  14.913  1.00  0.00     0.031 A 
ATOM     40  C   UNL     1       5.318  -7.134  17.036  1.00  0.00     0.131 A 
ATOM     41  C   UNL     1       3.706  -8.223  15.074  1.00  0.00     0.055 A 
ATOM     42  C   UNL     1       3.936  -7.187  17.229  1.00  0.00     0.041 A 
ATOM     43  F   UNL     1       6.054  -6.546  17.993  1.00  0.00    -0.206 F 
ATOM     44  C   UNL     1       3.120  -7.721  16.237  1.00  0.00     0.022 A 
BRANCH  41  45
ATOM     45  S   UNL     1       2.664  -8.719  13.675  1.00  0.00     0.124 S 
ATOM     46  O   UNL     1       3.119  -7.803  12.630  1.00  0.00    -0.237 OA
ATOM     47  O   UNL     1       3.023 -10.121  13.496  1.00  0.00    -0.237 OA
ATOM     48  O   UNL     1       1.306  -8.478  14.156  1.00  0.00    -0.744 OA
ENDBRANCH  41  45
ENDBRANCH  24  38
BRANCH  25  49
ATOM     49  C   UNL     1      15.817  -6.689  14.579  1.00  0.00     0.023 A 
ATOM     50  C   UNL     1      16.671  -7.786  14.392  1.00  0.00     0.031 A 
ATOM     51  C   UNL     1      16.397  -5.409  14.655  1.00  0.00     0.131 A 
ATOM     52  C   UNL     1      18.059  -7.589  14.336  1.00  0.00     0.055 A 
ATOM     53  C   UNL     1      17.773  -5.212  14.533  1.00  0.00     0.041 A 
ATOM     54  F   UNL     1      15.627  -4.323  14.834  1.00  0.00    -0.206 F 
ATOM     55  C   UNL     1      18.615  -6.309  14.387  1.00  0.00     0.022 A 
BRANCH  52  56
ATOM     56  S   UNL     1      19.139  -9.046  14.294  1.00  0.00     0.124 S 
ATOM     57  O   UNL     1      18.742  -9.743  15.512  1.00  0.00    -0.237 OA
ATOM     58  O   UNL     1      18.749  -9.675  13.037  1.00  0.00    -0.237 OA
ATOM     59  O   UNL     1      20.483  -8.472  14.312  1.00  0.00    -0.744 OA
ENDBRANCH  52  56
ENDBRANCH  25  49
BRANCH  37  60
ATOM     60  C   UNL     1      11.889  -9.977  19.314  1.00  0.00     0.023 A 
ATOM     61  C   UNL     1      12.561  -9.448  20.430  1.00  0.00     0.031 A 
ATOM     62  C   UNL     1      11.566 -11.346  19.326  1.00  0.00     0.131 A 
ATOM     63  C   UNL     1      12.941 -10.294  21.483  1.00  0.00     0.055 A 
ATOM     64  C   UNL     1      11.885 -12.168  20.408  1.00  0.00     0.041 A 
ATOM     65  F   UNL     1      10.932 -11.908  18.285  1.00  0.00    -0.206 F 
ATOM     66  C   UNL     1      12.590 -11.646  21.488  1.00  0.00     0.022 A 
BRANCH  63  67
ATOM     67  S   UNL     1      13.997  -9.628  22.799  1.00  0.00     0.124 S 
ATOM     68  O   UNL     1      15.160  -9.164  22.049  1.00  0.00    -0.237 OA
ATOM     69  O   UNL     1      13.155  -8.586  23.378  1.00  0.00    -0.237 OA
ATOM     70  O   UNL     1      14.237 -10.782  23.664  1.00  0.00    -0.744 OA
ENDBRANCH  63  67
ENDBRANCH  37  60
ENDBRANCH  11  12
ENDBRANCH   4   6
ENDBRANCH   1   2
BRANCH   1  71
ATOM     71  C   UNL     1       7.207  -3.885   5.883  1.00  0.00     0.042 C 
BRANCH  71  72
ATOM     72  C   UNL     1       6.978  -3.395   4.461  1.00  0.00     0.118 C 
BRANCH  72  73
ATOM     73  N   UNL     1       7.694  -4.171   3.463  1.00  0.00    -0.351 N 
ATOM     74  C   UNL     1       7.372  -5.054   2.494  1.00  0.00     0.279 C 
ATOM     75  H   UNL     1       8.665  -4.012   3.503  1.00  0.00     0.163 HD
ATOM     76  O   UNL     1       8.338  -5.399   1.790  1.00  0.00    -0.268 OA
BRANCH  74  77
ATOM     77  C   UNL     1       5.985  -5.662   2.179  1.00  0.00     0.284 C 
ATOM     78  C   UNL     1       4.679  -5.110   2.706  1.00  0.00     0.151 C 
ATOM     79  N   UNL     1       6.002  -7.140   2.383  1.00  0.00    -0.319 N 
ATOM     80  S   UNL     1       4.220  -6.163   4.090  1.00  0.00    -0.085 SA
ATOM     81  C   UNL     1       5.474  -7.444   3.726  1.00  0.00     0.303 C 
ATOM     82  H   UNL     1       6.958  -7.485   2.305  1.00  0.00     0.348 HD
ATOM     83  H   UNL     1       5.424  -7.592   1.675  1.00  0.00     0.348 HD
BRANCH  81  84
ATOM     84  C   UNL     1       6.488  -7.566   4.852  1.00  0.00     0.162 A 
ATOM     85  N   UNL     1       6.154  -7.585   6.130  1.00  0.00    -0.242 NA
ATOM     86  S   UNL     1       8.176  -7.773   4.563  1.00  0.00    -0.112 S 
ATOM     87  C   UNL     1       7.280  -7.660   6.923  1.00  0.00     0.132 A 
ATOM     88  C   UNL     1       8.485  -7.694   6.250  1.00  0.00     0.055 A 
BRANCH  88  89
ATOM     89  C   UNL     1       9.846  -7.669   6.785  1.00  0.00    -0.007 A 
ATOM     90  C   UNL     1      10.811  -6.792   6.265  1.00  0.00     0.009 A 
ATOM     91  C   UNL     1      10.189  -8.469   7.882  1.00  0.00     0.009 A 
ATOM     92  C   UNL     1      12.078  -6.697   6.845  1.00  0.00     0.001 A 
ATOM     93  C   UNL     1      11.462  -8.387   8.452  1.00  0.00     0.001 A 
ATOM     94  C   UNL     1      12.402  -7.494   7.939  1.00  0.00     0.000 A 
ENDBRANCH  88  89
ENDBRANCH  81  84
ENDBRANCH  74  77
ENDBRANCH  72  73
ENDBRANCH  71  72
ENDBRANCH   1  71
TORSDOF 15
