REMARK SMILES C[C@@H](C(=O)NCCCNC(=O)c1ccc(-c2c3nc(c(-c4cc(S(=O)(=O)[O-])ccc4F)c4ccc([nH]4)c(-c4cc(S(=O)(=O)[O-])ccc4F)c4nc(c(-c5cc(S(=O)(=O)[O-])ccc5F)c5ccc2[nH]5)C=C4)C=C3)cc1)c1ccc(Cc2cccs2)cc1F
REMARK SMILES IDX 7 1 6 2 5 3 3 4 4 5 2 7 1 8 75 9 76 10 86 11 77 12 85 13
REMARK SMILES IDX 87 14 78 15 79 16 80 17 81 18 84 19 82 20 83 21 8 22 9 23
REMARK SMILES IDX 10 24 11 26 12 27 13 28 74 29 14 30 73 31 15 32 16 33 17 34
REMARK SMILES IDX 67 35 18 36 72 37 66 38 68 39 19 40 71 41 65 42 64 43 20 45
REMARK SMILES IDX 52 46 32 47 51 48 33 49 36 50 50 51 69 52 34 53 35 54 49 56
REMARK SMILES IDX 70 57 37 58 21 59 22 60 30 61 23 62 29 63 31 64 28 65 24 66
REMARK SMILES IDX 25 67 26 68 27 69 53 70 54 71 62 72 55 73 61 74 63 75 60 76
REMARK SMILES IDX 56 77 57 78 58 79 59 80 38 81 39 82 47 83 40 84 46 85 48 86
REMARK SMILES IDX 45 87 41 88 42 89 43 90 44 91
REMARK H PARENT 5 6 9 25 68 44 36 55
REMARK Flexibility Score: inf
ROOT
ATOM      1  C   UNL     1       4.396   0.156   1.281  1.00  0.00     0.042 C 
ENDROOT
BRANCH   1   2
ATOM      2  C   UNL     1       3.540  -1.002   1.787  1.00  0.00     0.117 C 
BRANCH   2   3
ATOM      3  N   UNL     1       2.471  -0.528   2.643  1.00  0.00    -0.356 N 
ATOM      4  C   UNL     1       1.148  -0.337   2.377  1.00  0.00     0.227 C 
ATOM      5  O   UNL     1       0.478   0.191   3.267  1.00  0.00    -0.274 OA
ATOM      6  H   UNL     1       2.744  -0.309   3.563  1.00  0.00     0.163 HD
BRANCH   4   7
ATOM      7  C   UNL     1       0.552  -0.800   1.037  1.00  0.00     0.108 C 
ATOM      8  C   UNL     1       1.028   0.052  -0.146  1.00  0.00     0.023 C 
BRANCH   7   9
ATOM      9  C   UNL     1      -0.970  -0.816   1.093  1.00  0.00    -0.000 A 
ATOM     10  C   UNL     1      -1.710   0.373   1.032  1.00  0.00     0.008 A 
ATOM     11  C   UNL     1      -1.667  -2.017   1.246  1.00  0.00     0.127 A 
ATOM     12  C   UNL     1      -3.103   0.349   1.086  1.00  0.00     0.004 A 
ATOM     13  C   UNL     1      -3.060  -2.046   1.327  1.00  0.00     0.043 A 
ATOM     14  F   UNL     1      -0.997  -3.178   1.307  1.00  0.00    -0.207 F 
ATOM     15  C   UNL     1      -3.797  -0.857   1.248  1.00  0.00    -0.040 A 
BRANCH  15  16
ATOM     16  C   UNL     1      -5.309  -0.868   1.313  1.00  0.00     0.082 C 
BRANCH  16  17
ATOM     17  C   UNL     1      -5.884  -0.289   2.581  1.00  0.00     0.009 A 
ATOM     18  C   UNL     1      -5.772   0.996   3.083  1.00  0.00     0.016 A 
ATOM     19  S   UNL     1      -6.886  -1.254   3.588  1.00  0.00    -0.149 S 
ATOM     20  C   UNL     1      -6.498   1.181   4.294  1.00  0.00     0.012 A 
ATOM     21  C   UNL     1      -7.159   0.037   4.674  1.00  0.00     0.065 A 
ENDBRANCH  16  17
ENDBRANCH  15  16
ENDBRANCH   7   9
ENDBRANCH   4   7
ENDBRANCH   2   3
ENDBRANCH   1   2
BRANCH   1  22
ATOM     22  C   UNL     1       5.146   0.894   2.386  1.00  0.00     0.118 C 
BRANCH  22  23
ATOM     23  N   UNL     1       6.133   0.051   3.045  1.00  0.00    -0.352 N 
ATOM     24  C   UNL     1       7.492   0.216   3.147  1.00  0.00     0.251 C 
ATOM     25  H   UNL     1       5.773  -0.755   3.481  1.00  0.00     0.163 HD
ATOM     26  O   UNL     1       8.185  -0.715   3.551  1.00  0.00    -0.269 OA
BRANCH  24  27
ATOM     27  C   UNL     1       8.114   1.498   2.753  1.00  0.00     0.039 A 
ATOM     28  C   UNL     1       9.298   1.482   2.012  1.00  0.00     0.014 A 
ATOM     29  C   UNL     1       7.533   2.714   3.122  1.00  0.00     0.014 A 
ATOM     30  C   UNL     1       9.865   2.687   1.587  1.00  0.00     0.010 A 
ATOM     31  C   UNL     1       8.050   3.906   2.627  1.00  0.00     0.010 A 
ATOM     32  C   UNL     1       9.227   3.907   1.862  1.00  0.00    -0.014 A 
BRANCH  32  33
ATOM     33  C   UNL     1       9.781   5.205   1.396  1.00  0.00     0.031 A 
ATOM     34  C   UNL     1      10.190   6.242   2.406  1.00  0.00     0.074 A 
ATOM     35  C   UNL     1       9.837   5.484   0.079  1.00  0.00     0.049 A 
ATOM     36  N   UNL     1      10.551   7.486   2.222  1.00  0.00    -0.248 NA
ATOM     37  C   UNL     1      10.149   5.830   3.817  1.00  0.00     0.031 C 
ATOM     38  C   UNL     1       9.449   4.569  -0.996  1.00  0.00     0.029 A 
ATOM     39  N   UNL     1      10.223   6.625  -0.579  1.00  0.00    -0.354 N 
ATOM     40  C   UNL     1      10.757   8.012   3.493  1.00  0.00     0.074 A 
ATOM     41  C   UNL     1      10.412   6.969   4.436  1.00  0.00     0.031 C 
ATOM     42  C   UNL     1       9.629   5.179  -2.178  1.00  0.00     0.029 A 
ATOM     43  C   UNL     1      10.089   6.546  -1.946  1.00  0.00     0.049 A 
ATOM     44  H   UNL     1      10.564   7.425  -0.117  1.00  0.00     0.167 HD
ATOM     45  C   UNL     1      11.213   9.241   3.840  1.00  0.00     0.034 A 
ATOM     46  C   UNL     1      10.286   7.475  -2.903  1.00  0.00     0.034 A 
ATOM     47  C   UNL     1      11.555  10.264   2.881  1.00  0.00     0.049 A 
ATOM     48  C   UNL     1      10.749   8.852  -2.498  1.00  0.00     0.074 A 
ATOM     49  C   UNL     1      12.066  11.529   3.115  1.00  0.00     0.029 A 
ATOM     50  N   UNL     1      11.409  10.145   1.504  1.00  0.00    -0.354 N 
ATOM     51  N   UNL     1      10.970   9.329  -1.294  1.00  0.00    -0.248 NA
ATOM     52  C   UNL     1      10.997   9.814  -3.579  1.00  0.00     0.031 C 
ATOM     53  C   UNL     1      12.151  12.201   1.891  1.00  0.00     0.029 A 
ATOM     54  C   UNL     1      11.787  11.325   0.880  1.00  0.00     0.049 A 
ATOM     55  H   UNL     1      11.084   9.341   1.039  1.00  0.00     0.167 HD
ATOM     56  C   UNL     1      11.422  10.633  -1.478  1.00  0.00     0.074 A 
ATOM     57  C   UNL     1      11.443  10.866  -2.907  1.00  0.00     0.031 C 
ATOM     58  C   UNL     1      11.800  11.549  -0.548  1.00  0.00     0.034 A 
BRANCH  45  59
ATOM     59  C   UNL     1      11.327   9.546   5.317  1.00  0.00     0.023 A 
ATOM     60  C   UNL     1      12.150   8.786   6.168  1.00  0.00     0.031 A 
ATOM     61  C   UNL     1      10.559  10.572   5.896  1.00  0.00     0.131 A 
ATOM     62  C   UNL     1      12.107   8.992   7.555  1.00  0.00     0.055 A 
ATOM     63  C   UNL     1      10.599  10.840   7.266  1.00  0.00     0.041 A 
ATOM     64  F   UNL     1       9.737  11.320   5.144  1.00  0.00    -0.206 F 
ATOM     65  C   UNL     1      11.359  10.033   8.108  1.00  0.00     0.022 A 
BRANCH  62  66
ATOM     66  S   UNL     1      12.888   7.761   8.633  1.00  0.00     0.124 S 
ATOM     67  O   UNL     1      12.210   6.534   8.219  1.00  0.00    -0.237 OA
ATOM     68  O   UNL     1      14.295   7.868   8.267  1.00  0.00    -0.237 OA
ATOM     69  O   UNL     1      12.555   8.223   9.979  1.00  0.00    -0.744 OA
ENDBRANCH  62  66
ENDBRANCH  45  59
BRANCH  46  70
ATOM     70  C   UNL     1      10.031   7.142  -4.334  1.00  0.00     0.023 A 
ATOM     71  C   UNL     1      11.076   7.119  -5.271  1.00  0.00     0.031 A 
ATOM     72  C   UNL     1       8.731   6.857  -4.789  1.00  0.00     0.131 A 
ATOM     73  C   UNL     1      10.798   6.855  -6.622  1.00  0.00     0.055 A 
ATOM     74  C   UNL     1       8.467   6.542  -6.123  1.00  0.00     0.041 A 
ATOM     75  F   UNL     1       7.696   6.861  -3.934  1.00  0.00    -0.206 F 
ATOM     76  C   UNL     1       9.504   6.551  -7.051  1.00  0.00     0.022 A 
BRANCH  73  77
ATOM     77  S   UNL     1      12.145   6.987  -7.829  1.00  0.00     0.124 S 
ATOM     78  O   UNL     1      12.555   8.377  -7.664  1.00  0.00    -0.237 OA
ATOM     79  O   UNL     1      13.083   5.978  -7.348  1.00  0.00    -0.237 OA
ATOM     80  O   UNL     1      11.495   6.675  -9.100  1.00  0.00    -0.744 OA
ENDBRANCH  73  77
ENDBRANCH  46  70
BRANCH  58  81
ATOM     81  C   UNL     1      12.335  12.869  -1.050  1.00  0.00     0.023 A 
ATOM     82  C   UNL     1      11.527  13.798  -1.729  1.00  0.00     0.031 A 
ATOM     83  C   UNL     1      13.683  13.206  -0.827  1.00  0.00     0.131 A 
ATOM     84  C   UNL     1      12.085  14.997  -2.199  1.00  0.00     0.055 A 
ATOM     85  C   UNL     1      14.216  14.427  -1.239  1.00  0.00     0.041 A 
ATOM     86  F   UNL     1      14.503  12.355  -0.189  1.00  0.00    -0.206 F 
ATOM     87  C   UNL     1      13.419  15.327  -1.940  1.00  0.00     0.022 A 
BRANCH  84  88
ATOM     88  S   UNL     1      11.070  16.089  -3.232  1.00  0.00     0.124 S 
ATOM     89  O   UNL     1      10.714  15.210  -4.343  1.00  0.00    -0.237 OA
ATOM     90  O   UNL     1       9.981  16.449  -2.330  1.00  0.00    -0.237 OA
ATOM     91  O   UNL     1      11.978  17.182  -3.573  1.00  0.00    -0.744 OA
ENDBRANCH  84  88
ENDBRANCH  58  81
ENDBRANCH  32  33
ENDBRANCH  24  27
ENDBRANCH  22  23
ENDBRANCH   1  22
TORSDOF 16
