REMARK SMILES O=C(NCCCNC(=O)[C@H](NC(=O)[C@H]1CC[C@@H](CNC(=O)[C@@H]2Cc3ccccc3C[NH2+]2)CC1)c1ccccc1)c1ccc(-c2c3nc(c(-c4cc(S(=O)(=O)[O-])ccc4F)c4ccc([nH]4)c(-c4cc(S(=O)(=O)[O-])ccc4F)c4nc(c(-c5cc(S(=O)(=O)[O-])ccc5F)c5ccc2[nH]5)C=C4)C=C3)cc1
REMARK SMILES IDX 6 1 5 2 4 3 3 4 1 5 2 6 40 8 41 9 102 10 42 11 101 12 43 13
REMARK SMILES IDX 44 14 45 15 95 16 46 17 100 18 94 19 96 20 47 21 99 22 93 23
REMARK SMILES IDX 92 24 48 26 80 27 60 28 79 29 61 30 64 31 78 32 97 33 62 34
REMARK SMILES IDX 63 35 77 37 98 38 65 39 49 40 50 41 58 42 51 43 57 44 59 45
REMARK SMILES IDX 56 46 52 47 53 48 54 49 55 50 81 51 82 52 90 53 83 54 89 55
REMARK SMILES IDX 91 56 88 57 84 58 85 59 86 60 87 61 66 62 67 63 75 64 68 65
REMARK SMILES IDX 74 66 76 67 73 68 69 69 70 70 71 71 72 72 7 73 8 74 9 76
REMARK SMILES IDX 10 77 34 78 35 79 39 80 36 81 38 82 37 83 11 84 12 85 13 87
REMARK SMILES IDX 14 88 33 89 15 90 32 91 16 92 17 93 18 94 19 95 20 96 21 98
REMARK SMILES IDX 22 99 23 100 31 101 24 102 30 103 25 106 29 107 26 108
REMARK SMILES IDX 28 109 27 110
REMARK H PARENT 3 7 96 25 64 36 7 75 11 86 19 97 31 104 31 105
REMARK Flexibility Score: inf
ROOT
ATOM      1  C   UNL     1      -1.055  -5.604  -8.319  1.00  0.00     0.117 C 
ENDROOT
BRANCH   1   2
ATOM      2  C   UNL     1      -0.104  -4.937  -9.298  1.00  0.00     0.042 C 
BRANCH   2   3
ATOM      3  C   UNL     1      -0.852  -4.104 -10.331  1.00  0.00     0.118 C 
BRANCH   3   4
ATOM      4  N   UNL     1      -1.371  -2.836  -9.813  1.00  0.00    -0.352 N 
ATOM      5  O   UNL     1      -1.580  -0.671  -9.280  1.00  0.00    -0.269 OA
ATOM      6  C   UNL     1      -0.970  -1.521  -9.933  1.00  0.00     0.251 C 
ATOM      7  H   UNL     1      -2.179  -2.945  -9.261  1.00  0.00     0.163 HD
BRANCH   6   8
ATOM      8  C   UNL     1       0.174  -1.103 -10.782  1.00  0.00     0.039 A 
ATOM      9  C   UNL     1       0.537  -1.826 -11.906  1.00  0.00     0.014 A 
ATOM     10  C   UNL     1       0.895   0.064 -10.484  1.00  0.00     0.014 A 
ATOM     11  C   UNL     1       1.738  -1.574 -12.546  1.00  0.00     0.010 A 
ATOM     12  C   UNL     1       2.002   0.441 -11.268  1.00  0.00     0.010 A 
ATOM     13  C   UNL     1       2.463  -0.402 -12.288  1.00  0.00    -0.014 A 
BRANCH  13  14
ATOM     14  C   UNL     1       3.623  -0.109 -13.183  1.00  0.00     0.031 A 
ATOM     15  C   UNL     1       5.017   0.074 -12.648  1.00  0.00     0.074 A 
ATOM     16  C   UNL     1       3.413  -0.152 -14.519  1.00  0.00     0.049 A 
ATOM     17  N   UNL     1       6.139   0.199 -13.314  1.00  0.00    -0.248 NA
ATOM     18  C   UNL     1       5.180   0.144 -11.189  1.00  0.00     0.031 C 
ATOM     19  C   UNL     1       2.096  -0.292 -15.155  1.00  0.00     0.029 A 
ATOM     20  N   UNL     1       4.283  -0.168 -15.580  1.00  0.00    -0.354 N 
ATOM     21  C   UNL     1       7.135   0.383 -12.361  1.00  0.00     0.074 A 
ATOM     22  C   UNL     1       6.479   0.384 -11.070  1.00  0.00     0.031 C 
ATOM     23  C   UNL     1       2.256  -0.521 -16.463  1.00  0.00     0.029 A 
ATOM     24  C   UNL     1       3.671  -0.413 -16.791  1.00  0.00     0.049 A 
ATOM     25  H   UNL     1       5.252  -0.020 -15.485  1.00  0.00     0.167 HD
ATOM     26  C   UNL     1       8.471   0.533 -12.549  1.00  0.00     0.034 A 
ATOM     27  C   UNL     1       4.177  -0.520 -18.035  1.00  0.00     0.034 A 
ATOM     28  C   UNL     1       9.108   0.519 -13.847  1.00  0.00     0.049 A 
ATOM     29  C   UNL     1       5.661  -0.361 -18.208  1.00  0.00     0.074 A 
ATOM     30  C   UNL     1      10.450   0.675 -14.152  1.00  0.00     0.029 A 
ATOM     31  N   UNL     1       8.450   0.332 -15.058  1.00  0.00    -0.354 N 
ATOM     32  N   UNL     1       6.580  -0.163 -17.290  1.00  0.00    -0.248 NA
ATOM     33  C   UNL     1       6.176  -0.427 -19.579  1.00  0.00     0.031 C 
ATOM     34  C   UNL     1      10.595   0.639 -15.544  1.00  0.00     0.029 A 
ATOM     35  C   UNL     1       9.355   0.387 -16.109  1.00  0.00     0.049 A 
ATOM     36  H   UNL     1       7.482   0.182 -15.155  1.00  0.00     0.167 HD
ATOM     37  C   UNL     1       7.784  -0.071 -17.978  1.00  0.00     0.074 A 
ATOM     38  C   UNL     1       7.478  -0.294 -19.378  1.00  0.00     0.031 C 
ATOM     39  C   UNL     1       9.027   0.194 -17.502  1.00  0.00     0.034 A 
BRANCH  26  40
ATOM     40  C   UNL     1       9.327   0.774 -11.327  1.00  0.00     0.023 A 
ATOM     41  C   UNL     1       9.500  -0.205 -10.334  1.00  0.00     0.031 A 
ATOM     42  C   UNL     1       9.983   2.007 -11.154  1.00  0.00     0.131 A 
ATOM     43  C   UNL     1      10.264   0.082  -9.190  1.00  0.00     0.055 A 
ATOM     44  C   UNL     1      10.796   2.263 -10.048  1.00  0.00     0.041 A 
ATOM     45  F   UNL     1       9.841   2.989 -12.059  1.00  0.00    -0.206 F 
ATOM     46  C   UNL     1      10.932   1.301  -9.052  1.00  0.00     0.022 A 
BRANCH  43  47
ATOM     47  S   UNL     1      10.285  -1.119  -7.831  1.00  0.00     0.124 S 
ATOM     48  O   UNL     1       8.871  -1.186  -7.476  1.00  0.00    -0.237 OA
ATOM     49  O   UNL     1      10.841  -2.307  -8.469  1.00  0.00    -0.237 OA
ATOM     50  O   UNL     1      11.144  -0.489  -6.830  1.00  0.00    -0.744 OA
ENDBRANCH  43  47
ENDBRANCH  26  40
BRANCH  27  51
ATOM     51  C   UNL     1       3.275  -0.719 -19.209  1.00  0.00     0.023 A 
ATOM     52  C   UNL     1       3.398  -1.833 -20.054  1.00  0.00     0.031 A 
ATOM     53  C   UNL     1       2.291   0.237 -19.526  1.00  0.00     0.131 A 
ATOM     54  C   UNL     1       2.582  -1.941 -21.192  1.00  0.00     0.055 A 
ATOM     55  C   UNL     1       1.436   0.090 -20.618  1.00  0.00     0.041 A 
ATOM     56  F   UNL     1       2.130   1.328 -18.758  1.00  0.00    -0.206 F 
ATOM     57  C   UNL     1       1.589  -0.998 -21.468  1.00  0.00     0.022 A 
BRANCH  54  58
ATOM     58  S   UNL     1       2.903  -3.281 -22.373  1.00  0.00     0.124 S 
ATOM     59  O   UNL     1       4.317  -3.083 -22.671  1.00  0.00    -0.237 OA
ATOM     60  O   UNL     1       2.572  -4.463 -21.585  1.00  0.00    -0.237 OA
ATOM     61  O   UNL     1       1.987  -2.990 -23.474  1.00  0.00    -0.744 OA
ENDBRANCH  54  58
ENDBRANCH  27  51
BRANCH  39  62
ATOM     62  C   UNL     1      10.135   0.243 -18.524  1.00  0.00     0.023 A 
ATOM     63  C   UNL     1      10.165   1.235 -19.521  1.00  0.00     0.031 A 
ATOM     64  C   UNL     1      11.133  -0.745 -18.542  1.00  0.00     0.131 A 
ATOM     65  C   UNL     1      11.124   1.170 -20.541  1.00  0.00     0.055 A 
ATOM     66  C   UNL     1      12.127  -0.765 -19.521  1.00  0.00     0.041 A 
ATOM     67  F   UNL     1      11.149  -1.718 -17.616  1.00  0.00    -0.206 F 
ATOM     68  C   UNL     1      12.114   0.185 -20.540  1.00  0.00     0.022 A 
BRANCH  65  69
ATOM     69  S   UNL     1      10.979   2.314 -21.942  1.00  0.00     0.124 S 
ATOM     70  O   UNL     1       9.634   2.026 -22.430  1.00  0.00    -0.237 OA
ATOM     71  O   UNL     1      11.161   3.613 -21.303  1.00  0.00    -0.237 OA
ATOM     72  O   UNL     1      12.063   1.904 -22.832  1.00  0.00    -0.744 OA
ENDBRANCH  65  69
ENDBRANCH  39  62
ENDBRANCH  13  14
ENDBRANCH   6   8
ENDBRANCH   3   4
ENDBRANCH   2   3
ENDBRANCH   1   2
BRANCH   1  73
ATOM     73  N   UNL     1      -1.013  -7.042  -8.335  1.00  0.00    -0.354 N 
ATOM     74  C   UNL     1      -0.733  -7.923  -7.333  1.00  0.00     0.247 C 
ATOM     75  H   UNL     1      -1.218  -7.454  -9.205  1.00  0.00     0.163 HD
ATOM     76  O   UNL     1      -1.097  -9.089  -7.555  1.00  0.00    -0.272 OA
BRANCH  74  77
ATOM     77  C   UNL     1      -0.122  -7.567  -5.940  1.00  0.00     0.202 C 
BRANCH  77  78
ATOM     78  C   UNL     1       1.264  -6.940  -5.815  1.00  0.00    -0.016 A 
ATOM     79  C   UNL     1       1.785  -6.701  -4.522  1.00  0.00     0.006 A 
ATOM     80  C   UNL     1       2.027  -6.516  -6.913  1.00  0.00     0.006 A 
ATOM     81  C   UNL     1       2.934  -5.931  -4.334  1.00  0.00     0.000 A 
ATOM     82  C   UNL     1       3.172  -5.732  -6.721  1.00  0.00     0.000 A 
ATOM     83  C   UNL     1       3.607  -5.416  -5.435  1.00  0.00     0.000 A 
ENDBRANCH  77  78
BRANCH  77  84
ATOM     84  N   UNL     1      -1.084  -7.188  -4.869  1.00  0.00    -0.340 N 
ATOM     85  C   UNL     1      -1.613  -6.074  -4.302  1.00  0.00     0.224 C 
ATOM     86  H   UNL     1      -1.450  -7.995  -4.440  1.00  0.00     0.164 HD
ATOM     87  O   UNL     1      -2.287  -6.283  -3.284  1.00  0.00    -0.275 OA
BRANCH  85  88
ATOM     88  C   UNL     1      -1.556  -4.659  -4.888  1.00  0.00     0.078 C 
ATOM     89  C   UNL     1      -2.057  -3.565  -3.906  1.00  0.00     0.014 C 
ATOM     90  C   UNL     1      -0.205  -4.168  -5.362  1.00  0.00     0.014 C 
ATOM     91  C   UNL     1      -1.984  -2.118  -4.471  1.00  0.00     0.006 C 
ATOM     92  C   UNL     1      -0.433  -2.939  -6.228  1.00  0.00     0.006 C 
ATOM     93  C   UNL     1      -0.731  -1.767  -5.319  1.00  0.00     0.008 C 
BRANCH  93  94
ATOM     94  C   UNL     1       0.490  -1.400  -4.456  1.00  0.00     0.119 C 
BRANCH  94  95
ATOM     95  N   UNL     1       1.779  -1.491  -5.149  1.00  0.00    -0.351 N 
ATOM     96  C   UNL     1       3.003  -1.124  -4.644  1.00  0.00     0.278 C 
ATOM     97  H   UNL     1       1.766  -1.850  -6.065  1.00  0.00     0.163 HD
ATOM     98  O   UNL     1       4.032  -1.452  -5.224  1.00  0.00    -0.268 OA
BRANCH  96  99
ATOM     99  C   UNL     1       2.966  -0.288  -3.380  1.00  0.00     0.277 C 
ATOM    100  C   UNL     1       4.264   0.438  -3.029  1.00  0.00     0.111 C 
ATOM    101  N   UNL     1       2.573  -1.137  -2.224  1.00  0.00    -0.332 N 
ATOM    102  C   UNL     1       3.876   1.416  -1.938  1.00  0.00    -0.033 A 
ATOM    103  C   UNL     1       2.124  -0.268  -1.135  1.00  0.00     0.298 C 
ATOM    104  H   UNL     1       3.373  -1.689  -1.915  1.00  0.00     0.347 HD
ATOM    105  H   UNL     1       1.821  -1.770  -2.497  1.00  0.00     0.347 HD
ATOM    106  C   UNL     1       4.463   2.681  -1.874  1.00  0.00     0.004 A 
ATOM    107  C   UNL     1       2.808   1.083  -1.070  1.00  0.00     0.010 A 
ATOM    108  C   UNL     1       3.938   3.642  -1.013  1.00  0.00     0.000 A 
ATOM    109  C   UNL     1       2.293   2.061  -0.213  1.00  0.00     0.010 A 
ATOM    110  C   UNL     1       2.844   3.340  -0.200  1.00  0.00     0.001 A 
ENDBRANCH  96  99
ENDBRANCH  94  95
ENDBRANCH  93  94
ENDBRANCH  85  88
ENDBRANCH  77  84
ENDBRANCH  74  77
ENDBRANCH   1  73
TORSDOF 19
