REMARK SMILES O=C(C[NH+]1CCN(C(=O)c2ccc(F)c(F)c2F)CC1)NCCCNC(=O)c1ccc(-c2c3nc(c(-c4cc(S(=O)(=O)[O-])ccc4F)c4ccc([nH]4)c(-c4cc(S(=O)(=O)[O-])ccc4F)c4nc(c(-c5cc(S(=O)(=O)[O-])ccc5F)c5ccc2[nH]5)C=C4)C=C3)cc1
REMARK SMILES IDX 23 1 22 2 21 3 1 4 2 5 3 7 4 8 5 9 20 10 6 12 19 13 7 14
REMARK SMILES IDX 8 15 9 16 10 17 11 18 17 19 12 20 15 21 18 22 13 23 16 24
REMARK SMILES IDX 14 25 24 26 25 27 26 28 27 30 28 31 29 32 90 33 30 34 89 35
REMARK SMILES IDX 31 36 32 37 33 38 83 39 34 40 88 41 82 42 84 43 35 44 87 45
REMARK SMILES IDX 81 46 80 47 36 49 68 50 48 51 67 52 49 53 52 54 66 55 85 56
REMARK SMILES IDX 50 57 51 58 65 60 86 61 53 62 37 63 38 64 46 65 39 66 45 67
REMARK SMILES IDX 47 68 44 69 40 70 41 71 42 72 43 73 69 74 70 75 78 76 71 77
REMARK SMILES IDX 77 78 79 79 76 80 72 81 73 82 74 83 75 84 54 85 55 86 63 87
REMARK SMILES IDX 56 88 62 89 64 90 61 91 57 92 58 93 59 94 60 95
REMARK H PARENT 21 6 4 11 25 29 84 48 52 59
REMARK Flexibility Score: inf
ROOT
ATOM      1  C   UNL     1       2.320   2.669  -2.009  1.00  0.00     0.042 C 
ENDROOT
BRANCH   1   2
ATOM      2  C   UNL     1       2.054   1.176  -2.193  1.00  0.00     0.118 C 
BRANCH   2   3
ATOM      3  N   UNL     1       2.615   0.367  -1.131  1.00  0.00    -0.351 N 
ATOM      4  O   UNL     1       0.742   0.362   0.188  1.00  0.00    -0.269 OA
ATOM      5  C   UNL     1       1.908   0.021  -0.004  1.00  0.00     0.275 C 
ATOM      6  H   UNL     1       3.544   0.052  -1.219  1.00  0.00     0.163 HD
BRANCH   5   7
ATOM      7  C   UNL     1       2.692  -0.758   1.062  1.00  0.00     0.363 C 
BRANCH   7   8
ATOM      8  N   UNL     1       3.789  -1.572   0.476  1.00  0.00    -0.324 N 
ATOM      9  C   UNL     1       5.122  -0.952   0.699  1.00  0.00     0.284 C 
ATOM     10  C   UNL     1       3.802  -2.934   1.063  1.00  0.00     0.284 C 
ATOM     11  H   UNL     1       3.612  -1.621  -0.527  1.00  0.00     0.348 HD
ATOM     12  C   UNL     1       5.657  -1.009   2.146  1.00  0.00     0.181 C 
ATOM     13  C   UNL     1       4.244  -2.992   2.541  1.00  0.00     0.181 C 
ATOM     14  N   UNL     1       5.547  -2.349   2.730  1.00  0.00    -0.327 N 
ATOM     15  C   UNL     1       6.571  -2.786   3.563  1.00  0.00     0.257 C 
ATOM     16  O   UNL     1       7.588  -2.134   3.792  1.00  0.00    -0.269 OA
BRANCH  15  17
ATOM     17  C   UNL     1       6.487  -4.112   4.192  1.00  0.00     0.079 A 
ATOM     18  C   UNL     1       6.495  -5.273   3.404  1.00  0.00     0.020 A 
ATOM     19  C   UNL     1       6.515  -4.204   5.583  1.00  0.00     0.174 A 
ATOM     20  C   UNL     1       6.488  -6.525   4.023  1.00  0.00     0.043 A 
ATOM     21  C   UNL     1       6.521  -5.452   6.193  1.00  0.00     0.195 A 
ATOM     22  F   UNL     1       6.514  -3.101   6.346  1.00  0.00    -0.203 F 
ATOM     23  C   UNL     1       6.503  -6.604   5.415  1.00  0.00     0.161 A 
ATOM     24  F   UNL     1       6.540  -5.548   7.530  1.00  0.00    -0.200 F 
ATOM     25  F   UNL     1       6.502  -7.810   5.999  1.00  0.00    -0.204 F 
ENDBRANCH  15  17
ENDBRANCH   7   8
ENDBRANCH   5   7
ENDBRANCH   2   3
ENDBRANCH   1   2
BRANCH   1  26
ATOM     26  C   UNL     1       3.794   3.070  -2.075  1.00  0.00     0.118 C 
BRANCH  26  27
ATOM     27  N   UNL     1       4.402   2.779  -3.364  1.00  0.00    -0.352 N 
ATOM     28  C   UNL     1       5.059   3.586  -4.259  1.00  0.00     0.251 C 
ATOM     29  H   UNL     1       4.330   1.837  -3.644  1.00  0.00     0.163 HD
ATOM     30  O   UNL     1       5.332   3.124  -5.367  1.00  0.00    -0.269 OA
BRANCH  28  31
ATOM     31  C   UNL     1       5.429   4.986  -3.935  1.00  0.00     0.039 A 
ATOM     32  C   UNL     1       5.369   5.941  -4.957  1.00  0.00     0.014 A 
ATOM     33  C   UNL     1       5.905   5.360  -2.675  1.00  0.00     0.014 A 
ATOM     34  C   UNL     1       5.738   7.268  -4.707  1.00  0.00     0.010 A 
ATOM     35  C   UNL     1       6.214   6.697  -2.409  1.00  0.00     0.010 A 
ATOM     36  C   UNL     1       6.143   7.664  -3.424  1.00  0.00    -0.014 A 
BRANCH  36  37
ATOM     37  C   UNL     1       6.519   9.076  -3.138  1.00  0.00     0.031 A 
ATOM     38  C   UNL     1       7.935   9.422  -2.757  1.00  0.00     0.074 A 
ATOM     39  C   UNL     1       5.581  10.043  -3.175  1.00  0.00     0.049 A 
ATOM     40  N   UNL     1       8.441  10.576  -2.399  1.00  0.00    -0.248 NA
ATOM     41  C   UNL     1       8.902   8.315  -2.753  1.00  0.00     0.031 C 
ATOM     42  C   UNL     1       4.168   9.837  -3.500  1.00  0.00     0.029 A 
ATOM     43  N   UNL     1       5.670  11.391  -2.927  1.00  0.00    -0.354 N 
ATOM     44  C   UNL     1       9.780  10.331  -2.109  1.00  0.00     0.074 A 
ATOM     45  C   UNL     1       9.989   8.909  -2.283  1.00  0.00     0.031 C 
ATOM     46  C   UNL     1       3.528  11.017  -3.447  1.00  0.00     0.029 A 
ATOM     47  C   UNL     1       4.472  12.056  -3.047  1.00  0.00     0.049 A 
ATOM     48  H   UNL     1       6.513  11.839  -2.686  1.00  0.00     0.167 HD
ATOM     49  C   UNL     1      10.749  11.212  -1.751  1.00  0.00     0.034 A 
ATOM     50  C   UNL     1       4.164  13.353  -2.847  1.00  0.00     0.034 A 
ATOM     51  C   UNL     1      10.533  12.631  -1.598  1.00  0.00     0.049 A 
ATOM     52  C   UNL     1       5.254  14.313  -2.444  1.00  0.00     0.074 A 
ATOM     53  C   UNL     1      11.454  13.616  -1.285  1.00  0.00     0.029 A 
ATOM     54  N   UNL     1       9.308  13.270  -1.744  1.00  0.00    -0.354 N 
ATOM     55  N   UNL     1       6.523  14.071  -2.209  1.00  0.00    -0.248 NA
ATOM     56  C   UNL     1       4.872  15.723  -2.292  1.00  0.00     0.031 C 
ATOM     57  C   UNL     1      10.778  14.838  -1.187  1.00  0.00     0.029 A 
ATOM     58  C   UNL     1       9.447  14.629  -1.506  1.00  0.00     0.049 A 
ATOM     59  H   UNL     1       8.464  12.822  -1.982  1.00  0.00     0.167 HD
ATOM     60  C   UNL     1       7.095  15.306  -1.914  1.00  0.00     0.074 A 
ATOM     61  C   UNL     1       6.036  16.289  -2.011  1.00  0.00     0.031 C 
ATOM     62  C   UNL     1       8.382  15.600  -1.598  1.00  0.00     0.034 A 
BRANCH  49  63
ATOM     63  C   UNL     1      12.124  10.651  -1.474  1.00  0.00     0.023 A 
ATOM     64  C   UNL     1      12.878  10.016  -2.478  1.00  0.00     0.031 A 
ATOM     65  C   UNL     1      12.676  10.719  -0.183  1.00  0.00     0.131 A 
ATOM     66  C   UNL     1      14.099   9.403  -2.156  1.00  0.00     0.055 A 
ATOM     67  C   UNL     1      13.931  10.180   0.112  1.00  0.00     0.041 A 
ATOM     68  F   UNL     1      11.998  11.297   0.821  1.00  0.00    -0.206 F 
ATOM     69  C   UNL     1      14.642   9.502  -0.874  1.00  0.00     0.022 A 
BRANCH  66  70
ATOM     70  S   UNL     1      14.891   8.348  -3.401  1.00  0.00     0.124 S 
ATOM     71  O   UNL     1      13.854   7.347  -3.640  1.00  0.00    -0.237 OA
ATOM     72  O   UNL     1      15.142   9.281  -4.492  1.00  0.00    -0.237 OA
ATOM     73  O   UNL     1      16.083   7.849  -2.718  1.00  0.00    -0.744 OA
ENDBRANCH  66  70
ENDBRANCH  49  63
BRANCH  50  74
ATOM     74  C   UNL     1       2.762  13.829  -3.016  1.00  0.00     0.023 A 
ATOM     75  C   UNL     1       2.421  14.721  -4.045  1.00  0.00     0.031 A 
ATOM     76  C   UNL     1       1.751  13.429  -2.125  1.00  0.00     0.131 A 
ATOM     77  C   UNL     1       1.112  15.221  -4.130  1.00  0.00     0.055 A 
ATOM     78  C   UNL     1       0.440  13.892  -2.243  1.00  0.00     0.041 A 
ATOM     79  F   UNL     1       2.025  12.572  -1.129  1.00  0.00    -0.206 F 
ATOM     80  C   UNL     1       0.117  14.804  -3.244  1.00  0.00     0.022 A 
BRANCH  77  81
ATOM     81  S   UNL     1       0.747  16.487  -5.377  1.00  0.00     0.124 S 
ATOM     82  O   UNL     1       1.686  17.542  -5.014  1.00  0.00    -0.237 OA
ATOM     83  O   UNL     1       1.028  15.777  -6.620  1.00  0.00    -0.237 OA
ATOM     84  O   UNL     1      -0.662  16.797  -5.144  1.00  0.00    -0.744 OA
ENDBRANCH  77  81
ENDBRANCH  50  74
BRANCH  62  85
ATOM     85  C   UNL     1       8.719  17.056  -1.388  1.00  0.00     0.023 A 
ATOM     86  C   UNL     1       8.226  17.780  -0.288  1.00  0.00     0.031 A 
ATOM     87  C   UNL     1       9.532  17.731  -2.315  1.00  0.00     0.131 A 
ATOM     88  C   UNL     1       8.506  19.150  -0.172  1.00  0.00     0.055 A 
ATOM     89  C   UNL     1       9.852  19.081  -2.166  1.00  0.00     0.041 A 
ATOM     90  F   UNL     1      10.028  17.087  -3.384  1.00  0.00    -0.206 F 
ATOM     91  C   UNL     1       9.327  19.802  -1.097  1.00  0.00     0.022 A 
BRANCH  88  92
ATOM     92  S   UNL     1       7.711  20.094   1.157  1.00  0.00     0.124 S 
ATOM     93  O   UNL     1       6.295  19.872   0.885  1.00  0.00    -0.237 OA
ATOM     94  O   UNL     1       8.239  19.450   2.356  1.00  0.00    -0.237 OA
ATOM     95  O   UNL     1       8.178  21.462   0.934  1.00  0.00    -0.744 OA
ENDBRANCH  88  92
ENDBRANCH  62  85
ENDBRANCH  36  37
ENDBRANCH  28  31
ENDBRANCH  26  27
ENDBRANCH   1  26
TORSDOF 15
