REMARK SMILES Cc1ccc(S(=O)(=O)N[C@@H](Cc2cccc(F)c2)C(=O)NCCCNC(=O)c2ccc(-c3c4nc(c(-c5cc(S(=O)(=O)[O-])ccc5F)c5ccc([nH]5)c(-c5cc(S(=O)(=O)[O-])ccc5F)c5nc(c(-c6cc(S(=O)(=O)[O-])ccc6F)c6ccc3[nH]6)C=C5)C=C4)cc2)cc1
REMARK SMILES IDX 23 1 22 2 21 3 19 4 20 5 10 7 9 8 6 10 7 11 8 12 5 13 1 14
REMARK SMILES IDX 2 15 3 16 92 17 4 18 91 19 11 20 12 21 13 22 18 23 14 24
REMARK SMILES IDX 16 25 15 26 17 27 24 28 25 29 26 30 27 32 28 33 29 34 90 35
REMARK SMILES IDX 30 36 89 37 31 38 32 39 33 40 83 41 34 42 88 43 82 44 84 45
REMARK SMILES IDX 35 46 87 47 81 48 80 49 36 51 68 52 48 53 67 54 49 55 52 56
REMARK SMILES IDX 66 57 85 58 50 59 51 60 65 62 86 63 53 64 37 65 38 66 46 67
REMARK SMILES IDX 39 68 45 69 47 70 44 71 40 72 41 73 42 74 43 75 69 76 70 77
REMARK SMILES IDX 78 78 71 79 77 80 79 81 76 82 72 83 73 84 74 85 75 86 54 87
REMARK SMILES IDX 55 88 63 89 56 90 62 91 64 92 61 93 57 94 58 95 59 96 60 97
REMARK H PARENT 21 6 9 9 25 31 84 50 52 61
REMARK Flexibility Score: inf
ROOT
ATOM      1  C   UNL     1      -7.562   2.277  -0.380  1.00  0.00     0.042 C 
ENDROOT
BRANCH   1   2
ATOM      2  C   UNL     1      -6.628   2.734  -1.486  1.00  0.00     0.117 C 
BRANCH   2   3
ATOM      3  N   UNL     1      -5.634   3.681  -1.002  1.00  0.00    -0.355 N 
ATOM      4  C   UNL     1      -4.275   3.564  -0.977  1.00  0.00     0.238 C 
ATOM      5  O   UNL     1      -3.612   4.479  -0.479  1.00  0.00    -0.273 OA
ATOM      6  H   UNL     1      -5.992   4.524  -0.641  1.00  0.00     0.163 HD
BRANCH   4   7
ATOM      7  C   UNL     1      -3.572   2.266  -1.429  1.00  0.00     0.163 C 
BRANCH   7   8
ATOM      8  N   UNL     1      -3.930   1.331  -0.329  1.00  0.00    -0.198 NA
ATOM      9  H   UNL     1      -3.660   1.815   0.528  1.00  0.00     0.142 HD
BRANCH   8  10
ATOM     10  S   UNL     1      -3.388  -0.218  -0.133  1.00  0.00     0.241 S 
ATOM     11  O   UNL     1      -3.647  -0.936  -1.371  1.00  0.00    -0.207 OA
ATOM     12  O   UNL     1      -3.922  -0.671   1.121  1.00  0.00    -0.207 OA
BRANCH  10  13
ATOM     13  C   UNL     1      -1.631  -0.132   0.057  1.00  0.00     0.082 A 
ATOM     14  C   UNL     1       2.660  -0.044   0.066  1.00  0.00     0.044 C 
ATOM     15  C   UNL     1       1.161  -0.075   0.101  1.00  0.00    -0.051 A 
ATOM     16  C   UNL     1       0.486  -1.279  -0.131  1.00  0.00     0.005 A 
ATOM     17  C   UNL     1       0.424   1.085   0.376  1.00  0.00     0.005 A 
ATOM     18  C   UNL     1      -0.906  -1.307  -0.166  1.00  0.00     0.022 A 
ATOM     19  C   UNL     1      -0.973   1.056   0.371  1.00  0.00     0.022 A 
ENDBRANCH  10  13
ENDBRANCH   8  10
ENDBRANCH   7   8
BRANCH   7  20
ATOM     20  C   UNL     1      -3.853   1.747  -2.854  1.00  0.00     0.065 C 
BRANCH  20  21
ATOM     21  C   UNL     1      -4.361   2.694  -3.929  1.00  0.00    -0.043 A 
ATOM     22  C   UNL     1      -5.134   2.156  -4.976  1.00  0.00     0.004 A 
ATOM     23  C   UNL     1      -4.132   4.076  -3.932  1.00  0.00     0.043 A 
ATOM     24  C   UNL     1      -5.741   2.982  -5.928  1.00  0.00     0.003 A 
ATOM     25  C   UNL     1      -4.764   4.895  -4.868  1.00  0.00     0.123 A 
ATOM     26  C   UNL     1      -5.580   4.362  -5.854  1.00  0.00     0.039 A 
ATOM     27  F   UNL     1      -4.578   6.219  -4.800  1.00  0.00    -0.207 F 
ENDBRANCH  20  21
ENDBRANCH   7  20
ENDBRANCH   4   7
ENDBRANCH   2   3
ENDBRANCH   1   2
BRANCH   1  28
ATOM     28  C   UNL     1      -8.646   3.299  -0.105  1.00  0.00     0.118 C 
BRANCH  28  29
ATOM     29  N   UNL     1      -9.867   3.119  -0.880  1.00  0.00    -0.352 N 
ATOM     30  C   UNL     1     -11.043   3.849  -0.848  1.00  0.00     0.251 C 
ATOM     31  H   UNL     1      -9.853   2.371  -1.519  1.00  0.00     0.163 HD
ATOM     32  O   UNL     1     -12.044   3.421  -1.417  1.00  0.00    -0.269 OA
BRANCH  30  33
ATOM     33  C   UNL     1     -11.056   5.209  -0.250  1.00  0.00     0.039 A 
ATOM     34  C   UNL     1     -11.749   6.223  -0.929  1.00  0.00     0.014 A 
ATOM     35  C   UNL     1     -10.200   5.537   0.790  1.00  0.00     0.014 A 
ATOM     36  C   UNL     1     -11.386   7.554  -0.733  1.00  0.00     0.010 A 
ATOM     37  C   UNL     1      -9.711   6.814   0.850  1.00  0.00     0.010 A 
ATOM     38  C   UNL     1     -10.283   7.819   0.067  1.00  0.00    -0.014 A 
BRANCH  38  39
ATOM     39  C   UNL     1      -9.621   9.101   0.216  1.00  0.00     0.031 A 
ATOM     40  C   UNL     1      -9.749   9.806   1.505  1.00  0.00     0.074 A 
ATOM     41  C   UNL     1      -8.680   9.450  -0.688  1.00  0.00     0.049 A 
ATOM     42  N   UNL     1      -9.296  10.985   1.739  1.00  0.00    -0.248 NA
ATOM     43  C   UNL     1     -10.441   9.225   2.653  1.00  0.00     0.031 C 
ATOM     44  C   UNL     1      -7.574  10.384  -0.508  1.00  0.00     0.029 A 
ATOM     45  N   UNL     1      -8.685   9.177  -2.055  1.00  0.00    -0.354 N 
ATOM     46  C   UNL     1      -9.369  11.206   3.095  1.00  0.00     0.074 A 
ATOM     47  C   UNL     1     -10.157  10.114   3.607  1.00  0.00     0.031 C 
ATOM     48  C   UNL     1      -7.166  10.810  -1.714  1.00  0.00     0.029 A 
ATOM     49  C   UNL     1      -8.122  10.310  -2.686  1.00  0.00     0.049 A 
ATOM     50  H   UNL     1      -9.014   8.359  -2.493  1.00  0.00     0.167 HD
ATOM     51  C   UNL     1      -8.647  12.234   3.619  1.00  0.00     0.034 A 
ATOM     52  C   UNL     1      -8.900  11.098  -3.489  1.00  0.00     0.034 A 
ATOM     53  C   UNL     1      -8.027  13.027   2.554  1.00  0.00     0.049 A 
ATOM     54  C   UNL     1      -9.089  12.519  -2.980  1.00  0.00     0.074 A 
ATOM     55  C   UNL     1      -6.762  13.106   1.998  1.00  0.00     0.029 A 
ATOM     56  N   UNL     1      -8.862  13.713   1.696  1.00  0.00    -0.354 N 
ATOM     57  N   UNL     1      -8.663  12.958  -1.827  1.00  0.00    -0.248 NA
ATOM     58  C   UNL     1      -9.851  13.536  -3.706  1.00  0.00     0.031 C 
ATOM     59  C   UNL     1      -6.870  13.820   0.765  1.00  0.00     0.029 A 
ATOM     60  C   UNL     1      -8.191  14.199   0.597  1.00  0.00     0.049 A 
ATOM     61  H   UNL     1      -9.826  13.841   1.852  1.00  0.00     0.167 HD
ATOM     62  C   UNL     1      -9.144  14.224  -1.607  1.00  0.00     0.074 A 
ATOM     63  C   UNL     1      -9.873  14.548  -2.821  1.00  0.00     0.031 C 
ATOM     64  C   UNL     1      -8.959  14.890  -0.428  1.00  0.00     0.034 A 
BRANCH  51  65
ATOM     65  C   UNL     1      -8.325  12.457   5.078  1.00  0.00     0.023 A 
ATOM     66  C   UNL     1      -7.263  13.335   5.383  1.00  0.00     0.031 A 
ATOM     67  C   UNL     1      -8.936  11.852   6.192  1.00  0.00     0.131 A 
ATOM     68  C   UNL     1      -6.808  13.518   6.699  1.00  0.00     0.055 A 
ATOM     69  C   UNL     1      -8.469  12.014   7.504  1.00  0.00     0.041 A 
ATOM     70  F   UNL     1     -10.037  11.104   6.094  1.00  0.00    -0.206 F 
ATOM     71  C   UNL     1      -7.392  12.844   7.764  1.00  0.00     0.022 A 
BRANCH  68  72
ATOM     72  S   UNL     1      -5.418  14.642   6.986  1.00  0.00     0.124 S 
ATOM     73  O   UNL     1      -4.361  14.032   6.186  1.00  0.00    -0.237 OA
ATOM     74  O   UNL     1      -5.946  15.913   6.503  1.00  0.00    -0.237 OA
ATOM     75  O   UNL     1      -5.217  14.566   8.432  1.00  0.00    -0.744 OA
ENDBRANCH  68  72
ENDBRANCH  51  65
BRANCH  52  76
ATOM     76  C   UNL     1      -9.940  10.296  -4.207  1.00  0.00     0.023 A 
ATOM     77  C   UNL     1      -9.491   9.276  -5.078  1.00  0.00     0.031 A 
ATOM     78  C   UNL     1     -11.247  10.204  -3.706  1.00  0.00     0.131 A 
ATOM     79  C   UNL     1     -10.274   8.129  -5.280  1.00  0.00     0.055 A 
ATOM     80  C   UNL     1     -12.045   9.083  -3.960  1.00  0.00     0.041 A 
ATOM     81  F   UNL     1     -11.717  11.122  -2.849  1.00  0.00    -0.206 F 
ATOM     82  C   UNL     1     -11.541   8.017  -4.705  1.00  0.00     0.022 A 
BRANCH  79  83
ATOM     83  S   UNL     1      -9.510   6.689  -6.085  1.00  0.00     0.124 S 
ATOM     84  O   UNL     1      -9.544   7.071  -7.493  1.00  0.00    -0.237 OA
ATOM     85  O   UNL     1      -8.186   6.645  -5.471  1.00  0.00    -0.237 OA
ATOM     86  O   UNL     1     -10.386   5.579  -5.718  1.00  0.00    -0.744 OA
ENDBRANCH  79  83
ENDBRANCH  52  76
BRANCH  64  87
ATOM     87  C   UNL     1      -9.537  16.253  -0.135  1.00  0.00     0.023 A 
ATOM     88  C   UNL     1      -9.540  17.276  -1.092  1.00  0.00     0.031 A 
ATOM     89  C   UNL     1     -10.041  16.595   1.144  1.00  0.00     0.131 A 
ATOM     90  C   UNL     1     -10.081  18.538  -0.789  1.00  0.00     0.055 A 
ATOM     91  C   UNL     1     -10.480  17.878   1.471  1.00  0.00     0.041 A 
ATOM     92  F   UNL     1     -10.183  15.685   2.119  1.00  0.00    -0.206 F 
ATOM     93  C   UNL     1     -10.516  18.859   0.496  1.00  0.00     0.022 A 
BRANCH  90  94
ATOM     94  S   UNL     1     -10.302  19.726  -2.136  1.00  0.00     0.124 S 
ATOM     95  O   UNL     1      -8.963  19.815  -2.707  1.00  0.00    -0.237 OA
ATOM     96  O   UNL     1     -11.301  19.051  -2.961  1.00  0.00    -0.237 OA
ATOM     97  O   UNL     1     -10.773  20.933  -1.459  1.00  0.00    -0.744 OA
ENDBRANCH  90  94
ENDBRANCH  64  87
ENDBRANCH  38  39
ENDBRANCH  30  33
ENDBRANCH  28  29
ENDBRANCH   1  28
TORSDOF 18
