REMARK SMILES CCn1ccnc1[C@H](F)C(=O)NCCCNC(=O)c1ccc(-c2c3nc(c(-c4cc(S(=O)(=O)[O-])ccc4F)c4ccc([nH]4)c(-c4cc(S(=O)(=O)[O-])ccc4F)c4nc(c(-c5cc(S(=O)(=O)[O-])ccc5F)c5ccc2[nH]5)C=C4)C=C3)cc1
REMARK SMILES IDX 14 1 13 2 12 3 10 4 11 5 8 7 9 8 7 9 3 10 4 11 5 12 6 13
REMARK SMILES IDX 2 14 1 15 15 16 16 17 17 18 18 20 19 21 20 22 81 23 21 24
REMARK SMILES IDX 80 25 22 26 23 27 24 28 74 29 25 30 79 31 73 32 75 33 26 34
REMARK SMILES IDX 78 35 72 36 71 37 27 39 59 40 39 41 58 42 40 43 43 44 57 45
REMARK SMILES IDX 76 46 41 47 42 48 56 50 77 51 44 52 28 53 29 54 37 55 30 56
REMARK SMILES IDX 36 57 38 58 35 59 31 60 32 61 33 62 34 63 60 64 61 65 69 66
REMARK SMILES IDX 62 67 68 68 70 69 67 70 63 71 64 72 65 73 66 74 45 75 46 76
REMARK SMILES IDX 54 77 47 78 53 79 55 80 52 81 48 82 49 83 50 84 51 85
REMARK H PARENT 12 6 16 19 75 38 43 49
REMARK Flexibility Score: inf
ROOT
ATOM      1  C   UNL     1       3.568   5.652  -0.661  1.00  0.00     0.042 C 
ENDROOT
BRANCH   1   2
ATOM      2  C   UNL     1       3.889   4.338  -1.369  1.00  0.00     0.117 C 
BRANCH   2   3
ATOM      3  N   UNL     1       4.441   3.330  -0.476  1.00  0.00    -0.353 N 
ATOM      4  C   UNL     1       3.944   2.102  -0.138  1.00  0.00     0.262 C 
ATOM      5  O   UNL     1       4.525   1.499   0.773  1.00  0.00    -0.271 OA
ATOM      6  H   UNL     1       5.298   3.567  -0.053  1.00  0.00     0.163 HD
BRANCH   4   7
ATOM      7  C   UNL     1       2.720   1.480  -0.819  1.00  0.00     0.321 C 
ATOM      8  F   UNL     1       1.577   2.073  -0.344  1.00  0.00    -0.228 F 
BRANCH   7   9
ATOM      9  C   UNL     1       2.776   1.568  -2.322  1.00  0.00     0.153 A 
ATOM     10  N   UNL     1       3.727   1.025  -3.167  1.00  0.00    -0.332 N 
ATOM     11  C   UNL     1       3.469   1.524  -4.429  1.00  0.00     0.107 A 
ATOM     12  C   UNL     1       2.320   2.256  -4.321  1.00  0.00     0.131 A 
ATOM     13  N   UNL     1       1.883   2.248  -3.034  1.00  0.00    -0.238 NA
BRANCH  10  14
ATOM     14  C   UNL     1       4.730  -0.005  -2.970  1.00  0.00     0.120 C 
ATOM     15  C   UNL     1       5.553  -0.021  -1.701  1.00  0.00     0.027 C 
ENDBRANCH  10  14
ENDBRANCH   7   9
ENDBRANCH   4   7
ENDBRANCH   2   3
ENDBRANCH   1   2
BRANCH   1  16
ATOM     16  C   UNL     1       4.802   6.416  -0.221  1.00  0.00     0.118 C 
BRANCH  16  17
ATOM     17  N   UNL     1       5.585   6.961  -1.335  1.00  0.00    -0.352 N 
ATOM     18  C   UNL     1       6.752   7.717  -1.271  1.00  0.00     0.251 C 
ATOM     19  H   UNL     1       5.244   6.769  -2.239  1.00  0.00     0.163 HD
ATOM     20  O   UNL     1       7.093   8.419  -2.204  1.00  0.00    -0.269 OA
BRANCH  18  21
ATOM     21  C   UNL     1       7.566   7.631  -0.039  1.00  0.00     0.039 A 
ATOM     22  C   UNL     1       8.216   8.731   0.527  1.00  0.00     0.014 A 
ATOM     23  C   UNL     1       7.615   6.389   0.579  1.00  0.00     0.014 A 
ATOM     24  C   UNL     1       8.851   8.568   1.762  1.00  0.00     0.010 A 
ATOM     25  C   UNL     1       8.005   6.300   1.882  1.00  0.00     0.010 A 
ATOM     26  C   UNL     1       8.727   7.343   2.438  1.00  0.00    -0.014 A 
BRANCH  26  27
ATOM     27  C   UNL     1       9.222   7.116   3.791  1.00  0.00     0.031 A 
ATOM     28  C   UNL     1       8.615   8.021   4.795  1.00  0.00     0.074 A 
ATOM     29  C   UNL     1       9.910   5.998   4.126  1.00  0.00     0.049 A 
ATOM     30  N   UNL     1       9.168   9.030   5.379  1.00  0.00    -0.248 NA
ATOM     31  C   UNL     1       7.159   7.939   5.015  1.00  0.00     0.031 C 
ATOM     32  C   UNL     1      10.277   4.871   3.255  1.00  0.00     0.029 A 
ATOM     33  N   UNL     1      10.325   5.562   5.347  1.00  0.00    -0.354 N 
ATOM     34  C   UNL     1       8.213   9.506   6.270  1.00  0.00     0.074 A 
ATOM     35  C   UNL     1       6.957   9.011   5.784  1.00  0.00     0.031 C 
ATOM     36  C   UNL     1      10.645   3.808   4.005  1.00  0.00     0.029 A 
ATOM     37  C   UNL     1      10.703   4.216   5.397  1.00  0.00     0.049 A 
ATOM     38  H   UNL     1      10.356   6.149   6.136  1.00  0.00     0.167 HD
ATOM     39  C   UNL     1       8.580   9.973   7.497  1.00  0.00     0.034 A 
ATOM     40  C   UNL     1      11.031   3.483   6.499  1.00  0.00     0.034 A 
ATOM     41  C   UNL     1      10.016  10.179   7.546  1.00  0.00     0.049 A 
ATOM     42  C   UNL     1      11.404   4.460   7.551  1.00  0.00     0.074 A 
ATOM     43  C   UNL     1      10.916  10.932   6.815  1.00  0.00     0.029 A 
ATOM     44  N   UNL     1      10.772   9.222   8.191  1.00  0.00    -0.354 N 
ATOM     45  N   UNL     1      12.444   5.242   7.458  1.00  0.00    -0.248 NA
ATOM     46  C   UNL     1      10.360   4.930   8.449  1.00  0.00     0.031 C 
ATOM     47  C   UNL     1      12.065  10.098   6.672  1.00  0.00     0.029 A 
ATOM     48  C   UNL     1      11.860   8.927   7.407  1.00  0.00     0.049 A 
ATOM     49  H   UNL     1      10.566   8.818   9.065  1.00  0.00     0.167 HD
ATOM     50  C   UNL     1      11.999   6.480   7.895  1.00  0.00     0.074 A 
ATOM     51  C   UNL     1      10.750   6.200   8.602  1.00  0.00     0.031 C 
ATOM     52  C   UNL     1      12.525   7.634   7.383  1.00  0.00     0.034 A 
BRANCH  39  53
ATOM     53  C   UNL     1       7.756   9.841   8.768  1.00  0.00     0.023 A 
ATOM     54  C   UNL     1       8.352  10.315   9.953  1.00  0.00     0.031 A 
ATOM     55  C   UNL     1       6.594   9.056   8.949  1.00  0.00     0.131 A 
ATOM     56  C   UNL     1       7.896   9.898  11.214  1.00  0.00     0.055 A 
ATOM     57  C   UNL     1       6.104   8.697  10.209  1.00  0.00     0.041 A 
ATOM     58  F   UNL     1       5.902   8.522   7.939  1.00  0.00    -0.206 F 
ATOM     59  C   UNL     1       6.778   9.084  11.352  1.00  0.00     0.022 A 
BRANCH  56  60
ATOM     60  S   UNL     1       8.912  10.289  12.659  1.00  0.00     0.124 S 
ATOM     61  O   UNL     1      10.206   9.749  12.256  1.00  0.00    -0.237 OA
ATOM     62  O   UNL     1       8.807  11.743  12.713  1.00  0.00    -0.237 OA
ATOM     63  O   UNL     1       8.245   9.574  13.744  1.00  0.00    -0.744 OA
ENDBRANCH  56  60
ENDBRANCH  39  53
BRANCH  40  64
ATOM     64  C   UNL     1      10.755   2.042   6.779  1.00  0.00     0.023 A 
ATOM     65  C   UNL     1      11.451   1.282   7.750  1.00  0.00     0.031 A 
ATOM     66  C   UNL     1       9.585   1.455   6.245  1.00  0.00     0.131 A 
ATOM     67  C   UNL     1      10.969   0.006   8.146  1.00  0.00     0.055 A 
ATOM     68  C   UNL     1       9.113   0.201   6.642  1.00  0.00     0.041 A 
ATOM     69  F   UNL     1       8.810   2.126   5.378  1.00  0.00    -0.206 F 
ATOM     70  C   UNL     1       9.797  -0.525   7.603  1.00  0.00     0.022 A 
BRANCH  67  71
ATOM     71  S   UNL     1      11.816  -0.963   9.444  1.00  0.00     0.124 S 
ATOM     72  O   UNL     1      13.094  -1.279   8.817  1.00  0.00    -0.237 OA
ATOM     73  O   UNL     1      11.853  -0.028  10.562  1.00  0.00    -0.237 OA
ATOM     74  O   UNL     1      10.933  -2.115   9.643  1.00  0.00    -0.744 OA
ENDBRANCH  67  71
ENDBRANCH  40  64
BRANCH  52  75
ATOM     75  C   UNL     1      13.808   7.534   6.575  1.00  0.00     0.023 A 
ATOM     76  C   UNL     1      13.976   6.776   5.391  1.00  0.00     0.031 A 
ATOM     77  C   UNL     1      14.883   8.339   6.987  1.00  0.00     0.131 A 
ATOM     78  C   UNL     1      15.193   6.837   4.680  1.00  0.00     0.055 A 
ATOM     79  C   UNL     1      16.075   8.415   6.269  1.00  0.00     0.041 A 
ATOM     80  F   UNL     1      14.779   9.101   8.089  1.00  0.00    -0.206 F 
ATOM     81  C   UNL     1      16.237   7.658   5.116  1.00  0.00     0.022 A 
BRANCH  78  82
ATOM     82  S   UNL     1      15.456   5.827   3.183  1.00  0.00     0.124 S 
ATOM     83  O   UNL     1      15.011   4.497   3.583  1.00  0.00    -0.237 OA
ATOM     84  O   UNL     1      14.628   6.507   2.191  1.00  0.00    -0.237 OA
ATOM     85  O   UNL     1      16.898   5.939   2.947  1.00  0.00    -0.744 OA
ENDBRANCH  78  82
ENDBRANCH  52  75
ENDBRANCH  26  27
ENDBRANCH  18  21
ENDBRANCH  16  17
ENDBRANCH   1  16
TORSDOF 15
