REMARK SMILES CC[C@@](C)(NC(=O)NCCc1ncn[nH]1)C(=O)NCCCNC(=O)c1ccc(-c2c3nc(c(-c4cc(S(=O)(=O)[O-])ccc4F)c4ccc([nH]4)c(-c4cc(S(=O)(=O)[O-])ccc4F)c4nc(c(-c5cc(S(=O)(=O)[O-])ccc5F)c5ccc2[nH]5)C=C4)C=C3)cc1
REMARK SMILES IDX 19 1 18 2 16 3 17 4 3 6 4 7 2 8 1 9 5 10 6 11 7 13 8 14 9 16
REMARK SMILES IDX 10 17 11 18 12 19 15 20 13 21 14 22 20 24 21 25 22 26 23 27
REMARK SMILES IDX 24 29 25 30 26 31 87 32 27 33 86 34 28 35 29 36 30 37 80 38
REMARK SMILES IDX 31 39 85 40 79 41 81 42 32 43 84 44 78 45 77 46 33 48 65 49
REMARK SMILES IDX 45 50 64 51 46 52 49 53 63 54 82 55 47 56 48 57 62 59 83 60
REMARK SMILES IDX 50 61 34 62 35 63 43 64 36 65 42 66 44 67 41 68 37 69 38 70
REMARK SMILES IDX 39 71 40 72 66 73 67 74 75 75 68 76 74 77 76 78 73 79 69 80
REMARK SMILES IDX 70 81 71 82 72 83 51 84 52 85 60 86 53 87 59 88 61 89 58 90
REMARK SMILES IDX 54 91 55 92 56 93 57 94
REMARK H PARENT 18 5 5 12 8 15 15 23 22 28 81 47 49 58
REMARK Flexibility Score: inf
ROOT
ATOM      1  C   UNL     1       1.832  -0.867   5.447  1.00  0.00     0.117 C 
ENDROOT
BRANCH   1   2
ATOM      2  N   UNL     1       2.504  -0.400   4.239  1.00  0.00    -0.354 N 
ATOM      3  C   UNL     1       2.182  -0.407   2.905  1.00  0.00     0.245 C 
ATOM      4  O   UNL     1       2.890   0.308   2.184  1.00  0.00    -0.272 OA
ATOM      5  H   UNL     1       3.380   0.011   4.421  1.00  0.00     0.163 HD
BRANCH   3   6
ATOM      6  C   UNL     1       0.950  -1.161   2.329  1.00  0.00     0.117 C 
ATOM      7  C   UNL     1      -0.299  -0.349   2.765  1.00  0.00     0.045 C 
BRANCH   6   8
ATOM      8  C   UNL     1       0.852  -1.308   0.780  1.00  0.00     0.035 C 
ATOM      9  C   UNL     1       0.949  -0.041  -0.062  1.00  0.00     0.007 C 
ENDBRANCH   6   8
BRANCH   6  10
ATOM     10  N   UNL     1       0.889  -2.508   2.917  1.00  0.00    -0.324 N 
ATOM     11  C   UNL     1       1.705  -3.566   2.983  1.00  0.00     0.315 C 
ATOM     12  H   UNL     1       0.034  -2.672   3.377  1.00  0.00     0.166 HD
ATOM     13  O   UNL     1       1.218  -4.593   3.464  1.00  0.00    -0.249 OA
ATOM     14  N   UNL     1       3.003  -3.589   2.666  1.00  0.00    -0.338 N 
ATOM     15  H   UNL     1       3.460  -4.346   3.099  1.00  0.00     0.165 HD
BRANCH  14  16
ATOM     16  C   UNL     1       3.932  -2.806   1.855  1.00  0.00     0.125 C 
BRANCH  16  17
ATOM     17  C   UNL     1       5.006  -2.026   2.616  1.00  0.00     0.098 C 
BRANCH  17  18
ATOM     18  C   UNL     1       6.091  -2.830   3.233  1.00  0.00     0.125 A 
ATOM     19  N   UNL     1       6.298  -4.129   3.208  1.00  0.00    -0.220 NA
ATOM     20  N   UNL     1       7.072  -2.239   3.985  1.00  0.00    -0.263 N 
ATOM     21  C   UNL     1       7.440  -4.276   3.949  1.00  0.00     0.246 A 
ATOM     22  N   UNL     1       7.941  -3.145   4.448  1.00  0.00    -0.162 NA
ATOM     23  H   UNL     1       7.130  -1.272   4.162  1.00  0.00     0.192 HD
ENDBRANCH  17  18
ENDBRANCH  16  17
ENDBRANCH  14  16
ENDBRANCH   6  10
ENDBRANCH   3   6
ENDBRANCH   1   2
BRANCH   1  24
ATOM     24  C   UNL     1       2.242  -2.212   6.052  1.00  0.00     0.042 C 
BRANCH  24  25
ATOM     25  C   UNL     1       3.720  -2.521   6.254  1.00  0.00     0.118 C 
BRANCH  25  26
ATOM     26  N   UNL     1       4.441  -1.510   7.002  1.00  0.00    -0.352 N 
ATOM     27  C   UNL     1       5.336  -1.645   8.039  1.00  0.00     0.251 C 
ATOM     28  H   UNL     1       4.263  -0.582   6.725  1.00  0.00     0.163 HD
ATOM     29  O   UNL     1       5.755  -0.624   8.578  1.00  0.00    -0.269 OA
BRANCH  27  30
ATOM     30  C   UNL     1       5.766  -2.977   8.536  1.00  0.00     0.039 A 
ATOM     31  C   UNL     1       5.834  -3.175   9.920  1.00  0.00     0.014 A 
ATOM     32  C   UNL     1       6.147  -4.013   7.678  1.00  0.00     0.014 A 
ATOM     33  C   UNL     1       6.223  -4.416  10.436  1.00  0.00     0.010 A 
ATOM     34  C   UNL     1       6.496  -5.268   8.194  1.00  0.00     0.010 A 
ATOM     35  C   UNL     1       6.530  -5.487   9.580  1.00  0.00    -0.014 A 
BRANCH  35  36
ATOM     36  C   UNL     1       6.823  -6.836  10.142  1.00  0.00     0.031 A 
ATOM     37  C   UNL     1       8.194  -7.449  10.040  1.00  0.00     0.074 A 
ATOM     38  C   UNL     1       5.828  -7.525  10.738  1.00  0.00     0.049 A 
ATOM     39  N   UNL     1       8.629  -8.586  10.525  1.00  0.00    -0.248 NA
ATOM     40  C   UNL     1       9.201  -6.697   9.280  1.00  0.00     0.031 C 
ATOM     41  C   UNL     1       4.442  -7.067  10.852  1.00  0.00     0.029 A 
ATOM     42  N   UNL     1       5.824  -8.748  11.363  1.00  0.00    -0.354 N 
ATOM     43  C   UNL     1       9.962  -8.686  10.137  1.00  0.00     0.074 A 
ATOM     44  C   UNL     1      10.242  -7.518   9.326  1.00  0.00     0.031 C 
ATOM     45  C   UNL     1       3.732  -7.979  11.534  1.00  0.00     0.029 A 
ATOM     46  C   UNL     1       4.598  -9.102  11.877  1.00  0.00     0.049 A 
ATOM     47  H   UNL     1       6.623  -9.318  11.436  1.00  0.00     0.167 HD
ATOM     48  C   UNL     1      10.869  -9.649  10.444  1.00  0.00     0.034 A 
ATOM     49  C   UNL     1       4.210 -10.204  12.551  1.00  0.00     0.034 A 
ATOM     50  C   UNL     1      10.571 -10.818  11.242  1.00  0.00     0.049 A 
ATOM     51  C   UNL     1       5.232 -11.264  12.869  1.00  0.00     0.074 A 
ATOM     52  C   UNL     1      11.429 -11.826  11.651  1.00  0.00     0.029 A 
ATOM     53  N   UNL     1       9.316 -11.149  11.740  1.00  0.00    -0.354 N 
ATOM     54  N   UNL     1       6.508 -11.304  12.560  1.00  0.00    -0.248 NA
ATOM     55  C   UNL     1       4.765 -12.417  13.649  1.00  0.00     0.031 C 
ATOM     56  C   UNL     1      10.682 -12.798  12.328  1.00  0.00     0.029 A 
ATOM     57  C   UNL     1       9.372 -12.359  12.422  1.00  0.00     0.049 A 
ATOM     58  H   UNL     1       8.504 -10.604  11.627  1.00  0.00     0.167 HD
ATOM     59  C   UNL     1       7.000 -12.473  13.136  1.00  0.00     0.074 A 
ATOM     60  C   UNL     1       5.890 -13.090  13.831  1.00  0.00     0.031 C 
ATOM     61  C   UNL     1       8.258 -12.986  13.096  1.00  0.00     0.034 A 
BRANCH  48  62
ATOM     62  C   UNL     1      12.269  -9.491   9.891  1.00  0.00     0.023 A 
ATOM     63  C   UNL     1      13.087  -8.402  10.247  1.00  0.00     0.031 A 
ATOM     64  C   UNL     1      12.796 -10.437   8.993  1.00  0.00     0.131 A 
ATOM     65  C   UNL     1      14.352  -8.250   9.658  1.00  0.00     0.055 A 
ATOM     66  C   UNL     1      14.086 -10.322   8.472  1.00  0.00     0.041 A 
ATOM     67  F   UNL     1      12.061 -11.489   8.600  1.00  0.00    -0.206 F 
ATOM     68  C   UNL     1      14.868  -9.216   8.792  1.00  0.00     0.022 A 
BRANCH  65  69
ATOM     69  S   UNL     1      15.259  -6.704   9.935  1.00  0.00     0.124 S 
ATOM     70  O   UNL     1      14.310  -5.710   9.440  1.00  0.00    -0.237 OA
ATOM     71  O   UNL     1      15.475  -6.718  11.377  1.00  0.00    -0.237 OA
ATOM     72  O   UNL     1      16.464  -6.862   9.122  1.00  0.00    -0.744 OA
ENDBRANCH  65  69
ENDBRANCH  48  62
BRANCH  49  73
ATOM     73  C   UNL     1       2.790 -10.363  12.981  1.00  0.00     0.023 A 
ATOM     74  C   UNL     1       2.443 -10.412  14.341  1.00  0.00     0.031 A 
ATOM     75  C   UNL     1       1.762 -10.513  12.033  1.00  0.00     0.131 A 
ATOM     76  C   UNL     1       1.113 -10.655  14.716  1.00  0.00     0.055 A 
ATOM     77  C   UNL     1       0.431 -10.697  12.411  1.00  0.00     0.041 A 
ATOM     78  F   UNL     1       2.038 -10.469  10.720  1.00  0.00    -0.206 F 
ATOM     79  C   UNL     1       0.102 -10.783  13.760  1.00  0.00     0.022 A 
BRANCH  76  80
ATOM     80  S   UNL     1       0.733 -10.888  16.474  1.00  0.00     0.124 S 
ATOM     81  O   UNL     1       1.597 -12.012  16.819  1.00  0.00    -0.237 OA
ATOM     82  O   UNL     1       1.106  -9.595  17.038  1.00  0.00    -0.237 OA
ATOM     83  O   UNL     1      -0.700 -11.177  16.477  1.00  0.00    -0.744 OA
ENDBRANCH  76  80
ENDBRANCH  49  73
BRANCH  61  84
ATOM     84  C   UNL     1       8.497 -14.265  13.867  1.00  0.00     0.023 A 
ATOM     85  C   UNL     1       7.844 -15.466  13.535  1.00  0.00     0.031 A 
ATOM     86  C   UNL     1       9.351 -14.270  14.985  1.00  0.00     0.131 A 
ATOM     87  C   UNL     1       7.988 -16.594  14.357  1.00  0.00     0.055 A 
ATOM     88  C   UNL     1       9.549 -15.417  15.757  1.00  0.00     0.041 A 
ATOM     89  F   UNL     1      10.000 -13.154  15.355  1.00  0.00    -0.206 F 
ATOM     90  C   UNL     1       8.850 -16.582  15.457  1.00  0.00     0.022 A 
BRANCH  87  91
ATOM     91  S   UNL     1       6.928 -18.036  14.053  1.00  0.00     0.124 S 
ATOM     92  O   UNL     1       5.594 -17.448  14.103  1.00  0.00    -0.237 OA
ATOM     93  O   UNL     1       7.380 -18.482  12.739  1.00  0.00    -0.237 OA
ATOM     94  O   UNL     1       7.250 -18.938  15.157  1.00  0.00    -0.744 OA
ENDBRANCH  87  91
ENDBRANCH  61  84
ENDBRANCH  35  36
ENDBRANCH  27  30
ENDBRANCH  25  26
ENDBRANCH  24  25
ENDBRANCH   1  24
TORSDOF 18
