REMARK SMILES Nc1nc2ccccc2nc1N1CCC(C(=O)NCCCNC(=O)c2ccc(-c3c4nc(c(-c5cc(S(=O)(=O)[O-])ccc5F)c5ccc([nH]5)c(-c5cc(S(=O)(=O)[O-])ccc5F)c5nc(c(-c6cc(S(=O)(=O)[O-])ccc6F)c6ccc3[nH]6)C=C5)C=C4)cc2)CC1
REMARK SMILES IDX 20 1 19 2 18 3 16 4 17 5 15 7 12 8 13 9 89 10 14 11 88 12
REMARK SMILES IDX 11 13 2 14 3 15 4 16 10 17 5 18 9 19 6 20 8 21 7 22 1 23
REMARK SMILES IDX 21 26 22 27 23 28 24 30 25 31 26 32 87 33 27 34 86 35 28 36
REMARK SMILES IDX 29 37 30 38 80 39 31 40 85 41 79 42 81 43 32 44 84 45 78 46
REMARK SMILES IDX 77 47 33 49 65 50 45 51 64 52 46 53 49 54 63 55 82 56 47 57
REMARK SMILES IDX 48 58 62 60 83 61 50 62 34 63 35 64 43 65 36 66 42 67 44 68
REMARK SMILES IDX 41 69 37 70 38 71 39 72 40 73 66 74 67 75 75 76 68 77 74 78
REMARK SMILES IDX 76 79 73 80 69 81 70 82 71 83 72 84 51 85 52 86 60 87 53 88
REMARK SMILES IDX 59 89 61 90 58 91 54 92 55 93 56 94 57 95
REMARK H PARENT 18 6 1 24 1 25 22 29 81 48 49 59
REMARK Flexibility Score: inf
ROOT
ATOM      1  C   UNL     1       0.946   2.825  -6.593  1.00  0.00     0.042 C 
ENDROOT
BRANCH   1   2
ATOM      2  C   UNL     1       1.064   1.347  -6.248  1.00  0.00     0.117 C 
BRANCH   2   3
ATOM      3  N   UNL     1       2.325   0.768  -6.693  1.00  0.00    -0.356 N 
ATOM      4  C   UNL     1       3.410   0.330  -5.999  1.00  0.00     0.223 C 
ATOM      5  O   UNL     1       4.357  -0.126  -6.644  1.00  0.00    -0.275 OA
ATOM      6  H   UNL     1       2.407   0.678  -7.670  1.00  0.00     0.163 HD
BRANCH   4   7
ATOM      7  C   UNL     1       3.466   0.363  -4.479  1.00  0.00     0.082 C 
ATOM      8  N   UNL     1       2.201   0.942  -1.996  1.00  0.00    -0.353 N 
ATOM      9  C   UNL     1       3.247   1.848  -2.430  1.00  0.00     0.119 C 
ATOM     10  C   UNL     1       2.309  -0.461  -2.360  1.00  0.00     0.119 C 
ATOM     11  C   UNL     1       3.413   1.797  -3.938  1.00  0.00     0.035 C 
ATOM     12  C   UNL     1       2.447  -0.610  -3.870  1.00  0.00     0.035 C 
BRANCH   8  13
ATOM     13  C   UNL     1       0.978   1.456  -1.581  1.00  0.00     0.172 A 
ATOM     14  C   UNL     1       0.344   0.959  -0.410  1.00  0.00     0.167 A 
ATOM     15  N   UNL     1      -0.821   1.446   0.055  1.00  0.00    -0.226 NA
ATOM     16  C   UNL     1      -1.353   2.472  -0.628  1.00  0.00     0.091 A 
ATOM     17  N   UNL     1       0.431   2.491  -2.260  1.00  0.00    -0.225 NA
ATOM     18  C   UNL     1      -2.536   3.037  -0.167  1.00  0.00     0.031 A 
ATOM     19  C   UNL     1      -0.733   2.996  -1.790  1.00  0.00     0.091 A 
ATOM     20  C   UNL     1      -3.137   4.106  -0.829  1.00  0.00     0.002 A 
ATOM     21  C   UNL     1      -1.351   4.059  -2.445  1.00  0.00     0.031 A 
ATOM     22  C   UNL     1      -2.545   4.616  -1.976  1.00  0.00     0.002 A 
BRANCH  14  23
ATOM     23  N   UNL     1       0.911  -0.059   0.356  1.00  0.00    -0.381 N 
ATOM     24  H   UNL     1       0.449  -0.384   1.163  1.00  0.00     0.158 HD
ATOM     25  H   UNL     1       1.772  -0.454   0.089  1.00  0.00     0.158 HD
ENDBRANCH  14  23
ENDBRANCH   8  13
ENDBRANCH   4   7
ENDBRANCH   2   3
ENDBRANCH   1   2
BRANCH   1  26
ATOM     26  C   UNL     1       0.940   3.110  -8.087  1.00  0.00     0.118 C 
BRANCH  26  27
ATOM     27  N   UNL     1      -0.268   2.636  -8.751  1.00  0.00    -0.352 N 
ATOM     28  C   UNL     1      -1.286   3.344  -9.348  1.00  0.00     0.251 C 
ATOM     29  H   UNL     1      -0.371   1.658  -8.777  1.00  0.00     0.163 HD
ATOM     30  O   UNL     1      -2.304   2.754  -9.705  1.00  0.00    -0.269 OA
BRANCH  28  31
ATOM     31  C   UNL     1      -1.175   4.809  -9.517  1.00  0.00     0.039 A 
ATOM     32  C   UNL     1       0.018   5.390  -9.947  1.00  0.00     0.014 A 
ATOM     33  C   UNL     1      -2.274   5.619  -9.216  1.00  0.00     0.014 A 
ATOM     34  C   UNL     1       0.181   6.768  -9.869  1.00  0.00     0.010 A 
ATOM     35  C   UNL     1      -2.140   7.011  -9.243  1.00  0.00     0.010 A 
ATOM     36  C   UNL     1      -0.893   7.597  -9.508  1.00  0.00    -0.014 A 
BRANCH  36  37
ATOM     37  C   UNL     1      -0.680   9.067  -9.409  1.00  0.00     0.031 A 
ATOM     38  C   UNL     1      -0.838   9.784  -8.094  1.00  0.00     0.074 A 
ATOM     39  C   UNL     1      -0.277   9.746 -10.501  1.00  0.00     0.049 A 
ATOM     40  N   UNL     1      -0.651  11.051  -7.821  1.00  0.00    -0.248 NA
ATOM     41  C   UNL     1      -1.263   8.983  -6.935  1.00  0.00     0.031 C 
ATOM     42  C   UNL     1      -0.084   9.155 -11.826  1.00  0.00     0.029 A 
ATOM     43  N   UNL     1       0.072  11.063 -10.671  1.00  0.00    -0.354 N 
ATOM     44  C   UNL     1      -0.954  11.201  -6.472  1.00  0.00     0.074 A 
ATOM     45  C   UNL     1      -1.371   9.905  -5.988  1.00  0.00     0.031 C 
ATOM     46  C   UNL     1       0.410  10.084 -12.654  1.00  0.00     0.029 A 
ATOM     47  C   UNL     1       0.498  11.359 -11.946  1.00  0.00     0.049 A 
ATOM     48  H   UNL     1       0.023  11.731  -9.950  1.00  0.00     0.167 HD
ATOM     49  C   UNL     1      -0.873  12.316  -5.705  1.00  0.00     0.034 A 
ATOM     50  C   UNL     1       0.905  12.523 -12.493  1.00  0.00     0.034 A 
ATOM     51  C   UNL     1      -0.429  13.596  -6.194  1.00  0.00     0.049 A 
ATOM     52  C   UNL     1       0.963  13.752 -11.625  1.00  0.00     0.074 A 
ATOM     53  C   UNL     1      -0.289  14.777  -5.487  1.00  0.00     0.029 A 
ATOM     54  N   UNL     1      -0.045  13.866  -7.500  1.00  0.00    -0.354 N 
ATOM     55  N   UNL     1       0.706  13.866 -10.343  1.00  0.00    -0.248 NA
ATOM     56  C   UNL     1       1.361  15.010 -12.271  1.00  0.00     0.031 C 
ATOM     57  C   UNL     1       0.127  15.771  -6.373  1.00  0.00     0.029 A 
ATOM     58  C   UNL     1       0.309  15.200  -7.623  1.00  0.00     0.049 A 
ATOM     59  H   UNL     1      -0.027  13.207  -8.231  1.00  0.00     0.167 HD
ATOM     60  C   UNL     1       0.921  15.204 -10.027  1.00  0.00     0.074 A 
ATOM     61  C   UNL     1       1.361  15.852 -11.245  1.00  0.00     0.031 C 
ATOM     62  C   UNL     1       0.756  15.837  -8.838  1.00  0.00     0.034 A 
BRANCH  49  63
ATOM     63  C   UNL     1      -1.256  12.221  -4.249  1.00  0.00     0.023 A 
ATOM     64  C   UNL     1      -2.356  12.950  -3.760  1.00  0.00     0.031 A 
ATOM     65  C   UNL     1      -0.463  11.514  -3.327  1.00  0.00     0.131 A 
ATOM     66  C   UNL     1      -2.615  12.981  -2.383  1.00  0.00     0.055 A 
ATOM     67  C   UNL     1      -0.747  11.519  -1.960  1.00  0.00     0.041 A 
ATOM     68  F   UNL     1       0.596  10.801  -3.744  1.00  0.00    -0.206 F 
ATOM     69  C   UNL     1      -1.819  12.265  -1.482  1.00  0.00     0.022 A 
BRANCH  66  70
ATOM     70  S   UNL     1      -3.955  13.995  -1.701  1.00  0.00     0.124 S 
ATOM     71  O   UNL     1      -4.779  12.989  -1.034  1.00  0.00    -0.237 OA
ATOM     72  O   UNL     1      -3.232  14.899  -0.811  1.00  0.00    -0.237 OA
ATOM     73  O   UNL     1      -4.560  14.613  -2.875  1.00  0.00    -0.744 OA
ENDBRANCH  66  70
ENDBRANCH  49  63
BRANCH  50  74
ATOM     74  C   UNL     1       1.327  12.542 -13.924  1.00  0.00     0.023 A 
ATOM     75  C   UNL     1       0.428  12.184 -14.947  1.00  0.00     0.031 A 
ATOM     76  C   UNL     1       2.661  12.798 -14.278  1.00  0.00     0.131 A 
ATOM     77  C   UNL     1       0.894  12.011 -16.256  1.00  0.00     0.055 A 
ATOM     78  C   UNL     1       3.105  12.699 -15.599  1.00  0.00     0.041 A 
ATOM     79  F   UNL     1       3.558  13.133 -13.338  1.00  0.00    -0.206 F 
ATOM     80  C   UNL     1       2.223  12.282 -16.592  1.00  0.00     0.022 A 
BRANCH  77  81
ATOM     81  S   UNL     1      -0.172  11.280 -17.530  1.00  0.00     0.124 S 
ATOM     82  O   UNL     1      -0.255  12.357 -18.511  1.00  0.00    -0.237 OA
ATOM     83  O   UNL     1       0.607  10.112 -17.937  1.00  0.00    -0.237 OA
ATOM     84  O   UNL     1      -1.407  10.979 -16.814  1.00  0.00    -0.744 OA
ENDBRANCH  77  81
ENDBRANCH  50  74
BRANCH  62  85
ATOM     85  C   UNL     1       1.041  17.317  -8.766  1.00  0.00     0.023 A 
ATOM     86  C   UNL     1       2.077  17.798  -7.942  1.00  0.00     0.031 A 
ATOM     87  C   UNL     1       0.195  18.252  -9.386  1.00  0.00     0.131 A 
ATOM     88  C   UNL     1       2.213  19.175  -7.727  1.00  0.00     0.055 A 
ATOM     89  C   UNL     1       0.363  19.625  -9.205  1.00  0.00     0.041 A 
ATOM     90  F   UNL     1      -0.812  17.842 -10.174  1.00  0.00    -0.206 F 
ATOM     91  C   UNL     1       1.367  20.091  -8.360  1.00  0.00     0.022 A 
BRANCH  88  92
ATOM     92  S   UNL     1       3.433  19.823  -6.551  1.00  0.00     0.124 S 
ATOM     93  O   UNL     1       4.273  20.651  -7.414  1.00  0.00    -0.237 OA
ATOM     94  O   UNL     1       2.593  20.557  -5.609  1.00  0.00    -0.237 OA
ATOM     95  O   UNL     1       4.079  18.628  -6.018  1.00  0.00    -0.744 OA
ENDBRANCH  88  92
ENDBRANCH  62  85
ENDBRANCH  36  37
ENDBRANCH  28  31
ENDBRANCH  26  27
ENDBRANCH   1  26
TORSDOF 15
