REMARK SMILES O=C(NCCCNC(=O)c1cc(NC(=O)c2cccs2)ccc1N1CCC[C@H](C[NH+]2CCCC2)C1)c1ccc(-c2c3nc(c(-c4cc(S(=O)(=O)[O-])ccc4F)c4ccc([nH]4)c(-c4cc(S(=O)(=O)[O-])ccc4F)c4nc(c(-c5cc(S(=O)(=O)[O-])ccc5F)c5ccc2[nH]5)C=C4)C=C3)cc1
REMARK SMILES IDX 5 1 4 2 3 3 1 4 2 5 36 7 37 8 98 9 38 10 97 11 39 12 40 13
REMARK SMILES IDX 41 14 91 15 42 16 96 17 90 18 92 19 43 20 95 21 89 22 88 23
REMARK SMILES IDX 44 25 76 26 56 27 75 28 57 29 60 30 74 31 93 32 58 33 59 34
REMARK SMILES IDX 73 36 94 37 61 38 45 39 46 40 54 41 47 42 53 43 55 44 52 45
REMARK SMILES IDX 48 46 49 47 50 48 51 49 77 50 78 51 86 52 79 53 85 54 87 55
REMARK SMILES IDX 84 56 80 57 81 58 82 59 83 60 62 61 63 62 71 63 64 64 70 65
REMARK SMILES IDX 72 66 69 67 65 68 66 69 67 70 68 71 6 72 7 73 8 74 9 76
REMARK SMILES IDX 10 77 11 78 23 79 12 80 22 81 21 82 24 83 25 84 35 85 26 86
REMARK SMILES IDX 28 87 27 88 29 89 30 90 31 91 34 92 32 94 33 95 13 96 14 97
REMARK SMILES IDX 15 99 16 100 17 101 20 102 18 103 19 104
REMARK H PARENT 3 6 92 24 60 35 7 75 30 93 13 98
REMARK Flexibility Score: inf
ROOT
ATOM      1  C   UNL     1       5.572  -0.368   1.869  1.00  0.00     0.042 C 
ENDROOT
BRANCH   1   2
ATOM      2  C   UNL     1       4.843  -0.958   0.669  1.00  0.00     0.118 C 
BRANCH   2   3
ATOM      3  N   UNL     1       3.389  -0.849   0.739  1.00  0.00    -0.352 N 
ATOM      4  O   UNL     1       1.317  -0.078   0.336  1.00  0.00    -0.269 OA
ATOM      5  C   UNL     1       2.498  -0.088   0.014  1.00  0.00     0.251 C 
ATOM      6  H   UNL     1       2.972  -1.419   1.425  1.00  0.00     0.163 HD
BRANCH   5   7
ATOM      7  C   UNL     1       2.966   0.741  -1.121  1.00  0.00     0.039 A 
ATOM      8  C   UNL     1       3.919   0.262  -2.018  1.00  0.00     0.014 A 
ATOM      9  C   UNL     1       2.440   2.025  -1.288  1.00  0.00     0.014 A 
ATOM     10  C   UNL     1       4.501   1.125  -2.938  1.00  0.00     0.010 A 
ATOM     11  C   UNL     1       2.941   2.855  -2.296  1.00  0.00     0.010 A 
ATOM     12  C   UNL     1       4.012   2.429  -3.097  1.00  0.00    -0.014 A 
BRANCH  12  13
ATOM     13  C   UNL     1       4.611   3.321  -4.124  1.00  0.00     0.031 A 
ATOM     14  C   UNL     1       5.260   4.619  -3.731  1.00  0.00     0.074 A 
ATOM     15  C   UNL     1       4.569   2.950  -5.419  1.00  0.00     0.049 A 
ATOM     16  N   UNL     1       5.753   5.563  -4.493  1.00  0.00    -0.248 NA
ATOM     17  C   UNL     1       5.353   4.900  -2.292  1.00  0.00     0.031 C 
ATOM     18  C   UNL     1       3.973   1.708  -5.918  1.00  0.00     0.029 A 
ATOM     19  N   UNL     1       5.030   3.574  -6.549  1.00  0.00    -0.354 N 
ATOM     20  C   UNL     1       6.185   6.565  -3.629  1.00  0.00     0.074 A 
ATOM     21  C   UNL     1       5.865   6.122  -2.288  1.00  0.00     0.031 C 
ATOM     22  C   UNL     1       4.122   1.652  -7.248  1.00  0.00     0.029 A 
ATOM     23  C   UNL     1       4.743   2.889  -7.705  1.00  0.00     0.049 A 
ATOM     24  H   UNL     1       5.518   4.429  -6.534  1.00  0.00     0.167 HD
ATOM     25  C   UNL     1       6.795   7.740  -3.932  1.00  0.00     0.034 A 
ATOM     26  C   UNL     1       4.910   3.232  -8.996  1.00  0.00     0.034 A 
ATOM     27  C   UNL     1       7.108   8.153  -5.281  1.00  0.00     0.049 A 
ATOM     28  C   UNL     1       5.538   4.558  -9.316  1.00  0.00     0.074 A 
ATOM     29  C   UNL     1       7.759   9.298  -5.705  1.00  0.00     0.029 A 
ATOM     30  N   UNL     1       6.779   7.439  -6.428  1.00  0.00    -0.354 N 
ATOM     31  N   UNL     1       5.946   5.494  -8.491  1.00  0.00    -0.248 NA
ATOM     32  C   UNL     1       5.730   4.875 -10.736  1.00  0.00     0.031 C 
ATOM     33  C   UNL     1       7.760   9.312  -7.105  1.00  0.00     0.029 A 
ATOM     34  C   UNL     1       7.181   8.137  -7.558  1.00  0.00     0.049 A 
ATOM     35  H   UNL     1       6.327   6.565  -6.438  1.00  0.00     0.167 HD
ATOM     36  C   UNL     1       6.461   6.506  -9.292  1.00  0.00     0.074 A 
ATOM     37  C   UNL     1       6.315   6.063 -10.665  1.00  0.00     0.031 C 
ATOM     38  C   UNL     1       7.013   7.689  -8.922  1.00  0.00     0.034 A 
BRANCH  25  39
ATOM     39  C   UNL     1       7.100   8.679  -2.786  1.00  0.00     0.023 A 
ATOM     40  C   UNL     1       7.968   8.319  -1.740  1.00  0.00     0.031 A 
ATOM     41  C   UNL     1       6.469   9.934  -2.710  1.00  0.00     0.131 A 
ATOM     42  C   UNL     1       8.105   9.157  -0.621  1.00  0.00     0.055 A 
ATOM     43  C   UNL     1       6.681  10.803  -1.637  1.00  0.00     0.041 A 
ATOM     44  F   UNL     1       5.615  10.329  -3.667  1.00  0.00    -0.206 F 
ATOM     45  C   UNL     1       7.486  10.408  -0.574  1.00  0.00     0.022 A 
BRANCH  42  46
ATOM     46  S   UNL     1       8.951   8.508   0.848  1.00  0.00     0.124 S 
ATOM     47  O   UNL     1       8.215   7.268   1.091  1.00  0.00    -0.237 OA
ATOM     48  O   UNL     1      10.322   8.353   0.378  1.00  0.00    -0.237 OA
ATOM     49  O   UNL     1       8.745   9.550   1.851  1.00  0.00    -0.744 OA
ENDBRANCH  42  46
ENDBRANCH  25  39
BRANCH  26  50
ATOM     50  C   UNL     1       4.408   2.323 -10.061  1.00  0.00     0.023 A 
ATOM     51  C   UNL     1       5.286   1.628 -10.904  1.00  0.00     0.031 A 
ATOM     52  C   UNL     1       3.025   2.101 -10.212  1.00  0.00     0.131 A 
ATOM     53  C   UNL     1       4.770   0.750 -11.870  1.00  0.00     0.055 A 
ATOM     54  C   UNL     1       2.521   1.195 -11.144  1.00  0.00     0.041 A 
ATOM     55  F   UNL     1       2.147   2.733  -9.417  1.00  0.00    -0.206 F 
ATOM     56  C   UNL     1       3.396   0.516 -11.985  1.00  0.00     0.022 A 
BRANCH  53  57
ATOM     57  S   UNL     1       5.924  -0.073 -13.001  1.00  0.00     0.124 S 
ATOM     58  O   UNL     1       6.530   1.063 -13.686  1.00  0.00    -0.237 OA
ATOM     59  O   UNL     1       6.787  -0.802 -12.077  1.00  0.00    -0.237 OA
ATOM     60  O   UNL     1       5.054  -0.909 -13.826  1.00  0.00    -0.744 OA
ENDBRANCH  53  57
ENDBRANCH  26  50
BRANCH  38  61
ATOM     61  C   UNL     1       7.546   8.568 -10.024  1.00  0.00     0.023 A 
ATOM     62  C   UNL     1       6.693   9.245 -10.911  1.00  0.00     0.031 A 
ATOM     63  C   UNL     1       8.934   8.738 -10.173  1.00  0.00     0.131 A 
ATOM     64  C   UNL     1       7.239  10.037 -11.932  1.00  0.00     0.055 A 
ATOM     65  C   UNL     1       9.470   9.565 -11.160  1.00  0.00     0.041 A 
ATOM     66  F   UNL     1       9.791   8.109  -9.352  1.00  0.00    -0.206 F 
ATOM     67  C   UNL     1       8.621  10.214 -12.052  1.00  0.00     0.022 A 
BRANCH  64  68
ATOM     68  S   UNL     1       6.122  10.799 -13.141  1.00  0.00     0.124 S 
ATOM     69  O   UNL     1       5.524   9.629 -13.778  1.00  0.00    -0.237 OA
ATOM     70  O   UNL     1       5.233  11.589 -12.295  1.00  0.00    -0.237 OA
ATOM     71  O   UNL     1       7.018  11.578 -13.993  1.00  0.00    -0.744 OA
ENDBRANCH  64  68
ENDBRANCH  38  61
ENDBRANCH  12  13
ENDBRANCH   5   7
ENDBRANCH   2   3
ENDBRANCH   1   2
BRANCH   1  72
ATOM     72  C   UNL     1       5.187  -0.984   3.200  1.00  0.00     0.118 C 
BRANCH  72  73
ATOM     73  N   UNL     1       5.372  -2.418   3.287  1.00  0.00    -0.352 N 
ATOM     74  C   UNL     1       5.511  -3.183   4.420  1.00  0.00     0.253 C 
ATOM     75  H   UNL     1       5.402  -2.903   2.431  1.00  0.00     0.163 HD
ATOM     76  O   UNL     1       5.496  -4.408   4.324  1.00  0.00    -0.269 OA
BRANCH  74  77
ATOM     77  C   UNL     1       5.790  -2.553   5.735  1.00  0.00     0.065 A 
ATOM     78  C   UNL     1       7.019  -2.960   6.286  1.00  0.00     0.042 A 
ATOM     79  C   UNL     1       4.965  -1.627   6.402  1.00  0.00     0.050 A 
ATOM     80  C   UNL     1       7.535  -2.376   7.435  1.00  0.00     0.042 A 
ATOM     81  C   UNL     1       5.490  -1.074   7.585  1.00  0.00     0.029 A 
ATOM     82  C   UNL     1       6.749  -1.433   8.091  1.00  0.00     0.028 A 
BRANCH  79  83
ATOM     83  N   UNL     1       3.663  -1.296   6.039  1.00  0.00    -0.370 N 
ATOM     84  C   UNL     1       3.290   0.117   5.876  1.00  0.00     0.116 C 
ATOM     85  C   UNL     1       2.800  -2.326   5.455  1.00  0.00     0.126 C 
ATOM     86  C   UNL     1       1.811   0.345   6.173  1.00  0.00     0.022 C 
ATOM     87  C   UNL     1       1.348  -2.134   5.912  1.00  0.00     0.064 C 
ATOM     88  C   UNL     1       0.924  -0.712   5.520  1.00  0.00     0.013 C 
BRANCH  87  89
ATOM     89  C   UNL     1       1.238  -2.493   7.418  1.00  0.00     0.267 C 
BRANCH  89  90
ATOM     90  N   UNL     1      -0.079  -2.686   8.033  1.00  0.00    -0.335 N 
ATOM     91  C   UNL     1      -0.914  -3.698   7.392  1.00  0.00     0.262 C 
ATOM     92  C   UNL     1      -0.887  -1.483   8.209  1.00  0.00     0.262 C 
ATOM     93  H   UNL     1       0.205  -3.014   8.956  1.00  0.00     0.348 HD
ATOM     94  C   UNL     1      -1.910  -2.925   6.553  1.00  0.00     0.067 C 
ATOM     95  C   UNL     1      -2.126  -1.643   7.336  1.00  0.00     0.067 C 
ENDBRANCH  89  90
ENDBRANCH  87  89
ENDBRANCH  79  83
BRANCH  80  96
ATOM     96  N   UNL     1       8.781  -2.703   8.005  1.00  0.00    -0.321 N 
ATOM     97  C   UNL     1       9.860  -3.429   7.527  1.00  0.00     0.265 C 
ATOM     98  H   UNL     1       8.909  -2.349   8.914  1.00  0.00     0.170 HD
ATOM     99  O   UNL     1      10.717  -3.766   8.347  1.00  0.00    -0.268 OA
BRANCH  97 100
ATOM    100  C   UNL     1       9.974  -3.703   6.110  1.00  0.00     0.092 A 
ATOM    101  C   UNL     1       9.935  -2.820   5.045  1.00  0.00     0.025 A 
ATOM    102  S   UNL     1      10.169  -5.320   5.580  1.00  0.00    -0.139 S 
ATOM    103  C   UNL     1       9.912  -3.495   3.789  1.00  0.00     0.012 A 
ATOM    104  C   UNL     1      10.003  -4.861   3.938  1.00  0.00     0.065 A 
ENDBRANCH  97 100
ENDBRANCH  80  96
ENDBRANCH  74  77
ENDBRANCH  72  73
ENDBRANCH   1  72
TORSDOF 18
