REMARK SMILES CN1C(=O)/C(=C\c2ccc(-c3ccccc3C(=O)NCCCNC(=O)c3ccc(-c4c5nc(c(-c6cc(S(=O)(=O)[O-])ccc6F)c6ccc([nH]6)c(-c6cc(S(=O)(=O)[O-])ccc6F)c6nc(c(-c7cc(S(=O)(=O)[O-])ccc7F)c7ccc4[nH]7)C=C6)C=C5)cc3)o2)C(=O)[NH+]=C1S
REMARK SMILES IDX 21 1 20 2 19 3 17 4 18 5 16 7 11 8 12 9 13 10 15 11 14 12
REMARK SMILES IDX 10 13 7 14 8 15 89 16 9 17 6 18 1 19 2 20 3 21 93 22 4 23
REMARK SMILES IDX 5 24 92 25 90 26 91 28 94 29 22 31 23 32 24 33 25 35 26 36
REMARK SMILES IDX 27 37 88 38 28 39 87 40 29 41 30 42 31 43 81 44 32 45 86 46
REMARK SMILES IDX 80 47 82 48 33 49 85 50 79 51 78 52 34 54 66 55 46 56 65 57
REMARK SMILES IDX 47 58 50 59 64 60 83 61 48 62 49 63 63 65 84 66 51 67 35 68
REMARK SMILES IDX 36 69 44 70 37 71 43 72 45 73 42 74 38 75 39 76 40 77 41 78
REMARK SMILES IDX 67 79 68 80 76 81 69 82 75 83 77 84 74 85 70 86 71 87 72 88
REMARK SMILES IDX 73 89 52 90 53 91 61 92 54 93 60 94 62 95 59 96 55 97 56 98
REMARK SMILES IDX 57 99 58 100
REMARK H PARENT 19 6 92 27 94 30 23 34 82 53 50 64
REMARK Flexibility Score: inf
ROOT
ATOM      1  C   UNL     1       2.375  -5.853   3.856  1.00  0.00     0.042 C 
ENDROOT
BRANCH   1   2
ATOM      2  C   UNL     1       2.848  -6.572   2.604  1.00  0.00     0.118 C 
BRANCH   2   3
ATOM      3  N   UNL     1       2.517  -7.973   2.611  1.00  0.00    -0.352 N 
ATOM      4  C   UNL     1       1.586  -8.820   2.103  1.00  0.00     0.252 C 
ATOM      5  O   UNL     1       1.904 -10.003   2.311  1.00  0.00    -0.269 OA
ATOM      6  H   UNL     1       3.170  -8.472   3.153  1.00  0.00     0.163 HD
BRANCH   4   7
ATOM      7  C   UNL     1       0.287  -8.565   1.381  1.00  0.00     0.050 A 
ATOM      8  C   UNL     1      -0.395  -7.390   1.016  1.00  0.00     0.030 A 
ATOM      9  C   UNL     1      -1.672  -7.492   0.391  1.00  0.00     0.013 A 
ATOM     10  C   UNL     1      -2.270  -8.713   0.093  1.00  0.00     0.001 A 
ATOM     11  C   UNL     1      -0.361  -9.794   1.049  1.00  0.00     0.014 A 
ATOM     12  C   UNL     1      -1.603  -9.874   0.415  1.00  0.00     0.001 A 
BRANCH   8  13
ATOM     13  C   UNL     1       0.069  -6.022   1.102  1.00  0.00     0.135 A 
ATOM     14  C   UNL     1      -0.096  -3.934   1.882  1.00  0.00     0.128 A 
ATOM     15  C   UNL     1       0.796  -3.940   0.813  1.00  0.00     0.051 A 
ATOM     16  O   UNL     1      -0.506  -5.245   2.062  1.00  0.00    -0.457 OA
ATOM     17  C   UNL     1       0.818  -5.238   0.257  1.00  0.00     0.051 A 
BRANCH  14  18
ATOM     18  C   UNL     1      -0.522  -2.885   2.750  1.00  0.00     0.071 C 
ATOM     19  C   UNL     1       0.916   0.715  -0.082  1.00  0.00     0.301 C 
ATOM     20  N   UNL     1       0.272   0.251   1.142  1.00  0.00    -0.189 N 
ATOM     21  C   UNL     1      -0.302  -0.998   1.114  1.00  0.00     0.349 C 
ATOM     22  C   UNL     1       0.108   1.034   2.258  1.00  0.00     0.318 C 
ATOM     23  O   UNL     1      -0.618  -1.573   0.076  1.00  0.00    -0.240 OA
ATOM     24  C   UNL     1      -0.567  -1.573   2.444  1.00  0.00     0.157 C 
ATOM     25  N   UNL     1      -0.440   0.658   3.358  1.00  0.00    -0.200 N 
ATOM     26  C   UNL     1      -0.871  -0.625   3.538  1.00  0.00     0.347 C 
ATOM     27  H   UNL     1      -0.551   1.310   4.087  1.00  0.00     0.316 HD
ATOM     28  O   UNL     1      -1.436  -0.995   4.559  1.00  0.00    -0.241 OA
BRANCH  22  29
ATOM     29  S   UNL     1       0.656   2.692   2.195  1.00  0.00    -0.055 SA
ATOM     30  H   UNL     1       1.210   2.941   0.978  1.00  0.00     0.116 HD
ENDBRANCH  22  29
ENDBRANCH  14  18
ENDBRANCH   8  13
ENDBRANCH   4   7
ENDBRANCH   2   3
ENDBRANCH   1   2
BRANCH   1  31
ATOM     31  C   UNL     1       3.450  -4.960   4.465  1.00  0.00     0.118 C 
BRANCH  31  32
ATOM     32  N   UNL     1       3.986  -3.968   3.538  1.00  0.00    -0.352 N 
ATOM     33  C   UNL     1       4.170  -2.612   3.670  1.00  0.00     0.251 C 
ATOM     34  H   UNL     1       4.263  -4.333   2.667  1.00  0.00     0.163 HD
ATOM     35  O   UNL     1       4.528  -1.970   2.684  1.00  0.00    -0.269 OA
BRANCH  33  36
ATOM     36  C   UNL     1       3.881  -1.913   4.945  1.00  0.00     0.039 A 
ATOM     37  C   UNL     1       3.357  -0.616   4.891  1.00  0.00     0.014 A 
ATOM     38  C   UNL     1       4.095  -2.513   6.184  1.00  0.00     0.014 A 
ATOM     39  C   UNL     1       2.945   0.021   6.064  1.00  0.00     0.010 A 
ATOM     40  C   UNL     1       3.578  -1.929   7.336  1.00  0.00     0.010 A 
ATOM     41  C   UNL     1       2.986  -0.659   7.291  1.00  0.00    -0.014 A 
BRANCH  41  42
ATOM     42  C   UNL     1       2.404  -0.084   8.535  1.00  0.00     0.031 A 
ATOM     43  C   UNL     1       3.260   0.070   9.764  1.00  0.00     0.074 A 
ATOM     44  C   UNL     1       1.084   0.189   8.591  1.00  0.00     0.049 A 
ATOM     45  N   UNL     1       2.907   0.366  10.989  1.00  0.00    -0.248 NA
ATOM     46  C   UNL     1       4.698  -0.189   9.601  1.00  0.00     0.031 C 
ATOM     47  C   UNL     1       0.142   0.032   7.482  1.00  0.00     0.029 A 
ATOM     48  N   UNL     1       0.298   0.633   9.626  1.00  0.00    -0.354 N 
ATOM     49  C   UNL     1       4.072   0.292  11.747  1.00  0.00     0.074 A 
ATOM     50  C   UNL     1       5.126  -0.137  10.853  1.00  0.00     0.031 C 
ATOM     51  C   UNL     1      -1.085   0.394   7.886  1.00  0.00     0.029 A 
ATOM     52  C   UNL     1      -1.035   0.748   9.298  1.00  0.00     0.049 A 
ATOM     53  H   UNL     1       0.654   0.849  10.518  1.00  0.00     0.167 HD
ATOM     54  C   UNL     1       4.248   0.580  13.060  1.00  0.00     0.034 A 
ATOM     55  C   UNL     1      -2.102   1.071  10.056  1.00  0.00     0.034 A 
ATOM     56  C   UNL     1       3.188   1.041  13.924  1.00  0.00     0.049 A 
ATOM     57  C   UNL     1      -1.885   1.371  11.516  1.00  0.00     0.074 A 
ATOM     58  C   UNL     1       3.267   1.440  15.246  1.00  0.00     0.029 A 
ATOM     59  N   UNL     1       1.855   1.162  13.551  1.00  0.00    -0.354 N 
ATOM     60  N   UNL     1      -0.768   1.345  12.207  1.00  0.00    -0.248 NA
ATOM     61  C   UNL     1      -3.069   1.745  12.300  1.00  0.00     0.031 C 
ATOM     62  C   UNL     1       1.974   1.739  15.691  1.00  0.00     0.029 A 
ATOM     63  C   UNL     1       1.097   1.597  14.627  1.00  0.00     0.049 A 
ATOM     64  H   UNL     1       1.500   0.967  12.653  1.00  0.00     0.167 HD
ATOM     65  C   UNL     1      -1.113   1.723  13.500  1.00  0.00     0.074 A 
ATOM     66  C   UNL     1      -2.538   1.986  13.489  1.00  0.00     0.031 C 
ATOM     67  C   UNL     1      -0.325   1.844  14.598  1.00  0.00     0.034 A 
BRANCH  54  68
ATOM     68  C   UNL     1       5.630   0.384  13.637  1.00  0.00     0.023 A 
ATOM     69  C   UNL     1       6.737   1.111  13.165  1.00  0.00     0.031 A 
ATOM     70  C   UNL     1       5.853  -0.566  14.650  1.00  0.00     0.131 A 
ATOM     71  C   UNL     1       8.024   0.818  13.640  1.00  0.00     0.055 A 
ATOM     72  C   UNL     1       7.125  -0.791  15.182  1.00  0.00     0.041 A 
ATOM     73  F   UNL     1       4.841  -1.306  15.129  1.00  0.00    -0.206 F 
ATOM     74  C   UNL     1       8.223  -0.110  14.664  1.00  0.00     0.022 A 
BRANCH  71  75
ATOM     75  S   UNL     1       9.447   1.555  12.790  1.00  0.00     0.124 S 
ATOM     76  O   UNL     1       9.271   1.050  11.430  1.00  0.00    -0.237 OA
ATOM     77  O   UNL     1       9.220   2.983  12.975  1.00  0.00    -0.237 OA
ATOM     78  O   UNL     1      10.597   1.006  13.506  1.00  0.00    -0.744 OA
ENDBRANCH  71  75
ENDBRANCH  54  68
BRANCH  55  79
ATOM     79  C   UNL     1      -3.470   1.105   9.463  1.00  0.00     0.023 A 
ATOM     80  C   UNL     1      -4.192   2.306   9.382  1.00  0.00     0.031 A 
ATOM     81  C   UNL     1      -4.091  -0.069   8.998  1.00  0.00     0.131 A 
ATOM     82  C   UNL     1      -5.506   2.303   8.889  1.00  0.00     0.055 A 
ATOM     83  C   UNL     1      -5.378  -0.058   8.457  1.00  0.00     0.041 A 
ATOM     84  F   UNL     1      -3.448  -1.246   9.056  1.00  0.00    -0.206 F 
ATOM     85  C   UNL     1      -6.099   1.131   8.412  1.00  0.00     0.022 A 
BRANCH  82  86
ATOM     86  S   UNL     1      -6.465   3.841   8.962  1.00  0.00     0.124 S 
ATOM     87  O   UNL     1      -6.420   4.154  10.386  1.00  0.00    -0.237 OA
ATOM     88  O   UNL     1      -5.696   4.721   8.087  1.00  0.00    -0.237 OA
ATOM     89  O   UNL     1      -7.777   3.450   8.451  1.00  0.00    -0.744 OA
ENDBRANCH  82  86
ENDBRANCH  55  79
BRANCH  67  90
ATOM     90  C   UNL     1      -0.987   2.321  15.866  1.00  0.00     0.023 A 
ATOM     91  C   UNL     1      -1.909   1.522  16.562  1.00  0.00     0.031 A 
ATOM     92  C   UNL     1      -0.684   3.592  16.384  1.00  0.00     0.131 A 
ATOM     93  C   UNL     1      -2.529   2.019  17.717  1.00  0.00     0.055 A 
ATOM     94  C   UNL     1      -1.262   4.060  17.564  1.00  0.00     0.041 A 
ATOM     95  F   UNL     1       0.189   4.396  15.756  1.00  0.00    -0.206 F 
ATOM     96  C   UNL     1      -2.198   3.276  18.233  1.00  0.00     0.022 A 
BRANCH  93  97
ATOM     97  S   UNL     1      -3.829   1.030  18.505  1.00  0.00     0.124 S 
ATOM     98  O   UNL     1      -4.829   0.945  17.445  1.00  0.00    -0.237 OA
ATOM     99  O   UNL     1      -3.130  -0.211  18.823  1.00  0.00    -0.237 OA
ATOM    100  O   UNL     1      -4.218   1.834  19.662  1.00  0.00    -0.744 OA
ENDBRANCH  93  97
ENDBRANCH  67  90
ENDBRANCH  41  42
ENDBRANCH  33  36
ENDBRANCH  31  32
ENDBRANCH   1  31
TORSDOF 16
