REMARK SMILES O=C(NCCCNC(=O)c1ccc(-c2c3nc(c(-c4cc(S(=O)(=O)[O-])ccc4F)c4ccc([nH]4)c(-c4cc(S(=O)(=O)[O-])ccc4F)c4nc(c(-c5cc(S(=O)(=O)[O-])ccc5F)c5ccc2[nH]5)C=C4)C=C3)cc1)C1=Cc2cc(S(F)(F)(F)(F)F)cc(Br)c2O[C@H]1C(F)(F)F
REMARK SMILES IDX 6 1 5 2 4 3 3 4 1 5 2 6 73 8 74 9 89 10 75 11 88 12 76 13
REMARK SMILES IDX 87 14 77 15 85 16 84 17 86 18 90 19 91 20 92 21 93 22 78 23
REMARK SMILES IDX 79 24 80 25 81 26 82 27 83 28 7 29 8 30 9 32 10 33 11 34
REMARK SMILES IDX 72 35 12 36 71 37 13 38 14 39 15 40 65 41 16 42 70 43 64 44
REMARK SMILES IDX 66 45 17 46 69 47 63 48 62 49 18 51 50 52 30 53 49 54 31 55
REMARK SMILES IDX 34 56 48 57 67 58 32 59 33 60 47 62 68 63 35 64 19 65 20 66
REMARK SMILES IDX 28 67 21 68 27 69 29 70 26 71 22 72 23 73 24 74 25 75 51 76
REMARK SMILES IDX 52 77 60 78 53 79 59 80 61 81 58 82 54 83 55 84 56 85 57 86
REMARK SMILES IDX 36 87 37 88 45 89 38 90 44 91 46 92 43 93 39 94 40 95 41 96
REMARK SMILES IDX 42 97
REMARK H PARENT 3 7 7 31 66 50 34 61
REMARK Flexibility Score: inf
ROOT
ATOM      1  C   UNL     1       4.415  -1.304   3.417  1.00  0.00     0.118 C 
ENDROOT
BRANCH   1   2
ATOM      2  C   UNL     1       4.921  -0.344   2.352  1.00  0.00     0.042 C 
BRANCH   2   3
ATOM      3  C   UNL     1       4.415  -0.786   0.989  1.00  0.00     0.118 C 
BRANCH   3   4
ATOM      4  N   UNL     1       2.945  -0.786   0.989  1.00  0.00    -0.352 N 
ATOM      5  O   UNL     1       0.939   0.066   0.043  1.00  0.00    -0.270 OA
ATOM      6  C   UNL     1       2.210   0.066   0.043  1.00  0.00     0.251 C 
ATOM      7  H   UNL     1       2.452  -1.357   1.622  1.00  0.00     0.163 HD
BRANCH   6   8
ATOM      8  C   UNL     1       2.970   0.948  -0.934  1.00  0.00     0.067 C 
ATOM      9  C   UNL     1       4.330   0.948  -0.934  1.00  0.00     0.025 C 
ATOM     10  C   UNL     1       2.210   1.829  -1.912  1.00  0.00     0.314 C 
ATOM     11  C   UNL     1       5.090   0.066   0.043  1.00  0.00     0.020 A 
ATOM     12  O   UNL     1       3.481  -1.666  -0.203  1.00  0.00    -0.474 OA
ATOM     13  C   UNL     1       6.240   0.597   0.604  1.00  0.00     0.036 A 
ATOM     14  C   UNL     1       4.743  -1.199   0.251  1.00  0.00     0.142 A 
ATOM     15  C   UNL     1       7.119  -0.375   1.137  1.00  0.00     0.109 A 
ATOM     16  C   UNL     1       5.595  -2.060   0.900  1.00  0.00     0.062 A 
ATOM     17  C   UNL     1       6.776  -1.617   1.428  1.00  0.00     0.044 A 
ATOM     18  Br  UNL     1       5.109  -3.951   1.072  1.00  0.00    -0.047 Br
BRANCH  10  19
ATOM     19  C   UNL     1       0.715   1.643  -1.706  1.00  0.00     0.429 C 
ATOM     20  F   UNL     1       0.329   2.247  -0.586  1.00  0.00    -0.167 F 
ATOM     21  F   UNL     1       0.101   2.201  -2.745  1.00  0.00    -0.167 F 
ATOM     22  F   UNL     1       0.399   0.352  -1.645  1.00  0.00    -0.167 F 
ENDBRANCH  10  19
BRANCH  15  23
ATOM     23  S   UNL     1       8.834   0.118   1.444  1.00  0.00     0.310 S 
ATOM     24  F   UNL     1       8.617   0.111   3.015  1.00  0.00    -0.094 F 
ATOM     25  F   UNL     1       8.365   1.622   1.455  1.00  0.00    -0.094 F 
ATOM     26  F   UNL     1      10.305   0.545   1.710  1.00  0.00    -0.094 F 
ATOM     27  F   UNL     1       9.260  -1.398   1.569  1.00  0.00    -0.094 F 
ATOM     28  F   UNL     1       7.327  -0.334   1.287  1.00  0.00    -0.094 F 
ENDBRANCH  15  23
ENDBRANCH   6   8
ENDBRANCH   3   4
ENDBRANCH   2   3
ENDBRANCH   1   2
BRANCH   1  29
ATOM     29  N   UNL     1       4.905  -2.659   3.128  1.00  0.00    -0.352 N 
ATOM     30  C   UNL     1       5.750  -3.359   4.106  1.00  0.00     0.251 C 
ATOM     31  H   UNL     1       4.667  -3.098   2.279  1.00  0.00     0.163 HD
ATOM     32  O   UNL     1       6.173  -4.531   3.856  1.00  0.00    -0.269 OA
BRANCH  30  33
ATOM     33  C   UNL     1       6.117  -2.682   5.416  1.00  0.00     0.039 A 
ATOM     34  C   UNL     1       7.384  -2.860   5.947  1.00  0.00     0.014 A 
ATOM     35  C   UNL     1       5.167  -2.051   6.096  1.00  0.00     0.014 A 
ATOM     36  C   UNL     1       7.468  -2.586   7.333  1.00  0.00     0.010 A 
ATOM     37  C   UNL     1       5.367  -1.691   7.407  1.00  0.00     0.010 A 
ATOM     38  C   UNL     1       6.576  -1.891   8.014  1.00  0.00    -0.014 A 
BRANCH  38  39
ATOM     39  C   UNL     1       6.876  -1.343   9.400  1.00  0.00     0.031 A 
ATOM     40  C   UNL     1       6.059  -1.778  10.444  1.00  0.00     0.074 A 
ATOM     41  C   UNL     1       8.000  -0.552   9.573  1.00  0.00     0.049 A 
ATOM     42  N   UNL     1       6.219  -1.554  11.750  1.00  0.00    -0.248 NA
ATOM     43  C   UNL     1       4.846  -2.589  10.259  1.00  0.00     0.031 C 
ATOM     44  C   UNL     1       8.834  -0.116   8.526  1.00  0.00     0.029 A 
ATOM     45  N   UNL     1       8.508  -0.053  10.752  1.00  0.00    -0.354 N 
ATOM     46  C   UNL     1       5.244  -2.148  12.442  1.00  0.00     0.074 A 
ATOM     47  C   UNL     1       4.344  -2.817  11.493  1.00  0.00     0.031 C 
ATOM     48  C   UNL     1       9.823   0.644   9.063  1.00  0.00     0.029 A 
ATOM     49  C   UNL     1       9.625   0.696  10.456  1.00  0.00     0.049 A 
ATOM     50  H   UNL     1       8.136  -0.205  11.651  1.00  0.00     0.167 HD
ATOM     51  C   UNL     1       5.072  -2.160  13.827  1.00  0.00     0.034 A 
ATOM     52  C   UNL     1      10.437   1.394  11.336  1.00  0.00     0.034 A 
ATOM     53  C   UNL     1       5.910  -1.498  14.711  1.00  0.00     0.049 A 
ATOM     54  C   UNL     1      10.231   1.430  12.718  1.00  0.00     0.074 A 
ATOM     55  C   UNL     1       5.755  -1.506  16.110  1.00  0.00     0.029 A 
ATOM     56  N   UNL     1       7.012  -0.728  14.413  1.00  0.00    -0.354 N 
ATOM     57  N   UNL     1       9.280   0.804  13.412  1.00  0.00    -0.248 NA
ATOM     58  C   UNL     1      11.065   2.192  13.656  1.00  0.00     0.031 C 
ATOM     59  C   UNL     1       6.745  -0.744  16.648  1.00  0.00     0.029 A 
ATOM     60  C   UNL     1       7.534  -0.247  15.593  1.00  0.00     0.049 A 
ATOM     61  H   UNL     1       7.367  -0.553  13.511  1.00  0.00     0.167 HD
ATOM     62  C   UNL     1       9.416   1.063  14.714  1.00  0.00     0.074 A 
ATOM     63  C   UNL     1      10.562   1.966  14.889  1.00  0.00     0.031 C 
ATOM     64  C   UNL     1       8.633   0.580  15.764  1.00  0.00     0.034 A 
BRANCH  51  65
ATOM     65  C   UNL     1       3.901  -2.942  14.398  1.00  0.00     0.023 A 
ATOM     66  C   UNL     1       3.772  -4.300  14.155  1.00  0.00     0.031 A 
ATOM     67  C   UNL     1       2.995  -2.280  15.108  1.00  0.00     0.131 A 
ATOM     68  C   UNL     1       2.491  -4.818  14.463  1.00  0.00     0.055 A 
ATOM     69  C   UNL     1       1.825  -2.890  15.492  1.00  0.00     0.041 A 
ATOM     70  F   UNL     1       3.223  -1.016  15.451  1.00  0.00    -0.206 F 
ATOM     71  C   UNL     1       1.605  -4.214  15.233  1.00  0.00     0.022 A 
BRANCH  68  72
ATOM     72  S   UNL     1       2.037  -6.419  13.751  1.00  0.00     0.124 S 
ATOM     73  O   UNL     1       2.076  -6.328  12.223  1.00  0.00    -0.237 OA
ATOM     74  O   UNL     1       3.027  -7.486  14.224  1.00  0.00    -0.237 OA
ATOM     75  O   UNL     1       0.459  -6.840  14.256  1.00  0.00    -0.744 OA
ENDBRANCH  68  72
ENDBRANCH  51  65
BRANCH  52  76
ATOM     76  C   UNL     1      11.618   2.163  10.767  1.00  0.00     0.023 A 
ATOM     77  C   UNL     1      12.914   1.849  11.140  1.00  0.00     0.031 A 
ATOM     78  C   UNL     1      11.368   3.123   9.884  1.00  0.00     0.131 A 
ATOM     79  C   UNL     1      13.874   2.808  10.738  1.00  0.00     0.055 A 
ATOM     80  C   UNL     1      12.379   3.936   9.431  1.00  0.00     0.041 A 
ATOM     81  F   UNL     1      10.129   3.299   9.434  1.00  0.00    -0.206 F 
ATOM     82  C   UNL     1      13.676   3.721   9.805  1.00  0.00     0.022 A 
BRANCH  79  83
ATOM     83  S   UNL     1      15.486   2.781  11.561  1.00  0.00     0.124 S 
ATOM     84  O   UNL     1      15.296   3.007  13.063  1.00  0.00    -0.237 OA
ATOM     85  O   UNL     1      16.154   1.423  11.331  1.00  0.00    -0.237 OA
ATOM     86  O   UNL     1      16.475   4.019  10.919  1.00  0.00    -0.744 OA
ENDBRANCH  79  83
ENDBRANCH  52  76
BRANCH  64  87
ATOM     87  C   UNL     1       9.008   0.985  17.180  1.00  0.00     0.023 A 
ATOM     88  C   UNL     1       9.117   2.328  17.504  1.00  0.00     0.031 A 
ATOM     89  C   UNL     1       9.317   0.038  18.058  1.00  0.00     0.131 A 
ATOM     90  C   UNL     1       9.842   2.574  18.694  1.00  0.00     0.055 A 
ATOM     91  C   UNL     1       9.900   0.361  19.259  1.00  0.00     0.041 A 
ATOM     92  F   UNL     1       9.060  -1.235  17.771  1.00  0.00    -0.206 F 
ATOM     93  C   UNL     1      10.092   1.666  19.619  1.00  0.00     0.022 A 
BRANCH  90  94
ATOM     94  S   UNL     1      10.471   4.249  18.965  1.00  0.00     0.124 S 
ATOM     95  O   UNL     1      11.424   4.626  17.829  1.00  0.00    -0.237 OA
ATOM     96  O   UNL     1       9.301   5.234  18.998  1.00  0.00    -0.237 OA
ATOM     97  O   UNL     1      11.309   4.309  20.455  1.00  0.00    -0.744 OA
ENDBRANCH  90  94
ENDBRANCH  64  87
ENDBRANCH  38  39
ENDBRANCH  30  33
ENDBRANCH   1  29
TORSDOF 15
