REMARK SMILES CN(Cc1ccc(Cl)cc1Cl)S(=O)(=O)CCCC(=O)NCCCNC(=O)c1ccc(-c2c3nc(c(-c4cc(S(=O)(=O)[O-])ccc4F)c4ccc([nH]4)c(-c4cc(S(=O)(=O)[O-])ccc4F)c4nc(c(-c5cc(S(=O)(=O)[O-])ccc5F)c5ccc2[nH]5)C=C4)C=C3)cc1
REMARK SMILES IDX 18 1 19 2 20 3 17 5 16 6 15 7 12 8 13 9 14 10 2 11 1 12 3 13
REMARK SMILES IDX 4 14 5 15 10 16 6 17 9 18 11 19 7 20 8 21 21 22 22 23 23 24
REMARK SMILES IDX 24 25 25 26 26 28 27 29 28 30 89 31 29 32 88 33 30 34 31 35
REMARK SMILES IDX 32 36 82 37 33 38 87 39 81 40 83 41 34 42 86 43 80 44 79 45
REMARK SMILES IDX 35 47 67 48 47 49 66 50 48 51 51 52 65 53 84 54 49 55 50 56
REMARK SMILES IDX 64 58 85 59 52 60 36 61 37 62 45 63 38 64 44 65 46 66 43 67
REMARK SMILES IDX 39 68 40 69 41 70 42 71 68 72 69 73 77 74 70 75 76 76 78 77
REMARK SMILES IDX 75 78 71 79 72 80 73 81 74 82 53 83 54 84 62 85 55 86 61 87
REMARK SMILES IDX 63 88 60 89 56 90 57 91 58 92 59 93
REMARK H PARENT 20 4 24 27 83 46 51 57
REMARK Flexibility Score: inf
ROOT
ATOM      1  C   UNL     1      -1.179  -1.205  -4.773  1.00  0.00     0.220 C 
ATOM      2  O   UNL     1      -1.449  -2.143  -5.525  1.00  0.00    -0.275 OA
ATOM      3  N   UNL     1      -2.110  -0.216  -4.617  1.00  0.00    -0.356 N 
ATOM      4  H   UNL     1      -2.901  -0.264  -5.202  1.00  0.00     0.163 HD
ENDROOT
BRANCH   1   5
ATOM      5  C   UNL     1       0.142  -1.173  -3.999  1.00  0.00     0.101 C 
BRANCH   5   6
ATOM      6  C   UNL     1       1.159  -0.135  -4.481  1.00  0.00     0.027 C 
BRANCH   6   7
ATOM      7  C   UNL     1       1.542   1.001  -3.527  1.00  0.00     0.155 C 
BRANCH   7   8
ATOM      8  S   UNL     1       2.380   0.587  -1.990  1.00  0.00     0.214 S 
ATOM      9  O   UNL     1       3.059   1.782  -1.532  1.00  0.00    -0.212 OA
ATOM     10  O   UNL     1       3.156  -0.614  -2.228  1.00  0.00    -0.212 OA
BRANCH   8  11
ATOM     11  N   UNL     1       1.282   0.203  -0.790  1.00  0.00    -0.201 NA
ATOM     12  C   UNL     1       1.849  -0.201   0.505  1.00  0.00     0.124 C 
BRANCH  11  13
ATOM     13  C   UNL     1      -0.143   0.517  -0.765  1.00  0.00     0.138 C 
BRANCH  13  14
ATOM     14  C   UNL     1      -0.714   1.644   0.069  1.00  0.00    -0.014 A 
ATOM     15  C   UNL     1      -1.618   1.308   1.101  1.00  0.00     0.008 A 
ATOM     16  C   UNL     1      -0.541   3.011  -0.212  1.00  0.00     0.047 A 
ATOM     17  C   UNL     1      -2.291   2.294   1.831  1.00  0.00     0.021 A 
ATOM     18  C   UNL     1      -1.197   3.997   0.534  1.00  0.00     0.041 A 
ATOM     19  Cl  UNL     1       0.397   3.589  -1.531  1.00  0.00    -0.084 Cl
ATOM     20  C   UNL     1      -2.065   3.636   1.555  1.00  0.00     0.042 A 
ATOM     21  Cl  UNL     1      -2.872   4.853   2.463  1.00  0.00    -0.084 Cl
ENDBRANCH  13  14
ENDBRANCH  11  13
ENDBRANCH   8  11
ENDBRANCH   7   8
ENDBRANCH   6   7
ENDBRANCH   5   6
ENDBRANCH   1   5
BRANCH   3  22
ATOM     22  C   UNL     1      -2.067   0.888  -3.694  1.00  0.00     0.117 C 
BRANCH  22  23
ATOM     23  C   UNL     1      -2.567   2.217  -4.219  1.00  0.00     0.042 C 
BRANCH  23  24
ATOM     24  C   UNL     1      -4.027   2.468  -3.892  1.00  0.00     0.118 C 
BRANCH  24  25
ATOM     25  N   UNL     1      -4.278   2.647  -2.461  1.00  0.00    -0.352 N 
ATOM     26  C   UNL     1      -4.540   3.767  -1.703  1.00  0.00     0.251 C 
ATOM     27  H   UNL     1      -4.256   1.810  -1.943  1.00  0.00     0.163 HD
ATOM     28  O   UNL     1      -4.622   3.644  -0.481  1.00  0.00    -0.269 OA
BRANCH  26  29
ATOM     29  C   UNL     1      -4.684   5.101  -2.325  1.00  0.00     0.039 A 
ATOM     30  C   UNL     1      -4.151   6.229  -1.690  1.00  0.00     0.014 A 
ATOM     31  C   UNL     1      -5.356   5.250  -3.534  1.00  0.00     0.014 A 
ATOM     32  C   UNL     1      -4.199   7.476  -2.325  1.00  0.00     0.010 A 
ATOM     33  C   UNL     1      -5.287   6.453  -4.221  1.00  0.00     0.010 A 
ATOM     34  C   UNL     1      -4.718   7.587  -3.624  1.00  0.00    -0.014 A 
BRANCH  34  35
ATOM     35  C   UNL     1      -4.730   8.863  -4.391  1.00  0.00     0.031 A 
ATOM     36  C   UNL     1      -6.041   9.388  -4.919  1.00  0.00     0.074 A 
ATOM     37  C   UNL     1      -3.573   9.466  -4.728  1.00  0.00     0.049 A 
ATOM     38  N   UNL     1      -6.270  10.311  -5.817  1.00  0.00    -0.248 NA
ATOM     39  C   UNL     1      -7.258   8.736  -4.407  1.00  0.00     0.031 C 
ATOM     40  C   UNL     1      -2.236   9.038  -4.310  1.00  0.00     0.029 A 
ATOM     41  N   UNL     1      -3.333  10.558  -5.526  1.00  0.00    -0.354 N 
ATOM     42  C   UNL     1      -7.648  10.315  -6.012  1.00  0.00     0.074 A 
ATOM     43  C   UNL     1      -8.191   9.256  -5.188  1.00  0.00     0.031 C 
ATOM     44  C   UNL     1      -1.321   9.866  -4.839  1.00  0.00     0.029 A 
ATOM     45  C   UNL     1      -1.996  10.845  -5.685  1.00  0.00     0.049 A 
ATOM     46  H   UNL     1      -4.050  11.086  -5.946  1.00  0.00     0.167 HD
ATOM     47  C   UNL     1      -8.394  11.140  -6.788  1.00  0.00     0.034 A 
ATOM     48  C   UNL     1      -1.383  11.772  -6.448  1.00  0.00     0.034 A 
ATOM     49  C   UNL     1      -7.834  12.220  -7.562  1.00  0.00     0.049 A 
ATOM     50  C   UNL     1      -2.231  12.681  -7.303  1.00  0.00     0.074 A 
ATOM     51  C   UNL     1      -8.494  13.169  -8.323  1.00  0.00     0.029 A 
ATOM     52  N   UNL     1      -6.477  12.500  -7.669  1.00  0.00    -0.354 N 
ATOM     53  N   UNL     1      -3.535  12.694  -7.455  1.00  0.00    -0.248 NA
ATOM     54  C   UNL     1      -1.523  13.702  -8.085  1.00  0.00     0.031 C 
ATOM     55  C   UNL     1      -7.535  13.981  -8.938  1.00  0.00     0.029 A 
ATOM     56  C   UNL     1      -6.279  13.588  -8.504  1.00  0.00     0.049 A 
ATOM     57  H   UNL     1      -5.761  11.998  -7.217  1.00  0.00     0.167 HD
ATOM     58  C   UNL     1      -3.805  13.741  -8.331  1.00  0.00     0.074 A 
ATOM     59  C   UNL     1      -2.529  14.347  -8.657  1.00  0.00     0.031 C 
ATOM     60  C   UNL     1      -4.996  14.168  -8.824  1.00  0.00     0.034 A 
BRANCH  47  61
ATOM     61  C   UNL     1      -9.883  10.888  -6.846  1.00  0.00     0.023 A 
ATOM     62  C   UNL     1     -10.691  10.959  -5.697  1.00  0.00     0.031 A 
ATOM     63  C   UNL     1     -10.500  10.529  -8.058  1.00  0.00     0.131 A 
ATOM     64  C   UNL     1     -12.042  10.587  -5.764  1.00  0.00     0.055 A 
ATOM     65  C   UNL     1     -11.866  10.251  -8.136  1.00  0.00     0.041 A 
ATOM     66  F   UNL     1      -9.780  10.424  -9.186  1.00  0.00    -0.206 F 
ATOM     67  C   UNL     1     -12.643  10.260  -6.981  1.00  0.00     0.022 A 
BRANCH  64  68
ATOM     68  S   UNL     1     -12.958  10.381  -4.213  1.00  0.00     0.124 S 
ATOM     69  O   UNL     1     -12.172   9.347  -3.543  1.00  0.00    -0.237 OA
ATOM     70  O   UNL     1     -12.891  11.714  -3.626  1.00  0.00    -0.237 OA
ATOM     71  O   UNL     1     -14.286   9.956  -4.652  1.00  0.00    -0.744 OA
ENDBRANCH  64  68
ENDBRANCH  47  61
BRANCH  48  72
ATOM     72  C   UNL     1       0.104  11.884  -6.460  1.00  0.00     0.023 A 
ATOM     73  C   UNL     1       0.741  13.039  -5.978  1.00  0.00     0.031 A 
ATOM     74  C   UNL     1       0.911  10.859  -6.986  1.00  0.00     0.131 A 
ATOM     75  C   UNL     1       2.136  13.163  -6.074  1.00  0.00     0.055 A 
ATOM     76  C   UNL     1       2.303  10.964  -7.029  1.00  0.00     0.041 A 
ATOM     77  F   UNL     1       0.355   9.730  -7.455  1.00  0.00    -0.206 F 
ATOM     78  C   UNL     1       2.922  12.127  -6.583  1.00  0.00     0.022 A 
BRANCH  75  79
ATOM     79  S   UNL     1       2.901  14.738  -5.600  1.00  0.00     0.124 S 
ATOM     80  O   UNL     1       2.220  15.676  -6.484  1.00  0.00    -0.237 OA
ATOM     81  O   UNL     1       2.557  14.826  -4.184  1.00  0.00    -0.237 OA
ATOM     82  O   UNL     1       4.318  14.526  -5.883  1.00  0.00    -0.744 OA
ENDBRANCH  75  79
ENDBRANCH  48  72
BRANCH  60  83
ATOM     83  C   UNL     1      -4.967  15.369  -9.735  1.00  0.00     0.023 A 
ATOM     84  C   UNL     1      -4.380  15.314 -11.010  1.00  0.00     0.031 A 
ATOM     85  C   UNL     1      -5.528  16.588  -9.315  1.00  0.00     0.131 A 
ATOM     86  C   UNL     1      -4.318  16.471 -11.800  1.00  0.00     0.055 A 
ATOM     87  C   UNL     1      -5.519  17.720 -10.130  1.00  0.00     0.041 A 
ATOM     88  F   UNL     1      -6.101  16.697  -8.105  1.00  0.00    -0.206 F 
ATOM     89  C   UNL     1      -4.899  17.669 -11.376  1.00  0.00     0.022 A 
BRANCH  86  90
ATOM     90  S   UNL     1      -3.387  16.413 -13.356  1.00  0.00     0.124 S 
ATOM     91  O   UNL     1      -2.053  16.043 -12.896  1.00  0.00    -0.237 OA
ATOM     92  O   UNL     1      -4.107  15.393 -14.112  1.00  0.00    -0.237 OA
ATOM     93  O   UNL     1      -3.509  17.772 -13.879  1.00  0.00    -0.744 OA
ENDBRANCH  86  90
ENDBRANCH  60  83
ENDBRANCH  34  35
ENDBRANCH  26  29
ENDBRANCH  24  25
ENDBRANCH  23  24
ENDBRANCH  22  23
ENDBRANCH   3  22
TORSDOF 19
