REMARK SMILES Cc1ccc(C(=O)N2C[C@H](C(=O)NCCCNC(=O)c3ccc(-c4c5nc(c(-c6cc(S(=O)(=O)[O-])ccc6F)c6ccc([nH]6)c(-c6cc(S(=O)(=O)[O-])ccc6F)c6nc(c(-c7cc(S(=O)(=O)[O-])ccc7F)c7ccc4[nH]7)C=C6)C=C5)cc3)Oc3ccccc32)o1
REMARK SMILES IDX 15 1 14 2 13 3 11 4 12 5 10 7 8 8 9 9 89 10 84 11 88 12
REMARK SMILES IDX 83 13 85 14 87 15 86 16 6 17 7 18 5 19 1 20 2 21 3 22 90 23
REMARK SMILES IDX 4 24 16 25 17 26 18 27 19 29 20 30 21 31 82 32 22 33 81 34
REMARK SMILES IDX 23 35 24 36 25 37 75 38 26 39 80 40 74 41 76 42 27 43 79 44
REMARK SMILES IDX 73 45 72 46 28 48 60 49 40 50 59 51 41 52 44 53 58 54 77 55
REMARK SMILES IDX 42 56 43 57 57 59 78 60 45 61 29 62 30 63 38 64 31 65 37 66
REMARK SMILES IDX 39 67 36 68 32 69 33 70 34 71 35 72 61 73 62 74 70 75 63 76
REMARK SMILES IDX 69 77 71 78 68 79 64 80 65 81 66 82 67 83 46 84 47 85 55 86
REMARK SMILES IDX 48 87 54 88 56 89 53 90 49 91 50 92 51 93 52 94
REMARK H PARENT 13 6 17 28 76 47 44 58
REMARK Flexibility Score: inf
ROOT
ATOM      1  C   UNL     1      -5.905  -2.832   1.204  1.00  0.00     0.042 C 
ENDROOT
BRANCH   1   2
ATOM      2  C   UNL     1      -6.803  -1.605   1.319  1.00  0.00     0.118 C 
BRANCH   2   3
ATOM      3  N   UNL     1      -6.535  -0.834   2.524  1.00  0.00    -0.353 N 
ATOM      4  C   UNL     1      -6.007   0.417   2.678  1.00  0.00     0.262 C 
ATOM      5  O   UNL     1      -5.895   0.852   3.828  1.00  0.00    -0.271 OA
ATOM      6  H   UNL     1      -6.771  -1.288   3.365  1.00  0.00     0.163 HD
BRANCH   4   7
ATOM      7  C   UNL     1      -5.514   1.236   1.482  1.00  0.00     0.281 C 
ATOM      8  N   UNL     1      -3.717   1.390  -0.198  1.00  0.00    -0.298 N 
ATOM      9  C   UNL     1      -4.199   0.657   0.974  1.00  0.00     0.181 C 
ATOM     10  C   UNL     1      -4.735   1.812  -1.108  1.00  0.00     0.087 A 
ATOM     11  C   UNL     1      -6.088   1.693  -0.749  1.00  0.00     0.144 A 
ATOM     12  C   UNL     1      -4.431   2.242  -2.407  1.00  0.00     0.030 A 
ATOM     13  O   UNL     1      -6.531   1.283   0.482  1.00  0.00    -0.477 OA
ATOM     14  C   UNL     1      -7.101   1.962  -1.673  1.00  0.00     0.049 A 
ATOM     15  C   UNL     1      -5.446   2.518  -3.328  1.00  0.00     0.002 A 
ATOM     16  C   UNL     1      -6.780   2.371  -2.965  1.00  0.00     0.004 A 
BRANCH   8  17
ATOM     17  C   UNL     1      -2.360   1.670  -0.405  1.00  0.00     0.294 C 
ATOM     18  O   UNL     1      -2.000   2.752  -0.881  1.00  0.00    -0.265 OA
BRANCH  17  19
ATOM     19  C   UNL     1      -1.399   0.620  -0.092  1.00  0.00     0.192 A 
ATOM     20  C   UNL     1       2.118   0.003   0.219  1.00  0.00     0.087 C 
ATOM     21  C   UNL     1       0.652  -0.161   0.166  1.00  0.00     0.101 A 
ATOM     22  C   UNL     1      -0.182  -1.253   0.223  1.00  0.00     0.046 A 
ATOM     23  O   UNL     1      -0.076   0.975  -0.008  1.00  0.00    -0.456 OA
ATOM     24  C   UNL     1      -1.497  -0.755   0.047  1.00  0.00     0.056 A 
ENDBRANCH  17  19
ENDBRANCH   8  17
ENDBRANCH   4   7
ENDBRANCH   2   3
ENDBRANCH   1   2
BRANCH   1  25
ATOM     25  C   UNL     1      -6.189  -3.916   2.238  1.00  0.00     0.118 C 
BRANCH  25  26
ATOM     26  N   UNL     1      -7.482  -4.552   2.038  1.00  0.00    -0.352 N 
ATOM     27  C   UNL     1      -7.796  -5.874   1.833  1.00  0.00     0.251 C 
ATOM     28  H   UNL     1      -8.253  -3.939   2.052  1.00  0.00     0.163 HD
ATOM     29  O   UNL     1      -8.941  -6.168   1.500  1.00  0.00    -0.269 OA
BRANCH  27  30
ATOM     30  C   UNL     1      -6.771  -6.933   1.985  1.00  0.00     0.039 A 
ATOM     31  C   UNL     1      -6.752  -7.987   1.065  1.00  0.00     0.014 A 
ATOM     32  C   UNL     1      -5.856  -6.917   3.041  1.00  0.00     0.014 A 
ATOM     33  C   UNL     1      -5.780  -8.987   1.167  1.00  0.00     0.010 A 
ATOM     34  C   UNL     1      -4.848  -7.878   3.104  1.00  0.00     0.010 A 
ATOM     35  C   UNL     1      -4.801  -8.924   2.170  1.00  0.00    -0.014 A 
BRANCH  35  36
ATOM     36  C   UNL     1      -3.728  -9.946   2.268  1.00  0.00     0.031 A 
ATOM     37  C   UNL     1      -3.660 -10.857   3.462  1.00  0.00     0.074 A 
ATOM     38  C   UNL     1      -2.766  -9.996   1.326  1.00  0.00     0.049 A 
ATOM     39  N   UNL     1      -2.744 -11.734   3.787  1.00  0.00    -0.248 NA
ATOM     40  C   UNL     1      -4.753 -10.737   4.438  1.00  0.00     0.031 C 
ATOM     41  C   UNL     1      -2.690  -9.131   0.147  1.00  0.00     0.029 A 
ATOM     42  N   UNL     1      -1.656 -10.795   1.224  1.00  0.00    -0.354 N 
ATOM     43  C   UNL     1      -3.134 -12.252   5.017  1.00  0.00     0.074 A 
ATOM     44  C   UNL     1      -4.345 -11.553   5.398  1.00  0.00     0.031 C 
ATOM     45  C   UNL     1      -1.595  -9.450  -0.561  1.00  0.00     0.029 A 
ATOM     46  C   UNL     1      -0.875 -10.517   0.128  1.00  0.00     0.049 A 
ATOM     47  H   UNL     1      -1.440 -11.502   1.874  1.00  0.00     0.167 HD
ATOM     48  C   UNL     1      -2.547 -13.229   5.753  1.00  0.00     0.034 A 
ATOM     49  C   UNL     1       0.296 -11.049  -0.271  1.00  0.00     0.034 A 
ATOM     50  C   UNL     1      -1.356 -13.936   5.349  1.00  0.00     0.049 A 
ATOM     51  C   UNL     1       0.917 -12.149   0.544  1.00  0.00     0.074 A 
ATOM     52  C   UNL     1      -0.723 -14.995   5.978  1.00  0.00     0.029 A 
ATOM     53  N   UNL     1      -0.612 -13.650   4.212  1.00  0.00    -0.354 N 
ATOM     54  N   UNL     1       0.511 -12.663   1.681  1.00  0.00    -0.248 NA
ATOM     55  C   UNL     1       2.149 -12.748   0.014  1.00  0.00     0.031 C 
ATOM     56  C   UNL     1       0.429 -15.316   5.247  1.00  0.00     0.029 A 
ATOM     57  C   UNL     1       0.485 -14.494   4.133  1.00  0.00     0.049 A 
ATOM     58  H   UNL     1      -0.832 -12.949   3.556  1.00  0.00     0.167 HD
ATOM     59  C   UNL     1       1.431 -13.658   1.996  1.00  0.00     0.074 A 
ATOM     60  C   UNL     1       2.406 -13.678   0.924  1.00  0.00     0.031 C 
ATOM     61  C   UNL     1       1.462 -14.485   3.071  1.00  0.00     0.034 A 
BRANCH  48  62
ATOM     62  C   UNL     1      -3.180 -13.560   7.083  1.00  0.00     0.023 A 
ATOM     63  C   UNL     1      -4.481 -14.086   7.170  1.00  0.00     0.031 A 
ATOM     64  C   UNL     1      -2.497 -13.293   8.282  1.00  0.00     0.131 A 
ATOM     65  C   UNL     1      -5.092 -14.240   8.424  1.00  0.00     0.055 A 
ATOM     66  C   UNL     1      -3.080 -13.526   9.529  1.00  0.00     0.041 A 
ATOM     67  F   UNL     1      -1.259 -12.774   8.262  1.00  0.00    -0.206 F 
ATOM     68  C   UNL     1      -4.393 -13.985   9.605  1.00  0.00     0.022 A 
BRANCH  65  69
ATOM     69  S   UNL     1      -6.864 -14.621   8.479  1.00  0.00     0.124 S 
ATOM     70  O   UNL     1      -7.429 -13.506   7.723  1.00  0.00    -0.237 OA
ATOM     71  O   UNL     1      -6.926 -15.927   7.835  1.00  0.00    -0.237 OA
ATOM     72  O   UNL     1      -7.172 -14.613   9.908  1.00  0.00    -0.744 OA
ENDBRANCH  65  69
ENDBRANCH  48  62
BRANCH  49  73
ATOM     73  C   UNL     1       0.964 -10.537  -1.495  1.00  0.00     0.023 A 
ATOM     74  C   UNL     1       0.997 -11.301  -2.671  1.00  0.00     0.031 A 
ATOM     75  C   UNL     1       1.583  -9.276  -1.501  1.00  0.00     0.131 A 
ATOM     76  C   UNL     1       1.663 -10.805  -3.803  1.00  0.00     0.055 A 
ATOM     77  C   UNL     1       2.217  -8.774  -2.638  1.00  0.00     0.041 A 
ATOM     78  F   UNL     1       1.561  -8.505  -0.402  1.00  0.00    -0.206 F 
ATOM     79  C   UNL     1       2.266  -9.545  -3.796  1.00  0.00     0.022 A 
BRANCH  76  80
ATOM     80  S   UNL     1       1.754 -11.849  -5.282  1.00  0.00     0.124 S 
ATOM     81  O   UNL     1       2.505 -12.999  -4.790  1.00  0.00    -0.237 OA
ATOM     82  O   UNL     1       0.344 -12.081  -5.577  1.00  0.00    -0.237 OA
ATOM     83  O   UNL     1       2.459 -11.009  -6.248  1.00  0.00    -0.744 OA
ENDBRANCH  76  80
ENDBRANCH  49  73
BRANCH  61  84
ATOM     84  C   UNL     1       2.576 -15.497   3.113  1.00  0.00     0.023 A 
ATOM     85  C   UNL     1       3.906 -15.115   3.360  1.00  0.00     0.031 A 
ATOM     86  C   UNL     1       2.305 -16.856   2.881  1.00  0.00     0.131 A 
ATOM     87  C   UNL     1       4.925 -16.079   3.325  1.00  0.00     0.055 A 
ATOM     88  C   UNL     1       3.317 -17.817   2.890  1.00  0.00     0.041 A 
ATOM     89  F   UNL     1       1.051 -17.269   2.638  1.00  0.00    -0.206 F 
ATOM     90  C   UNL     1       4.637 -17.428   3.103  1.00  0.00     0.022 A 
BRANCH  87  91
ATOM     91  S   UNL     1       6.646 -15.535   3.504  1.00  0.00     0.124 S 
ATOM     92  O   UNL     1       6.795 -14.621   2.375  1.00  0.00    -0.237 OA
ATOM     93  O   UNL     1       6.644 -14.919   4.826  1.00  0.00    -0.237 OA
ATOM     94  O   UNL     1       7.411 -16.776   3.401  1.00  0.00    -0.744 OA
ENDBRANCH  87  91
ENDBRANCH  61  84
ENDBRANCH  35  36
ENDBRANCH  27  30
ENDBRANCH  25  26
ENDBRANCH   1  25
TORSDOF 15
