REMARK SMILES CC(=O)N[C@@H](C)C(=O)N1CCC[C@H]1C(=O)NCCCNC(=O)c1ccc(-c2c3nc(c(-c4cc(S(=O)(=O)[O-])ccc4F)c4ccc([nH]4)c(-c4cc(S(=O)(=O)[O-])ccc4F)c4nc(c(-c5cc(S(=O)(=O)[O-])ccc5F)c5ccc2[nH]5)C=C4)C=C3)cc1
REMARK SMILES IDX 18 1 17 2 16 3 14 4 15 5 13 7 9 8 10 9 11 10 12 11 7 12 8 13
REMARK SMILES IDX 5 14 6 15 4 16 1 17 2 18 3 19 19 21 20 22 21 23 22 25 23 26
REMARK SMILES IDX 24 27 85 28 25 29 84 30 26 31 27 32 28 33 78 34 29 35 83 36
REMARK SMILES IDX 77 37 79 38 30 39 82 40 76 41 75 42 31 44 63 45 43 46 62 47
REMARK SMILES IDX 44 48 47 49 61 50 80 51 45 52 46 53 60 55 81 56 48 57 32 58
REMARK SMILES IDX 33 59 41 60 34 61 40 62 42 63 39 64 35 65 36 66 37 67 38 68
REMARK SMILES IDX 64 69 65 70 73 71 66 72 72 73 74 74 71 75 67 76 68 77 69 78
REMARK SMILES IDX 70 79 49 80 50 81 58 82 51 83 57 84 59 85 56 86 52 87 53 88
REMARK SMILES IDX 54 89 55 90
REMARK H PARENT 16 6 4 20 20 24 79 43 47 54
REMARK Flexibility Score: inf
ROOT
ATOM      1  C   UNL     1      -2.512  -2.934  -2.778  1.00  0.00     0.042 C 
ENDROOT
BRANCH   1   2
ATOM      2  C   UNL     1      -2.413  -4.411  -3.127  1.00  0.00     0.117 C 
BRANCH   2   3
ATOM      3  N   UNL     1      -1.773  -4.634  -4.405  1.00  0.00    -0.354 N 
ATOM      4  C   UNL     1      -0.518  -5.086  -4.688  1.00  0.00     0.242 C 
ATOM      5  O   UNL     1      -0.287  -5.380  -5.867  1.00  0.00    -0.273 OA
ATOM      6  H   UNL     1      -2.329  -4.428  -5.191  1.00  0.00     0.163 HD
BRANCH   4   7
ATOM      7  C   UNL     1       0.488  -5.468  -3.581  1.00  0.00     0.174 C 
ATOM      8  N   UNL     1       0.664  -4.579  -2.422  1.00  0.00    -0.329 N 
ATOM      9  C   UNL     1       0.512  -5.306  -1.171  1.00  0.00     0.120 C 
ATOM     10  C   UNL     1       0.594  -6.773  -1.552  1.00  0.00     0.024 C 
ATOM     11  C   UNL     1       0.089  -6.823  -2.984  1.00  0.00     0.037 C 
BRANCH   8  12
ATOM     12  C   UNL     1       1.200  -3.323  -2.634  1.00  0.00     0.245 C 
ATOM     13  O   UNL     1       1.385  -2.923  -3.790  1.00  0.00    -0.272 OA
BRANCH  12  14
ATOM     14  C   UNL     1       1.765  -2.479  -1.465  1.00  0.00     0.168 C 
ATOM     15  C   UNL     1       3.156  -2.996  -1.099  1.00  0.00     0.041 C 
BRANCH  14  16
ATOM     16  N   UNL     1       0.915  -2.378  -0.283  1.00  0.00    -0.345 N 
ATOM     17  C   UNL     1       1.019   0.085  -0.083  1.00  0.00     0.114 C 
ATOM     18  C   UNL     1       0.546  -1.259   0.400  1.00  0.00     0.217 C 
ATOM     19  O   UNL     1      -0.162  -1.391   1.395  1.00  0.00    -0.275 OA
ATOM     20  H   UNL     1       0.563  -3.229   0.066  1.00  0.00     0.164 HD
ENDBRANCH  14  16
ENDBRANCH  12  14
ENDBRANCH   8  12
ENDBRANCH   4   7
ENDBRANCH   2   3
ENDBRANCH   1   2
BRANCH   1  21
ATOM     21  C   UNL     1      -3.592  -2.210  -3.574  1.00  0.00     0.118 C 
BRANCH  21  22
ATOM     22  N   UNL     1      -4.927  -2.713  -3.270  1.00  0.00    -0.352 N 
ATOM     23  C   UNL     1      -6.016  -2.066  -2.747  1.00  0.00     0.251 C 
ATOM     24  H   UNL     1      -5.068  -3.667  -3.472  1.00  0.00     0.163 HD
ATOM     25  O   UNL     1      -6.971  -2.731  -2.340  1.00  0.00    -0.269 OA
BRANCH  23  26
ATOM     26  C   UNL     1      -6.042  -0.592  -2.662  1.00  0.00     0.039 A 
ATOM     27  C   UNL     1      -6.599   0.014  -1.533  1.00  0.00     0.014 A 
ATOM     28  C   UNL     1      -5.536   0.194  -3.701  1.00  0.00     0.014 A 
ATOM     29  C   UNL     1      -6.589   1.406  -1.421  1.00  0.00     0.010 A 
ATOM     30  C   UNL     1      -5.445   1.573  -3.547  1.00  0.00     0.010 A 
ATOM     31  C   UNL     1      -5.976   2.195  -2.408  1.00  0.00    -0.014 A 
BRANCH  31  32
ATOM     32  C   UNL     1      -5.881   3.671  -2.266  1.00  0.00     0.031 A 
ATOM     33  C   UNL     1      -6.552   4.571  -3.268  1.00  0.00     0.074 A 
ATOM     34  C   UNL     1      -5.140   4.194  -1.269  1.00  0.00     0.049 A 
ATOM     35  N   UNL     1      -6.530   5.876  -3.353  1.00  0.00    -0.248 NA
ATOM     36  C   UNL     1      -7.324   3.914  -4.334  1.00  0.00     0.031 C 
ATOM     37  C   UNL     1      -4.408   3.417  -0.265  1.00  0.00     0.029 A 
ATOM     38  N   UNL     1      -4.874   5.498  -0.935  1.00  0.00    -0.354 N 
ATOM     39  C   UNL     1      -7.273   6.196  -4.484  1.00  0.00     0.074 A 
ATOM     40  C   UNL     1      -7.673   4.944  -5.090  1.00  0.00     0.031 C 
ATOM     41  C   UNL     1      -3.806   4.259   0.590  1.00  0.00     0.029 A 
ATOM     42  C   UNL     1      -4.061   5.632   0.167  1.00  0.00     0.049 A 
ATOM     43  H   UNL     1      -5.231   6.265  -1.438  1.00  0.00     0.167 HD
ATOM     44  C   UNL     1      -7.611   7.420  -4.959  1.00  0.00     0.034 A 
ATOM     45  C   UNL     1      -3.566   6.736   0.761  1.00  0.00     0.034 A 
ATOM     46  C   UNL     1      -7.208   8.657  -4.335  1.00  0.00     0.049 A 
ATOM     47  C   UNL     1      -3.931   8.086   0.197  1.00  0.00     0.074 A 
ATOM     48  C   UNL     1      -7.535   9.952  -4.697  1.00  0.00     0.029 A 
ATOM     49  N   UNL     1      -6.380   8.755  -3.223  1.00  0.00    -0.354 N 
ATOM     50  N   UNL     1      -4.681   8.372  -0.843  1.00  0.00    -0.248 NA
ATOM     51  C   UNL     1      -3.393   9.261   0.894  1.00  0.00     0.031 C 
ATOM     52  C   UNL     1      -6.845  10.831  -3.856  1.00  0.00     0.029 A 
ATOM     53  C   UNL     1      -6.157  10.088  -2.910  1.00  0.00     0.049 A 
ATOM     54  H   UNL     1      -6.005   7.990  -2.730  1.00  0.00     0.167 HD
ATOM     55  C   UNL     1      -4.730   9.762  -0.903  1.00  0.00     0.074 A 
ATOM     56  C   UNL     1      -3.950  10.252   0.215  1.00  0.00     0.031 C 
ATOM     57  C   UNL     1      -5.365  10.562  -1.798  1.00  0.00     0.034 A 
BRANCH  44  58
ATOM     58  C   UNL     1      -8.434   7.475  -6.226  1.00  0.00     0.023 A 
ATOM     59  C   UNL     1      -9.724   6.917  -6.295  1.00  0.00     0.031 A 
ATOM     60  C   UNL     1      -7.916   8.072  -7.389  1.00  0.00     0.131 A 
ATOM     61  C   UNL     1     -10.416   6.898  -7.516  1.00  0.00     0.055 A 
ATOM     62  C   UNL     1      -8.646   8.127  -8.578  1.00  0.00     0.041 A 
ATOM     63  F   UNL     1      -6.683   8.602  -7.394  1.00  0.00    -0.206 F 
ATOM     64  C   UNL     1      -9.898   7.523  -8.651  1.00  0.00     0.022 A 
BRANCH  61  65
ATOM     65  S   UNL     1     -11.934   5.912  -7.635  1.00  0.00     0.124 S 
ATOM     66  O   UNL     1     -11.450   4.581  -7.273  1.00  0.00    -0.237 OA
ATOM     67  O   UNL     1     -12.808   6.559  -6.664  1.00  0.00    -0.237 OA
ATOM     68  O   UNL     1     -12.332   6.062  -9.033  1.00  0.00    -0.744 OA
ENDBRANCH  61  65
ENDBRANCH  44  58
BRANCH  45  69
ATOM     69  C   UNL     1      -2.669   6.619   1.948  1.00  0.00     0.023 A 
ATOM     70  C   UNL     1      -3.047   7.140   3.195  1.00  0.00     0.031 A 
ATOM     71  C   UNL     1      -1.400   6.020   1.842  1.00  0.00     0.131 A 
ATOM     72  C   UNL     1      -2.148   7.101   4.272  1.00  0.00     0.055 A 
ATOM     73  C   UNL     1      -0.534   5.929   2.933  1.00  0.00     0.041 A 
ATOM     74  F   UNL     1      -0.988   5.503   0.673  1.00  0.00    -0.206 F 
ATOM     75  C   UNL     1      -0.901   6.485   4.154  1.00  0.00     0.022 A 
BRANCH  72  76
ATOM     76  S   UNL     1      -2.596   7.956   5.808  1.00  0.00     0.124 S 
ATOM     77  O   UNL     1      -2.817   9.318   5.335  1.00  0.00    -0.237 OA
ATOM     78  O   UNL     1      -3.784   7.222   6.229  1.00  0.00    -0.237 OA
ATOM     79  O   UNL     1      -1.419   7.773   6.655  1.00  0.00    -0.744 OA
ENDBRANCH  72  76
ENDBRANCH  45  69
BRANCH  57  80
ATOM     80  C   UNL     1      -5.278  12.052  -1.569  1.00  0.00     0.023 A 
ATOM     81  C   UNL     1      -4.060  12.748  -1.665  1.00  0.00     0.031 A 
ATOM     82  C   UNL     1      -6.433  12.785  -1.239  1.00  0.00     0.131 A 
ATOM     83  C   UNL     1      -4.014  14.119  -1.372  1.00  0.00     0.055 A 
ATOM     84  C   UNL     1      -6.392  14.162  -1.017  1.00  0.00     0.041 A 
ATOM     85  F   UNL     1      -7.623  12.173  -1.130  1.00  0.00    -0.206 F 
ATOM     86  C   UNL     1      -5.175  14.834  -1.069  1.00  0.00     0.022 A 
BRANCH  83  87
ATOM     87  S   UNL     1      -2.397  14.938  -1.292  1.00  0.00     0.124 S 
ATOM     88  O   UNL     1      -1.711  14.156  -0.269  1.00  0.00    -0.237 OA
ATOM     89  O   UNL     1      -1.900  14.782  -2.655  1.00  0.00    -0.237 OA
ATOM     90  O   UNL     1      -2.726  16.310  -0.907  1.00  0.00    -0.744 OA
ENDBRANCH  83  87
ENDBRANCH  57  80
ENDBRANCH  31  32
ENDBRANCH  23  26
ENDBRANCH  21  22
ENDBRANCH   1  21
TORSDOF 16
