REMARK SMILES O=C(NCCCNC(=O)c1cccc(OS(=O)(=O)c2cccc([N+](=O)[O-])c2)c1)c1ccc(-c2c3nc(c(-c4cc(S(=O)(=O)[O-])ccc4F)c4ccc([nH]4)c(-c4cc(S(=O)(=O)[O-])ccc4F)c4nc(c(-c5cc(S(=O)(=O)[O-])ccc5F)c5ccc2[nH]5)C=C4)C=C3)cc1
REMARK SMILES IDX 5 1 4 2 3 3 1 4 2 5 29 7 30 8 91 9 31 10 90 11 32 12 33 13
REMARK SMILES IDX 34 14 84 15 35 16 89 17 83 18 85 19 36 20 88 21 82 22 81 23
REMARK SMILES IDX 37 25 69 26 49 27 68 28 50 29 53 30 67 31 86 32 51 33 52 34
REMARK SMILES IDX 66 36 87 37 54 38 38 39 39 40 47 41 40 42 46 43 48 44 45 45
REMARK SMILES IDX 41 46 42 47 43 48 44 49 70 50 71 51 79 52 72 53 78 54 80 55
REMARK SMILES IDX 77 56 73 57 74 58 75 59 76 60 55 61 56 62 64 63 57 64 63 65
REMARK SMILES IDX 65 66 62 67 58 68 59 69 60 70 61 71 6 72 7 73 8 74 9 76
REMARK SMILES IDX 10 77 11 78 28 79 12 80 14 81 13 82 15 83 16 84 17 85 18 86
REMARK SMILES IDX 19 87 20 88 27 89 21 90 23 91 22 92 24 93 25 94 26 95
REMARK H PARENT 3 6 85 24 53 35 7 75
REMARK Flexibility Score: inf
ROOT
ATOM      1  C   UNL     1       5.004  -0.651   2.150  1.00  0.00     0.042 C 
ENDROOT
BRANCH   1   2
ATOM      2  C   UNL     1       4.571  -0.980   0.730  1.00  0.00     0.118 C 
BRANCH   2   3
ATOM      3  N   UNL     1       3.124  -0.971   0.562  1.00  0.00    -0.352 N 
ATOM      4  O   UNL     1       1.107  -0.187  -0.053  1.00  0.00    -0.269 OA
ATOM      5  C   UNL     1       2.328  -0.130  -0.176  1.00  0.00     0.251 C 
ATOM      6  H   UNL     1       2.643  -1.676   1.053  1.00  0.00     0.163 HD
BRANCH   5   7
ATOM      7  C   UNL     1       2.935   0.854  -1.099  1.00  0.00     0.039 A 
ATOM      8  C   UNL     1       3.996   0.500  -1.937  1.00  0.00     0.014 A 
ATOM      9  C   UNL     1       2.414   2.150  -1.142  1.00  0.00     0.014 A 
ATOM     10  C   UNL     1       4.631   1.471  -2.705  1.00  0.00     0.010 A 
ATOM     11  C   UNL     1       2.994   3.101  -1.985  1.00  0.00     0.010 A 
ATOM     12  C   UNL     1       4.125   2.777  -2.752  1.00  0.00    -0.014 A 
BRANCH  12  13
ATOM     13  C   UNL     1       4.749   3.791  -3.640  1.00  0.00     0.031 A 
ATOM     14  C   UNL     1       5.366   5.034  -3.066  1.00  0.00     0.074 A 
ATOM     15  C   UNL     1       4.724   3.602  -4.973  1.00  0.00     0.049 A 
ATOM     16  N   UNL     1       5.843   6.084  -3.684  1.00  0.00    -0.248 NA
ATOM     17  C   UNL     1       5.439   5.111  -1.601  1.00  0.00     0.031 C 
ATOM     18  C   UNL     1       4.165   2.427  -5.644  1.00  0.00     0.029 A 
ATOM     19  N   UNL     1       5.161   4.396  -6.002  1.00  0.00    -0.354 N 
ATOM     20  C   UNL     1       6.253   6.960  -2.685  1.00  0.00     0.074 A 
ATOM     21  C   UNL     1       5.929   6.329  -1.421  1.00  0.00     0.031 C 
ATOM     22  C   UNL     1       4.296   2.574  -6.969  1.00  0.00     0.029 A 
ATOM     23  C   UNL     1       4.872   3.885  -7.246  1.00  0.00     0.049 A 
ATOM     24  H   UNL     1       5.635   5.248  -5.864  1.00  0.00     0.167 HD
ATOM     25  C   UNL     1       6.846   8.175  -2.816  1.00  0.00     0.034 A 
ATOM     26  C   UNL     1       5.002   4.428  -8.472  1.00  0.00     0.034 A 
ATOM     27  C   UNL     1       7.140   8.786  -4.092  1.00  0.00     0.049 A 
ATOM     28  C   UNL     1       5.584   5.809  -8.599  1.00  0.00     0.074 A 
ATOM     29  C   UNL     1       7.766   9.995  -4.345  1.00  0.00     0.029 A 
ATOM     30  N   UNL     1       6.809   8.248  -5.331  1.00  0.00    -0.354 N 
ATOM     31  N   UNL     1       5.978   6.626  -7.649  1.00  0.00    -0.248 NA
ATOM     32  C   UNL     1       5.744   6.341  -9.957  1.00  0.00     0.031 C 
ATOM     33  C   UNL     1       7.727  10.229  -5.724  1.00  0.00     0.029 A 
ATOM     34  C   UNL     1       7.176   9.120  -6.345  1.00  0.00     0.049 A 
ATOM     35  H   UNL     1       6.376   7.374  -5.468  1.00  0.00     0.167 HD
ATOM     36  C   UNL     1       6.466   7.756  -8.298  1.00  0.00     0.074 A 
ATOM     37  C   UNL     1       6.310   7.517  -9.719  1.00  0.00     0.031 C 
ATOM     38  C   UNL     1       7.011   8.878  -7.763  1.00  0.00     0.034 A 
BRANCH  25  39
ATOM     39  C   UNL     1       7.145   8.942  -1.546  1.00  0.00     0.023 A 
ATOM     40  C   UNL     1       7.992   8.427  -0.548  1.00  0.00     0.031 A 
ATOM     41  C   UNL     1       6.525  10.181  -1.300  1.00  0.00     0.131 A 
ATOM     42  C   UNL     1       8.107   9.088   0.685  1.00  0.00     0.055 A 
ATOM     43  C   UNL     1       6.727  10.885  -0.111  1.00  0.00     0.041 A 
ATOM     44  F   UNL     1       5.689  10.719  -2.201  1.00  0.00    -0.206 F 
ATOM     45  C   UNL     1       7.503  10.328   0.901  1.00  0.00     0.022 A 
BRANCH  42  46
ATOM     46  S   UNL     1       8.886   8.205   2.066  1.00  0.00     0.124 S 
ATOM     47  O   UNL     1       8.105   6.970   2.107  1.00  0.00    -0.237 OA
ATOM     48  O   UNL     1      10.267   8.073   1.619  1.00  0.00    -0.237 OA
ATOM     49  O   UNL     1       8.679   9.098   3.205  1.00  0.00    -0.744 OA
ENDBRANCH  42  46
ENDBRANCH  25  39
BRANCH  26  50
ATOM     50  C   UNL     1       4.517   3.672  -9.660  1.00  0.00     0.023 A 
ATOM     51  C   UNL     1       5.406   3.191 -10.632  1.00  0.00     0.031 A 
ATOM     52  C   UNL     1       3.146   3.397  -9.822  1.00  0.00     0.131 A 
ATOM     53  C   UNL     1       4.911   2.476 -11.734  1.00  0.00     0.055 A 
ATOM     54  C   UNL     1       2.665   2.642 -10.891  1.00  0.00     0.041 A 
ATOM     55  F   UNL     1       2.255   3.830  -8.916  1.00  0.00    -0.206 F 
ATOM     56  C   UNL     1       3.550   2.182 -11.861  1.00  0.00     0.022 A 
BRANCH  53  57
ATOM     57  S   UNL     1       6.069   1.977 -13.037  1.00  0.00     0.124 S 
ATOM     58  O   UNL     1       6.585   3.266 -13.484  1.00  0.00    -0.237 OA
ATOM     59  O   UNL     1       7.004   1.129 -12.305  1.00  0.00    -0.237 OA
ATOM     60  O   UNL     1       5.219   1.278 -13.999  1.00  0.00    -0.744 OA
ENDBRANCH  53  57
ENDBRANCH  26  50
BRANCH  38  61
ATOM     61  C   UNL     1       7.553   9.914  -8.717  1.00  0.00     0.023 A 
ATOM     62  C   UNL     1       6.720  10.688  -9.543  1.00  0.00     0.031 A 
ATOM     63  C   UNL     1       8.939  10.155  -8.764  1.00  0.00     0.131 A 
ATOM     64  C   UNL     1       7.285  11.648 -10.399  1.00  0.00     0.055 A 
ATOM     65  C   UNL     1       9.489  11.149  -9.573  1.00  0.00     0.041 A 
ATOM     66  F   UNL     1       9.782   9.438  -8.002  1.00  0.00    -0.206 F 
ATOM     67  C   UNL     1       8.660  11.898 -10.402  1.00  0.00     0.022 A 
BRANCH  64  68
ATOM     68  S   UNL     1       6.207  12.533 -11.560  1.00  0.00     0.124 S 
ATOM     69  O   UNL     1       5.664  11.441 -12.361  1.00  0.00    -0.237 OA
ATOM     70  O   UNL     1       5.266  13.200 -10.668  1.00  0.00    -0.237 OA
ATOM     71  O   UNL     1       7.124  13.424 -12.269  1.00  0.00    -0.744 OA
ENDBRANCH  64  68
ENDBRANCH  38  61
ENDBRANCH  12  13
ENDBRANCH   5   7
ENDBRANCH   2   3
ENDBRANCH   1   2
BRANCH   1  72
ATOM     72  C   UNL     1       4.578  -1.678   3.186  1.00  0.00     0.118 C 
BRANCH  72  73
ATOM     73  N   UNL     1       5.151  -3.000   2.941  1.00  0.00    -0.352 N 
ATOM     74  C   UNL     1       5.930  -3.784   3.757  1.00  0.00     0.251 C 
ATOM     75  H   UNL     1       4.947  -3.387   2.059  1.00  0.00     0.163 HD
ATOM     76  O   UNL     1       6.466  -4.798   3.323  1.00  0.00    -0.269 OA
BRANCH  74  77
ATOM     77  C   UNL     1       6.113  -3.407   5.173  1.00  0.00     0.043 A 
ATOM     78  C   UNL     1       7.382  -3.444   5.750  1.00  0.00     0.014 A 
ATOM     79  C   UNL     1       5.005  -3.024   5.931  1.00  0.00     0.062 A 
ATOM     80  C   UNL     1       7.545  -3.020   7.069  1.00  0.00     0.005 A 
ATOM     81  C   UNL     1       5.173  -2.531   7.221  1.00  0.00     0.143 A 
ATOM     82  C   UNL     1       6.446  -2.545   7.795  1.00  0.00     0.048 A 
BRANCH  81  83
ATOM     83  O   UNL     1       4.150  -2.012   7.976  1.00  0.00    -0.379 OA
BRANCH  83  84
ATOM     84  S   UNL     1       2.762  -1.509   7.267  1.00  0.00     0.339 S 
ATOM     85  O   UNL     1       3.058  -0.433   6.343  1.00  0.00    -0.181 OA
ATOM     86  O   UNL     1       2.006  -2.671   6.831  1.00  0.00    -0.181 OA
BRANCH  84  87
ATOM     87  C   UNL     1       1.836  -0.812   8.615  1.00  0.00     0.112 A 
ATOM     88  C   UNL     1       1.780   0.575   8.786  1.00  0.00     0.024 A 
ATOM     89  C   UNL     1       1.101  -1.673   9.436  1.00  0.00     0.109 A 
ATOM     90  C   UNL     1       0.991   1.109   9.807  1.00  0.00     0.009 A 
ATOM     91  C   UNL     1       0.313  -1.125  10.452  1.00  0.00     0.270 A 
ATOM     92  C   UNL     1       0.257   0.263  10.643  1.00  0.00     0.086 A 
BRANCH  91  93
ATOM     93  N   UNL     1      -0.468  -2.015  11.321  1.00  0.00     0.062 N 
ATOM     94  O   UNL     1      -1.133  -1.497  12.229  1.00  0.00    -0.258 OA
ATOM     95  O   UNL     1      -0.406  -3.233  11.101  1.00  0.00    -0.258 OA
ENDBRANCH  91  93
ENDBRANCH  84  87
ENDBRANCH  83  84
ENDBRANCH  81  83
ENDBRANCH  74  77
ENDBRANCH  72  73
ENDBRANCH   1  72
TORSDOF 17
