REMARK SMILES CCC([NH3+])(CC)C(=O)N1CCC[N@H+](CC(=O)NCCCNC(=O)c2ccc(-c3c4nc(c(-c5cc(S(=O)(=O)[O-])ccc5F)c5ccc([nH]5)c(-c5cc(S(=O)(=O)[O-])ccc5F)c5nc(c(-c6cc(S(=O)(=O)[O-])ccc6F)c6ccc3[nH]6)C=C5)C=C4)cc2)CC1
REMARK SMILES IDX 15 1 16 2 17 3 14 5 13 6 87 8 88 9 9 10 7 11 8 12 3 13 2 14
REMARK SMILES IDX 1 15 4 16 5 20 6 21 10 22 11 23 12 25 18 27 19 28 20 29
REMARK SMILES IDX 21 30 22 31 23 33 24 34 25 35 86 36 26 37 85 38 27 39 28 40
REMARK SMILES IDX 29 41 79 42 30 43 84 44 78 45 80 46 31 47 83 48 77 49 76 50
REMARK SMILES IDX 32 52 64 53 44 54 63 55 45 56 48 57 62 58 81 59 46 60 47 61
REMARK SMILES IDX 61 63 82 64 49 65 33 66 34 67 42 68 35 69 41 70 43 71 40 72
REMARK SMILES IDX 36 73 37 74 38 75 39 76 65 77 66 78 74 79 67 80 73 81 75 82
REMARK SMILES IDX 72 83 68 84 69 85 70 86 71 87 50 88 51 89 59 90 52 91 58 92
REMARK SMILES IDX 60 93 57 94 53 95 54 96 55 97 56 98
REMARK H PARENT 17 4 13 7 4 17 4 18 4 19 21 32 80 51 48 62
REMARK Flexibility Score: 90.00
ROOT
ATOM      1  C   UNL     1       4.140   4.431  -3.768  1.00  0.00     0.275 C 
ATOM      2  O   UNL     1       3.232   5.227  -4.033  1.00  0.00    -0.269 OA
ATOM      3  N   UNL     1       3.848   3.095  -3.849  1.00  0.00    -0.351 N 
ATOM      4  H   UNL     1       2.896   2.869  -3.735  1.00  0.00     0.163 HD
ENDROOT
BRANCH   1   5
ATOM      5  C   UNL     1       5.523   4.930  -3.355  1.00  0.00     0.363 C 
BRANCH   5   6
ATOM      6  N   UNL     1       5.695   5.200  -1.927  1.00  0.00    -0.326 N 
ATOM      7  H   UNL     1       6.690   5.358  -2.088  1.00  0.00     0.348 HD
BRANCH   6   8
ATOM      8  C   UNL     1       5.757   4.117  -0.974  1.00  0.00     0.284 C 
BRANCH   8   9
ATOM      9  C   UNL     1       4.472   3.409  -0.529  1.00  0.00     0.181 C 
BRANCH   9  10
ATOM     10  N   UNL     1       3.211   4.096  -0.234  1.00  0.00    -0.331 N 
BRANCH  10  11
ATOM     11  C   UNL     1       2.234   3.220   0.295  1.00  0.00     0.284 C 
ATOM     12  O   UNL     1       2.620   2.168   0.825  1.00  0.00    -0.268 OA
BRANCH  11  13
ATOM     13  C   UNL     1       0.665   3.416   0.047  1.00  0.00     0.173 C 
BRANCH  13  14
ATOM     14  C   UNL     1      -0.155   2.361   0.873  1.00  0.00     0.075 C 
ATOM     15  C   UNL     1      -0.062   0.906   0.458  1.00  0.00     0.011 C 
ENDBRANCH  13  14
BRANCH  13  16
ATOM     16  N   UNL     1       0.410   3.190  -1.404  1.00  0.00    -0.345 N 
ATOM     17  H   UNL     1      -0.585   3.308  -1.597  1.00  0.00     0.345 HD
ATOM     18  H   UNL     1       0.696   2.244  -1.657  1.00  0.00     0.345 HD
ATOM     19  H   UNL     1       0.944   3.865  -1.952  1.00  0.00     0.345 HD
ENDBRANCH  13  16
BRANCH  13  20
ATOM     20  C   UNL     1       0.051   4.779   0.437  1.00  0.00     0.075 C 
ATOM     21  C   UNL     1       0.498   5.275   1.807  1.00  0.00     0.011 C 
ENDBRANCH  13  20
ENDBRANCH  11  13
ENDBRANCH  10  11
BRANCH  10  22
ATOM     22  C   UNL     1       2.925   5.388  -0.841  1.00  0.00     0.126 C 
BRANCH  22  23
ATOM     23  C   UNL     1       3.925   6.516  -0.651  1.00  0.00     0.083 CG0
ATOM     24  G   UNL     1       5.258   6.463  -1.383  1.00  0.00     0.000 G0
ENDBRANCH  22  23
ENDBRANCH  10  22
ENDBRANCH   9  10
ENDBRANCH   8   9
ENDBRANCH   6   8
BRANCH   6  25
ATOM     25  C   UNL     1       5.258   6.463  -1.383  1.00  0.00     0.264 CG0
ATOM     26  G   UNL     1       3.925   6.516  -0.651  1.00  0.00     0.000 G0
ENDBRANCH   6  25
ENDBRANCH   5   6
ENDBRANCH   1   5
BRANCH   3  27
ATOM     27  C   UNL     1       4.730   1.959  -4.080  1.00  0.00     0.118 C 
BRANCH  27  28
ATOM     28  C   UNL     1       4.726   0.844  -3.022  1.00  0.00     0.042 C 
BRANCH  28  29
ATOM     29  C   UNL     1       3.360   0.328  -2.544  1.00  0.00     0.118 C 
BRANCH  29  30
ATOM     30  N   UNL     1       2.970  -0.891  -3.242  1.00  0.00    -0.352 N 
ATOM     31  C   UNL     1       2.837  -2.191  -2.796  1.00  0.00     0.251 C 
ATOM     32  H   UNL     1       2.765  -0.765  -4.197  1.00  0.00     0.163 HD
ATOM     33  O   UNL     1       2.822  -3.086  -3.642  1.00  0.00    -0.269 OA
BRANCH  31  34
ATOM     34  C   UNL     1       2.684  -2.548  -1.356  1.00  0.00     0.039 A 
ATOM     35  C   UNL     1       3.153  -3.778  -0.883  1.00  0.00     0.014 A 
ATOM     36  C   UNL     1       1.964  -1.743  -0.481  1.00  0.00     0.014 A 
ATOM     37  C   UNL     1       2.932  -4.165   0.454  1.00  0.00     0.010 A 
ATOM     38  C   UNL     1       1.805  -2.094   0.871  1.00  0.00     0.010 A 
ATOM     39  C   UNL     1       2.269  -3.318   1.361  1.00  0.00    -0.014 A 
BRANCH  39  40
ATOM     40  C   UNL     1       2.113  -3.683   2.806  1.00  0.00     0.031 A 
ATOM     41  C   UNL     1       0.759  -3.843   3.465  1.00  0.00     0.074 A 
ATOM     42  C   UNL     1       3.218  -3.816   3.571  1.00  0.00     0.049 A 
ATOM     43  N   UNL     1       0.471  -4.270   4.674  1.00  0.00    -0.248 NA
ATOM     44  C   UNL     1      -0.420  -3.440   2.687  1.00  0.00     0.031 C 
ATOM     45  C   UNL     1       4.586  -3.556   3.119  1.00  0.00     0.029 A 
ATOM     46  N   UNL     1       3.371  -4.198   4.883  1.00  0.00    -0.354 N 
ATOM     47  C   UNL     1      -0.915  -4.194   4.797  1.00  0.00     0.074 A 
ATOM     48  C   UNL     1      -1.401  -3.607   3.566  1.00  0.00     0.031 C 
ATOM     49  C   UNL     1       5.439  -3.835   4.116  1.00  0.00     0.029 A 
ATOM     50  C   UNL     1       4.685  -4.273   5.287  1.00  0.00     0.049 A 
ATOM     51  H   UNL     1       2.613  -4.399   5.477  1.00  0.00     0.167 HD
ATOM     52  C   UNL     1      -1.711  -4.601   5.821  1.00  0.00     0.034 A 
ATOM     53  C   UNL     1       5.231  -4.668   6.455  1.00  0.00     0.034 A 
ATOM     54  C   UNL     1      -1.218  -5.182   7.051  1.00  0.00     0.049 A 
ATOM     55  C   UNL     1       4.335  -5.163   7.561  1.00  0.00     0.074 A 
ATOM     56  C   UNL     1      -1.940  -5.731   8.099  1.00  0.00     0.029 A 
ATOM     57  N   UNL     1       0.120  -5.269   7.413  1.00  0.00    -0.354 N 
ATOM     58  N   UNL     1       3.025  -5.232   7.597  1.00  0.00    -0.248 NA
ATOM     59  C   UNL     1       4.998  -5.662   8.773  1.00  0.00     0.031 C 
ATOM     60  C   UNL     1      -1.049  -6.075   9.122  1.00  0.00     0.029 A 
ATOM     61  C   UNL     1       0.240  -5.825   8.681  1.00  0.00     0.049 A 
ATOM     62  H   UNL     1       0.875  -4.979   6.853  1.00  0.00     0.167 HD
ATOM     63  C   UNL     1       2.711  -5.810   8.825  1.00  0.00     0.074 A 
ATOM     64  C   UNL     1       3.969  -6.095   9.484  1.00  0.00     0.031 C 
ATOM     65  C   UNL     1       1.491  -6.084   9.356  1.00  0.00     0.034 A 
BRANCH  52  66
ATOM     66  C   UNL     1      -3.211  -4.444   5.660  1.00  0.00     0.023 A 
ATOM     67  C   UNL     1      -3.915  -5.097   4.632  1.00  0.00     0.031 A 
ATOM     68  C   UNL     1      -3.956  -3.656   6.559  1.00  0.00     0.131 A 
ATOM     69  C   UNL     1      -5.297  -4.900   4.485  1.00  0.00     0.055 A 
ATOM     70  C   UNL     1      -5.344  -3.529   6.456  1.00  0.00     0.041 A 
ATOM     71  F   UNL     1      -3.347  -2.997   7.557  1.00  0.00    -0.206 F 
ATOM     72  C   UNL     1      -6.021  -4.141   5.406  1.00  0.00     0.022 A 
BRANCH  69  73
ATOM     73  S   UNL     1      -6.114  -5.546   3.000  1.00  0.00     0.124 S 
ATOM     74  O   UNL     1      -5.356  -4.891   1.936  1.00  0.00    -0.237 OA
ATOM     75  O   UNL     1      -5.913  -6.987   3.132  1.00  0.00    -0.237 OA
ATOM     76  O   UNL     1      -7.494  -5.093   3.142  1.00  0.00    -0.744 OA
ENDBRANCH  69  73
ENDBRANCH  52  66
BRANCH  53  77
ATOM     77  C   UNL     1       6.713  -4.660   6.627  1.00  0.00     0.023 A 
ATOM     78  C   UNL     1       7.428  -5.858   6.782  1.00  0.00     0.031 A 
ATOM     79  C   UNL     1       7.431  -3.452   6.668  1.00  0.00     0.131 A 
ATOM     80  C   UNL     1       8.811  -5.822   7.016  1.00  0.00     0.055 A 
ATOM     81  C   UNL     1       8.815  -3.424   6.846  1.00  0.00     0.041 A 
ATOM     82  F   UNL     1       6.795  -2.279   6.516  1.00  0.00    -0.206 F 
ATOM     83  C   UNL     1       9.511  -4.614   7.035  1.00  0.00     0.022 A 
BRANCH  80  84
ATOM     84  S   UNL     1       9.670  -7.378   7.379  1.00  0.00     0.124 S 
ATOM     85  O   UNL     1       8.943  -7.855   8.548  1.00  0.00    -0.237 OA
ATOM     86  O   UNL     1       9.469  -8.130   6.145  1.00  0.00    -0.237 OA
ATOM     87  O   UNL     1      11.047  -6.954   7.629  1.00  0.00    -0.744 OA
ENDBRANCH  80  84
ENDBRANCH  53  77
BRANCH  65  88
ATOM     88  C   UNL     1       1.467  -6.752  10.712  1.00  0.00     0.023 A 
ATOM     89  C   UNL     1       1.977  -6.118  11.860  1.00  0.00     0.031 A 
ATOM     90  C   UNL     1       0.969  -8.060  10.853  1.00  0.00     0.131 A 
ATOM     91  C   UNL     1       2.051  -6.818  13.075  1.00  0.00     0.055 A 
ATOM     92  C   UNL     1       0.978  -8.725  12.081  1.00  0.00     0.041 A 
ATOM     93  F   UNL     1       0.471  -8.720   9.795  1.00  0.00    -0.206 F 
ATOM     94  C   UNL     1       1.539  -8.111  13.197  1.00  0.00     0.022 A 
BRANCH  91  95
ATOM     95  S   UNL     1       2.942  -6.061  14.463  1.00  0.00     0.124 S 
ATOM     96  O   UNL     1       4.256  -5.812  13.881  1.00  0.00    -0.237 OA
ATOM     97  O   UNL     1       2.134  -4.878  14.743  1.00  0.00    -0.237 OA
ATOM     98  O   UNL     1       2.907  -7.093  15.498  1.00  0.00    -0.744 OA
ENDBRANCH  91  95
ENDBRANCH  65  88
ENDBRANCH  39  40
ENDBRANCH  31  34
ENDBRANCH  29  30
ENDBRANCH  28  29
ENDBRANCH  27  28
ENDBRANCH   3  27
TORSDOF 19
