REMARK SMILES CC[C@](C)(NC(=O)[C@](C)([NH3+])c1ccccc1)C(=O)NCCCNC(=O)c1ccc(-c2c3nc(c(-c4cc(S(=O)(=O)[O-])ccc4F)c4ccc([nH]4)c(-c4cc(S(=O)(=O)[O-])ccc4F)c4nc(c(-c5cc(S(=O)(=O)[O-])ccc5F)c5ccc2[nH]5)C=C4)C=C3)cc1
REMARK SMILES IDX 21 1 20 2 19 3 17 4 18 5 3 7 4 8 2 9 1 10 5 11 6 12 7 14
REMARK SMILES IDX 8 15 9 16 10 17 11 21 12 22 16 23 13 24 15 25 14 26 22 27
REMARK SMILES IDX 23 28 24 29 25 31 26 32 27 33 88 34 28 35 87 36 29 37 30 38
REMARK SMILES IDX 31 39 81 40 32 41 86 42 80 43 82 44 33 45 85 46 79 47 78 48
REMARK SMILES IDX 34 50 66 51 46 52 65 53 47 54 50 55 64 56 83 57 48 58 49 59
REMARK SMILES IDX 63 61 84 62 51 63 35 64 36 65 44 66 37 67 43 68 45 69 42 70
REMARK SMILES IDX 38 71 39 72 40 73 41 74 67 75 68 76 76 77 69 78 75 79 77 80
REMARK SMILES IDX 74 81 70 82 71 83 72 84 73 85 52 86 53 87 61 88 54 89 60 90
REMARK SMILES IDX 62 91 59 92 55 93 56 94 57 95 58 96
REMARK H PARENT 19 6 5 13 10 18 10 19 10 20 23 30 82 49 50 60
REMARK Flexibility Score: inf
ROOT
ATOM      1  C   UNL     1       6.004  -3.975   2.558  1.00  0.00     0.042 C 
ENDROOT
BRANCH   1   2
ATOM      2  C   UNL     1       5.492  -5.363   2.160  1.00  0.00     0.117 C 
BRANCH   2   3
ATOM      3  N   UNL     1       4.279  -5.962   2.722  1.00  0.00    -0.354 N 
ATOM      4  C   UNL     1       3.072  -6.297   2.105  1.00  0.00     0.245 C 
ATOM      5  O   UNL     1       2.418  -7.269   2.492  1.00  0.00    -0.272 OA
ATOM      6  H   UNL     1       4.322  -6.160   3.686  1.00  0.00     0.163 HD
BRANCH   4   7
ATOM      7  C   UNL     1       2.660  -5.555   0.841  1.00  0.00     0.116 C 
ATOM      8  C   UNL     1       1.175  -5.532   0.420  1.00  0.00     0.045 C 
BRANCH   7   9
ATOM      9  C   UNL     1       3.376  -6.323  -0.360  1.00  0.00     0.035 C 
ATOM     10  C   UNL     1       4.484  -7.363  -0.091  1.00  0.00     0.007 C 
ENDBRANCH   7   9
BRANCH   7  11
ATOM     11  N   UNL     1       3.046  -4.150   1.090  1.00  0.00    -0.336 N 
ATOM     12  C   UNL     1       2.781  -3.240   2.079  1.00  0.00     0.286 C 
ATOM     13  H   UNL     1       3.626  -3.785   0.384  1.00  0.00     0.164 HD
ATOM     14  O   UNL     1       3.077  -2.088   1.681  1.00  0.00    -0.267 OA
BRANCH  12  15
ATOM     15  C   UNL     1       2.139  -3.338   3.610  1.00  0.00     0.196 C 
ATOM     16  C   UNL     1       0.609  -3.401   3.535  1.00  0.00     0.096 C 
BRANCH  15  17
ATOM     17  N   UNL     1       2.419  -1.953   4.151  1.00  0.00    -0.341 N 
ATOM     18  H   UNL     1       2.065  -1.883   5.106  1.00  0.00     0.345 HD
ATOM     19  H   UNL     1       1.955  -1.259   3.565  1.00  0.00     0.345 HD
ATOM     20  H   UNL     1       3.424  -1.783   4.148  1.00  0.00     0.345 HD
ENDBRANCH  15  17
BRANCH  15  21
ATOM     21  C   UNL     1       2.655  -4.350   4.685  1.00  0.00     0.022 A 
ATOM     22  C   UNL     1       2.171  -5.662   4.805  1.00  0.00     0.011 A 
ATOM     23  C   UNL     1       3.542  -3.981   5.719  1.00  0.00     0.011 A 
ATOM     24  C   UNL     1       2.783  -6.616   5.647  1.00  0.00     0.001 A 
ATOM     25  C   UNL     1       4.131  -4.909   6.596  1.00  0.00     0.001 A 
ATOM     26  C   UNL     1       3.811  -6.250   6.502  1.00  0.00     0.000 A 
ENDBRANCH  15  21
ENDBRANCH  12  15
ENDBRANCH   7  11
ENDBRANCH   4   7
ENDBRANCH   2   3
ENDBRANCH   1   2
BRANCH   1  27
ATOM     27  C   UNL     1       6.364  -3.609   3.987  1.00  0.00     0.118 C 
BRANCH  27  28
ATOM     28  N   UNL     1       6.933  -4.651   4.805  1.00  0.00    -0.352 N 
ATOM     29  C   UNL     1       7.654  -4.506   5.975  1.00  0.00     0.251 C 
ATOM     30  H   UNL     1       6.790  -5.574   4.494  1.00  0.00     0.163 HD
ATOM     31  O   UNL     1       8.069  -5.495   6.556  1.00  0.00    -0.269 OA
BRANCH  29  32
ATOM     32  C   UNL     1       7.960  -3.147   6.499  1.00  0.00     0.039 A 
ATOM     33  C   UNL     1       9.293  -2.827   6.755  1.00  0.00     0.014 A 
ATOM     34  C   UNL     1       6.962  -2.199   6.748  1.00  0.00     0.014 A 
ATOM     35  C   UNL     1       9.629  -1.538   7.183  1.00  0.00     0.010 A 
ATOM     36  C   UNL     1       7.302  -0.897   7.131  1.00  0.00     0.010 A 
ATOM     37  C   UNL     1       8.643  -0.545   7.331  1.00  0.00    -0.014 A 
BRANCH  37  38
ATOM     38  C   UNL     1       9.043   0.867   7.588  1.00  0.00     0.031 A 
ATOM     39  C   UNL     1       8.702   1.568   8.874  1.00  0.00     0.074 A 
ATOM     40  C   UNL     1       9.720   1.526   6.625  1.00  0.00     0.049 A 
ATOM     41  N   UNL     1       9.055   2.763   9.279  1.00  0.00    -0.248 NA
ATOM     42  C   UNL     1       7.839   0.845   9.817  1.00  0.00     0.031 C 
ATOM     43  C   UNL     1      10.051   0.976   5.308  1.00  0.00     0.029 A 
ATOM     44  N   UNL     1      10.265   2.786   6.601  1.00  0.00    -0.354 N 
ATOM     45  C   UNL     1       8.471   2.933  10.530  1.00  0.00     0.074 A 
ATOM     46  C   UNL     1       7.687   1.741  10.783  1.00  0.00     0.031 C 
ATOM     47  C   UNL     1      10.786   1.869   4.629  1.00  0.00     0.029 A 
ATOM     48  C   UNL     1      10.944   3.072   5.438  1.00  0.00     0.049 A 
ATOM     49  H   UNL     1      10.179   3.424   7.346  1.00  0.00     0.167 HD
ATOM     50  C   UNL     1       8.595   3.975  11.392  1.00  0.00     0.034 A 
ATOM     51  C   UNL     1      11.621   4.175   5.061  1.00  0.00     0.034 A 
ATOM     52  C   UNL     1       9.365   5.168  11.112  1.00  0.00     0.049 A 
ATOM     53  C   UNL     1      11.728   5.325   6.029  1.00  0.00     0.074 A 
ATOM     54  C   UNL     1       9.591   6.261  11.931  1.00  0.00     0.029 A 
ATOM     55  N   UNL     1      10.020   5.434   9.915  1.00  0.00    -0.354 N 
ATOM     56  N   UNL     1      11.234   5.436   7.242  1.00  0.00    -0.248 NA
ATOM     57  C   UNL     1      12.502   6.490   5.585  1.00  0.00     0.031 C 
ATOM     58  C   UNL     1      10.309   7.218  11.205  1.00  0.00     0.029 A 
ATOM     59  C   UNL     1      10.618   6.687   9.963  1.00  0.00     0.049 A 
ATOM     60  H   UNL     1      10.056   4.823   9.144  1.00  0.00     0.167 HD
ATOM     61  C   UNL     1      11.667   6.672   7.715  1.00  0.00     0.074 A 
ATOM     62  C   UNL     1      12.484   7.251   6.668  1.00  0.00     0.031 C 
ATOM     63  C   UNL     1      11.414   7.272   8.907  1.00  0.00     0.034 A 
BRANCH  50  64
ATOM     64  C   UNL     1       7.857   3.883  12.711  1.00  0.00     0.023 A 
ATOM     65  C   UNL     1       8.140   2.871  13.646  1.00  0.00     0.031 A 
ATOM     66  C   UNL     1       6.854   4.813  13.038  1.00  0.00     0.131 A 
ATOM     67  C   UNL     1       7.381   2.768  14.823  1.00  0.00     0.055 A 
ATOM     68  C   UNL     1       6.160   4.756  14.249  1.00  0.00     0.041 A 
ATOM     69  F   UNL     1       6.523   5.793  12.182  1.00  0.00    -0.206 F 
ATOM     70  C   UNL     1       6.411   3.719  15.143  1.00  0.00     0.022 A 
BRANCH  67  71
ATOM     71  S   UNL     1       7.579   1.290  15.856  1.00  0.00     0.124 S 
ATOM     72  O   UNL     1       7.268   0.223  14.908  1.00  0.00    -0.237 OA
ATOM     73  O   UNL     1       8.972   1.384  16.277  1.00  0.00    -0.237 OA
ATOM     74  O   UNL     1       6.592   1.478  16.917  1.00  0.00    -0.744 OA
ENDBRANCH  67  71
ENDBRANCH  50  64
BRANCH  51  75
ATOM     75  C   UNL     1      12.255   4.251   3.712  1.00  0.00     0.023 A 
ATOM     76  C   UNL     1      13.645   4.387   3.565  1.00  0.00     0.031 A 
ATOM     77  C   UNL     1      11.469   4.236   2.545  1.00  0.00     0.131 A 
ATOM     78  C   UNL     1      14.201   4.556   2.287  1.00  0.00     0.055 A 
ATOM     79  C   UNL     1      12.033   4.341   1.273  1.00  0.00     0.041 A 
ATOM     80  F   UNL     1      10.135   4.105   2.625  1.00  0.00    -0.206 F 
ATOM     81  C   UNL     1      13.406   4.518   1.139  1.00  0.00     0.022 A 
BRANCH  78  82
ATOM     82  S   UNL     1      15.972   4.929   2.151  1.00  0.00     0.124 S 
ATOM     83  O   UNL     1      16.083   6.139   2.956  1.00  0.00    -0.237 OA
ATOM     84  O   UNL     1      16.578   3.726   2.711  1.00  0.00    -0.237 OA
ATOM     85  O   UNL     1      16.170   5.112   0.714  1.00  0.00    -0.744 OA
ENDBRANCH  78  82
ENDBRANCH  51  75
BRANCH  63  86
ATOM     86  C   UNL     1      12.071   8.614   9.149  1.00  0.00     0.023 A 
ATOM     87  C   UNL     1      11.789   9.735   8.348  1.00  0.00     0.031 A 
ATOM     88  C   UNL     1      13.034   8.759  10.164  1.00  0.00     0.131 A 
ATOM     89  C   UNL     1      12.523  10.919   8.514  1.00  0.00     0.055 A 
ATOM     90  C   UNL     1      13.704   9.965  10.378  1.00  0.00     0.041 A 
ATOM     91  F   UNL     1      13.353   7.725  10.959  1.00  0.00    -0.206 F 
ATOM     92  C   UNL     1      13.465  11.048   9.537  1.00  0.00     0.022 A 
BRANCH  89  93
ATOM     93  S   UNL     1      12.338  12.237   7.281  1.00  0.00     0.124 S 
ATOM     94  O   UNL     1      12.642  11.535   6.039  1.00  0.00    -0.237 OA
ATOM     95  O   UNL     1      10.947  12.639   7.461  1.00  0.00    -0.237 OA
ATOM     96  O   UNL     1      13.328  13.231   7.690  1.00  0.00    -0.744 OA
ENDBRANCH  89  93
ENDBRANCH  63  86
ENDBRANCH  37  38
ENDBRANCH  29  32
ENDBRANCH  27  28
ENDBRANCH   1  27
TORSDOF 18
