REMARK SMILES Cc1c(NC(=O)[C@@H]2CC=CC[C@@H]2C(=O)NCCCNC(=O)c2ccc(-c3c4nc(c(-c5cc(S(=O)(=O)[O-])ccc5F)c5ccc([nH]5)c(-c5cc(S(=O)(=O)[O-])ccc5F)c5nc(c(-c6cc(S(=O)(=O)[O-])ccc6F)c6ccc3[nH]6)C=C5)C=C4)cc2)cccc1C(=O)N1CCOCC1
REMARK SMILES IDX 17 1 16 2 15 3 13 4 14 5 12 7 7 8 8 9 9 10 11 11 10 12 5 13
REMARK SMILES IDX 4 14 6 16 3 17 1 18 2 19 88 20 85 21 87 22 86 23 89 24 90 25
REMARK SMILES IDX 91 26 92 27 96 28 93 29 95 30 94 31 18 32 19 33 20 34 21 36
REMARK SMILES IDX 22 37 23 38 84 39 24 40 83 41 25 42 26 43 27 44 77 45 28 46
REMARK SMILES IDX 82 47 76 48 78 49 29 50 81 51 75 52 74 53 30 55 62 56 42 57
REMARK SMILES IDX 61 58 43 59 46 60 60 61 79 62 44 63 45 64 59 66 80 67 47 68
REMARK SMILES IDX 31 69 32 70 40 71 33 72 39 73 41 74 38 75 34 76 35 77 36 78
REMARK SMILES IDX 37 79 63 80 64 81 72 82 65 83 71 84 73 85 70 86 66 87 67 88
REMARK SMILES IDX 68 89 69 90 48 91 49 92 57 93 50 94 56 95 58 96 55 97 51 98
REMARK SMILES IDX 52 99 53 100 54 101
REMARK H PARENT 15 6 4 15 19 35 78 54 46 65
REMARK Flexibility Score: inf
ROOT
ATOM      1  C   UNL     1      -3.718  -5.365   1.242  1.00  0.00     0.042 C 
ENDROOT
BRANCH   1   2
ATOM      2  C   UNL     1      -3.793  -5.041  -0.248  1.00  0.00     0.117 C 
BRANCH   2   3
ATOM      3  N   UNL     1      -4.086  -3.638  -0.498  1.00  0.00    -0.356 N 
ATOM      4  C   UNL     1      -3.405  -2.526  -0.854  1.00  0.00     0.224 C 
ATOM      5  O   UNL     1      -4.128  -1.525  -0.982  1.00  0.00    -0.275 OA
ATOM      6  H   UNL     1      -5.043  -3.446  -0.375  1.00  0.00     0.163 HD
BRANCH   4   7
ATOM      7  C   UNL     1      -1.896  -2.411  -1.215  1.00  0.00     0.095 C 
ATOM      8  C   UNL     1      -0.810  -3.193  -0.425  1.00  0.00     0.095 C 
ATOM      9  C   UNL     1      -0.981  -2.900   1.067  1.00  0.00     0.041 C 
ATOM     10  C   UNL     1      -1.008  -1.414   1.325  1.00  0.00    -0.030 C 
ATOM     11  C   UNL     1      -1.492  -0.908  -1.082  1.00  0.00     0.041 C 
ATOM     12  C   UNL     1      -1.204  -0.513   0.348  1.00  0.00    -0.030 C 
BRANCH   8  13
ATOM     13  C   UNL     1      -0.671  -4.612  -0.953  1.00  0.00     0.228 C 
ATOM     14  N   UNL     1      -0.153  -5.649  -0.254  1.00  0.00    -0.326 N 
ATOM     15  H   UNL     1      -0.571  -6.510  -0.489  1.00  0.00     0.169 HD
ATOM     16  O   UNL     1      -1.025  -4.883  -2.108  1.00  0.00    -0.274 OA
BRANCH  14  17
ATOM     17  C   UNL     1       0.841  -5.782   0.728  1.00  0.00     0.044 A 
ATOM     18  C   UNL     1      -0.190  -8.020   1.281  1.00  0.00     0.047 C 
ATOM     19  C   UNL     1       0.940  -7.027   1.405  1.00  0.00    -0.015 A 
ATOM     20  C   UNL     1       2.065  -7.275   2.221  1.00  0.00     0.045 A 
ATOM     21  C   UNL     1       1.792  -4.785   0.954  1.00  0.00     0.026 A 
ATOM     22  C   UNL     1       2.989  -6.243   2.455  1.00  0.00     0.014 A 
ATOM     23  C   UNL     1       2.844  -5.002   1.841  1.00  0.00     0.003 A 
BRANCH  20  24
ATOM     24  C   UNL     1       2.275  -8.523   3.012  1.00  0.00     0.254 C 
ATOM     25  O   UNL     1       2.597  -8.384   4.193  1.00  0.00    -0.269 OA
ATOM     26  N   UNL     1       2.098  -9.781   2.447  1.00  0.00    -0.334 N 
ATOM     27  C   UNL     1       2.230 -10.146   1.029  1.00  0.00     0.148 C 
ATOM     28  C   UNL     1       1.995 -10.931   3.348  1.00  0.00     0.148 C 
ATOM     29  C   UNL     1       1.198 -11.212   0.619  1.00  0.00     0.181 C 
ATOM     30  C   UNL     1       0.912 -11.895   2.858  1.00  0.00     0.181 C 
ATOM     31  O   UNL     1       1.207 -12.332   1.522  1.00  0.00    -0.378 OA
ENDBRANCH  20  24
ENDBRANCH  14  17
ENDBRANCH   8  13
ENDBRANCH   4   7
ENDBRANCH   2   3
ENDBRANCH   1   2
BRANCH   1  32
ATOM     32  C   UNL     1      -5.041  -5.830   1.842  1.00  0.00     0.118 C 
BRANCH  32  33
ATOM     33  N   UNL     1      -4.952  -7.160   2.455  1.00  0.00    -0.352 N 
ATOM     34  C   UNL     1      -5.835  -7.753   3.343  1.00  0.00     0.251 C 
ATOM     35  H   UNL     1      -4.168  -7.698   2.204  1.00  0.00     0.163 HD
ATOM     36  O   UNL     1      -5.681  -8.890   3.760  1.00  0.00    -0.269 OA
BRANCH  34  37
ATOM     37  C   UNL     1      -7.054  -6.991   3.685  1.00  0.00     0.039 A 
ATOM     38  C   UNL     1      -8.257  -7.442   3.135  1.00  0.00     0.014 A 
ATOM     39  C   UNL     1      -6.930  -5.704   4.198  1.00  0.00     0.014 A 
ATOM     40  C   UNL     1      -9.264  -6.519   2.872  1.00  0.00     0.010 A 
ATOM     41  C   UNL     1      -7.888  -4.772   3.841  1.00  0.00     0.010 A 
ATOM     42  C   UNL     1      -9.023  -5.165   3.117  1.00  0.00    -0.014 A 
BRANCH  42  43
ATOM     43  C   UNL     1      -9.835  -4.102   2.520  1.00  0.00     0.031 A 
ATOM     44  C   UNL     1     -10.681  -3.233   3.369  1.00  0.00     0.074 A 
ATOM     45  C   UNL     1      -9.841  -3.904   1.180  1.00  0.00     0.049 A 
ATOM     46  N   UNL     1     -11.729  -2.606   2.949  1.00  0.00    -0.248 NA
ATOM     47  C   UNL     1     -10.435  -3.044   4.793  1.00  0.00     0.031 C 
ATOM     48  C   UNL     1     -10.434  -2.783   0.455  1.00  0.00     0.029 A 
ATOM     49  N   UNL     1      -9.557  -4.844   0.189  1.00  0.00    -0.354 N 
ATOM     50  C   UNL     1     -12.155  -1.768   3.950  1.00  0.00     0.074 A 
ATOM     51  C   UNL     1     -11.329  -2.097   5.089  1.00  0.00     0.031 C 
ATOM     52  C   UNL     1     -10.751  -3.189  -0.782  1.00  0.00     0.029 A 
ATOM     53  C   UNL     1     -10.466  -4.609  -0.865  1.00  0.00     0.049 A 
ATOM     54  H   UNL     1      -8.858  -5.537   0.219  1.00  0.00     0.167 HD
ATOM     55  C   UNL     1     -13.100  -0.822   3.689  1.00  0.00     0.034 A 
ATOM     56  C   UNL     1     -11.316  -5.583  -1.303  1.00  0.00     0.034 A 
ATOM     57  C   UNL     1     -13.610  -0.908   2.325  1.00  0.00     0.049 A 
ATOM     58  C   UNL     1     -12.782  -5.224  -1.177  1.00  0.00     0.074 A 
ATOM     59  C   UNL     1     -13.345  -0.243   1.140  1.00  0.00     0.029 A 
ATOM     60  N   UNL     1     -14.390  -1.997   1.986  1.00  0.00    -0.354 N 
ATOM     61  N   UNL     1     -13.224  -4.104  -0.676  1.00  0.00    -0.248 NA
ATOM     62  C   UNL     1     -13.869  -6.146  -1.514  1.00  0.00     0.031 C 
ATOM     63  C   UNL     1     -13.948  -0.980   0.077  1.00  0.00     0.029 A 
ATOM     64  C   UNL     1     -14.594  -2.075   0.624  1.00  0.00     0.049 A 
ATOM     65  H   UNL     1     -14.755  -2.638   2.637  1.00  0.00     0.167 HD
ATOM     66  C   UNL     1     -14.584  -4.179  -0.531  1.00  0.00     0.074 A 
ATOM     67  C   UNL     1     -14.947  -5.470  -1.086  1.00  0.00     0.031 C 
ATOM     68  C   UNL     1     -15.320  -3.215   0.091  1.00  0.00     0.034 A 
BRANCH  55  69
ATOM     69  C   UNL     1     -13.422   0.318   4.619  1.00  0.00     0.023 A 
ATOM     70  C   UNL     1     -13.821   1.555   4.074  1.00  0.00     0.031 A 
ATOM     71  C   UNL     1     -13.341   0.267   6.023  1.00  0.00     0.131 A 
ATOM     72  C   UNL     1     -14.019   2.683   4.890  1.00  0.00     0.055 A 
ATOM     73  C   UNL     1     -13.465   1.405   6.830  1.00  0.00     0.041 A 
ATOM     74  F   UNL     1     -13.192  -0.894   6.676  1.00  0.00    -0.206 F 
ATOM     75  C   UNL     1     -13.794   2.626   6.263  1.00  0.00     0.022 A 
BRANCH  72  76
ATOM     76  S   UNL     1     -14.599   4.225   4.134  1.00  0.00     0.124 S 
ATOM     77  O   UNL     1     -13.572   4.487   3.131  1.00  0.00    -0.237 OA
ATOM     78  O   UNL     1     -15.913   3.843   3.630  1.00  0.00    -0.237 OA
ATOM     79  O   UNL     1     -14.619   5.164   5.255  1.00  0.00    -0.744 OA
ENDBRANCH  72  76
ENDBRANCH  55  69
BRANCH  56  80
ATOM     80  C   UNL     1     -10.726  -6.951  -1.190  1.00  0.00     0.023 A 
ATOM     81  C   UNL     1      -9.460  -7.134  -1.786  1.00  0.00     0.031 A 
ATOM     82  C   UNL     1     -11.133  -7.880  -0.226  1.00  0.00     0.131 A 
ATOM     83  C   UNL     1      -8.556  -8.058  -1.248  1.00  0.00     0.055 A 
ATOM     84  C   UNL     1     -10.267  -8.887   0.221  1.00  0.00     0.041 A 
ATOM     85  F   UNL     1     -12.312  -7.752   0.399  1.00  0.00    -0.206 F 
ATOM     86  C   UNL     1      -8.952  -8.943  -0.247  1.00  0.00     0.022 A 
BRANCH  83  87
ATOM     87  S   UNL     1      -6.790  -7.809  -1.607  1.00  0.00     0.124 S 
ATOM     88  O   UNL     1      -6.617  -8.548  -2.851  1.00  0.00    -0.237 OA
ATOM     89  O   UNL     1      -6.698  -6.353  -1.706  1.00  0.00    -0.237 OA
ATOM     90  O   UNL     1      -6.106  -8.366  -0.442  1.00  0.00    -0.744 OA
ENDBRANCH  83  87
ENDBRANCH  56  80
BRANCH  68  91
ATOM     91  C   UNL     1     -16.808  -3.321   0.263  1.00  0.00     0.023 A 
ATOM     92  C   UNL     1     -17.642  -3.692  -0.803  1.00  0.00     0.031 A 
ATOM     93  C   UNL     1     -17.439  -2.984   1.478  1.00  0.00     0.131 A 
ATOM     94  C   UNL     1     -19.034  -3.767  -0.625  1.00  0.00     0.055 A 
ATOM     95  C   UNL     1     -18.827  -2.977   1.627  1.00  0.00     0.041 A 
ATOM     96  F   UNL     1     -16.729  -2.696   2.580  1.00  0.00    -0.206 F 
ATOM     97  C   UNL     1     -19.635  -3.379   0.573  1.00  0.00     0.022 A 
BRANCH  94  98
ATOM     98  S   UNL     1     -20.041  -4.465  -1.958  1.00  0.00     0.124 S 
ATOM     99  O   UNL     1     -19.677  -3.637  -3.103  1.00  0.00    -0.237 OA
ATOM    100  O   UNL     1     -19.563  -5.845  -1.996  1.00  0.00    -0.237 OA
ATOM    101  O   UNL     1     -21.412  -4.298  -1.480  1.00  0.00    -0.744 OA
ENDBRANCH  94  98
ENDBRANCH  68  91
ENDBRANCH  42  43
ENDBRANCH  34  37
ENDBRANCH  32  33
ENDBRANCH   1  32
TORSDOF 16
