REMARK SMILES CS(=O)(=O)c1ccc(-c2cc(Cl)cc3c2O[C@H](C(F)(F)F)C(C(=O)NCCCNC(=O)c2ccc(-c4c5nc(c(-c6cc(S(=O)(=O)[O-])ccc6F)c6ccc([nH]6)c(-c6cc(S(=O)(=O)[O-])ccc6F)c6nc(c(-c7cc(S(=O)(=O)[O-])ccc7F)c7ccc4[nH]7)C=C6)C=C5)cc2)=C3)cc1
REMARK SMILES IDX 27 1 26 2 25 3 23 4 24 5 22 7 9 8 10 9 15 10 11 11 14 12
REMARK SMILES IDX 16 13 12 14 13 15 95 16 17 17 8 18 5 19 6 20 97 21 7 22
REMARK SMILES IDX 96 23 2 24 1 25 3 26 4 27 18 28 19 29 20 30 21 31 28 32
REMARK SMILES IDX 29 33 30 34 31 36 32 37 33 38 94 39 34 40 93 41 35 42 36 43
REMARK SMILES IDX 37 44 87 45 38 46 92 47 86 48 88 49 39 50 91 51 85 52 84 53
REMARK SMILES IDX 40 55 72 56 52 57 71 58 53 59 56 60 70 61 89 62 54 63 55 64
REMARK SMILES IDX 69 66 90 67 57 68 41 69 42 70 50 71 43 72 49 73 51 74 48 75
REMARK SMILES IDX 44 76 45 77 46 78 47 79 73 80 74 81 82 82 75 83 81 84 83 85
REMARK SMILES IDX 80 86 76 87 77 88 78 89 79 90 58 91 59 92 67 93 60 94 66 95
REMARK SMILES IDX 68 96 65 97 61 98 62 99 63 100 64 101
REMARK H PARENT 25 6 29 35 88 54 56 65
REMARK Flexibility Score: inf
ROOT
ATOM      1  C   UNL     1      -0.545  10.598  10.404  1.00  0.00     0.042 C 
ENDROOT
BRANCH   1   2
ATOM      2  C   UNL     1       0.066  10.874   9.028  1.00  0.00     0.118 C 
BRANCH   2   3
ATOM      3  N   UNL     1       1.068   9.874   8.717  1.00  0.00    -0.352 N 
ATOM      4  C   UNL     1       1.046   8.977   7.702  1.00  0.00     0.251 C 
ATOM      5  O   UNL     1       1.465   7.840   7.883  1.00  0.00    -0.270 OA
ATOM      6  H   UNL     1       1.853   9.843   9.311  1.00  0.00     0.163 HD
BRANCH   4   7
ATOM      7  C   UNL     1       0.641   9.482   6.357  1.00  0.00     0.067 C 
ATOM      8  C   UNL     1       1.384   6.124   4.176  1.00  0.00     0.026 A 
ATOM      9  C   UNL     1       2.675   5.665   4.552  1.00  0.00     0.033 A 
ATOM     10  C   UNL     1       1.048   7.430   4.587  1.00  0.00     0.135 A 
ATOM     11  C   UNL     1       3.624   6.484   5.160  1.00  0.00     0.042 A 
ATOM     12  C   UNL     1       2.067   8.280   5.094  1.00  0.00     0.019 A 
ATOM     13  O   UNL     1      -0.251   7.926   4.575  1.00  0.00    -0.475 OA
ATOM     14  Cl  UNL     1       5.145   5.832   5.620  1.00  0.00    -0.084 Cl
ATOM     15  C   UNL     1       3.349   7.819   5.373  1.00  0.00     0.032 A 
ATOM     16  C   UNL     1       1.688   9.643   5.526  1.00  0.00     0.025 C 
ATOM     17  C   UNL     1      -0.575   8.805   5.745  1.00  0.00     0.314 C 
BRANCH   8  18
ATOM     18  C   UNL     1       0.656   5.218   3.242  1.00  0.00    -0.015 A 
ATOM     19  C   UNL     1       0.291   3.325   1.151  1.00  0.00     0.067 A 
ATOM     20  C   UNL     1       0.436   2.883   2.462  1.00  0.00     0.021 A 
ATOM     21  C   UNL     1       0.230   4.699   0.887  1.00  0.00     0.021 A 
ATOM     22  C   UNL     1       0.592   3.826   3.495  1.00  0.00     0.010 A 
ATOM     23  C   UNL     1       0.398   5.634   1.925  1.00  0.00     0.010 A 
BRANCH  19  24
ATOM     24  S   UNL     1       0.259   2.204  -0.237  1.00  0.00     0.175 S 
ATOM     25  C   UNL     1       1.004   0.673   0.255  1.00  0.00     0.163 C 
ATOM     26  O   UNL     1       1.126   2.772  -1.252  1.00  0.00    -0.224 OA
ATOM     27  O   UNL     1      -1.141   1.940  -0.517  1.00  0.00    -0.224 OA
ENDBRANCH  19  24
ENDBRANCH   8  18
BRANCH  17  28
ATOM     28  C   UNL     1      -1.595   9.911   5.381  1.00  0.00     0.429 C 
ATOM     29  F   UNL     1      -1.770  10.041   4.047  1.00  0.00    -0.167 F 
ATOM     30  F   UNL     1      -2.807   9.666   5.934  1.00  0.00    -0.167 F 
ATOM     31  F   UNL     1      -1.217  11.137   5.835  1.00  0.00    -0.167 F 
ENDBRANCH  17  28
ENDBRANCH   4   7
ENDBRANCH   2   3
ENDBRANCH   1   2
BRANCH   1  32
ATOM     32  C   UNL     1       0.451  10.624  11.562  1.00  0.00     0.118 C 
BRANCH  32  33
ATOM     33  N   UNL     1       1.116  11.907  11.712  1.00  0.00    -0.352 N 
ATOM     34  C   UNL     1       1.278  12.674  12.840  1.00  0.00     0.251 C 
ATOM     35  H   UNL     1       1.506  12.280  10.888  1.00  0.00     0.163 HD
ATOM     36  O   UNL     1       1.719  13.815  12.734  1.00  0.00    -0.269 OA
BRANCH  34  37
ATOM     37  C   UNL     1       0.894  12.136  14.165  1.00  0.00     0.039 A 
ATOM     38  C   UNL     1       0.220  12.969  15.060  1.00  0.00     0.014 A 
ATOM     39  C   UNL     1       1.200  10.821  14.527  1.00  0.00     0.014 A 
ATOM     40  C   UNL     1      -0.189  12.466  16.298  1.00  0.00     0.010 A 
ATOM     41  C   UNL     1       0.707  10.296  15.719  1.00  0.00     0.010 A 
ATOM     42  C   UNL     1       0.025  11.117  16.628  1.00  0.00    -0.014 A 
BRANCH  42  43
ATOM     43  C   UNL     1      -0.424  10.569  17.937  1.00  0.00     0.031 A 
ATOM     44  C   UNL     1       0.587  10.022  18.912  1.00  0.00     0.074 A 
ATOM     45  C   UNL     1      -1.738  10.539  18.237  1.00  0.00     0.049 A 
ATOM     46  N   UNL     1       0.397   9.486  20.091  1.00  0.00    -0.248 NA
ATOM     47  C   UNL     1       1.996  10.048  18.489  1.00  0.00     0.031 C 
ATOM     48  C   UNL     1      -2.817  10.993  17.355  1.00  0.00     0.029 A 
ATOM     49  N   UNL     1      -2.393  10.114  19.365  1.00  0.00    -0.354 N 
ATOM     50  C   UNL     1       1.657   9.105  20.543  1.00  0.00     0.074 A 
ATOM     51  C   UNL     1       2.589   9.395  19.476  1.00  0.00     0.031 C 
ATOM     52  C   UNL     1      -3.991  10.864  17.993  1.00  0.00     0.029 A 
ATOM     53  C   UNL     1      -3.759  10.276  19.308  1.00  0.00     0.049 A 
ATOM     54  H   UNL     1      -1.929   9.729  20.143  1.00  0.00     0.167 HD
ATOM     55  C   UNL     1       2.010   8.592  21.748  1.00  0.00     0.034 A 
ATOM     56  C   UNL     1      -4.715   9.984  20.213  1.00  0.00     0.034 A 
ATOM     57  C   UNL     1       1.068   8.322  22.807  1.00  0.00     0.049 A 
ATOM     58  C   UNL     1      -4.300   9.402  21.542  1.00  0.00     0.074 A 
ATOM     59  C   UNL     1       1.317   7.846  24.082  1.00  0.00     0.029 A 
ATOM     60  N   UNL     1      -0.307   8.498  22.712  1.00  0.00    -0.354 N 
ATOM     61  N   UNL     1      -3.097   9.099  21.974  1.00  0.00    -0.248 NA
ATOM     62  C   UNL     1      -5.371   9.142  22.510  1.00  0.00     0.031 C 
ATOM     63  C   UNL     1       0.091   7.665  24.730  1.00  0.00     0.029 A 
ATOM     64  C   UNL     1      -0.920   8.114  23.895  1.00  0.00     0.049 A 
ATOM     65  H   UNL     1      -0.778   8.846  21.920  1.00  0.00     0.167 HD
ATOM     66  C   UNL     1      -3.267   8.648  23.281  1.00  0.00     0.074 A 
ATOM     67  C   UNL     1      -4.684   8.740  23.568  1.00  0.00     0.031 C 
ATOM     68  C   UNL     1      -2.337   8.201  24.165  1.00  0.00     0.034 A 
BRANCH  55  69
ATOM     69  C   UNL     1       3.473   8.274  21.967  1.00  0.00     0.023 A 
ATOM     70  C   UNL     1       4.464   9.271  21.905  1.00  0.00     0.031 A 
ATOM     71  C   UNL     1       3.889   6.953  22.205  1.00  0.00     0.131 A 
ATOM     72  C   UNL     1       5.820   8.921  21.992  1.00  0.00     0.055 A 
ATOM     73  C   UNL     1       5.235   6.624  22.384  1.00  0.00     0.041 A 
ATOM     74  F   UNL     1       2.995   5.952  22.252  1.00  0.00    -0.206 F 
ATOM     75  C   UNL     1       6.211   7.608  22.260  1.00  0.00     0.022 A 
BRANCH  72  76
ATOM     76  S   UNL     1       7.066  10.176  21.588  1.00  0.00     0.124 S 
ATOM     77  O   UNL     1       6.693  10.530  20.220  1.00  0.00    -0.237 OA
ATOM     78  O   UNL     1       6.825  11.197  22.601  1.00  0.00    -0.237 OA
ATOM     79  O   UNL     1       8.331   9.456  21.715  1.00  0.00    -0.744 OA
ENDBRANCH  72  76
ENDBRANCH  55  69
BRANCH  56  80
ATOM     80  C   UNL     1      -6.154  10.238  19.907  1.00  0.00     0.023 A 
ATOM     81  C   UNL     1      -6.906  11.153  20.662  1.00  0.00     0.031 A 
ATOM     82  C   UNL     1      -6.814   9.531  18.887  1.00  0.00     0.131 A 
ATOM     83  C   UNL     1      -8.282  11.296  20.423  1.00  0.00     0.055 A 
ATOM     84  C   UNL     1      -8.169   9.721  18.612  1.00  0.00     0.041 A 
ATOM     85  F   UNL     1      -6.143   8.646  18.131  1.00  0.00    -0.206 F 
ATOM     86  C   UNL     1      -8.915  10.597  19.394  1.00  0.00     0.022 A 
BRANCH  83  87
ATOM     87  S   UNL     1      -9.256  12.338  21.545  1.00  0.00     0.124 S 
ATOM     88  O   UNL     1      -8.995  11.710  22.835  1.00  0.00    -0.237 OA
ATOM     89  O   UNL     1      -8.655  13.651  21.336  1.00  0.00    -0.237 OA
ATOM     90  O   UNL     1     -10.621  12.193  21.044  1.00  0.00    -0.744 OA
ENDBRANCH  83  87
ENDBRANCH  56  80
BRANCH  68  91
ATOM     91  C   UNL     1      -2.828   7.829  25.546  1.00  0.00     0.023 A 
ATOM     92  C   UNL     1      -3.728   6.770  25.754  1.00  0.00     0.031 A 
ATOM     93  C   UNL     1      -2.412   8.571  26.666  1.00  0.00     0.131 A 
ATOM     94  C   UNL     1      -4.245   6.534  27.037  1.00  0.00     0.055 A 
ATOM     95  C   UNL     1      -2.870   8.281  27.952  1.00  0.00     0.041 A 
ATOM     96  F   UNL     1      -1.556   9.596  26.530  1.00  0.00    -0.206 F 
ATOM     97  C   UNL     1      -3.807   7.270  28.140  1.00  0.00     0.022 A 
BRANCH  94  98
ATOM     98  S   UNL     1      -5.599   5.341  27.221  1.00  0.00     0.124 S 
ATOM     99  O   UNL     1      -6.593   5.865  26.288  1.00  0.00    -0.237 OA
ATOM    100  O   UNL     1      -4.963   4.086  26.835  1.00  0.00    -0.237 OA
ATOM    101  O   UNL     1      -5.959   5.446  28.634  1.00  0.00    -0.744 OA
ENDBRANCH  94  98
ENDBRANCH  68  91
ENDBRANCH  42  43
ENDBRANCH  34  37
ENDBRANCH  32  33
ENDBRANCH   1  32
TORSDOF 16
