REMARK SMILES O=C(NCCCNC(=O)c1cc(S(=O)(=O)Nc2cc(F)ccc2F)cc2c1OCCO2)c1ccc(-c2c3nc(c(-c4cc(S(=O)(=O)[O-])ccc4F)c4ccc([nH]4)c(-c4cc(S(=O)(=O)[O-])ccc4F)c4nc(c(-c5cc(S(=O)(=O)[O-])ccc5F)c5ccc2[nH]5)C=C4)C=C3)cc1
REMARK SMILES IDX 5 1 4 2 3 3 1 4 2 5 32 7 33 8 94 9 34 10 93 11 35 12 36 13
REMARK SMILES IDX 37 14 87 15 38 16 92 17 86 18 88 19 39 20 91 21 85 22 84 23
REMARK SMILES IDX 40 25 72 26 52 27 71 28 53 29 56 30 70 31 89 32 54 33 55 34
REMARK SMILES IDX 69 36 90 37 57 38 41 39 42 40 50 41 43 42 49 43 51 44 48 45
REMARK SMILES IDX 44 46 45 47 46 48 47 49 73 50 74 51 82 52 75 53 81 54 83 55
REMARK SMILES IDX 80 56 76 57 77 58 78 59 79 60 58 61 59 62 67 63 60 64 66 65
REMARK SMILES IDX 68 66 65 67 61 68 62 69 63 70 64 71 6 72 7 73 8 74 9 76
REMARK SMILES IDX 10 77 11 78 27 79 12 80 26 81 28 82 25 83 31 84 29 85 30 86
REMARK SMILES IDX 13 87 14 88 15 89 16 90 17 92 18 93 23 94 19 95 22 96 24 97
REMARK SMILES IDX 20 98 21 99
REMARK H PARENT 3 6 88 24 56 35 7 75 16 91
REMARK Flexibility Score: inf
ROOT
ATOM      1  C   UNL     1       5.056  -1.438  -1.958  1.00  0.00     0.042 C 
ENDROOT
BRANCH   1   2
ATOM      2  C   UNL     1       4.586  -0.084  -1.448  1.00  0.00     0.118 C 
BRANCH   2   3
ATOM      3  N   UNL     1       3.156  -0.032  -1.173  1.00  0.00    -0.352 N 
ATOM      4  O   UNL     1       1.232  -0.064  -0.024  1.00  0.00    -0.269 OA
ATOM      5  C   UNL     1       2.455   0.056   0.007  1.00  0.00     0.251 C 
ATOM      6  H   UNL     1       2.589  -0.067  -1.977  1.00  0.00     0.163 HD
BRANCH   5   7
ATOM      7  C   UNL     1       3.138   0.268   1.307  1.00  0.00     0.039 A 
ATOM      8  C   UNL     1       4.236   1.118   1.431  1.00  0.00     0.014 A 
ATOM      9  C   UNL     1       2.631  -0.365   2.450  1.00  0.00     0.014 A 
ATOM     10  C   UNL     1       4.924   1.200   2.638  1.00  0.00     0.010 A 
ATOM     11  C   UNL     1       3.264  -0.200   3.688  1.00  0.00     0.010 A 
ATOM     12  C   UNL     1       4.442   0.554   3.786  1.00  0.00    -0.014 A 
BRANCH  12  13
ATOM     13  C   UNL     1       5.167   0.725   5.075  1.00  0.00     0.031 A 
ATOM     14  C   UNL     1       5.808  -0.447   5.770  1.00  0.00     0.074 A 
ATOM     15  C   UNL     1       5.281   1.962   5.598  1.00  0.00     0.049 A 
ATOM     16  N   UNL     1       6.507  -0.469   6.877  1.00  0.00    -0.248 NA
ATOM     17  C   UNL     1       5.631  -1.768   5.149  1.00  0.00     0.031 C 
ATOM     18  C   UNL     1       4.686   3.174   5.027  1.00  0.00     0.029 A 
ATOM     19  N   UNL     1       5.952   2.415   6.706  1.00  0.00    -0.354 N 
ATOM     20  C   UNL     1       6.837  -1.802   7.098  1.00  0.00     0.074 A 
ATOM     21  C   UNL     1       6.233  -2.562   6.023  1.00  0.00     0.031 C 
ATOM     22  C   UNL     1       5.061   4.235   5.756  1.00  0.00     0.029 A 
ATOM     23  C   UNL     1       5.870   3.777   6.880  1.00  0.00     0.049 A 
ATOM     24  H   UNL     1       6.444   1.822   7.318  1.00  0.00     0.167 HD
ATOM     25  C   UNL     1       7.581  -2.339   8.098  1.00  0.00     0.034 A 
ATOM     26  C   UNL     1       6.375   4.572   7.843  1.00  0.00     0.034 A 
ATOM     27  C   UNL     1       8.190  -1.567   9.155  1.00  0.00     0.049 A 
ATOM     28  C   UNL     1       7.193   3.952   8.941  1.00  0.00     0.074 A 
ATOM     29  C   UNL     1       8.995  -2.007  10.193  1.00  0.00     0.029 A 
ATOM     30  N   UNL     1       8.060  -0.193   9.315  1.00  0.00    -0.354 N 
ATOM     31  N   UNL     1       7.507   2.691   9.122  1.00  0.00    -0.248 NA
ATOM     32  C   UNL     1       7.726   4.863   9.961  1.00  0.00     0.031 C 
ATOM     33  C   UNL     1       9.301  -0.912  11.010  1.00  0.00     0.029 A 
ATOM     34  C   UNL     1       8.744   0.225  10.448  1.00  0.00     0.049 A 
ATOM     35  H   UNL     1       7.555   0.399   8.712  1.00  0.00     0.167 HD
ATOM     36  C   UNL     1       8.282   2.658  10.276  1.00  0.00     0.074 A 
ATOM     37  C   UNL     1       8.408   4.028  10.731  1.00  0.00     0.031 C 
ATOM     38  C   UNL     1       8.838   1.591  10.904  1.00  0.00     0.034 A 
BRANCH  25  39
ATOM     39  C   UNL     1       7.740  -3.841   8.117  1.00  0.00     0.023 A 
ATOM     40  C   UNL     1       8.441  -4.527   7.111  1.00  0.00     0.031 A 
ATOM     41  C   UNL     1       7.165  -4.599   9.153  1.00  0.00     0.131 A 
ATOM     42  C   UNL     1       8.496  -5.930   7.127  1.00  0.00     0.055 A 
ATOM     43  C   UNL     1       7.283  -5.990   9.202  1.00  0.00     0.041 A 
ATOM     44  F   UNL     1       6.467  -4.001  10.131  1.00  0.00    -0.206 F 
ATOM     45  C   UNL     1       7.941  -6.665   8.178  1.00  0.00     0.022 A 
BRANCH  42  46
ATOM     46  S   UNL     1       9.193  -6.789   5.689  1.00  0.00     0.124 S 
ATOM     47  O   UNL     1       8.331  -6.309   4.612  1.00  0.00    -0.237 OA
ATOM     48  O   UNL     1      10.569  -6.306   5.671  1.00  0.00    -0.237 OA
ATOM     49  O   UNL     1       9.032  -8.203   6.023  1.00  0.00    -0.744 OA
ENDBRANCH  42  46
ENDBRANCH  25  39
BRANCH  26  50
ATOM     50  C   UNL     1       6.092   6.034   7.826  1.00  0.00     0.023 A 
ATOM     51  C   UNL     1       7.115   6.971   7.615  1.00  0.00     0.031 A 
ATOM     52  C   UNL     1       4.786   6.513   8.032  1.00  0.00     0.131 A 
ATOM     53  C   UNL     1       6.819   8.343   7.644  1.00  0.00     0.055 A 
ATOM     54  C   UNL     1       4.489   7.875   8.014  1.00  0.00     0.041 A 
ATOM     55  F   UNL     1       3.772   5.655   8.229  1.00  0.00    -0.206 F 
ATOM     56  C   UNL     1       5.511   8.800   7.829  1.00  0.00     0.022 A 
BRANCH  53  57
ATOM     57  S   UNL     1       8.182   9.530   7.493  1.00  0.00     0.124 S 
ATOM     58  O   UNL     1       9.030   9.155   8.618  1.00  0.00    -0.237 OA
ATOM     59  O   UNL     1       8.704   9.223   6.165  1.00  0.00    -0.237 OA
ATOM     60  O   UNL     1       7.519  10.827   7.615  1.00  0.00    -0.744 OA
ENDBRANCH  53  57
ENDBRANCH  26  50
BRANCH  38  61
ATOM     61  C   UNL     1       9.648   1.884  12.140  1.00  0.00     0.023 A 
ATOM     62  C   UNL     1       9.042   2.337  13.325  1.00  0.00     0.031 A 
ATOM     63  C   UNL     1      11.046   1.740  12.121  1.00  0.00     0.131 A 
ATOM     64  C   UNL     1       9.838   2.686  14.426  1.00  0.00     0.055 A 
ATOM     65  C   UNL     1      11.828   2.039  13.238  1.00  0.00     0.041 A 
ATOM     66  F   UNL     1      11.674   1.314  11.014  1.00  0.00    -0.206 F 
ATOM     67  C   UNL     1      11.226   2.527  14.394  1.00  0.00     0.022 A 
BRANCH  64  68
ATOM     68  S   UNL     1       9.042   3.436  15.873  1.00  0.00     0.124 S 
ATOM     69  O   UNL     1       8.417   4.622  15.296  1.00  0.00    -0.237 OA
ATOM     70  O   UNL     1       8.130   2.384  16.309  1.00  0.00    -0.237 OA
ATOM     71  O   UNL     1      10.158   3.703  16.779  1.00  0.00    -0.744 OA
ENDBRANCH  64  68
ENDBRANCH  38  61
ENDBRANCH  12  13
ENDBRANCH   5   7
ENDBRANCH   2   3
ENDBRANCH   1   2
BRANCH   1  72
ATOM     72  C   UNL     1       4.444  -1.882  -3.277  1.00  0.00     0.118 C 
BRANCH  72  73
ATOM     73  N   UNL     1       4.725  -0.994  -4.399  1.00  0.00    -0.352 N 
ATOM     74  C   UNL     1       5.221  -1.296  -5.646  1.00  0.00     0.255 C 
ATOM     75  H   UNL     1       4.534  -0.041  -4.241  1.00  0.00     0.163 HD
ATOM     76  O   UNL     1       5.411  -0.409  -6.474  1.00  0.00    -0.269 OA
BRANCH  74  77
ATOM     77  C   UNL     1       5.664  -2.673  -5.952  1.00  0.00     0.087 A 
ATOM     78  C   UNL     1       7.024  -2.826  -6.240  1.00  0.00     0.040 A 
ATOM     79  C   UNL     1       4.834  -3.788  -5.839  1.00  0.00     0.174 A 
ATOM     80  C   UNL     1       7.599  -4.094  -6.230  1.00  0.00     0.092 A 
ATOM     81  C   UNL     1       5.398  -5.065  -5.932  1.00  0.00     0.163 A 
ATOM     82  O   UNL     1       3.494  -3.590  -5.615  1.00  0.00    -0.485 OA
ATOM     83  C   UNL     1       6.778  -5.220  -6.089  1.00  0.00     0.072 A 
ATOM     84  O   UNL     1       4.668  -6.219  -5.808  1.00  0.00    -0.486 OA
ATOM     85  C   UNL     1       2.888  -4.751  -5.041  1.00  0.00     0.271 C 
ATOM     86  C   UNL     1       3.257  -5.978  -5.855  1.00  0.00     0.271 C 
BRANCH  80  87
ATOM     87  S   UNL     1       9.361  -4.369  -6.216  1.00  0.00     0.262 S 
ATOM     88  O   UNL     1       9.699  -4.769  -4.869  1.00  0.00    -0.201 OA
ATOM     89  O   UNL     1       9.640  -5.228  -7.349  1.00  0.00    -0.201 OA
BRANCH  87  90
ATOM     90  N   UNL     1      10.146  -2.936  -6.558  1.00  0.00    -0.277 N 
ATOM     91  H   UNL     1      10.798  -2.947  -7.296  1.00  0.00     0.180 HD
BRANCH  90  92
ATOM     92  C   UNL     1       9.959  -1.696  -5.879  1.00  0.00     0.087 A 
ATOM     93  C   UNL     1       9.542  -1.583  -4.554  1.00  0.00     0.069 A 
ATOM     94  C   UNL     1      10.107  -0.531  -6.650  1.00  0.00     0.147 A 
ATOM     95  C   UNL     1       9.153  -0.332  -4.074  1.00  0.00     0.125 A 
ATOM     96  C   UNL     1       9.738   0.716  -6.160  1.00  0.00     0.044 A 
ATOM     97  F   UNL     1      10.532  -0.632  -7.920  1.00  0.00    -0.205 F 
ATOM     98  F   UNL     1       8.639  -0.234  -2.841  1.00  0.00    -0.207 F 
ATOM     99  C   UNL     1       9.230   0.811  -4.868  1.00  0.00     0.042 A 
ENDBRANCH  90  92
ENDBRANCH  87  90
ENDBRANCH  80  87
ENDBRANCH  74  77
ENDBRANCH  72  73
ENDBRANCH   1  72
TORSDOF 16
