REMARK SMILES CN(C)C(=O)CC[NH2+]Cc1cc(C(=O)NCCCNC(=O)c2ccc(-c3c4nc(c(-c5cc(S(=O)(=O)[O-])ccc5F)c5ccc([nH]5)c(-c5cc(S(=O)(=O)[O-])ccc5F)c5nc(c(-c6cc(S(=O)(=O)[O-])ccc6F)c6ccc3[nH]6)C=C5)C=C4)cc2)cs1
REMARK SMILES IDX 16 1 15 2 13 3 14 4 12 6 10 7 11 8 86 9 85 10 9 11 8 12 7 15
REMARK SMILES IDX 6 16 4 17 1 18 2 19 3 20 5 21 17 22 18 23 19 24 20 25 21 27
REMARK SMILES IDX 22 28 23 29 84 30 24 31 83 32 25 33 26 34 27 35 77 36 28 37
REMARK SMILES IDX 82 38 76 39 78 40 29 41 81 42 75 43 74 44 30 46 62 47 42 48
REMARK SMILES IDX 61 49 43 50 46 51 60 52 79 53 44 54 45 55 59 57 80 58 47 59
REMARK SMILES IDX 31 60 32 61 40 62 33 63 39 64 41 65 38 66 34 67 35 68 36 69
REMARK SMILES IDX 37 70 63 71 64 72 72 73 65 74 71 75 73 76 70 77 66 78 67 79
REMARK SMILES IDX 68 80 69 81 48 82 49 83 57 84 50 85 56 86 58 87 55 88 51 89
REMARK SMILES IDX 52 90 53 91 54 92
REMARK H PARENT 15 5 8 13 8 14 19 26 78 45 46 56
REMARK Flexibility Score: inf
ROOT
ATOM      1  C   UNL     1       4.120   2.496  -5.262  1.00  0.00     0.118 C 
ENDROOT
BRANCH   1   2
ATOM      2  N   UNL     1       5.377   1.762  -5.300  1.00  0.00    -0.352 N 
ATOM      3  C   UNL     1       5.650   0.419  -5.225  1.00  0.00     0.252 C 
ATOM      4  O   UNL     1       6.837   0.071  -5.195  1.00  0.00    -0.269 OA
ATOM      5  H   UNL     1       6.174   2.331  -5.396  1.00  0.00     0.163 HD
BRANCH   3   6
ATOM      6  C   UNL     1       4.573  -0.560  -5.117  1.00  0.00     0.051 A 
ATOM      7  C   UNL     1       2.416  -1.465  -5.185  1.00  0.00     0.059 A 
ATOM      8  C   UNL     1       3.294  -0.571  -5.765  1.00  0.00     0.035 A 
ATOM      9  S   UNL     1       3.246  -2.578  -4.189  1.00  0.00    -0.142 S 
ATOM     10  C   UNL     1       4.709  -1.707  -4.352  1.00  0.00     0.079 A 
BRANCH   7  11
ATOM     11  C   UNL     1       0.921  -1.495  -5.313  1.00  0.00     0.308 C 
BRANCH  11  12
ATOM     12  N   UNL     1       0.269  -0.751  -4.220  1.00  0.00    -0.341 N 
ATOM     13  H   UNL     1      -0.734  -0.931  -4.258  1.00  0.00     0.346 HD
ATOM     14  H   UNL     1       0.680  -1.072  -3.344  1.00  0.00     0.346 HD
BRANCH  12  15
ATOM     15  C   UNL     1       0.490   0.701  -4.306  1.00  0.00     0.270 C 
BRANCH  15  16
ATOM     16  C   UNL     1      -0.178   1.483  -3.176  1.00  0.00     0.161 C 
BRANCH  16  17
ATOM     17  C   UNL     1       0.578   1.289  -1.876  1.00  0.00     0.227 C 
ATOM     18  C   UNL     1       0.980   0.056   0.191  1.00  0.00     0.146 C 
ATOM     19  N   UNL     1       0.178   0.290  -1.001  1.00  0.00    -0.349 N 
ATOM     20  C   UNL     1      -1.024  -0.521  -1.119  1.00  0.00     0.146 C 
ATOM     21  O   UNL     1       1.577   1.984  -1.664  1.00  0.00    -0.275 OA
ENDBRANCH  16  17
ENDBRANCH  15  16
ENDBRANCH  12  15
ENDBRANCH  11  12
ENDBRANCH   7  11
ENDBRANCH   3   6
ENDBRANCH   1   2
BRANCH   1  22
ATOM     22  C   UNL     1       3.819   3.150  -3.919  1.00  0.00     0.042 C 
BRANCH  22  23
ATOM     23  C   UNL     1       4.596   4.434  -3.646  1.00  0.00     0.118 C 
BRANCH  23  24
ATOM     24  N   UNL     1       4.354   5.459  -4.654  1.00  0.00    -0.352 N 
ATOM     25  C   UNL     1       3.836   6.726  -4.563  1.00  0.00     0.251 C 
ATOM     26  H   UNL     1       4.610   5.194  -5.567  1.00  0.00     0.163 HD
ATOM     27  O   UNL     1       3.533   7.303  -5.607  1.00  0.00    -0.269 OA
BRANCH  25  28
ATOM     28  C   UNL     1       3.635   7.405  -3.261  1.00  0.00     0.039 A 
ATOM     29  C   UNL     1       2.580   8.318  -3.141  1.00  0.00     0.014 A 
ATOM     30  C   UNL     1       4.509   7.224  -2.187  1.00  0.00     0.014 A 
ATOM     31  C   UNL     1       2.378   9.008  -1.942  1.00  0.00     0.010 A 
ATOM     32  C   UNL     1       4.260   7.850  -0.966  1.00  0.00     0.010 A 
ATOM     33  C   UNL     1       3.202   8.761  -0.833  1.00  0.00    -0.014 A 
BRANCH  33  34
ATOM     34  C   UNL     1       2.989   9.466   0.459  1.00  0.00     0.031 A 
ATOM     35  C   UNL     1       4.048  10.392   0.998  1.00  0.00     0.074 A 
ATOM     36  C   UNL     1       1.871   9.229   1.172  1.00  0.00     0.049 A 
ATOM     37  N   UNL     1       4.086  11.037   2.136  1.00  0.00    -0.248 NA
ATOM     38  C   UNL     1       5.238  10.591   0.157  1.00  0.00     0.031 C 
ATOM     39  C   UNL     1       0.795   8.317   0.778  1.00  0.00     0.029 A 
ATOM     40  N   UNL     1       1.456   9.728   2.381  1.00  0.00    -0.354 N 
ATOM     41  C   UNL     1       5.311  11.698   2.159  1.00  0.00     0.074 A 
ATOM     42  C   UNL     1       6.007  11.327   0.945  1.00  0.00     0.031 C 
ATOM     43  C   UNL     1      -0.166   8.340   1.715  1.00  0.00     0.029 A 
ATOM     44  C   UNL     1       0.240   9.235   2.794  1.00  0.00     0.049 A 
ATOM     45  H   UNL     1       1.979  10.378   2.904  1.00  0.00     0.167 HD
ATOM     46  C   UNL     1       5.801  12.550   3.095  1.00  0.00     0.034 A 
ATOM     47  C   UNL     1      -0.465   9.473   3.917  1.00  0.00     0.034 A 
ATOM     48  C   UNL     1       5.085  12.926   4.290  1.00  0.00     0.049 A 
ATOM     49  C   UNL     1       0.087  10.441   4.931  1.00  0.00     0.074 A 
ATOM     50  C   UNL     1       5.463  13.813   5.283  1.00  0.00     0.029 A 
ATOM     51  N   UNL     1       3.837  12.434   4.656  1.00  0.00    -0.354 N 
ATOM     52  N   UNL     1       1.229  11.088   4.920  1.00  0.00    -0.248 NA
ATOM     53  C   UNL     1      -0.756  10.724   6.099  1.00  0.00     0.031 C 
ATOM     54  C   UNL     1       4.471  13.819   6.272  1.00  0.00     0.029 A 
ATOM     55  C   UNL     1       3.441  12.987   5.865  1.00  0.00     0.049 A 
ATOM     56  H   UNL     1       3.311  11.787   4.133  1.00  0.00     0.167 HD
ATOM     57  C   UNL     1       1.227  11.880   6.064  1.00  0.00     0.074 A 
ATOM     58  C   UNL     1      -0.036  11.639   6.732  1.00  0.00     0.031 C 
ATOM     59  C   UNL     1       2.180  12.731   6.522  1.00  0.00     0.034 A 
BRANCH  46  60
ATOM     60  C   UNL     1       7.187  13.108   2.865  1.00  0.00     0.023 A 
ATOM     61  C   UNL     1       7.483  13.919   1.755  1.00  0.00     0.031 A 
ATOM     62  C   UNL     1       8.238  12.793   3.745  1.00  0.00     0.131 A 
ATOM     63  C   UNL     1       8.806  14.316   1.508  1.00  0.00     0.055 A 
ATOM     64  C   UNL     1       9.538  13.262   3.540  1.00  0.00     0.041 A 
ATOM     65  F   UNL     1       8.024  12.008   4.813  1.00  0.00    -0.206 F 
ATOM     66  C   UNL     1       9.832  14.014   2.406  1.00  0.00     0.022 A 
BRANCH  63  67
ATOM     67  S   UNL     1       9.192  15.102  -0.080  1.00  0.00     0.124 S 
ATOM     68  O   UNL     1       8.783  14.068  -1.028  1.00  0.00    -0.237 OA
ATOM     69  O   UNL     1       8.365  16.303  -0.048  1.00  0.00    -0.237 OA
ATOM     70  O   UNL     1      10.633  15.335  -0.007  1.00  0.00    -0.744 OA
ENDBRANCH  63  67
ENDBRANCH  46  60
BRANCH  47  71
ATOM     71  C   UNL     1      -1.771   8.793   4.144  1.00  0.00     0.023 A 
ATOM     72  C   UNL     1      -2.970   9.522   4.168  1.00  0.00     0.031 A 
ATOM     73  C   UNL     1      -1.835   7.407   4.372  1.00  0.00     0.131 A 
ATOM     74  C   UNL     1      -4.179   8.871   4.460  1.00  0.00     0.055 A 
ATOM     75  C   UNL     1      -3.046   6.756   4.615  1.00  0.00     0.041 A 
ATOM     76  F   UNL     1      -0.718   6.663   4.350  1.00  0.00    -0.206 F 
ATOM     77  C   UNL     1      -4.226   7.491   4.672  1.00  0.00     0.022 A 
BRANCH  74  78
ATOM     78  S   UNL     1      -5.683   9.869   4.631  1.00  0.00     0.124 S 
ATOM     79  O   UNL     1      -5.310  10.791   5.697  1.00  0.00    -0.237 OA
ATOM     80  O   UNL     1      -5.815  10.448   3.298  1.00  0.00    -0.237 OA
ATOM     81  O   UNL     1      -6.705   8.886   4.985  1.00  0.00    -0.744 OA
ENDBRANCH  74  78
ENDBRANCH  47  71
BRANCH  59  82
ATOM     82  C   UNL     1       1.858  13.500   7.779  1.00  0.00     0.023 A 
ATOM     83  C   UNL     1       1.720  12.861   9.024  1.00  0.00     0.031 A 
ATOM     84  C   UNL     1       1.654  14.890   7.722  1.00  0.00     0.131 A 
ATOM     85  C   UNL     1       1.324  13.601  10.148  1.00  0.00     0.055 A 
ATOM     86  C   UNL     1       1.319  15.631   8.856  1.00  0.00     0.041 A 
ATOM     87  F   UNL     1       1.773  15.551   6.559  1.00  0.00    -0.206 F 
ATOM     88  C   UNL     1       1.136  14.984  10.075  1.00  0.00     0.022 A 
BRANCH  85  89
ATOM     89  S   UNL     1       0.953  12.715  11.687  1.00  0.00     0.124 S 
ATOM     90  O   UNL     1      -0.066  11.765  11.254  1.00  0.00    -0.237 OA
ATOM     91  O   UNL     1       2.249  12.144  12.037  1.00  0.00    -0.237 OA
ATOM     92  O   UNL     1       0.478  13.768  12.583  1.00  0.00    -0.744 OA
ENDBRANCH  85  89
ENDBRANCH  59  82
ENDBRANCH  33  34
ENDBRANCH  25  28
ENDBRANCH  23  24
ENDBRANCH  22  23
ENDBRANCH   1  22
TORSDOF 18
