REMARK SMILES Cc1cccc(C)c1Nc1ccccc1CC(=O)NCCCNC(=O)c1ccc(-c2c3nc(c(-c4cc(S(=O)(=O)[O-])ccc4F)c4ccc([nH]4)c(-c4cc(S(=O)(=O)[O-])ccc4F)c4nc(c(-c5cc(S(=O)(=O)[O-])ccc5F)c5ccc2[nH]5)C=C4)C=C3)cc1
REMARK SMILES IDX 21 1 20 2 19 3 17 4 18 5 16 7 15 8 10 9 11 10 12 11 14 12
REMARK SMILES IDX 13 13 9 14 8 16 1 17 2 18 3 19 4 20 6 21 5 22 7 23 22 24
REMARK SMILES IDX 23 25 24 26 25 28 26 29 27 30 88 31 28 32 87 33 29 34 30 35
REMARK SMILES IDX 31 36 81 37 32 38 86 39 80 40 82 41 33 42 85 43 79 44 78 45
REMARK SMILES IDX 34 47 66 48 46 49 65 50 47 51 50 52 64 53 83 54 48 55 49 56
REMARK SMILES IDX 63 58 84 59 51 60 35 61 36 62 44 63 37 64 43 65 45 66 42 67
REMARK SMILES IDX 38 68 39 69 40 70 41 71 67 72 68 73 76 74 69 75 75 76 77 77
REMARK SMILES IDX 74 78 70 79 71 80 72 81 73 82 52 83 53 84 61 85 54 86 60 87
REMARK SMILES IDX 62 88 59 89 55 90 56 91 57 92 58 93
REMARK H PARENT 19 6 9 15 23 27 82 46 50 57
REMARK Flexibility Score: inf
ROOT
ATOM      1  C   UNL     1       0.441   5.296   2.393  1.00  0.00     0.042 C 
ENDROOT
BRANCH   1   2
ATOM      2  C   UNL     1       0.560   3.865   2.910  1.00  0.00     0.117 C 
BRANCH   2   3
ATOM      3  N   UNL     1      -0.506   3.535   3.836  1.00  0.00    -0.356 N 
ATOM      4  C   UNL     1      -1.659   2.849   3.586  1.00  0.00     0.224 C 
ATOM      5  O   UNL     1      -2.497   2.756   4.487  1.00  0.00    -0.275 OA
ATOM      6  H   UNL     1      -0.382   3.844   4.763  1.00  0.00     0.163 HD
BRANCH   4   7
ATOM      7  C   UNL     1      -1.859   2.174   2.241  1.00  0.00     0.137 C 
BRANCH   7   8
ATOM      8  C   UNL     1      -2.139   3.127   1.096  1.00  0.00    -0.015 A 
ATOM      9  C   UNL     1      -1.348   3.182  -0.071  1.00  0.00     0.042 A 
ATOM     10  C   UNL     1      -1.627   4.173  -1.031  1.00  0.00     0.026 A 
ATOM     11  C   UNL     1      -2.688   5.064  -0.872  1.00  0.00     0.002 A 
ATOM     12  C   UNL     1      -3.224   4.019   1.230  1.00  0.00     0.006 A 
ATOM     13  C   UNL     1      -3.496   4.976   0.253  1.00  0.00     0.000 A 
BRANCH   9  14
ATOM     14  N   UNL     1      -0.317   2.273  -0.383  1.00  0.00    -0.355 N 
ATOM     15  H   UNL     1       0.503   2.708  -0.711  1.00  0.00     0.167 HD
BRANCH  14  16
ATOM     16  C   UNL     1      -0.221   0.863  -0.321  1.00  0.00     0.044 A 
ATOM     17  C   UNL     1       2.309   1.133  -0.019  1.00  0.00     0.046 C 
ATOM     18  C   UNL     1       1.062   0.289  -0.106  1.00  0.00    -0.027 A 
ATOM     19  C   UNL     1       1.196  -1.100   0.060  1.00  0.00     0.005 A 
ATOM     20  C   UNL     1       0.083  -1.928   0.023  1.00  0.00     0.001 A 
ATOM     21  C   UNL     1      -1.340   0.002  -0.410  1.00  0.00    -0.027 A 
ATOM     22  C   UNL     1      -1.173  -1.381  -0.209  1.00  0.00     0.005 A 
ATOM     23  C   UNL     1      -2.731   0.473  -0.749  1.00  0.00     0.046 C 
ENDBRANCH  14  16
ENDBRANCH   9  14
ENDBRANCH   7   8
ENDBRANCH   4   7
ENDBRANCH   2   3
ENDBRANCH   1   2
BRANCH   1  24
ATOM     24  C   UNL     1       0.640   6.354   3.473  1.00  0.00     0.118 C 
BRANCH  24  25
ATOM     25  N   UNL     1       1.966   6.285   4.074  1.00  0.00    -0.352 N 
ATOM     26  C   UNL     1       2.944   7.241   4.160  1.00  0.00     0.251 C 
ATOM     27  H   UNL     1       2.195   5.418   4.480  1.00  0.00     0.163 HD
ATOM     28  O   UNL     1       4.081   6.907   4.496  1.00  0.00    -0.269 OA
BRANCH  26  29
ATOM     29  C   UNL     1       2.646   8.652   3.836  1.00  0.00     0.039 A 
ATOM     30  C   UNL     1       3.584   9.389   3.109  1.00  0.00     0.014 A 
ATOM     31  C   UNL     1       1.458   9.253   4.261  1.00  0.00     0.014 A 
ATOM     32  C   UNL     1       3.298  10.706   2.746  1.00  0.00     0.010 A 
ATOM     33  C   UNL     1       1.142  10.541   3.836  1.00  0.00     0.010 A 
ATOM     34  C   UNL     1       2.056  11.278   3.068  1.00  0.00    -0.014 A 
BRANCH  34  35
ATOM     35  C   UNL     1       1.683  12.630   2.578  1.00  0.00     0.031 A 
ATOM     36  C   UNL     1       1.429  13.749   3.550  1.00  0.00     0.074 A 
ATOM     37  C   UNL     1       1.511  12.825   1.255  1.00  0.00     0.049 A 
ATOM     38  N   UNL     1       1.024  14.970   3.315  1.00  0.00    -0.248 NA
ATOM     39  C   UNL     1       1.635  13.446   4.973  1.00  0.00     0.031 C 
ATOM     40  C   UNL     1       1.696  11.803   0.222  1.00  0.00     0.029 A 
ATOM     41  N   UNL     1       1.134  13.941   0.551  1.00  0.00    -0.354 N 
ATOM     42  C   UNL     1       0.917  15.581   4.560  1.00  0.00     0.074 A 
ATOM     43  C   UNL     1       1.246  14.575   5.548  1.00  0.00     0.031 C 
ATOM     44  C   UNL     1       1.461  12.347  -0.982  1.00  0.00     0.029 A 
ATOM     45  C   UNL     1       1.051  13.736  -0.807  1.00  0.00     0.049 A 
ATOM     46  H   UNL     1       0.941  14.807   0.978  1.00  0.00     0.167 HD
ATOM     47  C   UNL     1       0.592  16.866   4.848  1.00  0.00     0.034 A 
ATOM     48  C   UNL     1       0.668  14.565  -1.798  1.00  0.00     0.034 A 
ATOM     49  C   UNL     1       0.268  17.854   3.846  1.00  0.00     0.049 A 
ATOM     50  C   UNL     1       0.258  15.972  -1.446  1.00  0.00     0.074 A 
ATOM     51  C   UNL     1      -0.014  19.198   4.021  1.00  0.00     0.029 A 
ATOM     52  N   UNL     1       0.165  17.603   2.483  1.00  0.00    -0.354 N 
ATOM     53  N   UNL     1       0.221  16.552  -0.268  1.00  0.00    -0.248 NA
ATOM     54  C   UNL     1      -0.158  16.837  -2.557  1.00  0.00     0.031 C 
ATOM     55  C   UNL     1      -0.367  19.738   2.780  1.00  0.00     0.029 A 
ATOM     56  C   UNL     1      -0.224  18.755   1.813  1.00  0.00     0.049 A 
ATOM     57  H   UNL     1       0.342  16.735   2.054  1.00  0.00     0.167 HD
ATOM     58  C   UNL     1      -0.203  17.857  -0.501  1.00  0.00     0.074 A 
ATOM     59  C   UNL     1      -0.383  17.984  -1.933  1.00  0.00     0.031 C 
ATOM     60  C   UNL     1      -0.424  18.860   0.387  1.00  0.00     0.034 A 
BRANCH  47  61
ATOM     61  C   UNL     1       0.539  17.265   6.304  1.00  0.00     0.023 A 
ATOM     62  C   UNL     1       1.679  17.219   7.127  1.00  0.00     0.031 A 
ATOM     63  C   UNL     1      -0.671  17.685   6.884  1.00  0.00     0.131 A 
ATOM     64  C   UNL     1       1.571  17.515   8.494  1.00  0.00     0.055 A 
ATOM     65  C   UNL     1      -0.755  18.059   8.227  1.00  0.00     0.041 A 
ATOM     66  F   UNL     1      -1.798  17.729   6.157  1.00  0.00    -0.206 F 
ATOM     67  C   UNL     1       0.367  17.961   9.044  1.00  0.00     0.022 A 
BRANCH  64  68
ATOM     68  S   UNL     1       2.990  17.171   9.570  1.00  0.00     0.124 S 
ATOM     69  O   UNL     1       3.196  15.743   9.339  1.00  0.00    -0.237 OA
ATOM     70  O   UNL     1       4.015  18.059   9.034  1.00  0.00    -0.237 OA
ATOM     71  O   UNL     1       2.500  17.514  10.903  1.00  0.00    -0.744 OA
ENDBRANCH  64  68
ENDBRANCH  47  61
BRANCH  48  72
ATOM     72  C   UNL     1       0.630  14.090  -3.211  1.00  0.00     0.023 A 
ATOM     73  C   UNL     1       1.452  14.669  -4.189  1.00  0.00     0.031 A 
ATOM     74  C   UNL     1      -0.261  13.078  -3.614  1.00  0.00     0.131 A 
ATOM     75  C   UNL     1       1.335  14.268  -5.529  1.00  0.00     0.055 A 
ATOM     76  C   UNL     1      -0.332  12.641  -4.938  1.00  0.00     0.041 A 
ATOM     77  F   UNL     1      -1.069  12.488  -2.719  1.00  0.00    -0.206 F 
ATOM     78  C   UNL     1       0.460  13.247  -5.907  1.00  0.00     0.022 A 
BRANCH  75  79
ATOM     79  S   UNL     1       2.279  15.168  -6.790  1.00  0.00     0.124 S 
ATOM     80  O   UNL     1       1.802  16.532  -6.599  1.00  0.00    -0.237 OA
ATOM     81  O   UNL     1       3.655  14.905  -6.381  1.00  0.00    -0.237 OA
ATOM     82  O   UNL     1       1.870  14.531  -8.040  1.00  0.00    -0.744 OA
ENDBRANCH  75  79
ENDBRANCH  48  72
BRANCH  60  83
ATOM     83  C   UNL     1      -0.864  20.189  -0.180  1.00  0.00     0.023 A 
ATOM     84  C   UNL     1      -2.107  20.343  -0.817  1.00  0.00     0.031 A 
ATOM     85  C   UNL     1      -0.022  21.313  -0.094  1.00  0.00     0.131 A 
ATOM     86  C   UNL     1      -2.450  21.574  -1.395  1.00  0.00     0.055 A 
ATOM     87  C   UNL     1      -0.398  22.553  -0.611  1.00  0.00     0.041 A 
ATOM     88  F   UNL     1       1.179  21.224   0.499  1.00  0.00    -0.206 F 
ATOM     89  C   UNL     1      -1.612  22.686  -1.278  1.00  0.00     0.022 A 
BRANCH  86  90
ATOM     90  S   UNL     1      -3.964  21.678  -2.388  1.00  0.00     0.124 S 
ATOM     91  O   UNL     1      -3.713  20.683  -3.426  1.00  0.00    -0.237 OA
ATOM     92  O   UNL     1      -4.999  21.339  -1.417  1.00  0.00    -0.237 OA
ATOM     93  O   UNL     1      -3.978  23.065  -2.849  1.00  0.00    -0.744 OA
ENDBRANCH  86  90
ENDBRANCH  60  83
ENDBRANCH  34  35
ENDBRANCH  26  29
ENDBRANCH  24  25
ENDBRANCH   1  24
TORSDOF 16
