REMARK SMILES O=C1NC(=S)S/C1=C\c1ccc(OCc2cn(-c3ccc(C(=O)NCCCNC(=O)c4ccc(-c5c6nc(c(-c7cc(S(=O)(=O)[O-])ccc7F)c7ccc([nH]7)c(-c7cc(S(=O)(=O)[O-])ccc7F)c7nc(c(-c8cc(S(=O)(=O)[O-])ccc8F)c8ccc5[nH]8)C=C7)C=C6)cc4)cc3)nn2)cc1
REMARK SMILES IDX 25 1 24 2 22 3 23 4 21 6 18 7 19 8 95 9 20 10 94 11 17 12
REMARK SMILES IDX 15 13 16 14 97 15 96 16 14 17 13 18 12 19 9 20 10 21 99 22
REMARK SMILES IDX 11 23 98 24 8 25 1 26 2 27 3 28 7 29 4 30 6 32 5 33 26 34
REMARK SMILES IDX 27 35 28 36 29 37 30 39 31 40 32 41 93 42 33 43 92 44 34 45
REMARK SMILES IDX 35 46 36 47 86 48 37 49 91 50 85 51 87 52 38 53 90 54 84 55
REMARK SMILES IDX 83 56 39 58 71 59 51 60 70 61 52 62 55 63 69 64 88 65 53 66
REMARK SMILES IDX 54 67 68 69 89 70 56 71 40 72 41 73 49 74 42 75 48 76 50 77
REMARK SMILES IDX 47 78 43 79 44 80 45 81 46 82 72 83 73 84 81 85 74 86 80 87
REMARK SMILES IDX 82 88 79 89 75 90 76 91 77 92 78 93 57 94 58 95 66 96 59 97
REMARK SMILES IDX 65 98 67 99 64 100 60 101 61 102 62 103 63 104
REMARK H PARENT 24 5 3 31 28 38 87 57 55 68
REMARK Flexibility Score: inf
ROOT
ATOM      1  C   UNL     1       6.073  11.083   0.597  1.00  0.00     0.118 C 
ENDROOT
BRANCH   1   2
ATOM      2  N   UNL     1       6.838  10.194  -0.267  1.00  0.00    -0.352 N 
ATOM      3  C   UNL     1       6.466   9.116  -1.033  1.00  0.00     0.251 C 
ATOM      4  O   UNL     1       7.316   8.585  -1.746  1.00  0.00    -0.269 OA
ATOM      5  H   UNL     1       7.798  10.406  -0.311  1.00  0.00     0.163 HD
BRANCH   3   6
ATOM      6  C   UNL     1       5.067   8.605  -1.081  1.00  0.00     0.039 A 
ATOM      7  C   UNL     1       2.410   7.769  -1.369  1.00  0.00     0.066 A 
ATOM      8  C   UNL     1       3.351   7.438  -2.351  1.00  0.00     0.029 A 
ATOM      9  C   UNL     1       2.803   8.439  -0.215  1.00  0.00     0.029 A 
ATOM     10  C   UNL     1       4.670   7.884  -2.217  1.00  0.00     0.016 A 
ATOM     11  C   UNL     1       4.136   8.795  -0.059  1.00  0.00     0.016 A 
BRANCH   7  12
ATOM     12  N   UNL     1       1.060   7.417  -1.529  1.00  0.00    -0.220 N 
ATOM     13  C   UNL     1      -1.111   7.269  -1.401  1.00  0.00     0.120 A 
ATOM     14  C   UNL     1      -0.046   8.040  -0.993  1.00  0.00     0.144 A 
ATOM     15  N   UNL     1      -0.633   6.261  -2.197  1.00  0.00    -0.131 NA
ATOM     16  N   UNL     1       0.678   6.380  -2.298  1.00  0.00    -0.062 NA
BRANCH  13  17
ATOM     17  C   UNL     1      -2.578   7.456  -1.202  1.00  0.00     0.289 C 
BRANCH  17  18
ATOM     18  O   UNL     1      -3.165   6.714  -0.117  1.00  0.00    -0.487 OA
BRANCH  18  19
ATOM     19  C   UNL     1      -3.180   5.348  -0.194  1.00  0.00     0.119 A 
ATOM     20  C   UNL     1      -2.936   2.557  -0.007  1.00  0.00    -0.024 A 
ATOM     21  C   UNL     1      -3.381   3.296   1.091  1.00  0.00     0.012 A 
ATOM     22  C   UNL     1      -2.714   3.209  -1.222  1.00  0.00     0.012 A 
ATOM     23  C   UNL     1      -3.494   4.688   0.997  1.00  0.00     0.047 A 
ATOM     24  C   UNL     1      -2.873   4.591  -1.321  1.00  0.00     0.047 A 
BRANCH  20  25
ATOM     25  C   UNL     1      -2.686   1.118   0.099  1.00  0.00     0.029 C 
ATOM     26  O   UNL     1      -2.192  -1.745   0.148  1.00  0.00    -0.268 OA
ATOM     27  C   UNL     1      -1.298  -0.929   0.111  1.00  0.00     0.263 C 
ATOM     28  N   UNL     1       0.039  -1.229   0.064  1.00  0.00    -0.307 N 
ATOM     29  C   UNL     1      -1.472   0.551   0.090  1.00  0.00     0.080 C 
ATOM     30  C   UNL     1       0.929  -0.201   0.021  1.00  0.00     0.145 C 
ATOM     31  H   UNL     1       0.346  -2.164   0.061  1.00  0.00     0.171 HD
ATOM     32  S   UNL     1       0.073   1.323   0.033  1.00  0.00    -0.055 SA
ATOM     33  S   UNL     1       2.569  -0.419  -0.032  1.00  0.00    -0.052 S 
ENDBRANCH  20  25
ENDBRANCH  18  19
ENDBRANCH  17  18
ENDBRANCH  13  17
ENDBRANCH   7  12
ENDBRANCH   3   6
ENDBRANCH   1   2
BRANCH   1  34
ATOM     34  C   UNL     1       6.061  10.597   2.056  1.00  0.00     0.042 C 
BRANCH  34  35
ATOM     35  C   UNL     1       7.272  11.082   2.821  1.00  0.00     0.118 C 
BRANCH  35  36
ATOM     36  N   UNL     1       7.228  12.530   3.079  1.00  0.00    -0.352 N 
ATOM     37  C   UNL     1       8.174  13.348   3.686  1.00  0.00     0.251 C 
ATOM     38  H   UNL     1       6.409  12.986   2.777  1.00  0.00     0.163 HD
ATOM     39  O   UNL     1       7.842  14.428   4.154  1.00  0.00    -0.269 OA
BRANCH  37  40
ATOM     40  C   UNL     1       9.572  12.883   3.754  1.00  0.00     0.039 A 
ATOM     41  C   UNL     1      10.462  13.187   4.788  1.00  0.00     0.014 A 
ATOM     42  C   UNL     1       9.968  12.036   2.740  1.00  0.00     0.014 A 
ATOM     43  C   UNL     1      11.737  12.615   4.745  1.00  0.00     0.010 A 
ATOM     44  C   UNL     1      10.951  11.147   3.008  1.00  0.00     0.010 A 
ATOM     45  C   UNL     1      11.971  11.603   3.809  1.00  0.00    -0.014 A 
BRANCH  45  46
ATOM     46  C   UNL     1      13.225  10.901   3.605  1.00  0.00     0.031 A 
ATOM     47  C   UNL     1      13.573   9.997   4.718  1.00  0.00     0.074 A 
ATOM     48  C   UNL     1      13.797  10.817   2.379  1.00  0.00     0.049 A 
ATOM     49  N   UNL     1      14.483  10.182   5.612  1.00  0.00    -0.248 NA
ATOM     50  C   UNL     1      12.669   8.873   5.017  1.00  0.00     0.031 C 
ATOM     51  C   UNL     1      13.339  11.378   1.098  1.00  0.00     0.029 A 
ATOM     52  N   UNL     1      14.875  10.087   1.994  1.00  0.00    -0.354 N 
ATOM     53  C   UNL     1      14.437   9.060   6.429  1.00  0.00     0.074 A 
ATOM     54  C   UNL     1      13.150   8.467   6.193  1.00  0.00     0.031 C 
ATOM     55  C   UNL     1      13.996  10.782   0.075  1.00  0.00     0.029 A 
ATOM     56  C   UNL     1      15.015   9.901   0.620  1.00  0.00     0.049 A 
ATOM     57  H   UNL     1      15.516   9.714   2.643  1.00  0.00     0.167 HD
ATOM     58  C   UNL     1      15.564   8.572   7.018  1.00  0.00     0.034 A 
ATOM     59  C   UNL     1      15.873   9.041  -0.003  1.00  0.00     0.034 A 
ATOM     60  C   UNL     1      16.662   9.504   6.847  1.00  0.00     0.049 A 
ATOM     61  C   UNL     1      16.952   8.756   0.989  1.00  0.00     0.074 A 
ATOM     62  C   UNL     1      16.870  10.820   7.213  1.00  0.00     0.029 A 
ATOM     63  N   UNL     1      17.557   9.257   5.824  1.00  0.00    -0.354 N 
ATOM     64  N   UNL     1      17.759   9.681   1.443  1.00  0.00    -0.248 NA
ATOM     65  C   UNL     1      16.776   7.613   1.877  1.00  0.00     0.031 C 
ATOM     66  C   UNL     1      17.476  11.421   6.069  1.00  0.00     0.029 A 
ATOM     67  C   UNL     1      17.718  10.427   5.117  1.00  0.00     0.049 A 
ATOM     68  H   UNL     1      17.999   8.398   5.634  1.00  0.00     0.167 HD
ATOM     69  C   UNL     1      17.831   9.464   2.814  1.00  0.00     0.074 A 
ATOM     70  C   UNL     1      17.276   8.122   3.009  1.00  0.00     0.031 C 
ATOM     71  C   UNL     1      18.026  10.495   3.695  1.00  0.00     0.034 A 
BRANCH  58  72
ATOM     72  C   UNL     1      15.801   7.138   7.434  1.00  0.00     0.023 A 
ATOM     73  C   UNL     1      17.039   6.854   8.042  1.00  0.00     0.031 A 
ATOM     74  C   UNL     1      15.030   6.013   7.069  1.00  0.00     0.131 A 
ATOM     75  C   UNL     1      17.504   5.535   8.162  1.00  0.00     0.055 A 
ATOM     76  C   UNL     1      15.467   4.697   7.253  1.00  0.00     0.041 A 
ATOM     77  F   UNL     1      13.855   6.104   6.438  1.00  0.00    -0.206 F 
ATOM     78  C   UNL     1      16.725   4.451   7.771  1.00  0.00     0.022 A 
BRANCH  75  79
ATOM     79  S   UNL     1      19.219   5.277   8.678  1.00  0.00     0.124 S 
ATOM     80  O   UNL     1      19.942   6.122   7.734  1.00  0.00    -0.237 OA
ATOM     81  O   UNL     1      19.187   5.736  10.063  1.00  0.00    -0.237 OA
ATOM     82  O   UNL     1      19.412   3.839   8.502  1.00  0.00    -0.744 OA
ENDBRANCH  75  79
ENDBRANCH  58  72
BRANCH  59  83
ATOM     83  C   UNL     1      15.582   8.195  -1.208  1.00  0.00     0.023 A 
ATOM     84  C   UNL     1      16.577   7.547  -1.980  1.00  0.00     0.031 A 
ATOM     85  C   UNL     1      14.245   7.826  -1.489  1.00  0.00     0.131 A 
ATOM     86  C   UNL     1      16.214   6.595  -2.972  1.00  0.00     0.055 A 
ATOM     87  C   UNL     1      13.893   6.891  -2.466  1.00  0.00     0.041 A 
ATOM     88  F   UNL     1      13.224   8.301  -0.759  1.00  0.00    -0.206 F 
ATOM     89  C   UNL     1      14.878   6.263  -3.208  1.00  0.00     0.022 A 
BRANCH  86  90
ATOM     90  S   UNL     1      17.484   5.694  -3.929  1.00  0.00     0.124 S 
ATOM     91  O   UNL     1      18.021   6.737  -4.794  1.00  0.00    -0.237 OA
ATOM     92  O   UNL     1      18.372   5.195  -2.885  1.00  0.00    -0.237 OA
ATOM     93  O   UNL     1      16.720   4.656  -4.624  1.00  0.00    -0.744 OA
ENDBRANCH  86  90
ENDBRANCH  59  83
BRANCH  71  94
ATOM     94  C   UNL     1      18.388  11.870   3.147  1.00  0.00     0.023 A 
ATOM     95  C   UNL     1      17.609  12.615   2.228  1.00  0.00     0.031 A 
ATOM     96  C   UNL     1      19.502  12.513   3.715  1.00  0.00     0.131 A 
ATOM     97  C   UNL     1      17.962  13.945   1.912  1.00  0.00     0.055 A 
ATOM     98  C   UNL     1      19.831  13.836   3.422  1.00  0.00     0.041 A 
ATOM     99  F   UNL     1      20.270  11.875   4.614  1.00  0.00    -0.206 F 
ATOM    100  C   UNL     1      19.065  14.557   2.515  1.00  0.00     0.022 A 
BRANCH  97 101
ATOM    101  S   UNL     1      17.003  14.908   0.693  1.00  0.00     0.124 S 
ATOM    102  O   UNL     1      16.873  13.995  -0.436  1.00  0.00    -0.237 OA
ATOM    103  O   UNL     1      15.772  15.207   1.421  1.00  0.00    -0.237 OA
ATOM    104  O   UNL     1      17.852  16.074   0.437  1.00  0.00    -0.744 OA
ENDBRANCH  97 101
ENDBRANCH  71  94
ENDBRANCH  45  46
ENDBRANCH  37  40
ENDBRANCH  35  36
ENDBRANCH  34  35
ENDBRANCH   1  34
TORSDOF 18
