REMARK SMILES Cc1c(N[C@@H]2CC[C@@H]([NH3+])C2)cccc1C(=O)NCCCNC(=O)c1ccc(-c2c3nc(c(-c4cc(S(=O)(=O)[O-])ccc4F)c4ccc([nH]4)c(-c4cc(S(=O)(=O)[O-])ccc4F)c4nc(c(-c5cc(S(=O)(=O)[O-])ccc5F)c5ccc2[nH]5)C=C4)C=C3)cc1
REMARK SMILES IDX 19 1 18 2 17 3 15 4 16 5 14 7 1 8 2 9 3 10 11 11 13 12 12 13
REMARK SMILES IDX 4 14 5 16 6 17 10 18 7 19 8 20 9 21 20 25 21 26 22 27 23 29
REMARK SMILES IDX 24 30 25 31 86 32 26 33 85 34 27 35 28 36 29 37 79 38 30 39
REMARK SMILES IDX 84 40 78 41 80 42 31 43 83 44 77 45 76 46 32 48 64 49 44 50
REMARK SMILES IDX 63 51 45 52 48 53 62 54 81 55 46 56 47 57 61 59 82 60 49 61
REMARK SMILES IDX 33 62 34 63 42 64 35 65 41 66 43 67 40 68 36 69 37 70 38 71
REMARK SMILES IDX 39 72 65 73 66 74 74 75 67 76 73 77 75 78 72 79 68 80 69 81
REMARK SMILES IDX 70 82 71 83 50 84 51 85 59 86 52 87 58 88 60 89 57 90 53 91
REMARK SMILES IDX 54 92 55 93 56 94
REMARK H PARENT 17 6 4 15 9 22 9 23 9 24 21 28 80 47 48 58
REMARK Flexibility Score: inf
ROOT
ATOM      1  C   UNL     1       4.114   1.083  -1.213  1.00  0.00     0.042 C 
ENDROOT
BRANCH   1   2
ATOM      2  C   UNL     1       3.378   1.754  -0.046  1.00  0.00     0.118 C 
BRANCH   2   3
ATOM      3  N   UNL     1       2.209   2.501  -0.513  1.00  0.00    -0.352 N 
ATOM      4  C   UNL     1       0.860   2.272  -0.595  1.00  0.00     0.251 C 
ATOM      5  O   UNL     1       0.188   3.239  -0.977  1.00  0.00    -0.269 OA
ATOM      6  H   UNL     1       2.454   3.391  -0.856  1.00  0.00     0.163 HD
BRANCH   4   7
ATOM      7  C   UNL     1       0.114   1.014  -0.239  1.00  0.00     0.044 A 
ATOM      8  C   UNL     1       1.807  -0.752  -0.968  1.00  0.00     0.047 C 
ATOM      9  C   UNL     1       0.552  -0.323  -0.281  1.00  0.00    -0.015 A 
ATOM     10  C   UNL     1      -0.258  -1.385   0.202  1.00  0.00     0.038 A 
ATOM     11  C   UNL     1      -1.613  -1.146   0.392  1.00  0.00     0.026 A 
ATOM     12  C   UNL     1      -1.248   1.216   0.061  1.00  0.00     0.014 A 
ATOM     13  C   UNL     1      -2.113   0.149   0.312  1.00  0.00     0.003 A 
BRANCH  10  14
ATOM     14  N   UNL     1       0.343  -2.613   0.396  1.00  0.00    -0.382 N 
ATOM     15  H   UNL     1       1.233  -2.570   0.816  1.00  0.00     0.160 HD
BRANCH  14  16
ATOM     16  C   UNL     1      -0.108  -3.946   0.090  1.00  0.00     0.085 C 
ATOM     17  C   UNL     1      -0.795  -4.098  -1.268  1.00  0.00     0.031 C 
ATOM     18  C   UNL     1      -1.039  -4.528   1.142  1.00  0.00     0.089 C 
ATOM     19  C   UNL     1      -2.073  -4.886  -0.982  1.00  0.00     0.067 C 
ATOM     20  C   UNL     1      -1.850  -5.566   0.371  1.00  0.00     0.182 C 
BRANCH  20  21
ATOM     21  N   UNL     1      -1.119  -6.827   0.222  1.00  0.00    -0.355 N 
ATOM     22  H   UNL     1      -0.230  -6.651  -0.246  1.00  0.00     0.344 HD
ATOM     23  H   UNL     1      -1.673  -7.477  -0.334  1.00  0.00     0.344 HD
ATOM     24  H   UNL     1      -0.945  -7.229   1.143  1.00  0.00     0.344 HD
ENDBRANCH  20  21
ENDBRANCH  14  16
ENDBRANCH  10  14
ENDBRANCH   4   7
ENDBRANCH   2   3
ENDBRANCH   1   2
BRANCH   1  25
ATOM     25  C   UNL     1       5.485   1.621  -1.548  1.00  0.00     0.118 C 
BRANCH  25  26
ATOM     26  N   UNL     1       6.603   0.755  -1.159  1.00  0.00    -0.352 N 
ATOM     27  C   UNL     1       7.940   0.843  -1.529  1.00  0.00     0.251 C 
ATOM     28  H   UNL     1       6.375   0.012  -0.556  1.00  0.00     0.163 HD
ATOM     29  O   UNL     1       8.784   0.058  -1.112  1.00  0.00    -0.269 OA
BRANCH  27  30
ATOM     30  C   UNL     1       8.377   2.025  -2.320  1.00  0.00     0.039 A 
ATOM     31  C   UNL     1       9.186   2.921  -1.614  1.00  0.00     0.014 A 
ATOM     32  C   UNL     1       7.551   2.469  -3.342  1.00  0.00     0.014 A 
ATOM     33  C   UNL     1       8.840   4.263  -1.615  1.00  0.00     0.010 A 
ATOM     34  C   UNL     1       7.107   3.768  -3.242  1.00  0.00     0.010 A 
ATOM     35  C   UNL     1       7.691   4.630  -2.306  1.00  0.00    -0.014 A 
BRANCH  35  36
ATOM     36  C   UNL     1       7.065   5.931  -2.180  1.00  0.00     0.031 A 
ATOM     37  C   UNL     1       7.436   6.909  -3.207  1.00  0.00     0.074 A 
ATOM     38  C   UNL     1       6.191   6.212  -1.190  1.00  0.00     0.049 A 
ATOM     39  N   UNL     1       7.472   8.178  -3.030  1.00  0.00    -0.248 NA
ATOM     40  C   UNL     1       7.919   6.494  -4.521  1.00  0.00     0.031 C 
ATOM     41  C   UNL     1       5.362   7.404  -1.040  1.00  0.00     0.029 A 
ATOM     42  N   UNL     1       6.029   5.532   0.016  1.00  0.00    -0.354 N 
ATOM     43  C   UNL     1       7.687   8.754  -4.261  1.00  0.00     0.074 A 
ATOM     44  C   UNL     1       8.089   7.671  -5.118  1.00  0.00     0.031 C 
ATOM     45  C   UNL     1       4.980   7.513   0.245  1.00  0.00     0.029 A 
ATOM     46  C   UNL     1       5.667   6.479   0.999  1.00  0.00     0.049 A 
ATOM     47  H   UNL     1       6.145   4.565   0.158  1.00  0.00     0.167 HD
ATOM     48  C   UNL     1       7.339  10.057  -4.437  1.00  0.00     0.034 A 
ATOM     49  C   UNL     1       6.505   6.704   2.057  1.00  0.00     0.034 A 
ATOM     50  C   UNL     1       6.899  10.636  -3.160  1.00  0.00     0.049 A 
ATOM     51  C   UNL     1       7.207   8.055   1.978  1.00  0.00     0.074 A 
ATOM     52  C   UNL     1       5.657  10.857  -2.587  1.00  0.00     0.029 A 
ATOM     53  N   UNL     1       7.812  10.712  -2.117  1.00  0.00    -0.354 N 
ATOM     54  N   UNL     1       7.051   8.931   1.019  1.00  0.00    -0.248 NA
ATOM     55  C   UNL     1       8.210   8.477   2.951  1.00  0.00     0.031 C 
ATOM     56  C   UNL     1       5.840  11.010  -1.177  1.00  0.00     0.029 A 
ATOM     57  C   UNL     1       7.194  10.937  -0.900  1.00  0.00     0.049 A 
ATOM     58  H   UNL     1       8.785  10.616  -2.230  1.00  0.00     0.167 HD
ATOM     59  C   UNL     1       7.930   9.974   1.186  1.00  0.00     0.074 A 
ATOM     60  C   UNL     1       8.649   9.623   2.405  1.00  0.00     0.031 C 
ATOM     61  C   UNL     1       8.023  11.022   0.300  1.00  0.00     0.034 A 
BRANCH  48  62
ATOM     62  C   UNL     1       7.105  10.698  -5.790  1.00  0.00     0.023 A 
ATOM     63  C   UNL     1       6.271  11.831  -5.853  1.00  0.00     0.031 A 
ATOM     64  C   UNL     1       7.586  10.247  -7.039  1.00  0.00     0.131 A 
ATOM     65  C   UNL     1       5.883  12.394  -7.084  1.00  0.00     0.055 A 
ATOM     66  C   UNL     1       7.161  10.772  -8.267  1.00  0.00     0.041 A 
ATOM     67  F   UNL     1       8.539   9.316  -7.149  1.00  0.00    -0.206 F 
ATOM     68  C   UNL     1       6.296  11.850  -8.295  1.00  0.00     0.022 A 
BRANCH  65  69
ATOM     69  S   UNL     1       4.822  13.861  -7.078  1.00  0.00     0.124 S 
ATOM     70  O   UNL     1       3.615  13.363  -6.428  1.00  0.00    -0.237 OA
ATOM     71  O   UNL     1       5.622  14.815  -6.319  1.00  0.00    -0.237 OA
ATOM     72  O   UNL     1       4.674  14.176  -8.498  1.00  0.00    -0.744 OA
ENDBRANCH  65  69
ENDBRANCH  48  62
BRANCH  49  73
ATOM     73  C   UNL     1       7.122   5.422   2.534  1.00  0.00     0.023 A 
ATOM     74  C   UNL     1       6.249   4.434   3.049  1.00  0.00     0.031 A 
ATOM     75  C   UNL     1       8.344   5.000   1.992  1.00  0.00     0.131 A 
ATOM     76  C   UNL     1       6.501   3.076   2.790  1.00  0.00     0.055 A 
ATOM     77  C   UNL     1       8.598   3.645   1.766  1.00  0.00     0.041 A 
ATOM     78  F   UNL     1       9.228   5.891   1.517  1.00  0.00    -0.206 F 
ATOM     79  C   UNL     1       7.644   2.685   2.091  1.00  0.00     0.022 A 
BRANCH  76  80
ATOM     80  S   UNL     1       5.226   1.829   3.141  1.00  0.00     0.124 S 
ATOM     81  O   UNL     1       5.602   1.367   4.471  1.00  0.00    -0.237 OA
ATOM     82  O   UNL     1       3.986   2.595   3.058  1.00  0.00    -0.237 OA
ATOM     83  O   UNL     1       5.404   0.858   2.059  1.00  0.00    -0.744 OA
ENDBRANCH  76  80
ENDBRANCH  49  73
BRANCH  61  84
ATOM     84  C   UNL     1       8.955  12.215   0.466  1.00  0.00     0.023 A 
ATOM     85  C   UNL     1       9.472  12.595   1.710  1.00  0.00     0.031 A 
ATOM     86  C   UNL     1       9.327  13.056  -0.615  1.00  0.00     0.131 A 
ATOM     87  C   UNL     1      10.433  13.616   1.825  1.00  0.00     0.055 A 
ATOM     88  C   UNL     1      10.223  14.122  -0.489  1.00  0.00     0.041 A 
ATOM     89  F   UNL     1       8.850  12.892  -1.855  1.00  0.00    -0.206 F 
ATOM     90  C   UNL     1      10.812  14.387   0.733  1.00  0.00     0.022 A 
BRANCH  87  91
ATOM     91  S   UNL     1      11.220  13.855   3.435  1.00  0.00     0.124 S 
ATOM     92  O   UNL     1      10.079  14.018   4.325  1.00  0.00    -0.237 OA
ATOM     93  O   UNL     1      11.971  12.614   3.585  1.00  0.00    -0.237 OA
ATOM     94  O   UNL     1      12.037  15.057   3.241  1.00  0.00    -0.744 OA
ENDBRANCH  87  91
ENDBRANCH  61  84
ENDBRANCH  35  36
ENDBRANCH  27  30
ENDBRANCH  25  26
ENDBRANCH   1  25
TORSDOF 16
