REMARK SMILES COc1ccc(C(=O)NCCCNC(=O)c2ccc(-c3c4nc(c(-c5cc(S(=O)(=O)[O-])ccc5F)c5ccc([nH]5)c(-c5cc(S(=O)(=O)[O-])ccc5F)c5nc(c(-c6cc(S(=O)(=O)[O-])ccc6F)c6ccc3[nH]6)C=C5)C=C4)cc2)cc1NCc1cc(C#N)cs1
REMARK SMILES IDX 10 1 9 2 7 3 8 4 6 6 3 7 4 8 80 9 5 10 79 11 2 12 1 13 81 14
REMARK SMILES IDX 82 16 83 17 84 18 89 19 85 20 88 21 86 22 87 23 11 24 12 25
REMARK SMILES IDX 13 26 14 27 15 29 16 30 17 31 78 32 18 33 77 34 19 35 20 36
REMARK SMILES IDX 21 37 71 38 22 39 76 40 70 41 72 42 23 43 75 44 69 45 68 46
REMARK SMILES IDX 24 48 56 49 36 50 55 51 37 52 40 53 54 54 73 55 38 56 39 57
REMARK SMILES IDX 53 59 74 60 41 61 25 62 26 63 34 64 27 65 33 66 35 67 32 68
REMARK SMILES IDX 28 69 29 70 30 71 31 72 57 73 58 74 66 75 59 76 65 77 67 78
REMARK SMILES IDX 64 79 60 80 61 81 62 82 63 83 42 84 43 85 51 86 44 87 50 88
REMARK SMILES IDX 52 89 49 90 45 91 46 92 47 93 48 94
REMARK H PARENT 9 5 81 15 13 28 72 47 40 58
REMARK Flexibility Score: inf
ROOT
ATOM      1  C   UNL     1       4.281   5.815  -1.605  1.00  0.00     0.118 C 
ENDROOT
BRANCH   1   2
ATOM      2  N   UNL     1       3.167   6.283  -2.414  1.00  0.00    -0.352 N 
ATOM      3  C   UNL     1       1.982   5.692  -2.786  1.00  0.00     0.251 C 
ATOM      4  O   UNL     1       1.175   6.371  -3.420  1.00  0.00    -0.269 OA
ATOM      5  H   UNL     1       3.283   7.197  -2.762  1.00  0.00     0.163 HD
BRANCH   3   6
ATOM      6  C   UNL     1       1.620   4.298  -2.403  1.00  0.00     0.042 A 
ATOM      7  C   UNL     1       0.878   1.731  -1.572  1.00  0.00     0.142 A 
ATOM      8  C   UNL     1      -0.100   2.659  -1.955  1.00  0.00     0.049 A 
ATOM      9  C   UNL     1       2.246   2.049  -1.636  1.00  0.00     0.078 A 
ATOM     10  C   UNL     1       0.269   3.951  -2.337  1.00  0.00     0.018 A 
ATOM     11  C   UNL     1       2.573   3.314  -2.131  1.00  0.00     0.043 A 
BRANCH   7  12
ATOM     12  O   UNL     1       0.434   0.468  -1.263  1.00  0.00    -0.495 OA
ATOM     13  C   UNL     1       0.561   0.172   0.126  1.00  0.00     0.278 C 
ENDBRANCH   7  12
BRANCH   9  14
ATOM     14  N   UNL     1       3.227   1.175  -1.205  1.00  0.00    -0.377 N 
ATOM     15  H   UNL     1       3.007   0.215  -1.218  1.00  0.00     0.161 HD
BRANCH  14  16
ATOM     16  C   UNL     1       4.555   1.542  -0.732  1.00  0.00     0.160 C 
BRANCH  16  17
ATOM     17  C   UNL     1       4.731   1.576   0.767  1.00  0.00     0.025 A 
ATOM     18  C   UNL     1       4.871   2.672   1.604  1.00  0.00     0.036 A 
ATOM     19  S   UNL     1       4.866   0.107   1.644  1.00  0.00    -0.146 S 
ATOM     20  C   UNL     1       5.141   2.297   2.957  1.00  0.00     0.063 A 
ATOM     21  C   UNL     1       5.170   0.929   3.113  1.00  0.00     0.084 A 
BRANCH  20  22
ATOM     22  C   UNL     1       5.370   3.203   4.047  1.00  0.00     0.100 C 
ATOM     23  N   UNL     1       5.548   3.918   4.941  1.00  0.00    -0.192 NA
ENDBRANCH  20  22
ENDBRANCH  16  17
ENDBRANCH  14  16
ENDBRANCH   9  14
ENDBRANCH   3   6
ENDBRANCH   1   2
BRANCH   1  24
ATOM     24  C   UNL     1       5.455   5.373  -2.481  1.00  0.00     0.042 C 
BRANCH  24  25
ATOM     25  C   UNL     1       6.292   6.546  -2.976  1.00  0.00     0.118 C 
BRANCH  25  26
ATOM     26  N   UNL     1       6.972   7.213  -1.873  1.00  0.00    -0.352 N 
ATOM     27  C   UNL     1       8.311   7.398  -1.645  1.00  0.00     0.251 C 
ATOM     28  H   UNL     1       6.377   7.589  -1.185  1.00  0.00     0.163 HD
ATOM     29  O   UNL     1       8.685   7.727  -0.523  1.00  0.00    -0.269 OA
BRANCH  27  30
ATOM     30  C   UNL     1       9.290   7.190  -2.733  1.00  0.00     0.039 A 
ATOM     31  C   UNL     1      10.523   6.609  -2.429  1.00  0.00     0.014 A 
ATOM     32  C   UNL     1       9.008   7.593  -4.041  1.00  0.00     0.014 A 
ATOM     33  C   UNL     1      11.447   6.379  -3.449  1.00  0.00     0.010 A 
ATOM     34  C   UNL     1       9.893   7.283  -5.069  1.00  0.00     0.010 A 
ATOM     35  C   UNL     1      11.124   6.676  -4.783  1.00  0.00    -0.014 A 
BRANCH  35  36
ATOM     36  C   UNL     1      12.059   6.350  -5.891  1.00  0.00     0.031 A 
ATOM     37  C   UNL     1      12.626   7.447  -6.751  1.00  0.00     0.074 A 
ATOM     38  C   UNL     1      12.350   5.060  -6.152  1.00  0.00     0.049 A 
ATOM     39  N   UNL     1      13.404   7.355  -7.798  1.00  0.00    -0.248 NA
ATOM     40  C   UNL     1      12.249   8.826  -6.403  1.00  0.00     0.031 C 
ATOM     41  C   UNL     1      11.837   3.912  -5.400  1.00  0.00     0.029 A 
ATOM     42  N   UNL     1      13.143   4.493  -7.117  1.00  0.00    -0.354 N 
ATOM     43  C   UNL     1      13.600   8.658  -8.242  1.00  0.00     0.074 A 
ATOM     44  C   UNL     1      12.813   9.516  -7.383  1.00  0.00     0.031 C 
ATOM     45  C   UNL     1      12.357   2.784  -5.909  1.00  0.00     0.029 A 
ATOM     46  C   UNL     1      13.185   3.118  -7.062  1.00  0.00     0.049 A 
ATOM     47  H   UNL     1      13.635   5.020  -7.787  1.00  0.00     0.167 HD
ATOM     48  C   UNL     1      14.379   9.096  -9.261  1.00  0.00     0.034 A 
ATOM     49  C   UNL     1      13.804   2.227  -7.862  1.00  0.00     0.034 A 
ATOM     50  C   UNL     1      15.159   8.222 -10.103  1.00  0.00     0.049 A 
ATOM     51  C   UNL     1      14.615   2.740  -9.027  1.00  0.00     0.074 A 
ATOM     52  C   UNL     1      16.026   8.565 -11.126  1.00  0.00     0.029 A 
ATOM     53  N   UNL     1      15.152   6.835 -10.038  1.00  0.00    -0.354 N 
ATOM     54  N   UNL     1      14.837   3.981  -9.396  1.00  0.00    -0.248 NA
ATOM     55  C   UNL     1      15.264   1.735  -9.877  1.00  0.00     0.031 C 
ATOM     56  C   UNL     1      16.463   7.390 -11.742  1.00  0.00     0.029 A 
ATOM     57  C   UNL     1      15.959   6.309 -11.036  1.00  0.00     0.049 A 
ATOM     58  H   UNL     1      14.648   6.303  -9.381  1.00  0.00     0.167 HD
ATOM     59  C   UNL     1      15.684   3.902 -10.499  1.00  0.00     0.074 A 
ATOM     60  C   UNL     1      15.944   2.495 -10.722  1.00  0.00     0.031 C 
ATOM     61  C   UNL     1      16.205   4.902 -11.254  1.00  0.00     0.034 A 
BRANCH  48  62
ATOM     62  C   UNL     1      14.395  10.579  -9.548  1.00  0.00     0.023 A 
ATOM     63  C   UNL     1      14.858  11.515  -8.608  1.00  0.00     0.031 A 
ATOM     64  C   UNL     1      13.936  11.064 -10.786  1.00  0.00     0.131 A 
ATOM     65  C   UNL     1      14.789  12.887  -8.893  1.00  0.00     0.055 A 
ATOM     66  C   UNL     1      13.954  12.425 -11.098  1.00  0.00     0.041 A 
ATOM     67  F   UNL     1      13.456  10.223 -11.715  1.00  0.00    -0.206 F 
ATOM     68  C   UNL     1      14.369  13.347 -10.143  1.00  0.00     0.022 A 
BRANCH  65  69
ATOM     69  S   UNL     1      15.112  14.067  -7.554  1.00  0.00     0.124 S 
ATOM     70  O   UNL     1      14.123  13.660  -6.558  1.00  0.00    -0.237 OA
ATOM     71  O   UNL     1      16.504  13.793  -7.220  1.00  0.00    -0.237 OA
ATOM     72  O   UNL     1      14.861  15.366  -8.174  1.00  0.00    -0.744 OA
ENDBRANCH  65  69
ENDBRANCH  48  62
BRANCH  49  73
ATOM     73  C   UNL     1      13.670   0.761  -7.617  1.00  0.00     0.023 A 
ATOM     74  C   UNL     1      14.798  -0.033  -7.356  1.00  0.00     0.031 A 
ATOM     75  C   UNL     1      12.422   0.117  -7.708  1.00  0.00     0.131 A 
ATOM     76  C   UNL     1      14.666  -1.427  -7.262  1.00  0.00     0.055 A 
ATOM     77  C   UNL     1      12.286  -1.262  -7.540  1.00  0.00     0.041 A 
ATOM     78  F   UNL     1      11.308   0.825  -7.959  1.00  0.00    -0.206 F 
ATOM     79  C   UNL     1      13.416  -2.045  -7.333  1.00  0.00     0.022 A 
BRANCH  76  80
ATOM     80  S   UNL     1      16.173  -2.434  -7.177  1.00  0.00     0.124 S 
ATOM     81  O   UNL     1      16.872  -2.018  -8.387  1.00  0.00    -0.237 OA
ATOM     82  O   UNL     1      16.758  -1.997  -5.914  1.00  0.00    -0.237 OA
ATOM     83  O   UNL     1      15.666  -3.804  -7.188  1.00  0.00    -0.744 OA
ENDBRANCH  76  80
ENDBRANCH  49  73
BRANCH  61  84
ATOM     84  C   UNL     1      17.155   4.511 -12.362  1.00  0.00     0.023 A 
ATOM     85  C   UNL     1      16.739   3.748 -13.466  1.00  0.00     0.031 A 
ATOM     86  C   UNL     1      18.503   4.911 -12.307  1.00  0.00     0.131 A 
ATOM     87  C   UNL     1      17.673   3.360 -14.439  1.00  0.00     0.055 A 
ATOM     88  C   UNL     1      19.410   4.588 -13.317  1.00  0.00     0.041 A 
ATOM     89  F   UNL     1      18.961   5.634 -11.271  1.00  0.00    -0.206 F 
ATOM     90  C   UNL     1      19.000   3.795 -14.384  1.00  0.00     0.022 A 
BRANCH  87  91
ATOM     91  S   UNL     1      17.157   2.184 -15.719  1.00  0.00     0.124 S 
ATOM     92  O   UNL     1      16.714   1.045 -14.922  1.00  0.00    -0.237 OA
ATOM     93  O   UNL     1      16.108   2.921 -16.416  1.00  0.00    -0.237 OA
ATOM     94  O   UNL     1      18.378   1.962 -16.493  1.00  0.00    -0.744 OA
ENDBRANCH  87  91
ENDBRANCH  61  84
ENDBRANCH  35  36
ENDBRANCH  27  30
ENDBRANCH  25  26
ENDBRANCH  24  25
ENDBRANCH   1  24
TORSDOF 18
