REMARK SMILES Cc1ccc([C@@H](CC(=O)NCCCNC(=O)c2ccc(-c3c4nc(c(-c5cc(S(=O)(=O)[O-])ccc5F)c5ccc([nH]5)c(-c5cc(S(=O)(=O)[O-])ccc5F)c5nc(c(-c6cc(S(=O)(=O)[O-])ccc6F)c6ccc3[nH]6)C=C5)C=C4)cc2)NC(=O)c2ccc(OC(F)F)cc2)cc1
REMARK SMILES IDX 11 1 10 2 8 3 9 4 7 6 6 7 5 8 1 9 2 10 3 11 94 12 4 13 93 14
REMARK SMILES IDX 80 15 81 16 82 18 83 19 84 20 92 21 85 22 91 23 86 24 87 25
REMARK SMILES IDX 88 26 89 27 90 28 12 29 13 30 14 31 15 32 16 34 17 35 18 36
REMARK SMILES IDX 79 37 19 38 78 39 20 40 21 41 22 42 72 43 23 44 77 45 71 46
REMARK SMILES IDX 73 47 24 48 76 49 70 50 69 51 25 53 57 54 37 55 56 56 38 57
REMARK SMILES IDX 41 58 55 59 74 60 39 61 40 62 54 64 75 65 42 66 26 67 27 68
REMARK SMILES IDX 35 69 28 70 34 71 36 72 33 73 29 74 30 75 31 76 32 77 58 78
REMARK SMILES IDX 59 79 67 80 60 81 66 82 68 83 65 84 61 85 62 86 63 87 64 88
REMARK SMILES IDX 43 89 44 90 52 91 45 92 51 93 53 94 50 95 46 96 47 97 48 98
REMARK SMILES IDX 49 99
REMARK H PARENT 10 5 80 17 14 33 73 52 41 63
REMARK Flexibility Score: inf
ROOT
ATOM      1  C   UNL     1      -1.282  -2.320  -2.083  1.00  0.00     0.117 C 
ENDROOT
BRANCH   1   2
ATOM      2  N   UNL     1      -2.707  -2.492  -1.820  1.00  0.00    -0.356 N 
ATOM      3  C   UNL     1      -3.663  -1.631  -1.397  1.00  0.00     0.222 C 
ATOM      4  O   UNL     1      -4.782  -2.082  -1.139  1.00  0.00    -0.275 OA
ATOM      5  H   UNL     1      -3.034  -3.406  -1.980  1.00  0.00     0.163 HD
BRANCH   3   6
ATOM      6  C   UNL     1      -3.405  -0.147  -1.331  1.00  0.00     0.129 C 
BRANCH   6   7
ATOM      7  C   UNL     1      -3.216   0.463   0.074  1.00  0.00     0.122 C 
BRANCH   7   8
ATOM      8  C   UNL     1      -1.733   0.754   0.295  1.00  0.00    -0.025 A 
ATOM      9  C   UNL     1       2.546   1.311   0.113  1.00  0.00     0.044 C 
ATOM     10  C   UNL     1       1.061   1.178   0.274  1.00  0.00    -0.051 A 
ATOM     11  C   UNL     1       0.511   0.085   0.948  1.00  0.00     0.004 A 
ATOM     12  C   UNL     1       0.206   2.093  -0.341  1.00  0.00     0.004 A 
ATOM     13  C   UNL     1      -0.872  -0.121   0.967  1.00  0.00     0.006 A 
ATOM     14  C   UNL     1      -1.174   1.888  -0.324  1.00  0.00     0.006 A 
ENDBRANCH   7   8
BRANCH   7  15
ATOM     15  N   UNL     1      -3.822  -0.258   1.190  1.00  0.00    -0.345 N 
ATOM     16  C   UNL     1      -4.962   0.017   1.902  1.00  0.00     0.251 C 
ATOM     17  H   UNL     1      -3.338  -1.066   1.476  1.00  0.00     0.164 HD
ATOM     18  O   UNL     1      -5.127  -0.475   3.016  1.00  0.00    -0.269 OA
BRANCH  16  19
ATOM     19  C   UNL     1      -6.006   0.909   1.356  1.00  0.00     0.040 A 
ATOM     20  C   UNL     1      -6.587   1.872   2.184  1.00  0.00     0.017 A 
ATOM     21  C   UNL     1      -6.508   0.719   0.068  1.00  0.00     0.017 A 
ATOM     22  C   UNL     1      -7.622   2.676   1.697  1.00  0.00     0.047 A 
ATOM     23  C   UNL     1      -7.528   1.537  -0.424  1.00  0.00     0.047 A 
ATOM     24  C   UNL     1      -8.087   2.526   0.385  1.00  0.00     0.126 A 
BRANCH  24  25
ATOM     25  O   UNL     1      -9.097   3.377   0.033  1.00  0.00    -0.435 OA
BRANCH  25  26
ATOM     26  C   UNL     1      -9.509   3.395  -1.328  1.00  0.00     0.542 C 
ATOM     27  F   UNL     1      -8.453   3.667  -2.132  1.00  0.00    -0.167 F 
ATOM     28  F   UNL     1     -10.020   2.192  -1.681  1.00  0.00    -0.167 F 
ENDBRANCH  25  26
ENDBRANCH  24  25
ENDBRANCH  16  19
ENDBRANCH   7  15
ENDBRANCH   6   7
ENDBRANCH   3   6
ENDBRANCH   1   2
BRANCH   1  29
ATOM     29  C   UNL     1      -0.485  -3.117  -1.058  1.00  0.00     0.042 C 
BRANCH  29  30
ATOM     30  C   UNL     1       0.945  -3.412  -1.492  1.00  0.00     0.118 C 
BRANCH  30  31
ATOM     31  N   UNL     1       1.865  -2.273  -1.402  1.00  0.00    -0.352 N 
ATOM     32  C   UNL     1       3.150  -2.273  -0.881  1.00  0.00     0.251 C 
ATOM     33  H   UNL     1       1.534  -1.413  -1.749  1.00  0.00     0.163 HD
ATOM     34  O   UNL     1       3.931  -1.338  -1.004  1.00  0.00    -0.269 OA
BRANCH  32  35
ATOM     35  C   UNL     1       3.547  -3.468  -0.121  1.00  0.00     0.039 A 
ATOM     36  C   UNL     1       4.166  -4.508  -0.823  1.00  0.00     0.014 A 
ATOM     37  C   UNL     1       2.876  -3.677   1.084  1.00  0.00     0.014 A 
ATOM     38  C   UNL     1       3.902  -5.818  -0.435  1.00  0.00     0.010 A 
ATOM     39  C   UNL     1       2.579  -4.980   1.433  1.00  0.00     0.010 A 
ATOM     40  C   UNL     1       3.002  -6.043   0.610  1.00  0.00    -0.014 A 
BRANCH  40  41
ATOM     41  C   UNL     1       2.221  -7.278   0.732  1.00  0.00     0.031 A 
ATOM     42  C   UNL     1       2.247  -8.082   1.973  1.00  0.00     0.074 A 
ATOM     43  C   UNL     1       1.333  -7.611  -0.236  1.00  0.00     0.049 A 
ATOM     44  N   UNL     1       1.709  -9.248   2.091  1.00  0.00    -0.248 NA
ATOM     45  C   UNL     1       2.970  -7.669   3.169  1.00  0.00     0.031 C 
ATOM     46  C   UNL     1       0.190  -8.511  -0.111  1.00  0.00     0.029 A 
ATOM     47  N   UNL     1       1.445  -7.391  -1.611  1.00  0.00    -0.354 N 
ATOM     48  C   UNL     1       1.758  -9.616   3.412  1.00  0.00     0.074 A 
ATOM     49  C   UNL     1       2.651  -8.656   4.012  1.00  0.00     0.031 C 
ATOM     50  C   UNL     1      -0.137  -8.978  -1.323  1.00  0.00     0.029 A 
ATOM     51  C   UNL     1       0.864  -8.506  -2.255  1.00  0.00     0.049 A 
ATOM     52  H   UNL     1       1.851  -6.607  -2.048  1.00  0.00     0.167 HD
ATOM     53  C   UNL     1       0.952 -10.630   3.841  1.00  0.00     0.034 A 
ATOM     54  C   UNL     1       1.578  -9.287  -3.117  1.00  0.00     0.034 A 
ATOM     55  C   UNL     1       0.380 -11.374   2.709  1.00  0.00     0.049 A 
ATOM     56  C   UNL     1       1.708 -10.736  -2.693  1.00  0.00     0.074 A 
ATOM     57  C   UNL     1      -0.866 -11.489   2.116  1.00  0.00     0.029 A 
ATOM     58  N   UNL     1       1.257 -12.032   1.865  1.00  0.00    -0.354 N 
ATOM     59  N   UNL     1       1.167 -11.243  -1.619  1.00  0.00    -0.248 NA
ATOM     60  C   UNL     1       2.549 -11.708  -3.397  1.00  0.00     0.031 C 
ATOM     61  C   UNL     1      -0.707 -12.204   0.887  1.00  0.00     0.029 A 
ATOM     62  C   UNL     1       0.627 -12.543   0.751  1.00  0.00     0.049 A 
ATOM     63  H   UNL     1       2.221 -12.124   2.040  1.00  0.00     0.167 HD
ATOM     64  C   UNL     1       1.670 -12.501  -1.409  1.00  0.00     0.074 A 
ATOM     65  C   UNL     1       2.502 -12.765  -2.568  1.00  0.00     0.031 C 
ATOM     66  C   UNL     1       1.439 -13.205  -0.262  1.00  0.00     0.034 A 
BRANCH  53  67
ATOM     67  C   UNL     1       0.543 -10.905   5.278  1.00  0.00     0.023 A 
ATOM     68  C   UNL     1      -0.510 -11.819   5.513  1.00  0.00     0.031 A 
ATOM     69  C   UNL     1       1.046 -10.279   6.438  1.00  0.00     0.131 A 
ATOM     70  C   UNL     1      -1.034 -12.034   6.803  1.00  0.00     0.055 A 
ATOM     71  C   UNL     1       0.534 -10.502   7.723  1.00  0.00     0.041 A 
ATOM     72  F   UNL     1       2.054  -9.407   6.417  1.00  0.00    -0.206 F 
ATOM     73  C   UNL     1      -0.519 -11.375   7.912  1.00  0.00     0.022 A 
BRANCH  70  74
ATOM     74  S   UNL     1      -2.441 -13.157   7.012  1.00  0.00     0.124 S 
ATOM     75  O   UNL     1      -3.456 -12.540   6.165  1.00  0.00    -0.237 OA
ATOM     76  O   UNL     1      -1.892 -14.426   6.550  1.00  0.00    -0.237 OA
ATOM     77  O   UNL     1      -2.715 -13.091   8.448  1.00  0.00    -0.744 OA
ENDBRANCH  70  74
ENDBRANCH  53  67
BRANCH  54  78
ATOM     78  C   UNL     1       2.589  -8.504  -3.879  1.00  0.00     0.023 A 
ATOM     79  C   UNL     1       2.098  -7.474  -4.709  1.00  0.00     0.031 A 
ATOM     80  C   UNL     1       3.933  -8.453  -3.485  1.00  0.00     0.131 A 
ATOM     81  C   UNL     1       2.889  -6.350  -4.973  1.00  0.00     0.055 A 
ATOM     82  C   UNL     1       4.742  -7.360  -3.815  1.00  0.00     0.041 A 
ATOM     83  F   UNL     1       4.441  -9.382  -2.661  1.00  0.00    -0.206 F 
ATOM     84  C   UNL     1       4.209  -6.282  -4.523  1.00  0.00     0.022 A 
BRANCH  81  85
ATOM     85  S   UNL     1       2.076  -4.869  -5.644  1.00  0.00     0.124 S 
ATOM     86  O   UNL     1       2.028  -5.166  -7.070  1.00  0.00    -0.237 OA
ATOM     87  O   UNL     1       0.791  -4.869  -4.944  1.00  0.00    -0.237 OA
ATOM     88  O   UNL     1       2.972  -3.785  -5.251  1.00  0.00    -0.744 OA
ENDBRANCH  81  85
ENDBRANCH  54  78
BRANCH  66  89
ATOM     89  C   UNL     1       2.037 -14.563   0.005  1.00  0.00     0.023 A 
ATOM     90  C   UNL     1       2.059 -15.570  -0.973  1.00  0.00     0.031 A 
ATOM     91  C   UNL     1       2.538 -14.915   1.279  1.00  0.00     0.131 A 
ATOM     92  C   UNL     1       2.601 -16.837  -0.684  1.00  0.00     0.055 A 
ATOM     93  C   UNL     1       2.991 -16.200   1.587  1.00  0.00     0.041 A 
ATOM     94  F   UNL     1       2.661 -14.011   2.262  1.00  0.00    -0.206 F 
ATOM     95  C   UNL     1       3.032 -17.170   0.600  1.00  0.00     0.022 A 
BRANCH  92  96
ATOM     96  S   UNL     1       2.813 -18.024  -2.036  1.00  0.00     0.124 S 
ATOM     97  O   UNL     1       1.476 -18.096  -2.614  1.00  0.00    -0.237 OA
ATOM     98  O   UNL     1       3.824 -17.359  -2.855  1.00  0.00    -0.237 OA
ATOM     99  O   UNL     1       3.267 -19.239  -1.362  1.00  0.00    -0.744 OA
ENDBRANCH  92  96
ENDBRANCH  66  89
ENDBRANCH  40  41
ENDBRANCH  32  35
ENDBRANCH  30  31
ENDBRANCH  29  30
ENDBRANCH   1  29
TORSDOF 19
