REMARK SMILES Cc1cc2c(c(C)c1Cl)C=C(C(=O)NCCCNC(=O)c1ccc(-c3c4nc(c(-c5cc(S(=O)(=O)[O-])ccc5F)c5ccc([nH]5)c(-c5cc(S(=O)(=O)[O-])ccc5F)c5nc(c(-c6cc(S(=O)(=O)[O-])ccc6F)c6ccc3[nH]6)C=C5)C=C4)cc1)[C@@H](C(F)(F)F)O2
REMARK SMILES IDX 17 1 16 2 15 3 14 4 12 5 13 6 11 8 1 9 2 10 3 11 8 12 4 13
REMARK SMILES IDX 6 14 9 15 5 16 89 17 7 18 10 19 84 20 85 21 86 22 87 23
REMARK SMILES IDX 88 24 18 25 19 26 20 28 21 29 22 30 83 31 23 32 82 33 24 34
REMARK SMILES IDX 25 35 26 36 76 37 27 38 81 39 75 40 77 41 28 42 80 43 74 44
REMARK SMILES IDX 73 45 29 47 61 48 41 49 60 50 42 51 45 52 59 53 78 54 43 55
REMARK SMILES IDX 44 56 58 58 79 59 46 60 30 61 31 62 39 63 32 64 38 65 40 66
REMARK SMILES IDX 37 67 33 68 34 69 35 70 36 71 62 72 63 73 71 74 64 75 70 76
REMARK SMILES IDX 72 77 69 78 65 79 66 80 67 81 68 82 47 83 48 84 56 85 49 86
REMARK SMILES IDX 55 87 57 88 54 89 50 90 51 91 52 92 53 93
REMARK H PARENT 14 7 18 27 77 46 45 57
REMARK Flexibility Score: inf
ROOT
ATOM      1  C   UNL     1       2.194 -11.042   0.947  1.00  0.00     0.118 C 
ENDROOT
BRANCH   1   2
ATOM      2  C   UNL     1       2.472  -9.583   0.606  1.00  0.00     0.042 C 
BRANCH   2   3
ATOM      3  C   UNL     1       1.506  -9.040  -0.437  1.00  0.00     0.118 C 
BRANCH   3   4
ATOM      4  N   UNL     1       0.200  -8.745   0.133  1.00  0.00    -0.352 N 
ATOM      5  C   UNL     1      -0.522  -7.646   0.451  1.00  0.00     0.251 C 
ATOM      6  O   UNL     1      -1.638  -7.871   0.931  1.00  0.00    -0.270 OA
ATOM      7  H   UNL     1      -0.294  -9.570   0.344  1.00  0.00     0.163 HD
BRANCH   5   8
ATOM      8  C   UNL     1      -0.074  -6.236   0.257  1.00  0.00     0.067 C 
ATOM      9  C   UNL     1       0.786   0.208   0.014  1.00  0.00     0.046 C 
ATOM     10  C   UNL     1       0.282  -1.194   0.218  1.00  0.00    -0.028 A 
ATOM     11  C   UNL     1       1.161  -2.255  -0.015  1.00  0.00     0.052 A 
ATOM     12  C   UNL     1      -1.044  -1.480   0.605  1.00  0.00     0.047 A 
ATOM     13  C   UNL     1       0.735  -3.570   0.134  1.00  0.00     0.128 A 
ATOM     14  C   UNL     1      -1.484  -2.816   0.781  1.00  0.00    -0.021 A 
ATOM     15  Cl  UNL     1      -2.132  -0.148   0.857  1.00  0.00    -0.084 Cl
ATOM     16  C   UNL     1      -0.569  -3.869   0.540  1.00  0.00     0.022 A 
ATOM     17  O   UNL     1       1.684  -4.522  -0.104  1.00  0.00    -0.475 OA
ATOM     18  C   UNL     1      -2.894  -3.142   1.217  1.00  0.00     0.047 C 
ATOM     19  C   UNL     1      -0.906  -5.285   0.724  1.00  0.00     0.026 C 
ATOM     20  C   UNL     1       1.194  -5.846  -0.440  1.00  0.00     0.314 C 
BRANCH  20  21
ATOM     21  C   UNL     1       1.095  -5.983  -1.972  1.00  0.00     0.429 C 
ATOM     22  F   UNL     1       2.330  -5.979  -2.532  1.00  0.00    -0.167 F 
ATOM     23  F   UNL     1       0.504  -7.140  -2.355  1.00  0.00    -0.167 F 
ATOM     24  F   UNL     1       0.389  -4.980  -2.542  1.00  0.00    -0.167 F 
ENDBRANCH  20  21
ENDBRANCH   5   8
ENDBRANCH   3   4
ENDBRANCH   2   3
ENDBRANCH   1   2
BRANCH   1  25
ATOM     25  N   UNL     1       2.419 -11.917  -0.201  1.00  0.00    -0.352 N 
ATOM     26  C   UNL     1       3.465 -12.763  -0.475  1.00  0.00     0.251 C 
ATOM     27  H   UNL     1       1.710 -11.896  -0.885  1.00  0.00     0.163 HD
ATOM     28  O   UNL     1       3.619 -13.181  -1.620  1.00  0.00    -0.269 OA
BRANCH  26  29
ATOM     29  C   UNL     1       4.397 -13.156   0.599  1.00  0.00     0.039 A 
ATOM     30  C   UNL     1       5.764 -13.239   0.329  1.00  0.00     0.014 A 
ATOM     31  C   UNL     1       3.913 -13.462   1.873  1.00  0.00     0.014 A 
ATOM     32  C   UNL     1       6.651 -13.561   1.358  1.00  0.00     0.010 A 
ATOM     33  C   UNL     1       4.801 -13.686   2.916  1.00  0.00     0.010 A 
ATOM     34  C   UNL     1       6.179 -13.750   2.668  1.00  0.00    -0.014 A 
BRANCH  34  35
ATOM     35  C   UNL     1       7.103 -14.047   3.789  1.00  0.00     0.031 A 
ATOM     36  C   UNL     1       6.991 -15.358   4.519  1.00  0.00     0.074 A 
ATOM     37  C   UNL     1       8.002 -13.122   4.176  1.00  0.00     0.049 A 
ATOM     38  N   UNL     1       7.645 -15.775   5.572  1.00  0.00    -0.248 NA
ATOM     39  C   UNL     1       5.988 -16.314   4.019  1.00  0.00     0.031 C 
ATOM     40  C   UNL     1       8.179 -11.804   3.561  1.00  0.00     0.029 A 
ATOM     41  N   UNL     1       8.942 -13.149   5.175  1.00  0.00    -0.354 N 
ATOM     42  C   UNL     1       7.131 -17.034   5.861  1.00  0.00     0.074 A 
ATOM     43  C   UNL     1       6.062 -17.282   4.919  1.00  0.00     0.031 C 
ATOM     44  C   UNL     1       9.198 -11.171   4.163  1.00  0.00     0.029 A 
ATOM     45  C   UNL     1       9.717 -12.014   5.235  1.00  0.00     0.049 A 
ATOM     46  H   UNL     1       9.052 -13.909   5.790  1.00  0.00     0.167 HD
ATOM     47  C   UNL     1       7.537 -17.917   6.804  1.00  0.00     0.034 A 
ATOM     48  C   UNL     1      10.732 -11.691   6.061  1.00  0.00     0.034 A 
ATOM     49  C   UNL     1       8.624 -17.669   7.714  1.00  0.00     0.049 A 
ATOM     50  C   UNL     1      11.144 -12.676   7.123  1.00  0.00     0.074 A 
ATOM     51  C   UNL     1       9.143 -18.509   8.683  1.00  0.00     0.029 A 
ATOM     52  N   UNL     1       9.364 -16.496   7.762  1.00  0.00    -0.354 N 
ATOM     53  N   UNL     1      10.649 -13.864   7.379  1.00  0.00    -0.248 NA
ATOM     54  C   UNL     1      12.247 -12.277   8.007  1.00  0.00     0.031 C 
ATOM     55  C   UNL     1      10.163 -17.825   9.351  1.00  0.00     0.029 A 
ATOM     56  C   UNL     1      10.321 -16.582   8.759  1.00  0.00     0.049 A 
ATOM     57  H   UNL     1       9.229 -15.718   7.175  1.00  0.00     0.167 HD
ATOM     58  C   UNL     1      11.395 -14.364   8.442  1.00  0.00     0.074 A 
ATOM     59  C   UNL     1      12.376 -13.351   8.775  1.00  0.00     0.031 C 
ATOM     60  C   UNL     1      11.281 -15.555   9.080  1.00  0.00     0.034 A 
BRANCH  47  61
ATOM     61  C   UNL     1       6.805 -19.230   6.889  1.00  0.00     0.023 A 
ATOM     62  C   UNL     1       6.878 -20.174   5.851  1.00  0.00     0.031 A 
ATOM     63  C   UNL     1       6.030 -19.545   8.018  1.00  0.00     0.131 A 
ATOM     64  C   UNL     1       6.146 -21.366   5.938  1.00  0.00     0.055 A 
ATOM     65  C   UNL     1       5.359 -20.764   8.130  1.00  0.00     0.041 A 
ATOM     66  F   UNL     1       5.911 -18.671   9.030  1.00  0.00    -0.206 F 
ATOM     67  C   UNL     1       5.406 -21.679   7.081  1.00  0.00     0.022 A 
BRANCH  64  68
ATOM     68  S   UNL     1       6.101 -22.464   4.496  1.00  0.00     0.124 S 
ATOM     69  O   UNL     1       5.399 -21.635   3.519  1.00  0.00    -0.237 OA
ATOM     70  O   UNL     1       7.515 -22.701   4.233  1.00  0.00    -0.237 OA
ATOM     71  O   UNL     1       5.352 -23.625   4.973  1.00  0.00    -0.744 OA
ENDBRANCH  64  68
ENDBRANCH  47  61
BRANCH  48  72
ATOM     72  C   UNL     1      11.435 -10.388   5.907  1.00  0.00     0.023 A 
ATOM     73  C   UNL     1      12.761 -10.339   5.450  1.00  0.00     0.031 A 
ATOM     74  C   UNL     1      10.793  -9.175   6.209  1.00  0.00     0.131 A 
ATOM     75  C   UNL     1      13.412  -9.102   5.327  1.00  0.00     0.055 A 
ATOM     76  C   UNL     1      11.432  -7.944   6.050  1.00  0.00     0.041 A 
ATOM     77  F   UNL     1       9.521  -9.169   6.639  1.00  0.00    -0.206 F 
ATOM     78  C   UNL     1      12.753  -7.904   5.613  1.00  0.00     0.022 A 
BRANCH  75  79
ATOM     79  S   UNL     1      15.151  -9.081   4.813  1.00  0.00     0.124 S 
ATOM     80  O   UNL     1      15.794  -9.787   5.916  1.00  0.00    -0.237 OA
ATOM     81  O   UNL     1      15.101  -9.789   3.538  1.00  0.00    -0.237 OA
ATOM     82  O   UNL     1      15.460  -7.656   4.718  1.00  0.00    -0.744 OA
ENDBRANCH  75  79
ENDBRANCH  48  72
BRANCH  60  83
ATOM     83  C   UNL     1      12.255 -15.841  10.190  1.00  0.00     0.023 A 
ATOM     84  C   UNL     1      12.151 -15.200  11.435  1.00  0.00     0.031 A 
ATOM     85  C   UNL     1      13.256 -16.813  10.018  1.00  0.00     0.131 A 
ATOM     86  C   UNL     1      13.052 -15.525  12.459  1.00  0.00     0.055 A 
ATOM     87  C   UNL     1      14.120 -17.163  11.054  1.00  0.00     0.041 A 
ATOM     88  F   UNL     1      13.389 -17.455   8.846  1.00  0.00    -0.206 F 
ATOM     89  C   UNL     1      14.023 -16.515  12.283  1.00  0.00     0.022 A 
BRANCH  86  90
ATOM     90  S   UNL     1      12.950 -14.621  14.027  1.00  0.00     0.124 S 
ATOM     91  O   UNL     1      13.318 -13.269  13.619  1.00  0.00    -0.237 OA
ATOM     92  O   UNL     1      11.556 -14.812  14.414  1.00  0.00    -0.237 OA
ATOM     93  O   UNL     1      13.926 -15.300  14.878  1.00  0.00    -0.744 OA
ENDBRANCH  86  90
ENDBRANCH  60  83
ENDBRANCH  34  35
ENDBRANCH  26  29
ENDBRANCH   1  25
TORSDOF 14
