REMARK SMILES O=C(NCCCNC(=O)C1([NH+]2CCOCC2)CCC1)c1ccc(-c2c3nc(c(-c4cc(S(=O)(=O)[O-])ccc4F)c4ccc([nH]4)c(-c4cc(S(=O)(=O)[O-])ccc4F)c4nc(c(-c5cc(S(=O)(=O)[O-])ccc5F)c5ccc2[nH]5)C=C4)C=C3)cc1
REMARK SMILES IDX 4 1 3 2 1 3 2 4 20 6 21 7 82 8 22 9 81 10 23 11 24 12 25 13
REMARK SMILES IDX 75 14 26 15 80 16 74 17 76 18 27 19 79 20 73 21 72 22 28 24
REMARK SMILES IDX 60 25 40 26 59 27 41 28 44 29 58 30 77 31 42 32 43 33 57 35
REMARK SMILES IDX 78 36 45 37 29 38 30 39 38 40 31 41 37 42 39 43 36 44 32 45
REMARK SMILES IDX 33 46 34 47 35 48 61 49 62 50 70 51 63 52 69 53 71 54 68 55
REMARK SMILES IDX 64 56 65 57 66 58 67 59 46 60 47 61 55 62 48 63 54 64 56 65
REMARK SMILES IDX 53 66 49 67 50 68 51 69 52 70 5 71 6 72 7 73 8 74 9 76 10 77
REMARK SMILES IDX 17 78 19 79 18 80 11 81 12 82 16 83 13 85 15 86 14 87
REMARK H PARENT 3 5 76 23 44 34 7 75 11 84
REMARK Flexibility Score: inf
ROOT
ATOM      1  C   UNL     1       4.495  -1.133   0.549  1.00  0.00     0.118 C 
ENDROOT
BRANCH   1   2
ATOM      2  N   UNL     1       3.104  -1.096   0.113  1.00  0.00    -0.352 N 
ATOM      3  O   UNL     1       1.140  -0.130  -0.391  1.00  0.00    -0.269 OA
ATOM      4  C   UNL     1       2.365  -0.054  -0.386  1.00  0.00     0.251 C 
ATOM      5  H   UNL     1       2.621  -1.951   0.188  1.00  0.00     0.163 HD
BRANCH   4   6
ATOM      6  C   UNL     1       3.039   1.142  -0.931  1.00  0.00     0.039 A 
ATOM      7  C   UNL     1       4.167   1.008  -1.746  1.00  0.00     0.014 A 
ATOM      8  C   UNL     1       2.494   2.405  -0.687  1.00  0.00     0.014 A 
ATOM      9  C   UNL     1       4.814   2.141  -2.227  1.00  0.00     0.010 A 
ATOM     10  C   UNL     1       3.102   3.537  -1.234  1.00  0.00     0.010 A 
ATOM     11  C   UNL     1       4.277   3.415  -1.993  1.00  0.00    -0.014 A 
BRANCH  11  12
ATOM     12  C   UNL     1       4.925   4.611  -2.586  1.00  0.00     0.031 A 
ATOM     13  C   UNL     1       5.526   5.666  -1.704  1.00  0.00     0.074 A 
ATOM     14  C   UNL     1       4.952   4.744  -3.926  1.00  0.00     0.049 A 
ATOM     15  N   UNL     1       6.052   6.818  -2.031  1.00  0.00    -0.248 NA
ATOM     16  C   UNL     1       5.522   5.393  -0.260  1.00  0.00     0.031 C 
ATOM     17  C   UNL     1       4.406   3.773  -4.877  1.00  0.00     0.029 A 
ATOM     18  N   UNL     1       5.451   5.743  -4.721  1.00  0.00    -0.354 N 
ATOM     19  C   UNL     1       6.423   7.421  -0.834  1.00  0.00     0.074 A 
ATOM     20  C   UNL     1       6.025   6.517   0.227  1.00  0.00     0.031 C 
ATOM     21  C   UNL     1       4.615   4.215  -6.125  1.00  0.00     0.029 A 
ATOM     22  C   UNL     1       5.239   5.532  -6.062  1.00  0.00     0.049 A 
ATOM     23  H   UNL     1       5.916   6.535  -4.365  1.00  0.00     0.167 HD
ATOM     24  C   UNL     1       7.042   8.614  -0.644  1.00  0.00     0.034 A 
ATOM     25  C   UNL     1       5.479   6.326  -7.124  1.00  0.00     0.034 A 
ATOM     26  C   UNL     1       7.418   9.497  -1.724  1.00  0.00     0.049 A 
ATOM     27  C   UNL     1       6.108   7.672  -6.890  1.00  0.00     0.074 A 
ATOM     28  C   UNL     1       8.066  10.718  -1.657  1.00  0.00     0.029 A 
ATOM     29  N   UNL     1       7.164   9.261  -3.072  1.00  0.00    -0.354 N 
ATOM     30  N   UNL     1       6.456   8.231  -5.754  1.00  0.00    -0.248 NA
ATOM     31  C   UNL     1       6.380   8.491  -8.076  1.00  0.00     0.031 C 
ATOM     32  C   UNL     1       8.136  11.252  -2.949  1.00  0.00     0.029 A 
ATOM     33  C   UNL     1       7.613  10.326  -3.838  1.00  0.00     0.049 A 
ATOM     34  H   UNL     1       6.730   8.453  -3.430  1.00  0.00     0.167 HD
ATOM     35  C   UNL     1       7.017   9.458  -6.092  1.00  0.00     0.074 A 
ATOM     36  C   UNL     1       6.961   9.554  -7.537  1.00  0.00     0.031 C 
ATOM     37  C   UNL     1       7.541  10.412  -5.280  1.00  0.00     0.034 A 
BRANCH  24  38
ATOM     38  C   UNL     1       7.288   9.047   0.784  1.00  0.00     0.023 A 
ATOM     39  C   UNL     1       8.096   8.300   1.659  1.00  0.00     0.031 A 
ATOM     40  C   UNL     1       6.657  10.195   1.297  1.00  0.00     0.131 A 
ATOM     41  C   UNL     1       8.174   8.651   3.016  1.00  0.00     0.055 A 
ATOM     42  C   UNL     1       6.814  10.592   2.627  1.00  0.00     0.041 A 
ATOM     43  F   UNL     1       5.855  10.940   0.520  1.00  0.00    -0.206 F 
ATOM     44  C   UNL     1       7.560   9.807   3.501  1.00  0.00     0.022 A 
BRANCH  41  45
ATOM     45  S   UNL     1       8.935   7.475   4.171  1.00  0.00     0.124 S 
ATOM     46  O   UNL     1       8.155   6.265   3.920  1.00  0.00    -0.237 OA
ATOM     47  O   UNL     1      10.322   7.445   3.723  1.00  0.00    -0.237 OA
ATOM     48  O   UNL     1       8.713   8.087   5.479  1.00  0.00    -0.744 OA
ENDBRANCH  41  45
ENDBRANCH  24  38
BRANCH  25  49
ATOM     49  C   UNL     1       5.080   5.877  -8.486  1.00  0.00     0.023 A 
ATOM     50  C   UNL     1       6.038   5.596  -9.471  1.00  0.00     0.031 A 
ATOM     51  C   UNL     1       3.722   5.705  -8.816  1.00  0.00     0.131 A 
ATOM     52  C   UNL     1       5.625   5.179 -10.746  1.00  0.00     0.055 A 
ATOM     53  C   UNL     1       3.319   5.244 -10.069  1.00  0.00     0.041 A 
ATOM     54  F   UNL     1       2.767   5.953  -7.905  1.00  0.00    -0.206 F 
ATOM     55  C   UNL     1       4.274   4.986 -11.046  1.00  0.00     0.022 A 
BRANCH  52  56
ATOM     56  S   UNL     1       6.881   4.939 -12.031  1.00  0.00     0.124 S 
ATOM     57  O   UNL     1       7.476   6.268 -12.118  1.00  0.00    -0.237 OA
ATOM     58  O   UNL     1       7.719   3.898 -11.446  1.00  0.00    -0.237 OA
ATOM     59  O   UNL     1       6.102   4.526 -13.197  1.00  0.00    -0.744 OA
ENDBRANCH  52  56
ENDBRANCH  25  49
BRANCH  37  60
ATOM     60  C   UNL     1       8.156  11.618  -5.947  1.00  0.00     0.023 A 
ATOM     61  C   UNL     1       7.380  12.571  -6.628  1.00  0.00     0.031 A 
ATOM     62  C   UNL     1       9.547  11.815  -5.887  1.00  0.00     0.131 A 
ATOM     63  C   UNL     1       8.007  13.658  -7.257  1.00  0.00     0.055 A 
ATOM     64  C   UNL     1      10.158  12.927  -6.466  1.00  0.00     0.041 A 
ATOM     65  F   UNL     1      10.335  10.931  -5.253  1.00  0.00    -0.206 F 
ATOM     66  C   UNL     1       9.388  13.851  -7.164  1.00  0.00     0.022 A 
BRANCH  63  67
ATOM     67  S   UNL     1       7.002  14.785  -8.263  1.00  0.00     0.124 S 
ATOM     68  O   UNL     1       6.460  13.885  -9.276  1.00  0.00    -0.237 OA
ATOM     69  O   UNL     1       6.045  15.303  -7.292  1.00  0.00    -0.237 OA
ATOM     70  O   UNL     1       7.972  15.761  -8.757  1.00  0.00    -0.744 OA
ENDBRANCH  63  67
ENDBRANCH  37  60
ENDBRANCH  11  12
ENDBRANCH   4   6
ENDBRANCH   1   2
BRANCH   1  71
ATOM     71  C   UNL     1       4.610  -1.203   2.075  1.00  0.00     0.042 C 
BRANCH  71  72
ATOM     72  C   UNL     1       3.964  -2.458   2.663  1.00  0.00     0.118 C 
BRANCH  72  73
ATOM     73  N   UNL     1       4.687  -3.647   2.271  1.00  0.00    -0.351 N 
ATOM     74  C   UNL     1       5.669  -4.424   2.837  1.00  0.00     0.281 C 
ATOM     75  H   UNL     1       4.408  -3.981   1.388  1.00  0.00     0.163 HD
ATOM     76  O   UNL     1       5.986  -5.351   2.070  1.00  0.00    -0.268 OA
BRANCH  74  77
ATOM     77  C   UNL     1       6.270  -4.197   4.347  1.00  0.00     0.177 C 
ATOM     78  C   UNL     1       6.173  -2.788   5.024  1.00  0.00     0.079 C 
ATOM     79  C   UNL     1       5.353  -4.738   5.481  1.00  0.00     0.079 C 
ATOM     80  C   UNL     1       5.550  -3.438   6.273  1.00  0.00     0.014 C 
BRANCH  77  81
ATOM     81  N   UNL     1       7.679  -4.720   4.485  1.00  0.00    -0.318 N 
ATOM     82  C   UNL     1       7.892  -6.137   4.128  1.00  0.00     0.291 C 
ATOM     83  C   UNL     1       8.547  -4.360   5.618  1.00  0.00     0.291 C 
ATOM     84  H   UNL     1       8.015  -4.098   3.750  1.00  0.00     0.349 HD
ATOM     85  C   UNL     1       8.005  -7.119   5.308  1.00  0.00     0.221 C 
ATOM     86  C   UNL     1       8.566  -5.376   6.769  1.00  0.00     0.221 C 
ATOM     87  O   UNL     1       8.930  -6.677   6.302  1.00  0.00    -0.370 OA
ENDBRANCH  77  81
ENDBRANCH  74  77
ENDBRANCH  72  73
ENDBRANCH  71  72
ENDBRANCH   1  71
TORSDOF 14
