REMARK SMILES CCOC(=O)NC(=O)C[N@H+]1CC[C@@H](C(=O)NCCCNC(=O)c2ccc(-c3c4nc(c(-c5cc(S(=O)(=O)[O-])ccc5F)c5ccc([nH]5)c(-c5cc(S(=O)(=O)[O-])ccc5F)c5nc(c(-c6cc(S(=O)(=O)[O-])ccc6F)c6ccc3[nH]6)C=C5)C=C4)cc2)[C@@H]1C
REMARK SMILES IDX 17 1 16 2 14 3 15 4 13 6 10 7 11 8 86 9 12 11 87 12 9 13
REMARK SMILES IDX 7 14 4 15 5 16 6 17 8 19 3 20 2 21 1 22 18 23 19 24 20 25
REMARK SMILES IDX 21 26 22 28 23 29 24 30 85 31 25 32 84 33 26 34 27 35 28 36
REMARK SMILES IDX 78 37 29 38 83 39 77 40 79 41 30 42 82 43 76 44 75 45 31 47
REMARK SMILES IDX 63 48 43 49 62 50 44 51 47 52 61 53 80 54 45 55 46 56 60 58
REMARK SMILES IDX 81 59 48 60 32 61 33 62 41 63 34 64 40 65 42 66 39 67 35 68
REMARK SMILES IDX 36 69 37 70 38 71 64 72 65 73 73 74 66 75 72 76 74 77 71 78
REMARK SMILES IDX 67 79 68 80 69 81 70 82 49 83 50 84 58 85 51 86 57 87 59 88
REMARK SMILES IDX 56 89 52 90 53 91 54 92 55 93
REMARK H PARENT 16 5 10 10 6 18 20 27 79 46 47 57
REMARK Flexibility Score: inf
ROOT
ATOM      1  C   UNL     1      -2.661   2.322   5.239  1.00  0.00     0.117 C 
ENDROOT
BRANCH   1   2
ATOM      2  N   UNL     1      -3.508   3.286   4.563  1.00  0.00    -0.356 N 
ATOM      3  C   UNL     1      -3.428   3.833   3.321  1.00  0.00     0.229 C 
ATOM      4  O   UNL     1      -4.285   4.667   3.015  1.00  0.00    -0.275 OA
ATOM      5  H   UNL     1      -4.275   3.598   5.096  1.00  0.00     0.163 HD
BRANCH   3   6
ATOM      6  C   UNL     1      -2.365   3.427   2.310  1.00  0.00     0.142 C 
ATOM      7  N   UNL     1      -0.119   2.538   2.580  1.00  0.00    -0.324 N 
ATOM      8  C   UNL     1      -0.969   1.482   2.031  1.00  0.00     0.263 C 
ATOM      9  C   UNL     1      -0.927   3.766   2.721  1.00  0.00     0.194 C 
ATOM     10  H   UNL     1       0.639   2.729   1.925  1.00  0.00     0.348 HD
ATOM     11  C   UNL     1      -2.406   1.951   1.978  1.00  0.00     0.081 C 
ATOM     12  C   UNL     1      -0.337   4.826   1.785  1.00  0.00     0.076 C 
BRANCH   7  13
ATOM     13  C   UNL     1       0.607   2.140   3.802  1.00  0.00     0.364 C 
BRANCH  13  14
ATOM     14  C   UNL     1       2.100   2.431   3.705  1.00  0.00     0.284 C 
ATOM     15  C   UNL     1       2.810   0.373   2.390  1.00  0.00     0.414 C 
ATOM     16  O   UNL     1       3.775  -0.202   1.901  1.00  0.00    -0.224 OA
ATOM     17  N   UNL     1       2.964   1.515   3.144  1.00  0.00    -0.256 N 
ATOM     18  H   UNL     1       3.909   1.725   3.324  1.00  0.00     0.176 HD
ATOM     19  O   UNL     1       2.576   3.475   4.163  1.00  0.00    -0.268 OA
BRANCH  15  20
ATOM     20  O   UNL     1       1.527  -0.008   2.211  1.00  0.00    -0.450 OA
BRANCH  20  21
ATOM     21  C   UNL     1       1.283  -1.043   1.247  1.00  0.00     0.231 C 
ATOM     22  C   UNL     1       1.430  -0.506  -0.167  1.00  0.00     0.049 C 
ENDBRANCH  20  21
ENDBRANCH  15  20
ENDBRANCH  13  14
ENDBRANCH   7  13
ENDBRANCH   3   6
ENDBRANCH   1   2
BRANCH   1  23
ATOM     23  C   UNL     1      -1.784   2.979   6.293  1.00  0.00     0.042 C 
BRANCH  23  24
ATOM     24  C   UNL     1      -2.545   3.386   7.538  1.00  0.00     0.118 C 
BRANCH  24  25
ATOM     25  N   UNL     1      -2.993   2.229   8.295  1.00  0.00    -0.352 N 
ATOM     26  C   UNL     1      -2.698   1.857   9.582  1.00  0.00     0.251 C 
ATOM     27  H   UNL     1      -3.598   1.621   7.811  1.00  0.00     0.163 HD
ATOM     28  O   UNL     1      -2.964   0.714   9.944  1.00  0.00    -0.269 OA
BRANCH  26  29
ATOM     29  C   UNL     1      -2.058   2.813  10.514  1.00  0.00     0.039 A 
ATOM     30  C   UNL     1      -1.178   2.326  11.484  1.00  0.00     0.014 A 
ATOM     31  C   UNL     1      -2.352   4.179  10.469  1.00  0.00     0.014 A 
ATOM     32  C   UNL     1      -0.584   3.211  12.386  1.00  0.00     0.010 A 
ATOM     33  C   UNL     1      -1.667   5.070  11.284  1.00  0.00     0.010 A 
ATOM     34  C   UNL     1      -0.811   4.593  12.284  1.00  0.00    -0.014 A 
BRANCH  34  35
ATOM     35  C   UNL     1      -0.240   5.544  13.271  1.00  0.00     0.031 A 
ATOM     36  C   UNL     1      -1.164   6.363  14.136  1.00  0.00     0.074 A 
ATOM     37  C   UNL     1       1.095   5.691  13.367  1.00  0.00     0.049 A 
ATOM     38  N   UNL     1      -0.876   7.276  15.028  1.00  0.00    -0.248 NA
ATOM     39  C   UNL     1      -2.609   6.157  13.942  1.00  0.00     0.031 C 
ATOM     40  C   UNL     1       2.085   4.986  12.549  1.00  0.00     0.029 A 
ATOM     41  N   UNL     1       1.851   6.477  14.197  1.00  0.00    -0.354 N 
ATOM     42  C   UNL     1      -2.099   7.759  15.485  1.00  0.00     0.074 A 
ATOM     43  C   UNL     1      -3.126   7.103  14.708  1.00  0.00     0.031 C 
ATOM     44  C   UNL     1       3.317   5.341  12.948  1.00  0.00     0.029 A 
ATOM     45  C   UNL     1       3.207   6.328  14.017  1.00  0.00     0.049 A 
ATOM     46  H   UNL     1       1.461   7.090  14.861  1.00  0.00     0.167 HD
ATOM     47  C   UNL     1      -2.345   8.643  16.484  1.00  0.00     0.034 A 
ATOM     48  C   UNL     1       4.241   6.921  14.645  1.00  0.00     0.034 A 
ATOM     49  C   UNL     1      -1.305   9.271  17.260  1.00  0.00     0.049 A 
ATOM     50  C   UNL     1       3.944   7.900  15.753  1.00  0.00     0.074 A 
ATOM     51  C   UNL     1      -1.430  10.152  18.320  1.00  0.00     0.029 A 
ATOM     52  N   UNL     1       0.058   9.085  17.058  1.00  0.00    -0.354 N 
ATOM     53  N   UNL     1       2.781   8.313  16.206  1.00  0.00    -0.248 NA
ATOM     54  C   UNL     1       5.101   8.472  16.451  1.00  0.00     0.031 C 
ATOM     55  C   UNL     1      -0.147  10.548  18.714  1.00  0.00     0.029 A 
ATOM     56  C   UNL     1       0.782   9.849  17.960  1.00  0.00     0.049 A 
ATOM     57  H   UNL     1       0.451   8.496  16.374  1.00  0.00     0.167 HD
ATOM     58  C   UNL     1       3.070   9.164  17.271  1.00  0.00     0.074 A 
ATOM     59  C   UNL     1       4.513   9.184  17.400  1.00  0.00     0.031 C 
ATOM     60  C   UNL     1       2.223   9.861  18.072  1.00  0.00     0.034 A 
BRANCH  47  61
ATOM     61  C   UNL     1      -3.791   8.985  16.767  1.00  0.00     0.023 A 
ATOM     62  C   UNL     1      -4.721   8.005  17.161  1.00  0.00     0.031 A 
ATOM     63  C   UNL     1      -4.260  10.300  16.599  1.00  0.00     0.131 A 
ATOM     64  C   UNL     1      -6.080   8.333  17.282  1.00  0.00     0.055 A 
ATOM     65  C   UNL     1      -5.598  10.639  16.814  1.00  0.00     0.041 A 
ATOM     66  F   UNL     1      -3.430  11.277  16.201  1.00  0.00    -0.206 F 
ATOM     67  C   UNL     1      -6.521   9.649  17.140  1.00  0.00     0.022 A 
BRANCH  64  68
ATOM     68  S   UNL     1      -7.283   6.987  17.465  1.00  0.00     0.124 S 
ATOM     69  O   UNL     1      -7.037   6.207  16.253  1.00  0.00    -0.237 OA
ATOM     70  O   UNL     1      -6.875   6.365  18.718  1.00  0.00    -0.237 OA
ATOM     71  O   UNL     1      -8.570   7.679  17.500  1.00  0.00    -0.744 OA
ENDBRANCH  64  68
ENDBRANCH  47  61
BRANCH  48  72
ATOM     72  C   UNL     1       5.646   6.603  14.260  1.00  0.00     0.023 A 
ATOM     73  C   UNL     1       6.524   5.990  15.169  1.00  0.00     0.031 A 
ATOM     74  C   UNL     1       6.147   6.948  12.992  1.00  0.00     0.131 A 
ATOM     75  C   UNL     1       7.870   5.794  14.819  1.00  0.00     0.055 A 
ATOM     76  C   UNL     1       7.471   6.696  12.628  1.00  0.00     0.041 A 
ATOM     77  F   UNL     1       5.349   7.529  12.082  1.00  0.00    -0.206 F 
ATOM     78  C   UNL     1       8.345   6.130  13.550  1.00  0.00     0.022 A 
BRANCH  75  79
ATOM     79  S   UNL     1       9.014   5.179  16.085  1.00  0.00     0.124 S 
ATOM     80  O   UNL     1       8.869   6.184  17.131  1.00  0.00    -0.237 OA
ATOM     81  O   UNL     1       8.460   3.861  16.380  1.00  0.00    -0.237 OA
ATOM     82  O   UNL     1      10.305   5.170  15.400  1.00  0.00    -0.744 OA
ENDBRANCH  75  79
ENDBRANCH  48  72
BRANCH  60  83
ATOM     83  C   UNL     1       2.846  10.653  19.198  1.00  0.00     0.023 A 
ATOM     84  C   UNL     1       3.721  11.726  18.959  1.00  0.00     0.031 A 
ATOM     85  C   UNL     1       2.590  10.296  20.535  1.00  0.00     0.131 A 
ATOM     86  C   UNL     1       4.377  12.346  20.032  1.00  0.00     0.055 A 
ATOM     87  C   UNL     1       3.184  10.970  21.603  1.00  0.00     0.041 A 
ATOM     88  F   UNL     1       1.764   9.279  20.827  1.00  0.00    -0.206 F 
ATOM     89  C   UNL     1       4.100  11.988  21.354  1.00  0.00     0.022 A 
BRANCH  86  90
ATOM     90  S   UNL     1       5.705  13.529  19.672  1.00  0.00     0.124 S 
ATOM     91  O   UNL     1       6.583  12.744  18.810  1.00  0.00    -0.237 OA
ATOM     92  O   UNL     1       4.983  14.618  19.023  1.00  0.00    -0.237 OA
ATOM     93  O   UNL     1       6.250  13.844  20.991  1.00  0.00    -0.744 OA
ENDBRANCH  86  90
ENDBRANCH  60  83
ENDBRANCH  34  35
ENDBRANCH  26  29
ENDBRANCH  24  25
ENDBRANCH  23  24
ENDBRANCH   1  23
TORSDOF 17
