REMARK SMILES NC(=O)C1CC[NH+](Cc2ccc(C(=O)NCCCNC(=O)c3ccc(-c4c5nc(c(-c6cc(S(=O)(=O)[O-])ccc6F)c6ccc([nH]6)c(-c6cc(S(=O)(=O)[O-])ccc6F)c6nc(c(-c7cc(S(=O)(=O)[O-])ccc7F)c7ccc4[nH]7)C=C6)C=C5)cc3)cc2)CC1
REMARK SMILES IDX 17 1 16 2 15 3 13 4 14 5 12 7 9 8 10 9 86 10 11 11 85 12
REMARK SMILES IDX 8 13 7 14 4 15 5 16 88 17 6 18 87 19 2 21 1 22 3 25 18 26
REMARK SMILES IDX 19 27 20 28 21 30 22 31 23 32 84 33 24 34 83 35 25 36 26 37
REMARK SMILES IDX 27 38 77 39 28 40 82 41 76 42 78 43 29 44 81 45 75 46 74 47
REMARK SMILES IDX 30 49 62 50 42 51 61 52 43 53 46 54 60 55 79 56 44 57 45 58
REMARK SMILES IDX 59 60 80 61 47 62 31 63 32 64 40 65 33 66 39 67 41 68 38 69
REMARK SMILES IDX 34 70 35 71 36 72 37 73 63 74 64 75 72 76 65 77 71 78 73 79
REMARK SMILES IDX 70 80 66 81 67 82 68 83 69 84 48 85 49 86 57 87 50 88 56 89
REMARK SMILES IDX 58 90 55 91 51 92 52 93 53 94 54 95
REMARK H PARENT 15 6 7 20 1 23 1 24 19 29 78 48 46 59
REMARK Flexibility Score: inf
ROOT
ATOM      1  C   UNL     1      -2.592   2.523   4.955  1.00  0.00     0.042 C 
ENDROOT
BRANCH   1   2
ATOM      2  C   UNL     1      -3.228   2.040   3.652  1.00  0.00     0.118 C 
BRANCH   2   3
ATOM      3  N   UNL     1      -4.482   2.724   3.376  1.00  0.00    -0.352 N 
ATOM      4  C   UNL     1      -4.792   3.682   2.442  1.00  0.00     0.251 C 
ATOM      5  O   UNL     1      -5.967   4.014   2.294  1.00  0.00    -0.269 OA
ATOM      6  H   UNL     1      -5.232   2.456   3.955  1.00  0.00     0.163 HD
BRANCH   4   7
ATOM      7  C   UNL     1      -3.755   4.278   1.566  1.00  0.00     0.039 A 
ATOM      8  C   UNL     1      -1.810   5.242  -0.221  1.00  0.00     0.006 A 
ATOM      9  C   UNL     1      -3.101   4.934  -0.674  1.00  0.00     0.010 A 
ATOM     10  C   UNL     1      -1.539   5.157   1.152  1.00  0.00     0.010 A 
ATOM     11  C   UNL     1      -4.067   4.455   0.214  1.00  0.00     0.014 A 
ATOM     12  C   UNL     1      -2.509   4.688   2.040  1.00  0.00     0.014 A 
BRANCH   8  13
ATOM     13  C   UNL     1      -0.711   5.604  -1.201  1.00  0.00     0.299 C 
BRANCH  13  14
ATOM     14  N   UNL     1       0.128   4.485  -1.679  1.00  0.00    -0.331 N 
ATOM     15  C   UNL     1       1.162   1.754  -1.999  1.00  0.00     0.089 C 
ATOM     16  C   UNL     1       1.877   2.820  -1.163  1.00  0.00     0.075 C 
ATOM     17  C   UNL     1       0.284   2.432  -3.058  1.00  0.00     0.075 C 
ATOM     18  C   UNL     1       0.894   3.849  -0.604  1.00  0.00     0.263 C 
ATOM     19  C   UNL     1      -0.635   3.500  -2.456  1.00  0.00     0.263 C 
ATOM     20  H   UNL     1       0.806   4.904  -2.315  1.00  0.00     0.348 HD
BRANCH  15  21
ATOM     21  C   UNL     1       0.360   0.786  -1.132  1.00  0.00     0.220 C 
ATOM     22  N   UNL     1       1.086   0.066  -0.231  1.00  0.00    -0.369 N 
ATOM     23  H   UNL     1       0.636  -0.578   0.362  1.00  0.00     0.159 HD
ATOM     24  H   UNL     1       2.061   0.190  -0.173  1.00  0.00     0.159 HD
ATOM     25  O   UNL     1      -0.848   0.598  -1.233  1.00  0.00    -0.275 OA
ENDBRANCH  15  21
ENDBRANCH  13  14
ENDBRANCH   8  13
ENDBRANCH   4   7
ENDBRANCH   2   3
ENDBRANCH   1   2
BRANCH   1  26
ATOM     26  C   UNL     1      -3.335   2.079   6.212  1.00  0.00     0.118 C 
BRANCH  26  27
ATOM     27  N   UNL     1      -3.201   0.651   6.450  1.00  0.00    -0.352 N 
ATOM     28  C   UNL     1      -2.739  -0.028   7.550  1.00  0.00     0.251 C 
ATOM     29  H   UNL     1      -3.489   0.079   5.702  1.00  0.00     0.163 HD
ATOM     30  O   UNL     1      -2.503  -1.229   7.437  1.00  0.00    -0.269 OA
BRANCH  28  31
ATOM     31  C   UNL     1      -2.507   0.654   8.847  1.00  0.00     0.039 A 
ATOM     32  C   UNL     1      -1.450   0.209   9.649  1.00  0.00     0.014 A 
ATOM     33  C   UNL     1      -3.349   1.665   9.320  1.00  0.00     0.014 A 
ATOM     34  C   UNL     1      -1.223   0.792  10.899  1.00  0.00     0.010 A 
ATOM     35  C   UNL     1      -3.076   2.297  10.535  1.00  0.00     0.010 A 
ATOM     36  C   UNL     1      -2.022   1.855  11.348  1.00  0.00    -0.014 A 
BRANCH  36  37
ATOM     37  C   UNL     1      -1.781   2.478  12.677  1.00  0.00     0.031 A 
ATOM     38  C   UNL     1      -2.814   2.367  13.768  1.00  0.00     0.074 A 
ATOM     39  C   UNL     1      -0.642   3.166  12.894  1.00  0.00     0.049 A 
ATOM     40  N   UNL     1      -2.792   2.852  14.985  1.00  0.00    -0.248 NA
ATOM     41  C   UNL     1      -4.047   1.638  13.437  1.00  0.00     0.031 C 
ATOM     42  C   UNL     1       0.414   3.381  11.903  1.00  0.00     0.029 A 
ATOM     43  N   UNL     1      -0.180   3.809  14.015  1.00  0.00    -0.354 N 
ATOM     44  C   UNL     1      -4.009   2.497  15.559  1.00  0.00     0.074 A 
ATOM     45  C   UNL     1      -4.768   1.812  14.534  1.00  0.00     0.031 C 
ATOM     46  C   UNL     1       1.411   4.081  12.468  1.00  0.00     0.029 A 
ATOM     47  C   UNL     1       1.053   4.395  13.848  1.00  0.00     0.049 A 
ATOM     48  H   UNL     1      -0.684   3.847  14.860  1.00  0.00     0.167 HD
ATOM     49  C   UNL     1      -4.443   2.701  16.829  1.00  0.00     0.034 A 
ATOM     50  C   UNL     1       1.809   5.107  14.707  1.00  0.00     0.034 A 
ATOM     51  C   UNL     1      -3.668   3.377  17.843  1.00  0.00     0.049 A 
ATOM     52  C   UNL     1       1.308   5.319  16.113  1.00  0.00     0.074 A 
ATOM     53  C   UNL     1      -3.988   3.596  19.172  1.00  0.00     0.029 A 
ATOM     54  N   UNL     1      -2.418   3.949  17.640  1.00  0.00    -0.354 N 
ATOM     55  N   UNL     1       0.178   4.928  16.656  1.00  0.00    -0.248 NA
ATOM     56  C   UNL     1       2.196   6.048  17.025  1.00  0.00     0.031 C 
ATOM     57  C   UNL     1      -2.964   4.354  19.753  1.00  0.00     0.029 A 
ATOM     58  C   UNL     1      -1.967   4.543  18.810  1.00  0.00     0.049 A 
ATOM     59  H   UNL     1      -1.924   3.935  16.788  1.00  0.00     0.167 HD
ATOM     60  C   UNL     1       0.234   5.343  17.984  1.00  0.00     0.074 A 
ATOM     61  C   UNL     1       1.518   5.990  18.161  1.00  0.00     0.031 C 
ATOM     62  C   UNL     1      -0.691   5.202  18.969  1.00  0.00     0.034 A 
BRANCH  49  63
ATOM     63  C   UNL     1      -5.831   2.209  17.175  1.00  0.00     0.023 A 
ATOM     64  C   UNL     1      -6.170   0.845  17.114  1.00  0.00     0.031 A 
ATOM     65  C   UNL     1      -6.841   3.119  17.538  1.00  0.00     0.131 A 
ATOM     66  C   UNL     1      -7.496   0.440  17.329  1.00  0.00     0.055 A 
ATOM     67  C   UNL     1      -8.140   2.699  17.834  1.00  0.00     0.041 A 
ATOM     68  F   UNL     1      -6.587   4.435  17.596  1.00  0.00    -0.206 F 
ATOM     69  C   UNL     1      -8.479   1.355  17.713  1.00  0.00     0.022 A 
BRANCH  66  70
ATOM     70  S   UNL     1      -7.951  -1.274  16.948  1.00  0.00     0.124 S 
ATOM     71  O   UNL     1      -7.591  -1.367  15.535  1.00  0.00    -0.237 OA
ATOM     72  O   UNL     1      -7.116  -2.034  17.871  1.00  0.00    -0.237 OA
ATOM     73  O   UNL     1      -9.386  -1.318  17.222  1.00  0.00    -0.744 OA
ENDBRANCH  66  70
ENDBRANCH  49  63
BRANCH  50  74
ATOM     74  C   UNL     1       3.118   5.671  14.270  1.00  0.00     0.023 A 
ATOM     75  C   UNL     1       4.324   5.228  14.836  1.00  0.00     0.031 A 
ATOM     76  C   UNL     1       3.179   6.691  13.304  1.00  0.00     0.131 A 
ATOM     77  C   UNL     1       5.535   5.834  14.467  1.00  0.00     0.055 A 
ATOM     78  C   UNL     1       4.391   7.256  12.903  1.00  0.00     0.041 A 
ATOM     79  F   UNL     1       2.056   7.146  12.725  1.00  0.00    -0.206 F 
ATOM     80  C   UNL     1       5.577   6.836  13.495  1.00  0.00     0.022 A 
BRANCH  77  81
ATOM     81  S   UNL     1       7.052   5.346  15.334  1.00  0.00     0.124 S 
ATOM     82  O   UNL     1       6.713   5.647  16.720  1.00  0.00    -0.237 OA
ATOM     83  O   UNL     1       7.154   3.931  14.990  1.00  0.00    -0.237 OA
ATOM     84  O   UNL     1       8.075   6.203  14.739  1.00  0.00    -0.744 OA
ENDBRANCH  77  81
ENDBRANCH  50  74
BRANCH  62  85
ATOM     85  C   UNL     1      -0.317   5.729  20.334  1.00  0.00     0.023 A 
ATOM     86  C   UNL     1      -0.111   7.100  20.567  1.00  0.00     0.031 A 
ATOM     87  C   UNL     1      -0.123   4.841  21.407  1.00  0.00     0.131 A 
ATOM     88  C   UNL     1       0.347   7.536  21.819  1.00  0.00     0.055 A 
ATOM     89  C   UNL     1       0.267   5.288  22.670  1.00  0.00     0.041 A 
ATOM     90  F   UNL     1      -0.303   3.520  21.244  1.00  0.00    -0.206 F 
ATOM     91  C   UNL     1       0.522   6.641  22.877  1.00  0.00     0.022 A 
BRANCH  88  92
ATOM     92  S   UNL     1       0.831   9.274  22.011  1.00  0.00     0.124 S 
ATOM     93  O   UNL     1       1.824   9.432  20.953  1.00  0.00    -0.237 OA
ATOM     94  O   UNL     1      -0.434   9.973  21.806  1.00  0.00    -0.237 OA
ATOM     95  O   UNL     1       1.359   9.335  23.372  1.00  0.00    -0.744 OA
ENDBRANCH  88  92
ENDBRANCH  62  85
ENDBRANCH  36  37
ENDBRANCH  28  31
ENDBRANCH  26  27
ENDBRANCH   1  26
TORSDOF 16
