REMARK SMILES Cc1ccc(-c2cnnc(-n3nc(C)c4c3NC(=O)C[C@@H]4c3ccc(C(=O)NCCCNC(=O)c4ccc(-c5c6nc(c(-c7cc(S(=O)(=O)[O-])ccc7F)c7ccc([nH]7)c(-c7cc(S(=O)(=O)[O-])ccc7F)c7nc(c(-c8cc(S(=O)(=O)[O-])ccc8F)c8ccc5[nH]8)C=C7)C=C6)cc4)cc3)n2)cc1
REMARK SMILES IDX 30 1 29 2 28 3 26 4 27 5 25 7 22 8 23 9 99 10 24 11 98 12
REMARK SMILES IDX 21 13 11 14 12 15 16 16 13 17 15 18 17 19 14 20 18 21 20 23
REMARK SMILES IDX 19 24 10 25 6 26 7 27 100 28 8 29 9 30 5 31 1 32 2 33 3 34
REMARK SMILES IDX 102 35 4 36 101 37 31 38 32 39 33 40 34 42 35 43 36 44 97 45
REMARK SMILES IDX 37 46 96 47 38 48 39 49 40 50 90 51 41 52 95 53 89 54 91 55
REMARK SMILES IDX 42 56 94 57 88 58 87 59 43 61 75 62 55 63 74 64 56 65 59 66
REMARK SMILES IDX 73 67 92 68 57 69 58 70 72 72 93 73 60 74 44 75 45 76 53 77
REMARK SMILES IDX 46 78 52 79 54 80 51 81 47 82 48 83 49 84 50 85 76 86 77 87
REMARK SMILES IDX 85 88 78 89 84 90 86 91 83 92 79 93 80 94 81 95 82 96 61 97
REMARK SMILES IDX 62 98 70 99 63 100 69 101 71 102 68 103 64 104 65 105 66 106
REMARK SMILES IDX 67 107
REMARK H PARENT 28 6 17 22 32 41 91 60 59 71
REMARK Flexibility Score: inf
ROOT
ATOM      1  C   UNL     1     -11.253   6.213  -5.436  1.00  0.00     0.042 C 
ENDROOT
BRANCH   1   2
ATOM      2  C   UNL     1     -11.820   5.099  -6.309  1.00  0.00     0.118 C 
BRANCH   2   3
ATOM      3  N   UNL     1     -11.591   5.319  -7.740  1.00  0.00    -0.352 N 
ATOM      4  C   UNL     1     -10.640   4.776  -8.575  1.00  0.00     0.251 C 
ATOM      5  O   UNL     1     -10.707   4.891  -9.794  1.00  0.00    -0.269 OA
ATOM      6  H   UNL     1     -12.212   5.950  -8.170  1.00  0.00     0.163 HD
BRANCH   4   7
ATOM      7  C   UNL     1      -9.529   3.986  -8.005  1.00  0.00     0.039 A 
ATOM      8  C   UNL     1      -7.704   2.327  -6.680  1.00  0.00    -0.040 A 
ATOM      9  C   UNL     1      -8.374   1.880  -7.836  1.00  0.00     0.005 A 
ATOM     10  C   UNL     1      -7.823   3.676  -6.327  1.00  0.00     0.005 A 
ATOM     11  C   UNL     1      -9.281   2.707  -8.499  1.00  0.00     0.014 A 
ATOM     12  C   UNL     1      -8.731   4.496  -6.987  1.00  0.00     0.014 A 
BRANCH   8  13
ATOM     13  C   UNL     1      -6.938   1.309  -5.868  1.00  0.00     0.064 C 
ATOM     14  N   UNL     1      -5.867   2.057  -2.497  1.00  0.00    -0.180 N 
ATOM     15  N   UNL     1      -7.163   2.417  -2.299  1.00  0.00    -0.168 NA
ATOM     16  C   UNL     1      -5.601   2.054  -3.855  1.00  0.00     0.143 A 
ATOM     17  C   UNL     1      -7.767   2.135  -3.457  1.00  0.00     0.066 A 
ATOM     18  C   UNL     1      -6.815   1.767  -4.450  1.00  0.00     0.026 A 
ATOM     19  N   UNL     1      -4.467   2.254  -4.620  1.00  0.00    -0.310 N 
ATOM     20  C   UNL     1      -9.235   2.348  -3.550  1.00  0.00     0.069 C 
ATOM     21  C   UNL     1      -4.543   1.983  -6.025  1.00  0.00     0.226 C 
ATOM     22  H   UNL     1      -3.630   2.574  -4.210  1.00  0.00     0.171 HD
ATOM     23  C   UNL     1      -5.571   0.977  -6.463  1.00  0.00     0.113 C 
ATOM     24  O   UNL     1      -3.673   2.474  -6.739  1.00  0.00    -0.275 OA
BRANCH  14  25
ATOM     25  C   UNL     1      -5.139   1.392  -1.464  1.00  0.00     0.272 A 
ATOM     26  C   UNL     1      -3.294   0.350  -0.613  1.00  0.00     0.095 A 
ATOM     27  C   UNL     1      -4.091  -0.252   0.348  1.00  0.00     0.164 A 
ATOM     28  N   UNL     1      -3.812   1.153  -1.586  1.00  0.00    -0.208 NA
ATOM     29  N   UNL     1      -5.402  -0.000   0.413  1.00  0.00    -0.153 NA
ATOM     30  N   UNL     1      -5.918   0.868  -0.479  1.00  0.00    -0.109 NA
BRANCH  26  31
ATOM     31  C   UNL     1      -1.834   0.234  -0.526  1.00  0.00     0.002 A 
ATOM     32  C   UNL     1       2.448  -0.033   0.072  1.00  0.00     0.044 C 
ATOM     33  C   UNL     1       0.964   0.066  -0.123  1.00  0.00    -0.051 A 
ATOM     34  C   UNL     1       0.188  -1.094  -0.204  1.00  0.00     0.004 A 
ATOM     35  C   UNL     1       0.338   1.310  -0.241  1.00  0.00     0.004 A 
ATOM     36  C   UNL     1      -1.194  -1.012  -0.401  1.00  0.00     0.011 A 
ATOM     37  C   UNL     1      -1.043   1.391  -0.445  1.00  0.00     0.011 A 
ENDBRANCH  26  31
ENDBRANCH  14  25
ENDBRANCH   8  13
ENDBRANCH   4   7
ENDBRANCH   2   3
ENDBRANCH   1   2
BRANCH   1  38
ATOM     38  C   UNL     1     -12.123   7.455  -5.369  1.00  0.00     0.118 C 
BRANCH  38  39
ATOM     39  N   UNL     1     -12.939   7.560  -4.168  1.00  0.00    -0.352 N 
ATOM     40  C   UNL     1     -13.555   8.675  -3.624  1.00  0.00     0.251 C 
ATOM     41  H   UNL     1     -13.072   6.720  -3.673  1.00  0.00     0.163 HD
ATOM     42  O   UNL     1     -14.024   8.652  -2.488  1.00  0.00    -0.269 OA
BRANCH  40  43
ATOM     43  C   UNL     1     -13.855   9.837  -4.503  1.00  0.00     0.039 A 
ATOM     44  C   UNL     1     -15.184  10.290  -4.488  1.00  0.00     0.014 A 
ATOM     45  C   UNL     1     -13.012  10.183  -5.549  1.00  0.00     0.014 A 
ATOM     46  C   UNL     1     -15.740  10.796  -5.654  1.00  0.00     0.010 A 
ATOM     47  C   UNL     1     -13.585  10.523  -6.745  1.00  0.00     0.010 A 
ATOM     48  C   UNL     1     -14.956  10.770  -6.799  1.00  0.00    -0.014 A 
BRANCH  48  49
ATOM     49  C   UNL     1     -15.446  11.026  -8.132  1.00  0.00     0.031 A 
ATOM     50  C   UNL     1     -15.303  12.392  -8.642  1.00  0.00     0.074 A 
ATOM     51  C   UNL     1     -15.839   9.975  -8.882  1.00  0.00     0.049 A 
ATOM     52  N   UNL     1     -16.040  12.905  -9.555  1.00  0.00    -0.248 NA
ATOM     53  C   UNL     1     -14.314  13.327  -8.107  1.00  0.00     0.031 C 
ATOM     54  C   UNL     1     -16.107   9.924 -10.313  1.00  0.00     0.029 A 
ATOM     55  N   UNL     1     -16.291   8.746  -8.403  1.00  0.00    -0.354 N 
ATOM     56  C   UNL     1     -15.422  14.065  -9.962  1.00  0.00     0.074 A 
ATOM     57  C   UNL     1     -14.427  14.347  -8.960  1.00  0.00     0.031 C 
ATOM     58  C   UNL     1     -16.922   8.883 -10.561  1.00  0.00     0.029 A 
ATOM     59  C   UNL     1     -17.313   8.328  -9.275  1.00  0.00     0.049 A 
ATOM     60  H   UNL     1     -15.960   8.265  -7.611  1.00  0.00     0.167 HD
ATOM     61  C   UNL     1     -15.700  14.546 -11.203  1.00  0.00     0.034 A 
ATOM     62  C   UNL     1     -18.595   8.248  -8.806  1.00  0.00     0.034 A 
ATOM     63  C   UNL     1     -16.679  13.688 -11.865  1.00  0.00     0.049 A 
ATOM     64  C   UNL     1     -19.498   9.269  -9.473  1.00  0.00     0.074 A 
ATOM     65  C   UNL     1     -16.550  12.649 -12.772  1.00  0.00     0.029 A 
ATOM     66  N   UNL     1     -17.952  13.582 -11.322  1.00  0.00    -0.354 N 
ATOM     67  N   UNL     1     -19.073  10.365 -10.047  1.00  0.00    -0.248 NA
ATOM     68  C   UNL     1     -20.939   9.095  -9.611  1.00  0.00     0.031 C 
ATOM     69  C   UNL     1     -17.738  11.872 -12.713  1.00  0.00     0.029 A 
ATOM     70  C   UNL     1     -18.595  12.457 -11.796  1.00  0.00     0.049 A 
ATOM     71  H   UNL     1     -18.343  14.222 -10.684  1.00  0.00     0.167 HD
ATOM     72  C   UNL     1     -20.122  11.011 -10.657  1.00  0.00     0.074 A 
ATOM     73  C   UNL     1     -21.268  10.169 -10.350  1.00  0.00     0.031 C 
ATOM     74  C   UNL     1     -19.958  12.166 -11.379  1.00  0.00     0.034 A 
BRANCH  61  75
ATOM     75  C   UNL     1     -14.858  15.563 -11.926  1.00  0.00     0.023 A 
ATOM     76  C   UNL     1     -14.776  15.488 -13.330  1.00  0.00     0.031 A 
ATOM     77  C   UNL     1     -14.112  16.595 -11.326  1.00  0.00     0.131 A 
ATOM     78  C   UNL     1     -13.938  16.340 -14.066  1.00  0.00     0.055 A 
ATOM     79  C   UNL     1     -13.242  17.421 -12.054  1.00  0.00     0.041 A 
ATOM     80  F   UNL     1     -14.225  16.880 -10.021  1.00  0.00    -0.206 F 
ATOM     81  C   UNL     1     -13.147  17.292 -13.433  1.00  0.00     0.022 A 
BRANCH  78  82
ATOM     82  S   UNL     1     -13.920  16.184 -15.871  1.00  0.00     0.124 S 
ATOM     83  O   UNL     1     -13.425  14.824 -16.056  1.00  0.00    -0.237 OA
ATOM     84  O   UNL     1     -15.318  16.416 -16.216  1.00  0.00    -0.237 OA
ATOM     85  O   UNL     1     -12.998  17.239 -16.291  1.00  0.00    -0.744 OA
ENDBRANCH  78  82
ENDBRANCH  61  75
BRANCH  62  86
ATOM     86  C   UNL     1     -18.629   7.788  -7.375  1.00  0.00     0.023 A 
ATOM     87  C   UNL     1     -17.982   6.556  -7.099  1.00  0.00     0.031 A 
ATOM     88  C   UNL     1     -18.791   8.684  -6.311  1.00  0.00     0.131 A 
ATOM     89  C   UNL     1     -17.313   6.361  -5.878  1.00  0.00     0.055 A 
ATOM     90  C   UNL     1     -18.210   8.433  -5.057  1.00  0.00     0.041 A 
ATOM     91  F   UNL     1     -19.380   9.874  -6.500  1.00  0.00    -0.206 F 
ATOM     92  C   UNL     1     -17.415   7.301  -4.855  1.00  0.00     0.022 A 
BRANCH  89  93
ATOM     93  S   UNL     1     -16.052   5.048  -5.783  1.00  0.00     0.124 S 
ATOM     94  O   UNL     1     -16.850   3.868  -5.471  1.00  0.00    -0.237 OA
ATOM     95  O   UNL     1     -15.453   5.078  -7.116  1.00  0.00    -0.237 OA
ATOM     96  O   UNL     1     -15.142   5.489  -4.724  1.00  0.00    -0.744 OA
ENDBRANCH  89  93
ENDBRANCH  62  86
BRANCH  74  97
ATOM     97  C   UNL     1     -21.055  13.110 -11.844  1.00  0.00     0.023 A 
ATOM     98  C   UNL     1     -22.391  12.982 -11.455  1.00  0.00     0.031 A 
ATOM     99  C   UNL     1     -20.771  14.246 -12.651  1.00  0.00     0.131 A 
ATOM    100  C   UNL     1     -23.377  13.872 -11.915  1.00  0.00     0.055 A 
ATOM    101  C   UNL     1     -21.734  15.190 -13.020  1.00  0.00     0.041 A 
ATOM    102  F   UNL     1     -19.542  14.510 -13.115  1.00  0.00    -0.206 F 
ATOM    103  C   UNL     1     -23.056  14.996 -12.669  1.00  0.00     0.022 A 
BRANCH 100 104
ATOM    104  S   UNL     1     -25.104  13.460 -11.573  1.00  0.00     0.124 S 
ATOM    105  O   UNL     1     -25.250  12.187 -12.274  1.00  0.00    -0.237 OA
ATOM    106  O   UNL     1     -25.124  13.384 -10.115  1.00  0.00    -0.237 OA
ATOM    107  O   UNL     1     -25.846  14.578 -12.150  1.00  0.00    -0.744 OA
ENDBRANCH 100 104
ENDBRANCH  74  97
ENDBRANCH  48  49
ENDBRANCH  40  43
ENDBRANCH  38  39
ENDBRANCH   1  38
TORSDOF 16
