REMARK SMILES CSc1ncccc1C(=O)N1CSC[C@H]1C(=O)NCCCNC(=O)c1ccc(-c2c3nc(c(-c4cc(S(=O)(=O)[O-])ccc4F)c4ccc([nH]4)c(-c4cc(S(=O)(=O)[O-])ccc4F)c4nc(c(-c5cc(S(=O)(=O)[O-])ccc5F)c5ccc2[nH]5)C=C4)C=C3)cc1
REMARK SMILES IDX 20 1 19 2 18 3 16 4 17 5 15 7 11 8 12 9 13 10 14 11 9 12
REMARK SMILES IDX 10 13 8 14 3 15 4 16 5 17 7 18 6 19 2 20 1 21 21 22 22 23
REMARK SMILES IDX 23 24 24 26 25 27 26 28 87 29 27 30 86 31 28 32 29 33 30 34
REMARK SMILES IDX 80 35 31 36 85 37 79 38 81 39 32 40 84 41 78 42 77 43 33 45
REMARK SMILES IDX 65 46 45 47 64 48 46 49 49 50 63 51 82 52 47 53 48 54 62 56
REMARK SMILES IDX 83 57 50 58 34 59 35 60 43 61 36 62 42 63 44 64 41 65 37 66
REMARK SMILES IDX 38 67 39 68 40 69 66 70 67 71 75 72 68 73 74 74 76 75 73 76
REMARK SMILES IDX 69 77 70 78 71 79 72 80 51 81 52 82 60 83 53 84 59 85 61 86
REMARK SMILES IDX 58 87 54 88 55 89 56 90 57 91
REMARK H PARENT 18 6 22 25 81 44 49 55
REMARK Flexibility Score: inf
ROOT
ATOM      1  C   UNL     1       2.223  -7.897  -0.082  1.00  0.00     0.042 C 
ENDROOT
BRANCH   1   2
ATOM      2  C   UNL     1       1.114  -8.516  -0.917  1.00  0.00     0.117 C 
BRANCH   2   3
ATOM      3  N   UNL     1      -0.185  -7.954  -0.625  1.00  0.00    -0.354 N 
ATOM      4  C   UNL     1      -0.994  -7.153  -1.369  1.00  0.00     0.243 C 
ATOM      5  O   UNL     1      -2.176  -7.086  -1.009  1.00  0.00    -0.273 OA
ATOM      6  H   UNL     1      -0.544  -8.190   0.261  1.00  0.00     0.163 HD
BRANCH   4   7
ATOM      7  C   UNL     1      -0.542  -6.482  -2.683  1.00  0.00     0.185 C 
ATOM      8  N   UNL     1       0.582  -5.534  -2.620  1.00  0.00    -0.316 N 
ATOM      9  C   UNL     1       1.806  -5.995  -3.237  1.00  0.00     0.190 C 
ATOM     10  S   UNL     1       1.288  -7.095  -4.573  1.00  0.00    -0.138 SA
ATOM     11  C   UNL     1      -0.309  -7.502  -3.799  1.00  0.00     0.106 C 
BRANCH   8  12
ATOM     12  C   UNL     1       0.280  -4.242  -2.182  1.00  0.00     0.257 C 
ATOM     13  O   UNL     1      -0.682  -4.051  -1.442  1.00  0.00    -0.269 OA
BRANCH  12  14
ATOM     14  C   UNL     1       0.972  -3.059  -2.768  1.00  0.00     0.072 A 
ATOM     15  C   UNL     1       1.186  -1.860  -2.074  1.00  0.00     0.108 A 
ATOM     16  N   UNL     1       1.703  -0.758  -2.692  1.00  0.00    -0.249 NA
ATOM     17  C   UNL     1       1.993  -0.823  -4.006  1.00  0.00     0.112 A 
ATOM     18  C   UNL     1       1.245  -3.064  -4.149  1.00  0.00     0.018 A 
ATOM     19  C   UNL     1       1.788  -1.948  -4.772  1.00  0.00     0.021 A 
BRANCH  15  20
ATOM     20  S   UNL     1       0.823  -1.635  -0.334  1.00  0.00    -0.109 SA
ATOM     21  C   UNL     1       1.264   0.110  -0.098  1.00  0.00     0.092 C 
ENDBRANCH  15  20
ENDBRANCH  12  14
ENDBRANCH   8  12
ENDBRANCH   4   7
ENDBRANCH   2   3
ENDBRANCH   1   2
BRANCH   1  22
ATOM     22  C   UNL     1       2.207  -8.355   1.369  1.00  0.00     0.118 C 
BRANCH  22  23
ATOM     23  N   UNL     1       2.426  -9.791   1.491  1.00  0.00    -0.352 N 
ATOM     24  C   UNL     1       3.430 -10.484   2.113  1.00  0.00     0.251 C 
ATOM     25  H   UNL     1       1.743 -10.353   1.058  1.00  0.00     0.163 HD
ATOM     26  O   UNL     1       3.562 -11.687   1.869  1.00  0.00    -0.269 OA
BRANCH  24  27
ATOM     27  C   UNL     1       4.347  -9.809   3.054  1.00  0.00     0.039 A 
ATOM     28  C   UNL     1       5.682 -10.217   3.112  1.00  0.00     0.014 A 
ATOM     29  C   UNL     1       3.885  -8.810   3.916  1.00  0.00     0.014 A 
ATOM     30  C   UNL     1       6.557  -9.598   4.006  1.00  0.00     0.010 A 
ATOM     31  C   UNL     1       4.779  -8.126   4.731  1.00  0.00     0.010 A 
ATOM     32  C   UNL     1       6.118  -8.532   4.808  1.00  0.00    -0.014 A 
BRANCH  32  33
ATOM     33  C   UNL     1       7.029  -7.867   5.772  1.00  0.00     0.031 A 
ATOM     34  C   UNL     1       6.728  -7.923   7.247  1.00  0.00     0.074 A 
ATOM     35  C   UNL     1       8.092  -7.174   5.318  1.00  0.00     0.049 A 
ATOM     36  N   UNL     1       7.363  -7.364   8.245  1.00  0.00    -0.248 NA
ATOM     37  C   UNL     1       5.531  -8.678   7.646  1.00  0.00     0.031 C 
ATOM     38  C   UNL     1       8.453  -7.010   3.908  1.00  0.00     0.029 A 
ATOM     39  N   UNL     1       9.060  -6.476   5.992  1.00  0.00    -0.354 N 
ATOM     40  C   UNL     1       6.631  -7.684   9.385  1.00  0.00     0.074 A 
ATOM     41  C   UNL     1       5.467  -8.418   8.942  1.00  0.00     0.031 C 
ATOM     42  C   UNL     1       9.580  -6.286   3.825  1.00  0.00     0.029 A 
ATOM     43  C   UNL     1       9.997  -5.896   5.168  1.00  0.00     0.049 A 
ATOM     44  H   UNL     1       9.083  -6.397   6.973  1.00  0.00     0.167 HD
ATOM     45  C   UNL     1       6.920  -7.414  10.683  1.00  0.00     0.034 A 
ATOM     46  C   UNL     1      11.066  -5.132   5.463  1.00  0.00     0.034 A 
ATOM     47  C   UNL     1       8.096  -6.690  11.100  1.00  0.00     0.049 A 
ATOM     48  C   UNL     1      11.368  -4.840   6.911  1.00  0.00     0.074 A 
ATOM     49  C   UNL     1       8.523  -6.404  12.385  1.00  0.00     0.029 A 
ATOM     50  N   UNL     1       9.031  -6.129  10.238  1.00  0.00    -0.354 N 
ATOM     51  N   UNL     1      10.700  -5.197   7.984  1.00  0.00    -0.248 NA
ATOM     52  C   UNL     1      12.580  -4.059   7.186  1.00  0.00     0.031 C 
ATOM     53  C   UNL     1       9.672  -5.610  12.298  1.00  0.00     0.029 A 
ATOM     54  C   UNL     1      10.016  -5.473  10.963  1.00  0.00     0.049 A 
ATOM     55  H   UNL     1       9.000  -6.188   9.256  1.00  0.00     0.167 HD
ATOM     56  C   UNL     1      11.431  -4.712   9.065  1.00  0.00     0.074 A 
ATOM     57  C   UNL     1      12.597  -4.053   8.511  1.00  0.00     0.031 C 
ATOM     58  C   UNL     1      11.167  -4.809  10.394  1.00  0.00     0.034 A 
BRANCH  45  59
ATOM     59  C   UNL     1       5.928  -7.880  11.726  1.00  0.00     0.023 A 
ATOM     60  C   UNL     1       5.604  -9.241  11.886  1.00  0.00     0.031 A 
ATOM     61  C   UNL     1       5.255  -6.950  12.538  1.00  0.00     0.131 A 
ATOM     62  C   UNL     1       4.573  -9.620  12.759  1.00  0.00     0.055 A 
ATOM     63  C   UNL     1       4.297  -7.344  13.474  1.00  0.00     0.041 A 
ATOM     64  F   UNL     1       5.501  -5.636  12.420  1.00  0.00    -0.206 F 
ATOM     65  C   UNL     1       3.936  -8.684  13.575  1.00  0.00     0.022 A 
BRANCH  62  66
ATOM     66  S   UNL     1       3.959 -11.326  12.681  1.00  0.00     0.124 S 
ATOM     67  O   UNL     1       3.563 -11.433  11.279  1.00  0.00    -0.237 OA
ATOM     68  O   UNL     1       5.130 -12.101  13.075  1.00  0.00    -0.237 OA
ATOM     69  O   UNL     1       2.853 -11.336  13.636  1.00  0.00    -0.744 OA
ENDBRANCH  62  66
ENDBRANCH  45  59
BRANCH  46  70
ATOM     70  C   UNL     1      11.928  -4.594   4.372  1.00  0.00     0.023 A 
ATOM     71  C   UNL     1      13.265  -5.002   4.236  1.00  0.00     0.031 A 
ATOM     72  C   UNL     1      11.432  -3.646   3.460  1.00  0.00     0.131 A 
ATOM     73  C   UNL     1      14.071  -4.432   3.238  1.00  0.00     0.055 A 
ATOM     74  C   UNL     1      12.223  -3.121   2.437  1.00  0.00     0.041 A 
ATOM     75  F   UNL     1      10.158  -3.229   3.540  1.00  0.00    -0.206 F 
ATOM     76  C   UNL     1      13.555  -3.505   2.329  1.00  0.00     0.022 A 
BRANCH  73  77
ATOM     77  S   UNL     1      15.832  -4.866   3.189  1.00  0.00     0.124 S 
ATOM     78  O   UNL     1      16.279  -4.446   4.512  1.00  0.00    -0.237 OA
ATOM     79  O   UNL     1      15.782  -6.306   2.954  1.00  0.00    -0.237 OA
ATOM     80  O   UNL     1      16.347  -4.074   2.074  1.00  0.00    -0.744 OA
ENDBRANCH  73  77
ENDBRANCH  46  70
BRANCH  58  81
ATOM     81  C   UNL     1      12.193  -4.229  11.339  1.00  0.00     0.023 A 
ATOM     82  C   UNL     1      12.471  -2.851  11.382  1.00  0.00     0.031 A 
ATOM     83  C   UNL     1      12.920  -5.075  12.196  1.00  0.00     0.131 A 
ATOM     84  C   UNL     1      13.496  -2.370  12.211  1.00  0.00     0.055 A 
ATOM     85  C   UNL     1      13.888  -4.582  13.071  1.00  0.00     0.041 A 
ATOM     86  F   UNL     1      12.700  -6.400  12.196  1.00  0.00    -0.206 F 
ATOM     87  C   UNL     1      14.193  -3.224  13.070  1.00  0.00     0.022 A 
BRANCH  84  88
ATOM     88  S   UNL     1      13.989  -0.631  12.065  1.00  0.00     0.124 S 
ATOM     89  O   UNL     1      14.319  -0.528  10.647  1.00  0.00    -0.237 OA
ATOM     90  O   UNL     1      12.784   0.072  12.492  1.00  0.00    -0.237 OA
ATOM     91  O   UNL     1      15.127  -0.520  12.976  1.00  0.00    -0.744 OA
ENDBRANCH  84  88
ENDBRANCH  58  81
ENDBRANCH  32  33
ENDBRANCH  24  27
ENDBRANCH  22  23
ENDBRANCH   1  22
TORSDOF 16
