REMARK SMILES CN(CC(C)(C)O)S(=O)(=O)c1cc(Cl)cc(C(=O)NCCCNC(=O)c2ccc(-c3c4nc(c(-c5cc(S(=O)(=O)[O-])ccc5F)c5ccc([nH]5)c(-c5cc(S(=O)(=O)[O-])ccc5F)c5nc(c(-c6cc(S(=O)(=O)[O-])ccc6F)c6ccc3[nH]6)C=C5)C=C4)cc2)c1Cl
REMARK SMILES IDX 20 1 19 2 17 3 18 4 16 6 11 7 12 8 89 9 13 10 90 11 14 12
REMARK SMILES IDX 15 13 8 14 9 15 10 16 2 17 1 18 3 19 4 20 5 21 6 22 7 23
REMARK SMILES IDX 21 25 22 26 23 27 24 28 25 30 26 31 27 32 88 33 28 34 87 35
REMARK SMILES IDX 29 36 30 37 31 38 81 39 32 40 86 41 80 42 82 43 33 44 85 45
REMARK SMILES IDX 79 46 78 47 34 49 66 50 46 51 65 52 47 53 50 54 64 55 83 56
REMARK SMILES IDX 48 57 49 58 63 60 84 61 51 62 35 63 36 64 44 65 37 66 43 67
REMARK SMILES IDX 45 68 42 69 38 70 39 71 40 72 41 73 67 74 68 75 76 76 69 77
REMARK SMILES IDX 75 78 77 79 74 80 70 81 71 82 72 83 73 84 52 85 53 86 61 87
REMARK SMILES IDX 54 88 60 89 62 90 59 91 55 92 56 93 57 94 58 95
REMARK H PARENT 19 5 7 24 23 29 82 48 50 59
REMARK Flexibility Score: inf
ROOT
ATOM      1  C   UNL     1      -3.090   3.457   3.249  1.00  0.00     0.118 C 
ENDROOT
BRANCH   1   2
ATOM      2  N   UNL     1      -3.420   4.822   2.847  1.00  0.00    -0.352 N 
ATOM      3  C   UNL     1      -2.646   5.772   2.217  1.00  0.00     0.252 C 
ATOM      4  O   UNL     1      -3.103   6.881   1.959  1.00  0.00    -0.269 OA
ATOM      5  H   UNL     1      -4.338   5.107   3.059  1.00  0.00     0.163 HD
BRANCH   3   6
ATOM      6  C   UNL     1      -1.222   5.498   1.932  1.00  0.00     0.061 A 
ATOM      7  C   UNL     1       0.524   3.975   1.320  1.00  0.00     0.103 A 
ATOM      8  C   UNL     1       1.476   4.869   1.851  1.00  0.00     0.044 A 
ATOM      9  C   UNL     1      -0.808   4.367   1.219  1.00  0.00     0.073 A 
ATOM     10  C   UNL     1       1.069   6.090   2.379  1.00  0.00     0.043 A 
ATOM     11  Cl  UNL     1      -1.883   3.712   0.034  1.00  0.00    -0.082 Cl
ATOM     12  Cl  UNL     1       2.232   7.170   3.036  1.00  0.00    -0.084 Cl
ATOM     13  C   UNL     1      -0.284   6.383   2.479  1.00  0.00     0.036 A 
BRANCH   7  14
ATOM     14  S   UNL     1       0.979   2.251   1.505  1.00  0.00     0.244 S 
ATOM     15  O   UNL     1       0.551   1.927   2.848  1.00  0.00    -0.207 OA
ATOM     16  O   UNL     1       2.378   2.188   1.127  1.00  0.00    -0.207 OA
BRANCH  14  17
ATOM     17  N   UNL     1       0.115   1.312   0.423  1.00  0.00    -0.198 NA
ATOM     18  C   UNL     1       0.860   0.593  -0.614  1.00  0.00     0.124 C 
BRANCH  17  19
ATOM     19  C   UNL     1      -1.221   0.754   0.767  1.00  0.00     0.136 C 
BRANCH  19  20
ATOM     20  C   UNL     1      -1.276  -0.698   1.301  1.00  0.00     0.073 C 
ATOM     21  C   UNL     1      -0.520  -0.891   2.611  1.00  0.00     0.043 C 
ATOM     22  C   UNL     1      -2.754  -1.058   1.516  1.00  0.00     0.043 C 
BRANCH  20  23
ATOM     23  O   UNL     1      -0.758  -1.610   0.324  1.00  0.00    -0.389 OA
ATOM     24  H   UNL     1       0.177  -1.413   0.162  1.00  0.00     0.211 HD
ENDBRANCH  20  23
ENDBRANCH  19  20
ENDBRANCH  17  19
ENDBRANCH  14  17
ENDBRANCH   7  14
ENDBRANCH   3   6
ENDBRANCH   1   2
BRANCH   1  25
ATOM     25  C   UNL     1      -3.447   3.110   4.691  1.00  0.00     0.042 C 
BRANCH  25  26
ATOM     26  C   UNL     1      -4.936   3.131   5.024  1.00  0.00     0.118 C 
BRANCH  26  27
ATOM     27  N   UNL     1      -5.719   2.226   4.197  1.00  0.00    -0.352 N 
ATOM     28  C   UNL     1      -6.234   0.970   4.402  1.00  0.00     0.251 C 
ATOM     29  H   UNL     1      -5.921   2.590   3.305  1.00  0.00     0.163 HD
ATOM     30  O   UNL     1      -6.680   0.380   3.417  1.00  0.00    -0.269 OA
BRANCH  28  31
ATOM     31  C   UNL     1      -6.258   0.291   5.725  1.00  0.00     0.039 A 
ATOM     32  C   UNL     1      -6.198  -1.111   5.742  1.00  0.00     0.014 A 
ATOM     33  C   UNL     1      -6.445   0.966   6.932  1.00  0.00     0.014 A 
ATOM     34  C   UNL     1      -6.267  -1.819   6.949  1.00  0.00     0.010 A 
ATOM     35  C   UNL     1      -6.446   0.265   8.145  1.00  0.00     0.010 A 
ATOM     36  C   UNL     1      -6.358  -1.136   8.169  1.00  0.00    -0.014 A 
BRANCH  36  37
ATOM     37  C   UNL     1      -6.390  -1.856   9.472  1.00  0.00     0.031 A 
ATOM     38  C   UNL     1      -7.585  -1.730  10.380  1.00  0.00     0.074 A 
ATOM     39  C   UNL     1      -5.321  -2.563   9.887  1.00  0.00     0.049 A 
ATOM     40  N   UNL     1      -7.704  -2.052  11.643  1.00  0.00    -0.248 NA
ATOM     41  C   UNL     1      -8.791  -1.131   9.793  1.00  0.00     0.031 C 
ATOM     42  C   UNL     1      -4.083  -2.761   9.131  1.00  0.00     0.029 A 
ATOM     43  N   UNL     1      -5.100  -3.230  11.067  1.00  0.00    -0.354 N 
ATOM     44  C   UNL     1      -8.968  -1.618  12.027  1.00  0.00     0.074 A 
ATOM     45  C   UNL     1      -9.586  -1.039  10.850  1.00  0.00     0.031 C 
ATOM     46  C   UNL     1      -3.235  -3.504   9.862  1.00  0.00     0.029 A 
ATOM     47  C   UNL     1      -3.850  -3.794  11.153  1.00  0.00     0.049 A 
ATOM     48  H   UNL     1      -5.772  -3.297  11.782  1.00  0.00     0.167 HD
ATOM     49  C   UNL     1      -9.550  -1.674  13.251  1.00  0.00     0.034 A 
ATOM     50  C   UNL     1      -3.250  -4.442  12.168  1.00  0.00     0.034 A 
ATOM     51  C   UNL     1      -8.964  -2.309  14.405  1.00  0.00     0.049 A 
ATOM     52  C   UNL     1      -3.966  -4.614  13.474  1.00  0.00     0.074 A 
ATOM     53  C   UNL     1      -9.477  -2.424  15.687  1.00  0.00     0.029 A 
ATOM     54  N   UNL     1      -7.741  -2.963  14.409  1.00  0.00    -0.354 N 
ATOM     55  N   UNL     1      -5.123  -4.122  13.847  1.00  0.00    -0.248 NA
ATOM     56  C   UNL     1      -3.289  -5.420  14.499  1.00  0.00     0.031 C 
ATOM     57  C   UNL     1      -8.558  -3.139  16.469  1.00  0.00     0.029 A 
ATOM     58  C   UNL     1      -7.489  -3.494  15.665  1.00  0.00     0.049 A 
ATOM     59  H   UNL     1      -7.140  -3.040  13.634  1.00  0.00     0.167 HD
ATOM     60  C   UNL     1      -5.302  -4.542  15.159  1.00  0.00     0.074 A 
ATOM     61  C   UNL     1      -4.145  -5.343  15.508  1.00  0.00     0.031 C 
ATOM     62  C   UNL     1      -6.330  -4.278  16.002  1.00  0.00     0.034 A 
BRANCH  49  63
ATOM     63  C   UNL     1     -10.863  -0.958  13.411  1.00  0.00     0.023 A 
ATOM     64  C   UNL     1     -12.053  -1.452  12.852  1.00  0.00     0.031 A 
ATOM     65  C   UNL     1     -10.906   0.270  14.095  1.00  0.00     0.131 A 
ATOM     66  C   UNL     1     -13.228  -0.690  12.937  1.00  0.00     0.055 A 
ATOM     67  C   UNL     1     -12.089   0.996  14.224  1.00  0.00     0.041 A 
ATOM     68  F   UNL     1      -9.790   0.794  14.627  1.00  0.00    -0.206 F 
ATOM     69  C   UNL     1     -13.257   0.523  13.632  1.00  0.00     0.022 A 
BRANCH  66  70
ATOM     70  S   UNL     1     -14.693  -1.243  12.020  1.00  0.00     0.124 S 
ATOM     71  O   UNL     1     -14.192  -1.269  10.648  1.00  0.00    -0.237 OA
ATOM     72  O   UNL     1     -14.974  -2.540  12.623  1.00  0.00    -0.237 OA
ATOM     73  O   UNL     1     -15.682  -0.201  12.293  1.00  0.00    -0.744 OA
ENDBRANCH  66  70
ENDBRANCH  49  63
BRANCH  50  74
ATOM     74  C   UNL     1      -1.859  -4.929  12.008  1.00  0.00     0.023 A 
ATOM     75  C   UNL     1      -1.601  -6.258  11.642  1.00  0.00     0.031 A 
ATOM     76  C   UNL     1      -0.776  -4.061  12.214  1.00  0.00     0.131 A 
ATOM     77  C   UNL     1      -0.275  -6.693  11.505  1.00  0.00     0.055 A 
ATOM     78  C   UNL     1       0.540  -4.494  12.068  1.00  0.00     0.041 A 
ATOM     79  F   UNL     1      -0.990  -2.778  12.549  1.00  0.00    -0.206 F 
ATOM     80  C   UNL     1       0.796  -5.818  11.714  1.00  0.00     0.022 A 
BRANCH  77  81
ATOM     81  S   UNL     1       0.037  -8.424  11.048  1.00  0.00     0.124 S 
ATOM     82  O   UNL     1      -0.527  -9.144  12.185  1.00  0.00    -0.237 OA
ATOM     83  O   UNL     1      -0.693  -8.545   9.790  1.00  0.00    -0.237 OA
ATOM     84  O   UNL     1       1.491  -8.487  10.927  1.00  0.00    -0.744 OA
ENDBRANCH  77  81
ENDBRANCH  50  74
BRANCH  62  85
ATOM     85  C   UNL     1      -6.244  -4.880  17.373  1.00  0.00     0.023 A 
ATOM     86  C   UNL     1      -5.500  -4.262  18.392  1.00  0.00     0.031 A 
ATOM     87  C   UNL     1      -6.894  -6.093  17.653  1.00  0.00     0.131 A 
ATOM     88  C   UNL     1      -5.403  -4.875  19.649  1.00  0.00     0.055 A 
ATOM     89  C   UNL     1      -6.807  -6.691  18.910  1.00  0.00     0.041 A 
ATOM     90  F   UNL     1      -7.607  -6.719  16.704  1.00  0.00    -0.206 F 
ATOM     91  C   UNL     1      -6.054  -6.084  19.915  1.00  0.00     0.022 A 
BRANCH  88  92
ATOM     92  S   UNL     1      -4.382  -4.093  20.931  1.00  0.00     0.124 S 
ATOM     93  O   UNL     1      -3.065  -4.068  20.302  1.00  0.00    -0.237 OA
ATOM     94  O   UNL     1      -5.031  -2.797  21.103  1.00  0.00    -0.237 OA
ATOM     95  O   UNL     1      -4.506  -5.001  22.070  1.00  0.00    -0.744 OA
ENDBRANCH  88  92
ENDBRANCH  62  85
ENDBRANCH  36  37
ENDBRANCH  28  31
ENDBRANCH  26  27
ENDBRANCH  25  26
ENDBRANCH   1  25
TORSDOF 18
