REMARK SMILES O=C(NCCCNC(=O)c1ccccc1-c1ccc(/C=C2/SC(=S)N(Cc3ccccc3)C2=O)o1)c1ccc(-c2c3nc(c(-c4cc(S(=O)(=O)[O-])ccc4F)c4ccc([nH]4)c(-c4cc(S(=O)(=O)[O-])ccc4F)c4nc(c(-c5cc(S(=O)(=O)[O-])ccc5F)c5ccc2[nH]5)C=C4)C=C3)cc1
REMARK SMILES IDX 5 1 4 2 3 3 1 4 2 5 36 7 37 8 98 9 38 10 97 11 39 12 40 13
REMARK SMILES IDX 41 14 91 15 42 16 96 17 90 18 92 19 43 20 95 21 89 22 88 23
REMARK SMILES IDX 44 25 76 26 56 27 75 28 57 29 60 30 74 31 93 32 58 33 59 34
REMARK SMILES IDX 73 36 94 37 61 38 45 39 46 40 54 41 47 42 53 43 55 44 52 45
REMARK SMILES IDX 48 46 49 47 50 48 51 49 77 50 78 51 86 52 79 53 85 54 87 55
REMARK SMILES IDX 84 56 80 57 81 58 82 59 83 60 62 61 63 62 71 63 64 64 70 65
REMARK SMILES IDX 72 66 69 67 65 68 66 69 67 70 68 71 6 72 7 73 8 74 9 76
REMARK SMILES IDX 10 77 11 78 15 79 12 80 14 81 13 82 16 83 17 84 35 85 18 86
REMARK SMILES IDX 19 87 20 88 21 89 22 90 33 91 23 92 25 93 34 94 24 95 26 96
REMARK SMILES IDX 27 97 28 98 32 99 29 100 31 101 30 102
REMARK H PARENT 3 6 92 24 60 35 7 75
REMARK Flexibility Score: inf
ROOT
ATOM      1  C   UNL     1       5.611  -0.149   1.964  1.00  0.00     0.042 C 
ENDROOT
BRANCH   1   2
ATOM      2  C   UNL     1       4.936  -0.807   0.768  1.00  0.00     0.118 C 
BRANCH   2   3
ATOM      3  N   UNL     1       3.476  -0.745   0.801  1.00  0.00    -0.352 N 
ATOM      4  O   UNL     1       1.401  -0.017   0.317  1.00  0.00    -0.269 OA
ATOM      5  C   UNL     1       2.593  -0.033   0.021  1.00  0.00     0.251 C 
ATOM      6  H   UNL     1       3.056  -1.303   1.494  1.00  0.00     0.163 HD
BRANCH   5   7
ATOM      7  C   UNL     1       3.086   0.739  -1.141  1.00  0.00     0.039 A 
ATOM      8  C   UNL     1       4.061   0.207  -1.985  1.00  0.00     0.014 A 
ATOM      9  C   UNL     1       2.586   2.022  -1.377  1.00  0.00     0.014 A 
ATOM     10  C   UNL     1       4.691   1.024  -2.914  1.00  0.00     0.010 A 
ATOM     11  C   UNL     1       3.134   2.800  -2.401  1.00  0.00     0.010 A 
ATOM     12  C   UNL     1       4.224   2.323  -3.148  1.00  0.00    -0.014 A 
BRANCH  12  13
ATOM     13  C   UNL     1       4.851   3.151  -4.209  1.00  0.00     0.031 A 
ATOM     14  C   UNL     1       5.499   4.466  -3.879  1.00  0.00     0.074 A 
ATOM     15  C   UNL     1       4.824   2.709  -5.481  1.00  0.00     0.049 A 
ATOM     16  N   UNL     1       5.998   5.368  -4.686  1.00  0.00    -0.248 NA
ATOM     17  C   UNL     1       5.584   4.819  -2.455  1.00  0.00     0.031 C 
ATOM     18  C   UNL     1       4.237   1.439  -5.916  1.00  0.00     0.029 A 
ATOM     19  N   UNL     1       5.288   3.273  -6.641  1.00  0.00    -0.354 N 
ATOM     20  C   UNL     1       6.429   6.411  -3.873  1.00  0.00     0.074 A 
ATOM     21  C   UNL     1       6.100   6.038  -2.512  1.00  0.00     0.031 C 
ATOM     22  C   UNL     1       4.389   1.314  -7.240  1.00  0.00     0.029 A 
ATOM     23  C   UNL     1       4.995   2.533  -7.762  1.00  0.00     0.049 A 
ATOM     24  H   UNL     1       5.782   4.125  -6.669  1.00  0.00     0.167 HD
ATOM     25  C   UNL     1       7.042   7.568  -4.234  1.00  0.00     0.034 A 
ATOM     26  C   UNL     1       5.137   2.820  -9.069  1.00  0.00     0.034 A 
ATOM     27  C   UNL     1       7.350   7.912  -5.604  1.00  0.00     0.049 A 
ATOM     28  C   UNL     1       5.747   4.137  -9.458  1.00  0.00     0.074 A 
ATOM     29  C   UNL     1       7.999   9.035  -6.087  1.00  0.00     0.029 A 
ATOM     30  N   UNL     1       7.009   7.147  -6.715  1.00  0.00    -0.354 N 
ATOM     31  N   UNL     1       6.157   5.112  -8.681  1.00  0.00    -0.248 NA
ATOM     32  C   UNL     1       5.916   4.393 -10.892  1.00  0.00     0.031 C 
ATOM     33  C   UNL     1       7.970   8.992  -7.485  1.00  0.00     0.029 A 
ATOM     34  C   UNL     1       7.394   7.795  -7.879  1.00  0.00     0.049 A 
ATOM     35  H   UNL     1       6.559   6.271  -6.680  1.00  0.00     0.167 HD
ATOM     36  C   UNL     1       6.661   6.089  -9.533  1.00  0.00     0.074 A 
ATOM     37  C   UNL     1       6.500   5.583 -10.882  1.00  0.00     0.031 C 
ATOM     38  C   UNL     1       7.219   7.286  -9.222  1.00  0.00     0.034 A 
BRANCH  25  39
ATOM     39  C   UNL     1       7.351   8.565  -3.138  1.00  0.00     0.023 A 
ATOM     40  C   UNL     1       8.193   8.248  -2.058  1.00  0.00     0.031 A 
ATOM     41  C   UNL     1       6.745   9.835  -3.142  1.00  0.00     0.131 A 
ATOM     42  C   UNL     1       8.320   9.139  -0.981  1.00  0.00     0.055 A 
ATOM     43  C   UNL     1       6.956  10.758  -2.115  1.00  0.00     0.041 A 
ATOM     44  F   UNL     1       5.915  10.194  -4.134  1.00  0.00    -0.206 F 
ATOM     45  C   UNL     1       7.729  10.404  -1.014  1.00  0.00     0.022 A 
BRANCH  42  46
ATOM     46  S   UNL     1       9.100   8.542   0.545  1.00  0.00     0.124 S 
ATOM     47  O   UNL     1       8.315   7.343   0.829  1.00  0.00    -0.237 OA
ATOM     48  O   UNL     1      10.479   8.318   0.128  1.00  0.00    -0.237 OA
ATOM     49  O   UNL     1       8.900   9.643   1.486  1.00  0.00    -0.744 OA
ENDBRANCH  42  46
ENDBRANCH  25  39
BRANCH  26  50
ATOM     50  C   UNL     1       4.625   1.859 -10.085  1.00  0.00     0.023 A 
ATOM     51  C   UNL     1       5.493   1.165 -10.938  1.00  0.00     0.031 A 
ATOM     52  C   UNL     1       3.245   1.593 -10.182  1.00  0.00     0.131 A 
ATOM     53  C   UNL     1       4.970   0.249 -11.865  1.00  0.00     0.055 A 
ATOM     54  C   UNL     1       2.736   0.645 -11.069  1.00  0.00     0.041 A 
ATOM     55  F   UNL     1       2.374   2.225  -9.379  1.00  0.00    -0.206 F 
ATOM     56  C   UNL     1       3.602  -0.029 -11.923  1.00  0.00     0.022 A 
BRANCH  53  57
ATOM     57  S   UNL     1       6.105  -0.546 -13.034  1.00  0.00     0.124 S 
ATOM     58  O   UNL     1       6.659   0.604 -13.739  1.00  0.00    -0.237 OA
ATOM     59  O   UNL     1       7.017  -1.252 -12.139  1.00  0.00    -0.237 OA
ATOM     60  O   UNL     1       5.229  -1.404 -13.829  1.00  0.00    -0.744 OA
ENDBRANCH  53  57
ENDBRANCH  26  50
BRANCH  38  61
ATOM     61  C   UNL     1       7.761   8.114 -10.361  1.00  0.00     0.023 A 
ATOM     62  C   UNL     1       6.922   8.728 -11.307  1.00  0.00     0.031 A 
ATOM     63  C   UNL     1       9.149   8.316 -10.474  1.00  0.00     0.131 A 
ATOM     64  C   UNL     1       7.483   9.495 -12.341  1.00  0.00     0.055 A 
ATOM     65  C   UNL     1       9.696   9.125 -11.470  1.00  0.00     0.041 A 
ATOM     66  F   UNL     1       9.995   7.746  -9.602  1.00  0.00    -0.206 F 
ATOM     67  C   UNL     1       8.862   9.714 -12.415  1.00  0.00     0.022 A 
BRANCH  64  68
ATOM     68  S   UNL     1       6.394  10.160 -13.630  1.00  0.00     0.124 S 
ATOM     69  O   UNL     1       5.831   8.943 -14.207  1.00  0.00    -0.237 OA
ATOM     70  O   UNL     1       5.470  10.989 -12.863  1.00  0.00    -0.237 OA
ATOM     71  O   UNL     1       7.306  10.896 -14.504  1.00  0.00    -0.744 OA
ENDBRANCH  64  68
ENDBRANCH  38  61
ENDBRANCH  12  13
ENDBRANCH   5   7
ENDBRANCH   2   3
ENDBRANCH   1   2
BRANCH   1  72
ATOM     72  C   UNL     1       5.273  -0.802   3.286  1.00  0.00     0.118 C 
BRANCH  72  73
ATOM     73  N   UNL     1       5.654  -2.201   3.388  1.00  0.00    -0.352 N 
ATOM     74  C   UNL     1       5.983  -2.918   4.511  1.00  0.00     0.252 C 
ATOM     75  H   UNL     1       5.679  -2.700   2.540  1.00  0.00     0.163 HD
ATOM     76  O   UNL     1       6.201  -4.125   4.426  1.00  0.00    -0.269 OA
BRANCH  74  77
ATOM     77  C   UNL     1       6.142  -2.249   5.821  1.00  0.00     0.050 A 
ATOM     78  C   UNL     1       7.412  -2.353   6.408  1.00  0.00     0.014 A 
ATOM     79  C   UNL     1       5.107  -1.559   6.478  1.00  0.00     0.030 A 
ATOM     80  C   UNL     1       7.673  -1.735   7.629  1.00  0.00     0.001 A 
ATOM     81  C   UNL     1       5.392  -0.928   7.699  1.00  0.00     0.013 A 
ATOM     82  C   UNL     1       6.665  -1.015   8.269  1.00  0.00     0.001 A 
BRANCH  79  83
ATOM     83  C   UNL     1       3.767  -1.467   5.926  1.00  0.00     0.135 A 
ATOM     84  C   UNL     1       2.873  -2.386   5.427  1.00  0.00     0.051 A 
ATOM     85  O   UNL     1       3.311  -0.200   5.705  1.00  0.00    -0.457 OA
ATOM     86  C   UNL     1       1.847  -1.633   4.815  1.00  0.00     0.051 A 
ATOM     87  C   UNL     1       2.132  -0.283   5.005  1.00  0.00     0.128 A 
BRANCH  87  88
ATOM     88  C   UNL     1       1.394   0.839   4.543  1.00  0.00     0.068 C 
ATOM     89  C   UNL     1       0.183   1.099   5.049  1.00  0.00     0.084 C 
ATOM     90  S   UNL     1      -1.007   2.103   4.323  1.00  0.00    -0.054 SA
ATOM     91  C   UNL     1      -0.417   0.402   6.208  1.00  0.00     0.266 C 
ATOM     92  C   UNL     1      -2.317   1.244   5.151  1.00  0.00     0.148 C 
ATOM     93  N   UNL     1      -1.786   0.365   6.069  1.00  0.00    -0.288 N 
ATOM     94  O   UNL     1       0.217  -0.033   7.162  1.00  0.00    -0.268 OA
ATOM     95  S   UNL     1      -3.925   1.536   4.817  1.00  0.00    -0.052 S 
BRANCH  93  96
ATOM     96  C   UNL     1      -2.533  -0.537   6.940  1.00  0.00     0.163 C 
BRANCH  96  97
ATOM     97  C   UNL     1      -2.556  -1.966   6.420  1.00  0.00    -0.028 A 
ATOM     98  C   UNL     1      -3.766  -2.572   6.058  1.00  0.00     0.005 A 
ATOM     99  C   UNL     1      -1.379  -2.729   6.328  1.00  0.00     0.005 A 
ATOM    100  C   UNL     1      -3.795  -3.899   5.617  1.00  0.00     0.000 A 
ATOM    101  C   UNL     1      -1.404  -4.046   5.864  1.00  0.00     0.000 A 
ATOM    102  C   UNL     1      -2.615  -4.633   5.513  1.00  0.00     0.000 A 
ENDBRANCH  96  97
ENDBRANCH  93  96
ENDBRANCH  87  88
ENDBRANCH  79  83
ENDBRANCH  74  77
ENDBRANCH  72  73
ENDBRANCH   1  72
TORSDOF 17
