REMARK SMILES Cn1ccc(-c2n[nH]c(=O)n2-c2ccc(C(=O)NCCCNC(=O)c3ccc(-c4c5nc(c(-c6cc(S(=O)(=O)[O-])ccc6F)c6ccc([nH]6)c(-c6cc(S(=O)(=O)[O-])ccc6F)c6nc(c(-c7cc(S(=O)(=O)[O-])ccc7F)c7ccc4[nH]7)C=C6)C=C5)cc3)cc2)n1
REMARK SMILES IDX 20 1 19 2 18 3 16 4 17 5 15 7 12 8 13 9 89 10 14 11 88 12
REMARK SMILES IDX 11 13 6 14 7 15 8 16 9 17 10 19 5 20 1 21 2 22 3 23 90 24
REMARK SMILES IDX 4 25 21 26 22 27 23 28 24 30 25 31 26 32 87 33 27 34 86 35
REMARK SMILES IDX 28 36 29 37 30 38 80 39 31 40 85 41 79 42 81 43 32 44 84 45
REMARK SMILES IDX 78 46 77 47 33 49 65 50 45 51 64 52 46 53 49 54 63 55 82 56
REMARK SMILES IDX 47 57 48 58 62 60 83 61 50 62 34 63 35 64 43 65 36 66 42 67
REMARK SMILES IDX 44 68 41 69 37 70 38 71 39 72 40 73 66 74 67 75 75 76 68 77
REMARK SMILES IDX 74 78 76 79 73 80 69 81 70 82 71 83 72 84 51 85 52 86 60 87
REMARK SMILES IDX 53 88 59 89 61 90 58 91 54 92 55 93 56 94 57 95
REMARK H PARENT 18 6 8 18 22 29 81 48 49 59
REMARK Flexibility Score: inf
ROOT
ATOM      1  C   UNL     1       0.990   0.334   6.997  1.00  0.00     0.042 C 
ENDROOT
BRANCH   1   2
ATOM      2  C   UNL     1      -0.208   0.981   6.287  1.00  0.00     0.118 C 
BRANCH   2   3
ATOM      3  N   UNL     1      -0.220   2.426   6.454  1.00  0.00    -0.352 N 
ATOM      4  C   UNL     1       0.250   3.456   5.675  1.00  0.00     0.251 C 
ATOM      5  O   UNL     1       0.023   4.607   6.048  1.00  0.00    -0.269 OA
ATOM      6  H   UNL     1      -0.648   2.724   7.289  1.00  0.00     0.163 HD
BRANCH   4   7
ATOM      7  C   UNL     1       0.964   3.248   4.383  1.00  0.00     0.039 A 
ATOM      8  C   UNL     1       2.121   2.925   1.836  1.00  0.00     0.052 A 
ATOM      9  C   UNL     1       1.585   4.159   2.203  1.00  0.00     0.028 A 
ATOM     10  C   UNL     1       2.161   1.891   2.772  1.00  0.00     0.028 A 
ATOM     11  C   UNL     1       0.980   4.306   3.459  1.00  0.00     0.016 A 
ATOM     12  C   UNL     1       1.634   2.074   4.047  1.00  0.00     0.016 A 
BRANCH   8  13
ATOM     13  N   UNL     1       2.690   2.716   0.575  1.00  0.00    -0.242 N 
ATOM     14  C   UNL     1       2.569   1.622  -0.231  1.00  0.00     0.189 A 
ATOM     15  N   UNL     1       3.490   1.510  -1.150  1.00  0.00    -0.150 NA
ATOM     16  N   UNL     1       4.263   2.626  -0.964  1.00  0.00    -0.226 N 
ATOM     17  C   UNL     1       3.786   3.391   0.101  1.00  0.00     0.348 A 
ATOM     18  H   UNL     1       5.050   2.858  -1.509  1.00  0.00     0.195 HD
ATOM     19  O   UNL     1       4.336   4.397   0.536  1.00  0.00    -0.246 OA
BRANCH  14  20
ATOM     20  C   UNL     1       1.469   0.676  -0.130  1.00  0.00     0.130 A 
ATOM     21  C   UNL     1      -1.971   0.024   0.017  1.00  0.00     0.173 C 
ATOM     22  N   UNL     1      -0.529  -0.048  -0.004  1.00  0.00    -0.275 N 
ATOM     23  C   UNL     1       0.234  -1.174  -0.094  1.00  0.00     0.109 A 
ATOM     24  N   UNL     1       0.194   1.085   0.021  1.00  0.00    -0.170 NA
ATOM     25  C   UNL     1       1.533  -0.739  -0.211  1.00  0.00     0.054 A 
ENDBRANCH  14  20
ENDBRANCH   8  13
ENDBRANCH   4   7
ENDBRANCH   2   3
ENDBRANCH   1   2
BRANCH   1  26
ATOM     26  C   UNL     1       0.705   0.074   8.466  1.00  0.00     0.118 C 
BRANCH  26  27
ATOM     27  N   UNL     1      -0.258  -1.016   8.648  1.00  0.00    -0.352 N 
ATOM     28  C   UNL     1      -0.787  -1.508   9.826  1.00  0.00     0.251 C 
ATOM     29  H   UNL     1      -0.567  -1.456   7.824  1.00  0.00     0.163 HD
ATOM     30  O   UNL     1      -1.272  -2.633   9.860  1.00  0.00    -0.269 OA
BRANCH  28  31
ATOM     31  C   UNL     1      -0.758  -0.656  11.028  1.00  0.00     0.039 A 
ATOM     32  C   UNL     1      -0.499  -1.181  12.297  1.00  0.00     0.014 A 
ATOM     33  C   UNL     1      -0.969   0.707  10.853  1.00  0.00     0.014 A 
ATOM     34  C   UNL     1      -0.374  -0.303  13.374  1.00  0.00     0.010 A 
ATOM     35  C   UNL     1      -0.670   1.576  11.867  1.00  0.00     0.010 A 
ATOM     36  C   UNL     1      -0.441   1.080  13.144  1.00  0.00    -0.014 A 
BRANCH  36  37
ATOM     37  C   UNL     1      -0.097   2.054  14.179  1.00  0.00     0.031 A 
ATOM     38  C   UNL     1       1.274   1.859  14.728  1.00  0.00     0.074 A 
ATOM     39  C   UNL     1      -0.835   3.172  14.383  1.00  0.00     0.049 A 
ATOM     40  N   UNL     1       1.602   1.519  15.930  1.00  0.00    -0.248 NA
ATOM     41  C   UNL     1       2.412   1.842  13.787  1.00  0.00     0.031 C 
ATOM     42  C   UNL     1      -2.051   3.584  13.669  1.00  0.00     0.029 A 
ATOM     43  N   UNL     1      -0.591   4.255  15.171  1.00  0.00    -0.354 N 
ATOM     44  C   UNL     1       2.994   1.543  15.959  1.00  0.00     0.074 A 
ATOM     45  C   UNL     1       3.414   1.477  14.588  1.00  0.00     0.031 C 
ATOM     46  C   UNL     1      -2.271   4.904  13.861  1.00  0.00     0.029 A 
ATOM     47  C   UNL     1      -1.310   5.405  14.828  1.00  0.00     0.049 A 
ATOM     48  H   UNL     1       0.042   4.230  15.924  1.00  0.00     0.167 HD
ATOM     49  C   UNL     1       3.659   1.935  17.081  1.00  0.00     0.034 A 
ATOM     50  C   UNL     1      -1.105   6.681  15.271  1.00  0.00     0.034 A 
ATOM     51  C   UNL     1       2.779   1.897  18.232  1.00  0.00     0.049 A 
ATOM     52  C   UNL     1      -0.344   6.557  16.541  1.00  0.00     0.074 A 
ATOM     53  C   UNL     1       1.998   0.918  18.817  1.00  0.00     0.029 A 
ATOM     54  N   UNL     1       2.281   3.093  18.703  1.00  0.00    -0.354 N 
ATOM     55  N   UNL     1      -0.827   5.976  17.607  1.00  0.00    -0.248 NA
ATOM     56  C   UNL     1       1.108   6.590  16.459  1.00  0.00     0.031 C 
ATOM     57  C   UNL     1       0.783   1.580  19.164  1.00  0.00     0.029 A 
ATOM     58  C   UNL     1       0.927   2.941  18.886  1.00  0.00     0.049 A 
ATOM     59  H   UNL     1       2.801   3.910  18.877  1.00  0.00     0.167 HD
ATOM     60  C   UNL     1       0.209   5.185  18.081  1.00  0.00     0.074 A 
ATOM     61  C   UNL     1       1.401   5.668  17.381  1.00  0.00     0.031 C 
ATOM     62  C   UNL     1      -0.037   4.020  18.754  1.00  0.00     0.034 A 
BRANCH  49  63
ATOM     63  C   UNL     1       4.947   2.737  17.084  1.00  0.00     0.023 A 
ATOM     64  C   UNL     1       5.474   3.088  18.342  1.00  0.00     0.031 A 
ATOM     65  C   UNL     1       5.513   3.415  15.979  1.00  0.00     0.131 A 
ATOM     66  C   UNL     1       6.402   4.135  18.474  1.00  0.00     0.055 A 
ATOM     67  C   UNL     1       6.488   4.409  16.110  1.00  0.00     0.041 A 
ATOM     68  F   UNL     1       5.105   3.229  14.719  1.00  0.00    -0.206 F 
ATOM     69  C   UNL     1       6.912   4.801  17.365  1.00  0.00     0.022 A 
BRANCH  66  70
ATOM     70  S   UNL     1       6.785   4.733  20.139  1.00  0.00     0.124 S 
ATOM     71  O   UNL     1       5.453   5.037  20.651  1.00  0.00    -0.237 OA
ATOM     72  O   UNL     1       7.453   3.575  20.725  1.00  0.00    -0.237 OA
ATOM     73  O   UNL     1       7.642   5.890  19.894  1.00  0.00    -0.744 OA
ENDBRANCH  66  70
ENDBRANCH  49  63
BRANCH  50  74
ATOM     74  C   UNL     1      -1.190   7.957  14.482  1.00  0.00     0.023 A 
ATOM     75  C   UNL     1      -1.173   9.244  15.077  1.00  0.00     0.031 A 
ATOM     76  C   UNL     1      -1.030   7.924  13.077  1.00  0.00     0.131 A 
ATOM     77  C   UNL     1      -0.998  10.407  14.280  1.00  0.00     0.055 A 
ATOM     78  C   UNL     1      -0.853   9.072  12.299  1.00  0.00     0.041 A 
ATOM     79  F   UNL     1      -0.951   6.763  12.411  1.00  0.00    -0.206 F 
ATOM     80  C   UNL     1      -0.823  10.319  12.898  1.00  0.00     0.022 A 
BRANCH  77  81
ATOM     81  S   UNL     1      -0.899  12.071  15.033  1.00  0.00     0.124 S 
ATOM     82  O   UNL     1      -2.281  12.312  15.433  1.00  0.00    -0.237 OA
ATOM     83  O   UNL     1       0.064  11.877  16.110  1.00  0.00    -0.237 OA
ATOM     84  O   UNL     1      -0.424  12.916  13.936  1.00  0.00    -0.744 OA
ENDBRANCH  77  81
ENDBRANCH  50  74
BRANCH  62  85
ATOM     85  C   UNL     1      -1.449   3.742  19.246  1.00  0.00     0.023 A 
ATOM     86  C   UNL     1      -2.610   3.679  18.438  1.00  0.00     0.031 A 
ATOM     87  C   UNL     1      -1.587   3.406  20.605  1.00  0.00     0.131 A 
ATOM     88  C   UNL     1      -3.846   3.299  19.007  1.00  0.00     0.055 A 
ATOM     89  C   UNL     1      -2.803   3.007  21.156  1.00  0.00     0.041 A 
ATOM     90  F   UNL     1      -0.521   3.425  21.422  1.00  0.00    -0.206 F 
ATOM     91  C   UNL     1      -3.939   2.958  20.360  1.00  0.00     0.022 A 
BRANCH  88  92
ATOM     92  S   UNL     1      -5.374   3.266  18.009  1.00  0.00     0.124 S 
ATOM     93  O   UNL     1      -5.345   4.538  17.296  1.00  0.00    -0.237 OA
ATOM     94  O   UNL     1      -5.194   2.069  17.192  1.00  0.00    -0.237 OA
ATOM     95  O   UNL     1      -6.434   3.159  19.014  1.00  0.00    -0.744 OA
ENDBRANCH  88  92
ENDBRANCH  62  85
ENDBRANCH  36  37
ENDBRANCH  28  31
ENDBRANCH  26  27
ENDBRANCH   1  26
TORSDOF 15
