REMARK SMILES CC(C)CN(C)/C=C\C(=O)NCCCNC(=O)c1ccc(-c2c3nc(c(-c4cc(S(=O)(=O)[O-])ccc4F)c4ccc([nH]4)c(-c4cc(S(=O)(=O)[O-])ccc4F)c4nc(c(-c5cc(S(=O)(=O)[O-])ccc5F)c5ccc2[nH]5)C=C4)C=C3)cc1
REMARK SMILES IDX 13 1 12 2 11 3 9 4 10 5 8 7 7 8 5 9 6 10 4 11 2 12 1 13 3 14
REMARK SMILES IDX 14 15 15 16 16 17 17 19 18 20 19 21 80 22 20 23 79 24 21 25
REMARK SMILES IDX 22 26 23 27 73 28 24 29 78 30 72 31 74 32 25 33 77 34 71 35
REMARK SMILES IDX 70 36 26 38 58 39 38 40 57 41 39 42 42 43 56 44 75 45 40 46
REMARK SMILES IDX 41 47 55 49 76 50 43 51 27 52 28 53 36 54 29 55 35 56 37 57
REMARK SMILES IDX 34 58 30 59 31 60 32 61 33 62 59 63 60 64 68 65 61 66 67 67
REMARK SMILES IDX 69 68 66 69 62 70 63 71 64 72 65 73 44 74 45 75 53 76 46 77
REMARK SMILES IDX 52 78 54 79 51 80 47 81 48 82 49 83 50 84
REMARK H PARENT 11 6 15 18 74 37 42 48
REMARK Flexibility Score: inf
ROOT
ATOM      1  C   UNL     1      -2.187  -2.981  -0.068  1.00  0.00     0.042 C 
ENDROOT
BRANCH   1   2
ATOM      2  C   UNL     1      -2.794  -1.737   0.600  1.00  0.00     0.118 C 
BRANCH   2   3
ATOM      3  N   UNL     1      -1.908  -0.968   1.461  1.00  0.00    -0.352 N 
ATOM      4  C   UNL     1      -1.400   0.290   1.333  1.00  0.00     0.245 C 
ATOM      5  O   UNL     1      -0.856   0.823   2.299  1.00  0.00    -0.270 OA
ATOM      6  H   UNL     1      -1.627  -1.438   2.279  1.00  0.00     0.163 HD
BRANCH   4   7
ATOM      7  C   UNL     1      -1.581   1.067   0.093  1.00  0.00     0.088 C 
ATOM      8  C   UNL     1      -1.201   0.765  -1.154  1.00  0.00     0.086 C 
BRANCH   8   9
ATOM      9  N   UNL     1      -0.530  -0.305  -1.727  1.00  0.00    -0.380 N 
ATOM     10  C   UNL     1      -0.849  -0.702  -3.103  1.00  0.00     0.143 C 
BRANCH   9  11
ATOM     11  C   UNL     1       0.404  -1.182  -1.006  1.00  0.00     0.118 C 
BRANCH  11  12
ATOM     12  C   UNL     1       1.888  -0.810  -1.051  1.00  0.00     0.002 C 
ATOM     13  C   UNL     1       2.187   0.641  -0.690  1.00  0.00     0.009 C 
ATOM     14  C   UNL     1       2.612  -1.739  -0.060  1.00  0.00     0.009 C 
ENDBRANCH  11  12
ENDBRANCH   9  11
ENDBRANCH   8   9
ENDBRANCH   4   7
ENDBRANCH   2   3
ENDBRANCH   1   2
BRANCH   1  15
ATOM     15  C   UNL     1      -1.129  -3.765   0.718  1.00  0.00     0.118 C 
BRANCH  15  16
ATOM     16  N   UNL     1      -1.733  -4.801   1.532  1.00  0.00    -0.352 N 
ATOM     17  C   UNL     1      -1.760  -6.161   1.338  1.00  0.00     0.251 C 
ATOM     18  H   UNL     1      -2.191  -4.484   2.343  1.00  0.00     0.163 HD
ATOM     19  O   UNL     1      -2.630  -6.811   1.916  1.00  0.00    -0.269 OA
BRANCH  17  20
ATOM     20  C   UNL     1      -0.778  -6.866   0.469  1.00  0.00     0.039 A 
ATOM     21  C   UNL     1      -1.228  -7.958  -0.282  1.00  0.00     0.014 A 
ATOM     22  C   UNL     1       0.592  -6.578   0.496  1.00  0.00     0.014 A 
ATOM     23  C   UNL     1      -0.323  -8.756  -0.993  1.00  0.00     0.010 A 
ATOM     24  C   UNL     1       1.495  -7.357  -0.249  1.00  0.00     0.010 A 
ATOM     25  C   UNL     1       1.052  -8.469  -0.985  1.00  0.00    -0.014 A 
BRANCH  25  26
ATOM     26  C   UNL     1       2.009  -9.357  -1.714  1.00  0.00     0.031 A 
ATOM     27  C   UNL     1       2.983 -10.228  -0.958  1.00  0.00     0.074 A 
ATOM     28  C   UNL     1       1.996  -9.402  -3.062  1.00  0.00     0.049 A 
ATOM     29  N   UNL     1       3.871 -11.075  -1.419  1.00  0.00    -0.248 NA
ATOM     30  C   UNL     1       2.963 -10.122   0.508  1.00  0.00     0.031 C 
ATOM     31  C   UNL     1       1.111  -8.612  -3.919  1.00  0.00     0.029 A 
ATOM     32  N   UNL     1       2.739 -10.145  -3.948  1.00  0.00    -0.354 N 
ATOM     33  C   UNL     1       4.514 -11.605  -0.303  1.00  0.00     0.074 A 
ATOM     34  C   UNL     1       3.949 -10.938   0.853  1.00  0.00     0.031 C 
ATOM     35  C   UNL     1       1.347  -8.928  -5.203  1.00  0.00     0.029 A 
ATOM     36  C   UNL     1       2.425  -9.912  -5.268  1.00  0.00     0.049 A 
ATOM     37  H   UNL     1       3.433 -10.784  -3.665  1.00  0.00     0.167 HD
ATOM     38  C   UNL     1       5.471 -12.568  -0.243  1.00  0.00     0.034 A 
ATOM     39  C   UNL     1       2.946 -10.422  -6.404  1.00  0.00     0.034 A 
ATOM     40  C   UNL     1       6.032 -13.229  -1.400  1.00  0.00     0.049 A 
ATOM     41  C   UNL     1       4.045 -11.452  -6.315  1.00  0.00     0.074 A 
ATOM     42  C   UNL     1       6.976 -14.242  -1.441  1.00  0.00     0.029 A 
ATOM     43  N   UNL     1       5.713 -12.938  -2.720  1.00  0.00    -0.354 N 
ATOM     44  N   UNL     1       4.612 -11.967  -5.248  1.00  0.00    -0.248 NA
ATOM     45  C   UNL     1       4.567 -11.977  -7.584  1.00  0.00     0.031 C 
ATOM     46  C   UNL     1       7.281 -14.511  -2.780  1.00  0.00     0.029 A 
ATOM     47  C   UNL     1       6.468 -13.724  -3.580  1.00  0.00     0.049 A 
ATOM     48  H   UNL     1       5.048 -12.270  -3.005  1.00  0.00     0.167 HD
ATOM     49  C   UNL     1       5.533 -12.900  -5.721  1.00  0.00     0.074 A 
ATOM     50  C   UNL     1       5.434 -12.886  -7.165  1.00  0.00     0.031 C 
ATOM     51  C   UNL     1       6.379 -13.698  -5.021  1.00  0.00     0.034 A 
BRANCH  38  52
ATOM     52  C   UNL     1       5.998 -12.943   1.125  1.00  0.00     0.023 A 
ATOM     53  C   UNL     1       5.171 -13.521   2.104  1.00  0.00     0.031 A 
ATOM     54  C   UNL     1       7.345 -12.712   1.459  1.00  0.00     0.131 A 
ATOM     55  C   UNL     1       5.676 -13.778   3.388  1.00  0.00     0.055 A 
ATOM     56  C   UNL     1       7.863 -13.046   2.712  1.00  0.00     0.041 A 
ATOM     57  F   UNL     1       8.182 -12.149   0.573  1.00  0.00    -0.206 F 
ATOM     58  C   UNL     1       7.023 -13.568   3.692  1.00  0.00     0.022 A 
BRANCH  55  59
ATOM     59  S   UNL     1       4.517 -14.255   4.699  1.00  0.00     0.124 S 
ATOM     60  O   UNL     1       3.589 -13.126   4.697  1.00  0.00    -0.237 OA
ATOM     61  O   UNL     1       3.983 -15.520   4.202  1.00  0.00    -0.237 OA
ATOM     62  O   UNL     1       5.361 -14.357   5.885  1.00  0.00    -0.744 OA
ENDBRANCH  55  59
ENDBRANCH  38  52
BRANCH  39  63
ATOM     63  C   UNL     1       2.452  -9.959  -7.734  1.00  0.00     0.023 A 
ATOM     64  C   UNL     1       1.816 -10.841  -8.623  1.00  0.00     0.031 A 
ATOM     65  C   UNL     1       2.657  -8.632  -8.156  1.00  0.00     0.131 A 
ATOM     66  C   UNL     1       1.449 -10.399  -9.904  1.00  0.00     0.055 A 
ATOM     67  C   UNL     1       2.240  -8.184  -9.411  1.00  0.00     0.041 A 
ATOM     68  F   UNL     1       3.260  -7.747  -7.347  1.00  0.00    -0.206 F 
ATOM     69  C   UNL     1       1.643  -9.073 -10.298  1.00  0.00     0.022 A 
BRANCH  66  70
ATOM     70  S   UNL     1       0.789 -11.608 -11.085  1.00  0.00     0.124 S 
ATOM     71  O   UNL     1       1.875 -12.579 -11.153  1.00  0.00    -0.237 OA
ATOM     72  O   UNL     1      -0.429 -12.051 -10.416  1.00  0.00    -0.237 OA
ATOM     73  O   UNL     1       0.580 -10.818 -12.297  1.00  0.00    -0.744 OA
ENDBRANCH  66  70
ENDBRANCH  39  63
BRANCH  51  74
ATOM     74  C   UNL     1       7.236 -14.658  -5.814  1.00  0.00     0.023 A 
ATOM     75  C   UNL     1       8.245 -14.208  -6.685  1.00  0.00     0.031 A 
ATOM     76  C   UNL     1       7.028 -16.045  -5.708  1.00  0.00     0.131 A 
ATOM     77  C   UNL     1       8.968 -15.132  -7.457  1.00  0.00     0.055 A 
ATOM     78  C   UNL     1       7.793 -16.962  -6.432  1.00  0.00     0.041 A 
ATOM     79  F   UNL     1       6.077 -16.534  -4.896  1.00  0.00    -0.206 F 
ATOM     80  C   UNL     1       8.760 -16.507  -7.323  1.00  0.00     0.022 A 
BRANCH  77  81
ATOM     81  S   UNL     1      10.122 -14.508  -8.710  1.00  0.00     0.124 S 
ATOM     82  O   UNL     1       9.248 -13.699  -9.552  1.00  0.00    -0.237 OA
ATOM     83  O   UNL     1      11.091 -13.772  -7.904  1.00  0.00    -0.237 OA
ATOM     84  O   UNL     1      10.636 -15.724  -9.339  1.00  0.00    -0.744 OA
ENDBRANCH  77  81
ENDBRANCH  51  74
ENDBRANCH  25  26
ENDBRANCH  17  20
ENDBRANCH  15  16
ENDBRANCH   1  15
TORSDOF 16
