REMARK SMILES Cc1ccc(O[C@H](C)C(=O)Nc2ccsc2C(=O)NCCCNC(=O)c2ccc(-c3c4nc(c(-c5cc(S(=O)(=O)[O-])ccc5F)c5ccc([nH]5)c(-c5cc(S(=O)(=O)[O-])ccc5F)c5nc(c(-c6cc(S(=O)(=O)[O-])ccc6F)c6ccc3[nH]6)C=C5)C=C4)cc2)cc1
REMARK SMILES IDX 20 1 19 2 17 3 18 4 16 6 12 7 13 8 14 9 15 10 11 11 9 12
REMARK SMILES IDX 10 13 7 15 8 16 6 17 5 18 1 19 2 20 3 21 90 22 4 23 89 24
REMARK SMILES IDX 21 25 22 26 23 27 24 28 25 30 26 31 27 32 88 33 28 34 87 35
REMARK SMILES IDX 29 36 30 37 31 38 81 39 32 40 86 41 80 42 82 43 33 44 85 45
REMARK SMILES IDX 79 46 78 47 34 49 66 50 46 51 65 52 47 53 50 54 64 55 83 56
REMARK SMILES IDX 48 57 49 58 63 60 84 61 51 62 35 63 36 64 44 65 37 66 43 67
REMARK SMILES IDX 45 68 42 69 38 70 39 71 40 72 41 73 67 74 68 75 76 76 69 77
REMARK SMILES IDX 75 78 77 79 74 80 70 81 71 82 72 83 73 84 52 85 53 86 61 87
REMARK SMILES IDX 54 88 60 89 62 90 59 91 55 92 56 93 57 94 58 95
REMARK H PARENT 19 5 11 14 23 29 82 48 50 59
REMARK Flexibility Score: inf
ROOT
ATOM      1  C   UNL     1      -1.539   4.360  -2.460  1.00  0.00     0.118 C 
ENDROOT
BRANCH   1   2
ATOM      2  N   UNL     1      -0.538   4.623  -1.440  1.00  0.00    -0.351 N 
ATOM      3  C   UNL     1       0.125   3.972  -0.436  1.00  0.00     0.263 C 
ATOM      4  O   UNL     1       0.883   4.740   0.175  1.00  0.00    -0.268 OA
ATOM      5  H   UNL     1      -0.246   5.562  -1.486  1.00  0.00     0.163 HD
BRANCH   3   6
ATOM      6  C   UNL     1       0.011   2.556  -0.060  1.00  0.00     0.115 A 
ATOM      7  C   UNL     1      -0.721   1.436  -0.442  1.00  0.00     0.065 A 
ATOM      8  C   UNL     1      -0.362   0.260   0.298  1.00  0.00     0.038 A 
ATOM      9  C   UNL     1       0.556   0.500   1.285  1.00  0.00     0.068 A 
ATOM     10  S   UNL     1       1.022   2.126   1.312  1.00  0.00    -0.137 S 
BRANCH   7  11
ATOM     11  N   UNL     1      -1.612   1.374  -1.490  1.00  0.00    -0.321 N 
ATOM     12  C   UNL     1      -2.938   1.044  -1.472  1.00  0.00     0.265 C 
ATOM     13  O   UNL     1      -3.550   1.097  -2.547  1.00  0.00    -0.270 OA
ATOM     14  H   UNL     1      -1.242   1.597  -2.374  1.00  0.00     0.170 HD
BRANCH  12  15
ATOM     15  C   UNL     1      -3.677   0.580  -0.195  1.00  0.00     0.259 C 
ATOM     16  C   UNL     1      -3.749  -0.939  -0.287  1.00  0.00     0.064 C 
BRANCH  15  17
ATOM     17  O   UNL     1      -3.225   1.245   0.974  1.00  0.00    -0.481 OA
BRANCH  17  18
ATOM     18  C   UNL     1      -3.087   0.778   2.238  1.00  0.00     0.120 A 
ATOM     19  C   UNL     1      -2.054  -0.231   6.321  1.00  0.00     0.044 C 
ATOM     20  C   UNL     1      -2.478   0.142   4.933  1.00  0.00    -0.051 A 
ATOM     21  C   UNL     1      -2.852  -0.850   4.024  1.00  0.00     0.007 A 
ATOM     22  C   UNL     1      -2.434   1.464   4.492  1.00  0.00     0.007 A 
ATOM     23  C   UNL     1      -3.163  -0.531   2.694  1.00  0.00     0.047 A 
ATOM     24  C   UNL     1      -2.737   1.773   3.161  1.00  0.00     0.047 A 
ENDBRANCH  17  18
ENDBRANCH  15  17
ENDBRANCH  12  15
ENDBRANCH   7  11
ENDBRANCH   3   6
ENDBRANCH   1   2
BRANCH   1  25
ATOM     25  C   UNL     1      -2.946   4.657  -1.955  1.00  0.00     0.042 C 
BRANCH  25  26
ATOM     26  C   UNL     1      -3.652   5.708  -2.804  1.00  0.00     0.118 C 
BRANCH  26  27
ATOM     27  N   UNL     1      -4.393   5.176  -3.950  1.00  0.00    -0.352 N 
ATOM     28  C   UNL     1      -5.237   5.863  -4.825  1.00  0.00     0.251 C 
ATOM     29  H   UNL     1      -4.282   4.214  -4.125  1.00  0.00     0.163 HD
ATOM     30  O   UNL     1      -5.796   5.322  -5.748  1.00  0.00    -0.269 OA
BRANCH  28  31
ATOM     31  C   UNL     1      -5.368   7.326  -4.618  1.00  0.00     0.039 A 
ATOM     32  C   UNL     1      -4.796   8.171  -5.573  1.00  0.00     0.014 A 
ATOM     33  C   UNL     1      -5.683   7.782  -3.344  1.00  0.00     0.014 A 
ATOM     34  C   UNL     1      -4.277   9.392  -5.156  1.00  0.00     0.010 A 
ATOM     35  C   UNL     1      -5.040   8.920  -2.905  1.00  0.00     0.010 A 
ATOM     36  C   UNL     1      -4.273   9.689  -3.794  1.00  0.00    -0.014 A 
BRANCH  36  37
ATOM     37  C   UNL     1      -3.362  10.659  -3.183  1.00  0.00     0.031 A 
ATOM     38  C   UNL     1      -3.897  11.784  -2.385  1.00  0.00     0.074 A 
ATOM     39  C   UNL     1      -2.021  10.481  -3.262  1.00  0.00     0.049 A 
ATOM     40  N   UNL     1      -3.204  12.805  -2.012  1.00  0.00    -0.248 NA
ATOM     41  C   UNL     1      -5.304  11.897  -2.013  1.00  0.00     0.031 C 
ATOM     42  C   UNL     1      -0.990  11.133  -2.455  1.00  0.00     0.029 A 
ATOM     43  N   UNL     1      -1.308   9.857  -4.288  1.00  0.00    -0.354 N 
ATOM     44  C   UNL     1      -3.960  13.539  -1.130  1.00  0.00     0.074 A 
ATOM     45  C   UNL     1      -5.285  12.993  -1.252  1.00  0.00     0.031 C 
ATOM     46  C   UNL     1       0.169  11.116  -3.128  1.00  0.00     0.029 A 
ATOM     47  C   UNL     1      -0.106  10.574  -4.443  1.00  0.00     0.049 A 
ATOM     48  H   UNL     1      -1.592   9.068  -4.803  1.00  0.00     0.167 HD
ATOM     49  C   UNL     1      -3.327  14.436  -0.324  1.00  0.00     0.034 A 
ATOM     50  C   UNL     1       0.205  11.189  -5.619  1.00  0.00     0.034 A 
ATOM     51  C   UNL     1      -1.974  14.721  -0.824  1.00  0.00     0.049 A 
ATOM     52  C   UNL     1       0.380  12.686  -5.502  1.00  0.00     0.074 A 
ATOM     53  C   UNL     1      -0.694  14.414  -0.396  1.00  0.00     0.029 A 
ATOM     54  N   UNL     1      -1.835  15.231  -2.115  1.00  0.00    -0.354 N 
ATOM     55  N   UNL     1       0.004  13.405  -4.479  1.00  0.00    -0.248 NA
ATOM     56  C   UNL     1       0.980  13.491  -6.557  1.00  0.00     0.031 C 
ATOM     57  C   UNL     1       0.209  14.706  -1.460  1.00  0.00     0.029 A 
ATOM     58  C   UNL     1      -0.515  15.222  -2.523  1.00  0.00     0.049 A 
ATOM     59  H   UNL     1      -2.583  15.556  -2.666  1.00  0.00     0.167 HD
ATOM     60  C   UNL     1       0.242  14.737  -4.732  1.00  0.00     0.074 A 
ATOM     61  C   UNL     1       0.884  14.726  -6.037  1.00  0.00     0.031 C 
ATOM     62  C   UNL     1      -0.140  15.717  -3.850  1.00  0.00     0.034 A 
BRANCH  49  63
ATOM     63  C   UNL     1      -3.833  14.898   1.039  1.00  0.00     0.023 A 
ATOM     64  C   UNL     1      -2.928  15.538   1.918  1.00  0.00     0.031 A 
ATOM     65  C   UNL     1      -5.110  14.653   1.594  1.00  0.00     0.131 A 
ATOM     66  C   UNL     1      -3.275  15.840   3.253  1.00  0.00     0.055 A 
ATOM     67  C   UNL     1      -5.457  14.963   2.916  1.00  0.00     0.041 A 
ATOM     68  F   UNL     1      -6.107  14.093   0.910  1.00  0.00    -0.206 F 
ATOM     69  C   UNL     1      -4.536  15.549   3.760  1.00  0.00     0.022 A 
BRANCH  66  70
ATOM     70  S   UNL     1      -2.036  16.581   4.352  1.00  0.00     0.124 S 
ATOM     71  O   UNL     1      -0.991  15.564   4.368  1.00  0.00    -0.237 OA
ATOM     72  O   UNL     1      -1.719  17.828   3.665  1.00  0.00    -0.237 OA
ATOM     73  O   UNL     1      -2.756  16.742   5.615  1.00  0.00    -0.744 OA
ENDBRANCH  66  70
ENDBRANCH  49  63
BRANCH  50  74
ATOM     74  C   UNL     1      -0.300  10.461  -6.815  1.00  0.00     0.023 A 
ATOM     75  C   UNL     1       0.166   9.143  -7.004  1.00  0.00     0.031 A 
ATOM     76  C   UNL     1      -1.467  10.848  -7.485  1.00  0.00     0.131 A 
ATOM     77  C   UNL     1      -0.615   8.212  -7.700  1.00  0.00     0.055 A 
ATOM     78  C   UNL     1      -2.211   9.929  -8.238  1.00  0.00     0.041 A 
ATOM     79  F   UNL     1      -1.979  12.076  -7.313  1.00  0.00    -0.206 F 
ATOM     80  C   UNL     1      -1.810   8.593  -8.312  1.00  0.00     0.022 A 
BRANCH  77  81
ATOM     81  S   UNL     1      -0.167   6.457  -7.560  1.00  0.00     0.124 S 
ATOM     82  O   UNL     1       1.022   6.378  -8.402  1.00  0.00    -0.237 OA
ATOM     83  O   UNL     1       0.056   6.308  -6.122  1.00  0.00    -0.237 OA
ATOM     84  O   UNL     1      -1.344   5.759  -8.069  1.00  0.00    -0.744 OA
ENDBRANCH  77  81
ENDBRANCH  50  74
BRANCH  62  85
ATOM     85  C   UNL     1      -0.155  17.226  -4.106  1.00  0.00     0.023 A 
ATOM     86  C   UNL     1       0.275  17.832  -5.296  1.00  0.00     0.031 A 
ATOM     87  C   UNL     1      -0.652  18.134  -3.134  1.00  0.00     0.131 A 
ATOM     88  C   UNL     1       0.258  19.231  -5.474  1.00  0.00     0.055 A 
ATOM     89  C   UNL     1      -0.710  19.521  -3.324  1.00  0.00     0.041 A 
ATOM     90  F   UNL     1      -1.128  17.722  -1.951  1.00  0.00    -0.206 F 
ATOM     91  C   UNL     1      -0.242  20.083  -4.498  1.00  0.00     0.022 A 
BRANCH  88  92
ATOM     92  S   UNL     1       0.951  19.908  -7.008  1.00  0.00     0.124 S 
ATOM     93  O   UNL     1       2.327  19.421  -6.961  1.00  0.00    -0.237 OA
ATOM     94  O   UNL     1       0.100  19.299  -8.026  1.00  0.00    -0.237 OA
ATOM     95  O   UNL     1       0.798  21.352  -6.851  1.00  0.00    -0.744 OA
ENDBRANCH  88  92
ENDBRANCH  62  85
ENDBRANCH  36  37
ENDBRANCH  28  31
ENDBRANCH  26  27
ENDBRANCH  25  26
ENDBRANCH   1  25
TORSDOF 17
