REMARK SMILES CC[C@H](NC(=O)NC[C@@]1(C)CCCO1)C(=O)NCCCNC(=O)c1ccc(-c2c3nc(c(-c4cc(S(=O)(=O)[O-])ccc4F)c4ccc([nH]4)c(-c4cc(S(=O)(=O)[O-])ccc4F)c4nc(c(-c5cc(S(=O)(=O)[O-])ccc5F)c5ccc2[nH]5)C=C4)C=C3)cc1
REMARK SMILES IDX 19 1 18 2 17 3 15 4 16 5 3 7 2 8 1 9 4 10 5 11 6 13 7 14
REMARK SMILES IDX 8 16 9 17 10 18 11 19 14 20 12 21 13 22 20 23 21 24 22 25
REMARK SMILES IDX 23 27 24 28 25 29 86 30 26 31 85 32 27 33 28 34 29 35 79 36
REMARK SMILES IDX 30 37 84 38 78 39 80 40 31 41 83 42 77 43 76 44 32 46 64 47
REMARK SMILES IDX 44 48 63 49 45 50 48 51 62 52 81 53 46 54 47 55 61 57 82 58
REMARK SMILES IDX 49 59 33 60 34 61 42 62 35 63 41 64 43 65 40 66 36 67 37 68
REMARK SMILES IDX 38 69 39 70 65 71 66 72 74 73 67 74 73 75 75 76 72 77 68 78
REMARK SMILES IDX 69 79 70 80 71 81 50 82 51 83 59 84 52 85 58 86 60 87 57 88
REMARK SMILES IDX 53 89 54 90 55 91 56 92
REMARK H PARENT 17 6 4 12 7 15 21 26 80 45 48 56
REMARK Flexibility Score: inf
ROOT
ATOM      1  C   UNL     1      -3.227   1.456  -0.910  1.00  0.00     0.042 C 
ENDROOT
BRANCH   1   2
ATOM      2  C   UNL     1      -2.725   0.475  -1.972  1.00  0.00     0.117 C 
BRANCH   2   3
ATOM      3  N   UNL     1      -1.853   0.901  -3.052  1.00  0.00    -0.354 N 
ATOM      4  C   UNL     1      -0.525   0.619  -3.253  1.00  0.00     0.242 C 
ATOM      5  O   UNL     1      -0.164   0.057  -4.294  1.00  0.00    -0.273 OA
ATOM      6  H   UNL     1      -2.273   1.471  -3.736  1.00  0.00     0.163 HD
BRANCH   4   7
ATOM      7  C   UNL     1       0.526   0.971  -2.203  1.00  0.00     0.172 C 
BRANCH   7   8
ATOM      8  C   UNL     1       1.154  -0.305  -1.591  1.00  0.00     0.032 C 
ATOM      9  C   UNL     1       0.287  -1.563  -1.558  1.00  0.00     0.006 C 
ENDBRANCH   7   8
BRANCH   7  10
ATOM     10  N   UNL     1       0.074   1.941  -1.228  1.00  0.00    -0.326 N 
ATOM     11  C   UNL     1      -0.342   3.205  -1.360  1.00  0.00     0.315 C 
ATOM     12  H   UNL     1       0.073   1.611  -0.300  1.00  0.00     0.166 HD
ATOM     13  O   UNL     1      -0.620   3.812  -0.320  1.00  0.00    -0.249 OA
ATOM     14  N   UNL     1      -0.564   3.851  -2.515  1.00  0.00    -0.335 N 
ATOM     15  H   UNL     1      -1.154   4.625  -2.372  1.00  0.00     0.165 HD
BRANCH  14  16
ATOM     16  C   UNL     1      -0.183   3.742  -3.935  1.00  0.00     0.152 C 
BRANCH  16  17
ATOM     17  C   UNL     1      -1.313   3.553  -5.015  1.00  0.00     0.083 C 
ATOM     18  C   UNL     1      -2.706   3.912  -4.523  1.00  0.00     0.044 C 
ATOM     19  C   UNL     1      -1.003   4.280  -6.324  1.00  0.00     0.039 C 
ATOM     20  O   UNL     1      -1.390   2.172  -5.410  1.00  0.00    -0.373 OA
ATOM     21  C   UNL     1      -1.709   3.443  -7.373  1.00  0.00     0.031 C 
ATOM     22  C   UNL     1      -1.625   2.045  -6.811  1.00  0.00     0.161 C 
ENDBRANCH  16  17
ENDBRANCH  14  16
ENDBRANCH   7  10
ENDBRANCH   4   7
ENDBRANCH   2   3
ENDBRANCH   1   2
BRANCH   1  23
ATOM     23  C   UNL     1      -3.723   2.851  -1.261  1.00  0.00     0.118 C 
BRANCH  23  24
ATOM     24  N   UNL     1      -4.738   3.025  -2.279  1.00  0.00    -0.352 N 
ATOM     25  C   UNL     1      -6.054   2.708  -2.043  1.00  0.00     0.251 C 
ATOM     26  H   UNL     1      -4.479   3.379  -3.160  1.00  0.00     0.163 HD
ATOM     27  O   UNL     1      -6.481   1.562  -2.135  1.00  0.00    -0.269 OA
BRANCH  25  28
ATOM     28  C   UNL     1      -6.909   3.853  -1.609  1.00  0.00     0.039 A 
ATOM     29  C   UNL     1      -8.289   3.665  -1.519  1.00  0.00     0.014 A 
ATOM     30  C   UNL     1      -6.330   5.027  -1.093  1.00  0.00     0.014 A 
ATOM     31  C   UNL     1      -9.066   4.577  -0.802  1.00  0.00     0.010 A 
ATOM     32  C   UNL     1      -7.093   5.905  -0.333  1.00  0.00     0.010 A 
ATOM     33  C   UNL     1      -8.452   5.648  -0.133  1.00  0.00    -0.014 A 
BRANCH  33  34
ATOM     34  C   UNL     1      -9.166   6.363   0.950  1.00  0.00     0.031 A 
ATOM     35  C   UNL     1      -9.511   7.813   0.826  1.00  0.00     0.074 A 
ATOM     36  C   UNL     1      -9.391   5.687   2.095  1.00  0.00     0.049 A 
ATOM     37  N   UNL     1     -10.160   8.579   1.663  1.00  0.00    -0.248 NA
ATOM     38  C   UNL     1      -9.030   8.503  -0.379  1.00  0.00     0.031 C 
ATOM     39  C   UNL     1      -8.965   4.305   2.351  1.00  0.00     0.029 A 
ATOM     40  N   UNL     1     -10.025   6.053   3.251  1.00  0.00    -0.354 N 
ATOM     41  C   UNL     1     -10.176   9.842   1.084  1.00  0.00     0.074 A 
ATOM     42  C   UNL     1      -9.408   9.751  -0.140  1.00  0.00     0.031 C 
ATOM     43  C   UNL     1      -9.393   3.927   3.565  1.00  0.00     0.029 A 
ATOM     44  C   UNL     1     -10.100   5.041   4.181  1.00  0.00     0.049 A 
ATOM     45  H   UNL     1     -10.391   6.954   3.404  1.00  0.00     0.167 HD
ATOM     46  C   UNL     1     -10.799  10.963   1.530  1.00  0.00     0.034 A 
ATOM     47  C   UNL     1     -10.694   5.012   5.389  1.00  0.00     0.034 A 
ATOM     48  C   UNL     1     -11.536  11.013   2.772  1.00  0.00     0.049 A 
ATOM     49  C   UNL     1     -11.434   6.244   5.832  1.00  0.00     0.074 A 
ATOM     50  C   UNL     1     -12.246  12.066   3.321  1.00  0.00     0.029 A 
ATOM     51  N   UNL     1     -11.645   9.954   3.670  1.00  0.00    -0.354 N 
ATOM     52  N   UNL     1     -11.534   7.407   5.227  1.00  0.00    -0.248 NA
ATOM     53  C   UNL     1     -12.162   6.153   7.101  1.00  0.00     0.031 C 
ATOM     54  C   UNL     1     -12.740  11.660   4.568  1.00  0.00     0.029 A 
ATOM     55  C   UNL     1     -12.394  10.334   4.773  1.00  0.00     0.049 A 
ATOM     56  H   UNL     1     -11.246   9.063   3.540  1.00  0.00     0.167 HD
ATOM     57  C   UNL     1     -12.352   8.184   6.038  1.00  0.00     0.074 A 
ATOM     58  C   UNL     1     -12.744   7.342   7.153  1.00  0.00     0.031 C 
ATOM     59  C   UNL     1     -12.743   9.476   5.883  1.00  0.00     0.034 A 
BRANCH  46  60
ATOM     60  C   UNL     1     -10.683  12.203   0.673  1.00  0.00     0.023 A 
ATOM     61  C   UNL     1     -11.167  12.227  -0.648  1.00  0.00     0.031 A 
ATOM     62  C   UNL     1     -10.037  13.355   1.153  1.00  0.00     0.131 A 
ATOM     63  C   UNL     1     -10.916  13.336  -1.471  1.00  0.00     0.055 A 
ATOM     64  C   UNL     1      -9.866  14.491   0.355  1.00  0.00     0.041 A 
ATOM     65  F   UNL     1      -9.535  13.391   2.397  1.00  0.00    -0.206 F 
ATOM     66  C   UNL     1     -10.290  14.479  -0.971  1.00  0.00     0.022 A 
BRANCH  63  67
ATOM     67  S   UNL     1     -11.279  13.199  -3.243  1.00  0.00     0.124 S 
ATOM     68  O   UNL     1     -10.418  12.084  -3.634  1.00  0.00    -0.237 OA
ATOM     69  O   UNL     1     -12.713  12.933  -3.254  1.00  0.00    -0.237 OA
ATOM     70  O   UNL     1     -10.881  14.499  -3.777  1.00  0.00    -0.744 OA
ENDBRANCH  63  67
ENDBRANCH  46  60
BRANCH  47  71
ATOM     71  C   UNL     1     -10.657   3.777   6.221  1.00  0.00     0.023 A 
ATOM     72  C   UNL     1     -11.825   3.042   6.479  1.00  0.00     0.031 A 
ATOM     73  C   UNL     1      -9.450   3.309   6.772  1.00  0.00     0.131 A 
ATOM     74  C   UNL     1     -11.772   1.903   7.296  1.00  0.00     0.055 A 
ATOM     75  C   UNL     1      -9.394   2.149   7.548  1.00  0.00     0.041 A 
ATOM     76  F   UNL     1      -8.301   3.964   6.543  1.00  0.00    -0.206 F 
ATOM     77  C   UNL     1     -10.562   1.445   7.824  1.00  0.00     0.022 A 
BRANCH  74  78
ATOM     78  S   UNL     1     -13.322   1.060   7.716  1.00  0.00     0.124 S 
ATOM     79  O   UNL     1     -14.102   2.143   8.306  1.00  0.00    -0.237 OA
ATOM     80  O   UNL     1     -13.771   0.584   6.412  1.00  0.00    -0.237 OA
ATOM     81  O   UNL     1     -12.901   0.016   8.648  1.00  0.00    -0.744 OA
ENDBRANCH  74  78
ENDBRANCH  47  71
BRANCH  59  82
ATOM     82  C   UNL     1     -13.646  10.027   6.956  1.00  0.00     0.023 A 
ATOM     83  C   UNL     1     -13.190  10.206   8.273  1.00  0.00     0.031 A 
ATOM     84  C   UNL     1     -14.989  10.327   6.670  1.00  0.00     0.131 A 
ATOM     85  C   UNL     1     -14.088  10.600   9.274  1.00  0.00     0.055 A 
ATOM     86  C   UNL     1     -15.863  10.781   7.657  1.00  0.00     0.041 A 
ATOM     87  F   UNL     1     -15.474  10.171   5.428  1.00  0.00    -0.206 F 
ATOM     88  C   UNL     1     -15.419  10.903   8.972  1.00  0.00     0.022 A 
BRANCH  85  89
ATOM     89  S   UNL     1     -13.522  10.595  10.996  1.00  0.00     0.124 S 
ATOM     90  O   UNL     1     -13.086   9.213  11.169  1.00  0.00    -0.237 OA
ATOM     91  O   UNL     1     -12.464  11.600  10.979  1.00  0.00    -0.237 OA
ATOM     92  O   UNL     1     -14.717  10.967  11.751  1.00  0.00    -0.744 OA
ENDBRANCH  85  89
ENDBRANCH  59  82
ENDBRANCH  33  34
ENDBRANCH  25  28
ENDBRANCH  23  24
ENDBRANCH   1  23
TORSDOF 17
