REMARK SMILES CNc1nccc(-c2cc(C(=O)NCCCNC(=O)c3ccc(-c4c5nc(c(-c6cc(S(=O)(=O)[O-])ccc6F)c6ccc([nH]6)c(-c6cc(S(=O)(=O)[O-])ccc6F)c6nc(c(-c7cc(S(=O)(=O)[O-])ccc7F)c7ccc4[nH]7)C=C6)C=C5)cc3)ccn2)n1
REMARK SMILES IDX 15 1 14 2 13 3 11 4 12 5 10 7 8 8 9 9 85 10 84 11 83 12 7 13
REMARK SMILES IDX 3 14 4 15 86 16 5 17 6 18 2 19 1 20 16 22 17 23 18 24 19 26
REMARK SMILES IDX 20 27 21 28 82 29 22 30 81 31 23 32 24 33 25 34 75 35 26 36
REMARK SMILES IDX 80 37 74 38 76 39 27 40 79 41 73 42 72 43 28 45 60 46 40 47
REMARK SMILES IDX 59 48 41 49 44 50 58 51 77 52 42 53 43 54 57 56 78 57 45 58
REMARK SMILES IDX 29 59 30 60 38 61 31 62 37 63 39 64 36 65 32 66 33 67 34 68
REMARK SMILES IDX 35 69 61 70 62 71 70 72 63 73 69 74 71 75 68 76 64 77 65 78
REMARK SMILES IDX 66 79 67 80 46 81 47 82 55 83 48 84 54 85 56 86 53 87 49 88
REMARK SMILES IDX 50 89 51 90 52 91
REMARK H PARENT 13 6 2 21 17 25 76 44 44 55
REMARK Flexibility Score: inf
ROOT
ATOM      1  C   UNL     1      -1.117  -0.147   7.079  1.00  0.00     0.042 C 
ENDROOT
BRANCH   1   2
ATOM      2  C   UNL     1      -2.509  -0.778   7.109  1.00  0.00     0.118 C 
BRANCH   2   3
ATOM      3  N   UNL     1      -3.547   0.237   7.056  1.00  0.00    -0.352 N 
ATOM      4  C   UNL     1      -4.331   0.721   6.041  1.00  0.00     0.251 C 
ATOM      5  O   UNL     1      -5.185   1.559   6.330  1.00  0.00    -0.269 OA
ATOM      6  H   UNL     1      -3.724   0.664   7.926  1.00  0.00     0.163 HD
BRANCH   4   7
ATOM      7  C   UNL     1      -4.255   0.234   4.637  1.00  0.00     0.043 A 
ATOM      8  C   UNL     1      -3.221  -0.879   2.779  1.00  0.00     0.090 A 
ATOM      9  C   UNL     1      -3.122  -0.320   4.051  1.00  0.00     0.044 A 
ATOM     10  N   UNL     1      -4.361  -0.820   2.046  1.00  0.00    -0.255 NA
ATOM     11  C   UNL     1      -5.414  -0.176   2.587  1.00  0.00     0.112 A 
ATOM     12  C   UNL     1      -5.417   0.340   3.869  1.00  0.00     0.034 A 
BRANCH   8  13
ATOM     13  C   UNL     1      -2.138  -1.719   2.253  1.00  0.00     0.094 A 
ATOM     14  C   UNL     1      -0.283  -1.924   0.919  1.00  0.00     0.222 A 
ATOM     15  N   UNL     1      -0.087  -3.197   1.288  1.00  0.00    -0.222 NA
ATOM     16  N   UNL     1      -1.283  -1.156   1.373  1.00  0.00    -0.211 NA
ATOM     17  C   UNL     1      -0.936  -3.715   2.187  1.00  0.00     0.117 A 
ATOM     18  C   UNL     1      -1.990  -3.015   2.710  1.00  0.00     0.051 A 
BRANCH  14  19
ATOM     19  N   UNL     1       0.665  -1.415   0.076  1.00  0.00    -0.357 N 
ATOM     20  C   UNL     1       0.830  -0.001  -0.091  1.00  0.00     0.143 C 
ATOM     21  H   UNL     1       1.245  -2.032  -0.427  1.00  0.00     0.163 HD
ENDBRANCH  14  19
ENDBRANCH   8  13
ENDBRANCH   4   7
ENDBRANCH   2   3
ENDBRANCH   1   2
BRANCH   1  22
ATOM     22  C   UNL     1      -0.713   0.481   8.412  1.00  0.00     0.118 C 
BRANCH  22  23
ATOM     23  N   UNL     1      -0.483  -0.530   9.434  1.00  0.00    -0.352 N 
ATOM     24  C   UNL     1       0.646  -0.805  10.166  1.00  0.00     0.251 C 
ATOM     25  H   UNL     1      -1.256  -1.105   9.631  1.00  0.00     0.163 HD
ATOM     26  O   UNL     1       0.705  -1.862  10.787  1.00  0.00    -0.269 OA
BRANCH  24  27
ATOM     27  C   UNL     1       1.779   0.148  10.202  1.00  0.00     0.039 A 
ATOM     28  C   UNL     1       3.083  -0.357  10.206  1.00  0.00     0.014 A 
ATOM     29  C   UNL     1       1.566   1.526  10.285  1.00  0.00     0.014 A 
ATOM     30  C   UNL     1       4.170   0.521  10.240  1.00  0.00     0.010 A 
ATOM     31  C   UNL     1       2.649   2.402  10.247  1.00  0.00     0.010 A 
ATOM     32  C   UNL     1       3.962   1.909  10.232  1.00  0.00    -0.014 A 
BRANCH  32  33
ATOM     33  C   UNL     1       5.105   2.860  10.215  1.00  0.00     0.031 A 
ATOM     34  C   UNL     1       5.332   3.792  11.374  1.00  0.00     0.074 A 
ATOM     35  C   UNL     1       5.897   2.927   9.128  1.00  0.00     0.049 A 
ATOM     36  N   UNL     1       6.222   4.741  11.514  1.00  0.00    -0.248 NA
ATOM     37  C   UNL     1       4.412   3.656  12.512  1.00  0.00     0.031 C 
ATOM     38  C   UNL     1       5.755   2.100   7.928  1.00  0.00     0.029 A 
ATOM     39  N   UNL     1       6.974   3.731   8.851  1.00  0.00    -0.354 N 
ATOM     40  C   UNL     1       5.961   5.327  12.749  1.00  0.00     0.074 A 
ATOM     41  C   UNL     1       4.787   4.666  13.281  1.00  0.00     0.031 C 
ATOM     42  C   UNL     1       6.724   2.420   7.057  1.00  0.00     0.029 A 
ATOM     43  C   UNL     1       7.527   3.505   7.612  1.00  0.00     0.049 A 
ATOM     44  H   UNL     1       7.318   4.405   9.480  1.00  0.00     0.167 HD
ATOM     45  C   UNL     1       6.650   6.307  13.388  1.00  0.00     0.034 A 
ATOM     46  C   UNL     1       8.557   4.110   6.990  1.00  0.00     0.034 A 
ATOM     47  C   UNL     1       7.821   6.950  12.839  1.00  0.00     0.049 A 
ATOM     48  C   UNL     1       9.287   5.220   7.699  1.00  0.00     0.074 A 
ATOM     49  C   UNL     1       8.630   7.912  13.419  1.00  0.00     0.029 A 
ATOM     50  N   UNL     1       8.345   6.704  11.575  1.00  0.00    -0.354 N 
ATOM     51  N   UNL     1       9.060   5.731   8.888  1.00  0.00    -0.248 NA
ATOM     52  C   UNL     1      10.417   5.827   6.986  1.00  0.00     0.031 C 
ATOM     53  C   UNL     1       9.595   8.299  12.481  1.00  0.00     0.029 A 
ATOM     54  C   UNL     1       9.441   7.522  11.343  1.00  0.00     0.049 A 
ATOM     55  H   UNL     1       7.988   6.045  10.936  1.00  0.00     0.167 HD
ATOM     56  C   UNL     1      10.039   6.703   9.075  1.00  0.00     0.074 A 
ATOM     57  C   UNL     1      10.863   6.695   7.883  1.00  0.00     0.031 C 
ATOM     58  C   UNL     1      10.242   7.521  10.140  1.00  0.00     0.034 A 
BRANCH  45  59
ATOM     59  C   UNL     1       6.123   6.756  14.733  1.00  0.00     0.023 A 
ATOM     60  C   UNL     1       6.013   5.867  15.818  1.00  0.00     0.031 A 
ATOM     61  C   UNL     1       5.669   8.074  14.921  1.00  0.00     0.131 A 
ATOM     62  C   UNL     1       5.372   6.273  16.998  1.00  0.00     0.055 A 
ATOM     63  C   UNL     1       5.119   8.499  16.132  1.00  0.00     0.041 A 
ATOM     64  F   UNL     1       5.729   8.967  13.921  1.00  0.00    -0.206 F 
ATOM     65  C   UNL     1       4.947   7.591  17.173  1.00  0.00     0.022 A 
BRANCH  62  66
ATOM     66  S   UNL     1       4.936   5.007  18.223  1.00  0.00     0.124 S 
ATOM     67  O   UNL     1       4.131   4.087  17.422  1.00  0.00    -0.237 OA
ATOM     68  O   UNL     1       6.242   4.513  18.644  1.00  0.00    -0.237 OA
ATOM     69  O   UNL     1       4.191   5.752  19.236  1.00  0.00    -0.744 OA
ENDBRANCH  62  66
ENDBRANCH  45  59
BRANCH  46  70
ATOM     70  C   UNL     1       8.961   3.679   5.622  1.00  0.00     0.023 A 
ATOM     71  C   UNL     1      10.199   3.056   5.401  1.00  0.00     0.031 A 
ATOM     72  C   UNL     1       8.121   3.893   4.515  1.00  0.00     0.131 A 
ATOM     73  C   UNL     1      10.578   2.697   4.098  1.00  0.00     0.055 A 
ATOM     74  C   UNL     1       8.482   3.492   3.228  1.00  0.00     0.041 A 
ATOM     75  F   UNL     1       6.923   4.477   4.676  1.00  0.00    -0.206 F 
ATOM     76  C   UNL     1       9.722   2.898   3.013  1.00  0.00     0.022 A 
BRANCH  73  77
ATOM     77  S   UNL     1      12.234   2.007   3.834  1.00  0.00     0.124 S 
ATOM     78  O   UNL     1      13.086   3.095   4.301  1.00  0.00    -0.237 OA
ATOM     79  O   UNL     1      12.202   0.812   4.670  1.00  0.00    -0.237 OA
ATOM     80  O   UNL     1      12.272   1.757   2.395  1.00  0.00    -0.744 OA
ENDBRANCH  73  77
ENDBRANCH  46  70
BRANCH  58  81
ATOM     81  C   UNL     1      11.430   8.450  10.069  1.00  0.00     0.023 A 
ATOM     82  C   UNL     1      11.491   9.506   9.143  1.00  0.00     0.031 A 
ATOM     83  C   UNL     1      12.525   8.263  10.932  1.00  0.00     0.131 A 
ATOM     84  C   UNL     1      12.646  10.300   9.063  1.00  0.00     0.055 A 
ATOM     85  C   UNL     1      13.645   9.094  10.890  1.00  0.00     0.041 A 
ATOM     86  F   UNL     1      12.523   7.268  11.833  1.00  0.00    -0.206 F 
ATOM     87  C   UNL     1      13.716  10.112   9.943  1.00  0.00     0.022 A 
BRANCH  84  88
ATOM     88  S   UNL     1      12.772  11.524   7.730  1.00  0.00     0.124 S 
ATOM     89  O   UNL     1      12.635  10.691   6.540  1.00  0.00    -0.237 OA
ATOM     90  O   UNL     1      11.653  12.415   8.018  1.00  0.00    -0.237 OA
ATOM     91  O   UNL     1      14.097  12.110   7.927  1.00  0.00    -0.744 OA
ENDBRANCH  84  88
ENDBRANCH  58  81
ENDBRANCH  32  33
ENDBRANCH  24  27
ENDBRANCH  22  23
ENDBRANCH   1  22
TORSDOF 15
