REMARK SMILES O=C(NCCCNC(=O)[C@@H](c1ccccc1)[C@H](C(=O)c1ccccc1)c1ccccc1)c1ccc(-c2c3nc(c(-c4cc(S(=O)(=O)[O-])ccc4F)c4ccc([nH]4)c(-c4cc(S(=O)(=O)[O-])ccc4F)c4nc(c(-c5cc(S(=O)(=O)[O-])ccc5F)c5ccc2[nH]5)C=C4)C=C3)cc1
REMARK SMILES IDX 5 1 4 2 3 3 1 4 2 5 32 7 33 8 94 9 34 10 93 11 35 12 36 13
REMARK SMILES IDX 37 14 87 15 38 16 92 17 86 18 88 19 39 20 91 21 85 22 84 23
REMARK SMILES IDX 40 25 72 26 52 27 71 28 53 29 56 30 70 31 89 32 54 33 55 34
REMARK SMILES IDX 69 36 90 37 57 38 41 39 42 40 50 41 43 42 49 43 51 44 48 45
REMARK SMILES IDX 44 46 45 47 46 48 47 49 73 50 74 51 82 52 75 53 81 54 83 55
REMARK SMILES IDX 80 56 76 57 77 58 78 59 79 60 58 61 59 62 67 63 60 64 66 65
REMARK SMILES IDX 68 66 65 67 61 68 62 69 63 70 64 71 6 72 7 73 8 74 9 76
REMARK SMILES IDX 10 77 11 78 12 79 16 80 13 81 15 82 14 83 17 84 26 85 27 86
REMARK SMILES IDX 31 87 28 88 30 89 29 90 18 91 19 92 20 93 21 94 25 95 22 96
REMARK SMILES IDX 24 97 23 98
REMARK H PARENT 3 6 88 24 56 35 7 75
REMARK Flexibility Score: inf
ROOT
ATOM      1  C   UNL     1       6.985  10.730  -0.436  1.00  0.00     0.042 C 
ENDROOT
BRANCH   1   2
ATOM      2  C   UNL     1       7.977  11.490   0.405  1.00  0.00     0.118 C 
BRANCH   2   3
ATOM      3  N   UNL     1       9.343  11.214  -0.025  1.00  0.00    -0.352 N 
ATOM      4  O   UNL     1      11.190  11.592  -1.268  1.00  0.00    -0.269 OA
ATOM      5  C   UNL     1      10.190  12.038  -0.732  1.00  0.00     0.251 C 
ATOM      6  H   UNL     1       9.704  10.331   0.220  1.00  0.00     0.163 HD
BRANCH   5   7
ATOM      7  C   UNL     1       9.838  13.470  -0.824  1.00  0.00     0.039 A 
ATOM      8  C   UNL     1       9.318  14.111   0.300  1.00  0.00     0.014 A 
ATOM      9  C   UNL     1       9.976  14.156  -2.031  1.00  0.00     0.014 A 
ATOM     10  C   UNL     1       8.745  15.360   0.172  1.00  0.00     0.010 A 
ATOM     11  C   UNL     1       9.563  15.489  -2.106  1.00  0.00     0.010 A 
ATOM     12  C   UNL     1       8.936  16.095  -1.005  1.00  0.00    -0.014 A 
BRANCH  12  13
ATOM     13  C   UNL     1       8.608  17.540  -0.974  1.00  0.00     0.031 A 
ATOM     14  C   UNL     1       7.605  18.142  -1.911  1.00  0.00     0.074 A 
ATOM     15  C   UNL     1       9.229  18.293  -0.041  1.00  0.00     0.049 A 
ATOM     16  N   UNL     1       7.239  19.392  -2.018  1.00  0.00    -0.248 NA
ATOM     17  C   UNL     1       6.933  17.236  -2.854  1.00  0.00     0.031 C 
ATOM     18  C   UNL     1      10.224  17.792   0.919  1.00  0.00     0.029 A 
ATOM     19  N   UNL     1       9.109  19.617   0.282  1.00  0.00    -0.354 N 
ATOM     20  C   UNL     1       6.318  19.434  -3.058  1.00  0.00     0.074 A 
ATOM     21  C   UNL     1       6.192  18.081  -3.559  1.00  0.00     0.031 C 
ATOM     22  C   UNL     1      10.562  18.773   1.763  1.00  0.00     0.029 A 
ATOM     23  C   UNL     1       9.914  20.000   1.331  1.00  0.00     0.049 A 
ATOM     24  H   UNL     1       8.505  20.236  -0.189  1.00  0.00     0.167 HD
ATOM     25  C   UNL     1       5.650  20.510  -3.541  1.00  0.00     0.034 A 
ATOM     26  C   UNL     1      10.149  21.214   1.859  1.00  0.00     0.034 A 
ATOM     27  C   UNL     1       5.795  21.846  -3.009  1.00  0.00     0.049 A 
ATOM     28  C   UNL     1       9.430  22.389   1.264  1.00  0.00     0.074 A 
ATOM     29  C   UNL     1       5.142  23.002  -3.400  1.00  0.00     0.029 A 
ATOM     30  N   UNL     1       6.658  22.209  -1.982  1.00  0.00    -0.354 N 
ATOM     31  N   UNL     1       8.553  22.408   0.286  1.00  0.00    -0.248 NA
ATOM     32  C   UNL     1       9.730  23.704   1.837  1.00  0.00     0.031 C 
ATOM     33  C   UNL     1       5.666  24.072  -2.667  1.00  0.00     0.029 A 
ATOM     34  C   UNL     1       6.582  23.575  -1.754  1.00  0.00     0.049 A 
ATOM     35  H   UNL     1       7.239  21.586  -1.487  1.00  0.00     0.167 HD
ATOM     36  C   UNL     1       8.182  23.739   0.142  1.00  0.00     0.074 A 
ATOM     37  C   UNL     1       8.906  24.483   1.153  1.00  0.00     0.031 C 
ATOM     38  C   UNL     1       7.324  24.299  -0.749  1.00  0.00     0.034 A 
BRANCH  25  39
ATOM     39  C   UNL     1       4.746  20.306  -4.733  1.00  0.00     0.023 A 
ATOM     40  C   UNL     1       3.577  19.530  -4.662  1.00  0.00     0.031 A 
ATOM     41  C   UNL     1       5.052  20.925  -5.959  1.00  0.00     0.131 A 
ATOM     42  C   UNL     1       2.780  19.359  -5.806  1.00  0.00     0.055 A 
ATOM     43  C   UNL     1       4.219  20.809  -7.073  1.00  0.00     0.041 A 
ATOM     44  F   UNL     1       6.168  21.660  -6.094  1.00  0.00    -0.206 F 
ATOM     45  C   UNL     1       3.079  20.015  -7.003  1.00  0.00     0.022 A 
BRANCH  42  46
ATOM     46  S   UNL     1       1.401  18.182  -5.738  1.00  0.00     0.124 S 
ATOM     47  O   UNL     1       2.091  16.937  -5.408  1.00  0.00    -0.237 OA
ATOM     48  O   UNL     1       0.559  18.742  -4.688  1.00  0.00    -0.237 OA
ATOM     49  O   UNL     1       0.837  18.236  -7.085  1.00  0.00    -0.744 OA
ENDBRANCH  42  46
ENDBRANCH  25  39
BRANCH  26  50
ATOM     50  C   UNL     1      11.148  21.384   2.952  1.00  0.00     0.023 A 
ATOM     51  C   UNL     1      10.776  21.918   4.193  1.00  0.00     0.031 A 
ATOM     52  C   UNL     1      12.505  21.060   2.755  1.00  0.00     0.131 A 
ATOM     53  C   UNL     1      11.755  22.171   5.166  1.00  0.00     0.055 A 
ATOM     54  C   UNL     1      13.462  21.243   3.752  1.00  0.00     0.041 A 
ATOM     55  F   UNL     1      12.919  20.543   1.587  1.00  0.00    -0.206 F 
ATOM     56  C   UNL     1      13.092  21.821   4.961  1.00  0.00     0.022 A 
BRANCH  53  57
ATOM     57  S   UNL     1      11.274  23.086   6.655  1.00  0.00     0.124 S 
ATOM     58  O   UNL     1      10.666  24.282   6.083  1.00  0.00    -0.237 OA
ATOM     59  O   UNL     1      10.361  22.149   7.302  1.00  0.00    -0.237 OA
ATOM     60  O   UNL     1      12.543  23.299   7.347  1.00  0.00    -0.744 OA
ENDBRANCH  53  57
ENDBRANCH  26  50
BRANCH  38  61
ATOM     61  C   UNL     1       7.102  25.785  -0.623  1.00  0.00     0.023 A 
ATOM     62  C   UNL     1       8.133  26.707  -0.870  1.00  0.00     0.031 A 
ATOM     63  C   UNL     1       5.851  26.280  -0.217  1.00  0.00     0.131 A 
ATOM     64  C   UNL     1       7.915  28.073  -0.642  1.00  0.00     0.055 A 
ATOM     65  C   UNL     1       5.619  27.646  -0.061  1.00  0.00     0.041 A 
ATOM     66  F   UNL     1       4.833  25.442   0.039  1.00  0.00    -0.206 F 
ATOM     67  C   UNL     1       6.659  28.550  -0.258  1.00  0.00     0.022 A 
BRANCH  64  68
ATOM     68  S   UNL     1       9.326  29.207  -0.746  1.00  0.00     0.124 S 
ATOM     69  O   UNL     1      10.233  28.654   0.254  1.00  0.00    -0.237 OA
ATOM     70  O   UNL     1       9.744  29.058  -2.137  1.00  0.00    -0.237 OA
ATOM     71  O   UNL     1       8.748  30.506  -0.409  1.00  0.00    -0.744 OA
ENDBRANCH  64  68
ENDBRANCH  38  61
ENDBRANCH  12  13
ENDBRANCH   5   7
ENDBRANCH   2   3
ENDBRANCH   1   2
BRANCH   1  72
ATOM     72  C   UNL     1       6.936   9.298   0.020  1.00  0.00     0.117 C 
BRANCH  72  73
ATOM     73  N   UNL     1       6.306   9.131   1.307  1.00  0.00    -0.355 N 
ATOM     74  C   UNL     1       5.116   8.575   1.640  1.00  0.00     0.228 C 
ATOM     75  H   UNL     1       6.826   9.478   2.068  1.00  0.00     0.163 HD
ATOM     76  O   UNL     1       4.774   8.676   2.825  1.00  0.00    -0.274 OA
BRANCH  74  77
ATOM     77  C   UNL     1       4.170   7.905   0.622  1.00  0.00     0.124 C 
BRANCH  77  78
ATOM     78  C   UNL     1       3.096   8.910   0.171  1.00  0.00    -0.035 A 
ATOM     79  C   UNL     1       3.321  10.300   0.228  1.00  0.00     0.004 A 
ATOM     80  C   UNL     1       1.878   8.470  -0.373  1.00  0.00     0.004 A 
ATOM     81  C   UNL     1       2.439  11.210  -0.353  1.00  0.00     0.000 A 
ATOM     82  C   UNL     1       0.989   9.386  -0.953  1.00  0.00     0.000 A 
ATOM     83  C   UNL     1       1.284  10.749  -0.968  1.00  0.00     0.000 A 
ENDBRANCH  77  78
BRANCH  77  84
ATOM     84  C   UNL     1       4.755   6.862  -0.446  1.00  0.00     0.108 C 
BRANCH  84  85
ATOM     85  C   UNL     1       5.173   7.364  -1.873  1.00  0.00    -0.036 A 
ATOM     86  C   UNL     1       6.317   6.887  -2.545  1.00  0.00     0.004 A 
ATOM     87  C   UNL     1       4.470   8.386  -2.539  1.00  0.00     0.004 A 
ATOM     88  C   UNL     1       6.786   7.491  -3.725  1.00  0.00     0.000 A 
ATOM     89  C   UNL     1       4.948   9.014  -3.694  1.00  0.00     0.000 A 
ATOM     90  C   UNL     1       6.123   8.579  -4.279  1.00  0.00     0.000 A 
ENDBRANCH  84  85
BRANCH  84  91
ATOM     91  C   UNL     1       5.763   5.802   0.151  1.00  0.00     0.171 C 
ATOM     92  O   UNL     1       5.986   4.723  -0.407  1.00  0.00    -0.293 OA
BRANCH  91  93
ATOM     93  C   UNL     1       6.546   6.026   1.395  1.00  0.00     0.018 A 
ATOM     94  C   UNL     1       7.903   6.371   1.322  1.00  0.00     0.012 A 
ATOM     95  C   UNL     1       5.935   5.886   2.644  1.00  0.00     0.012 A 
ATOM     96  C   UNL     1       8.601   6.716   2.486  1.00  0.00     0.001 A 
ATOM     97  C   UNL     1       6.635   6.237   3.803  1.00  0.00     0.001 A 
ATOM     98  C   UNL     1       7.957   6.676   3.723  1.00  0.00     0.000 A 
ENDBRANCH  91  93
ENDBRANCH  84  91
ENDBRANCH  77  84
ENDBRANCH  74  77
ENDBRANCH  72  73
ENDBRANCH   1  72
TORSDOF 18
