REMARK SMILES CC[C@@H]1CCCN(S(=O)(=O)c2cc(C(=O)NCCCNC(=O)c3ccc(-c4c5nc(c(-c6cc(S(=O)(=O)[O-])ccc6F)c6ccc([nH]6)c(-c6cc(S(=O)(=O)[O-])ccc6F)c6nc(c(-c7cc(S(=O)(=O)[O-])ccc7F)c7ccc4[nH]7)C=C6)C=C5)cc3)ccc2F)C1
REMARK SMILES IDX 18 1 17 2 16 3 14 4 15 5 13 7 11 8 12 9 88 10 87 11 89 12
REMARK SMILES IDX 86 13 8 14 9 15 10 16 7 17 3 18 4 19 90 20 5 21 6 22 2 23
REMARK SMILES IDX 1 24 19 25 20 26 21 27 22 29 23 30 24 31 85 32 25 33 84 34
REMARK SMILES IDX 26 35 27 36 28 37 78 38 29 39 83 40 77 41 79 42 30 43 82 44
REMARK SMILES IDX 76 45 75 46 31 48 63 49 43 50 62 51 44 52 47 53 61 54 80 55
REMARK SMILES IDX 45 56 46 57 60 59 81 60 48 61 32 62 33 63 41 64 34 65 40 66
REMARK SMILES IDX 42 67 39 68 35 69 36 70 37 71 38 72 64 73 65 74 73 75 66 76
REMARK SMILES IDX 72 77 74 78 71 79 67 80 68 81 69 82 70 83 49 84 50 85 58 86
REMARK SMILES IDX 51 87 57 88 59 89 56 90 52 91 53 92 54 93 55 94
REMARK H PARENT 16 6 20 28 79 47 47 58
REMARK Flexibility Score: inf
ROOT
ATOM      1  C   UNL     1      -8.458   4.262   3.962  1.00  0.00     0.042 C 
ENDROOT
BRANCH   1   2
ATOM      2  C   UNL     1      -7.727   3.757   2.717  1.00  0.00     0.118 C 
BRANCH   2   3
ATOM      3  N   UNL     1      -6.536   4.534   2.426  1.00  0.00    -0.352 N 
ATOM      4  C   UNL     1      -5.200   4.304   2.631  1.00  0.00     0.251 C 
ATOM      5  O   UNL     1      -4.409   5.105   2.132  1.00  0.00    -0.269 OA
ATOM      6  H   UNL     1      -6.725   5.399   1.997  1.00  0.00     0.163 HD
BRANCH   4   7
ATOM      7  C   UNL     1      -4.652   3.152   3.407  1.00  0.00     0.041 A 
ATOM      8  C   UNL     1      -2.683   1.810   3.951  1.00  0.00     0.119 A 
ATOM      9  C   UNL     1      -3.304   2.808   3.183  1.00  0.00     0.038 A 
ATOM     10  C   UNL     1      -3.401   1.159   4.944  1.00  0.00     0.143 A 
ATOM     11  C   UNL     1      -4.736   1.470   5.163  1.00  0.00     0.041 A 
ATOM     12  F   UNL     1      -2.842   0.215   5.712  1.00  0.00    -0.206 F 
ATOM     13  C   UNL     1      -5.351   2.478   4.415  1.00  0.00     0.017 A 
BRANCH   8  14
ATOM     14  S   UNL     1      -0.943   1.550   3.829  1.00  0.00     0.246 S 
ATOM     15  O   UNL     1      -0.412   1.352   5.164  1.00  0.00    -0.207 OA
ATOM     16  O   UNL     1      -0.404   2.601   2.993  1.00  0.00    -0.207 OA
BRANCH  14  17
ATOM     17  N   UNL     1      -0.726   0.068   2.957  1.00  0.00    -0.197 NA
ATOM     18  C   UNL     1       0.976  -1.355   1.790  1.00  0.00     0.004 C 
ATOM     19  C   UNL     1       0.347  -2.605   2.423  1.00  0.00     0.006 C 
ATOM     20  C   UNL     1       0.740  -0.153   2.711  1.00  0.00     0.106 C 
ATOM     21  C   UNL     1      -1.123  -2.385   2.756  1.00  0.00     0.017 C 
ATOM     22  C   UNL     1      -1.337  -1.132   3.603  1.00  0.00     0.102 C 
BRANCH  18  23
ATOM     23  C   UNL     1       0.474  -1.144   0.347  1.00  0.00     0.001 C 
ATOM     24  C   UNL     1       1.098   0.056  -0.350  1.00  0.00     0.004 C 
ENDBRANCH  18  23
ENDBRANCH  14  17
ENDBRANCH   8  14
ENDBRANCH   4   7
ENDBRANCH   2   3
ENDBRANCH   1   2
BRANCH   1  25
ATOM     25  C   UNL     1      -9.223   5.570   3.757  1.00  0.00     0.118 C 
BRANCH  25  26
ATOM     26  N   UNL     1     -10.337   5.411   2.838  1.00  0.00    -0.352 N 
ATOM     27  C   UNL     1     -11.681   5.625   3.008  1.00  0.00     0.251 C 
ATOM     28  H   UNL     1     -10.084   5.095   1.941  1.00  0.00     0.163 HD
ATOM     29  O   UNL     1     -12.449   5.181   2.156  1.00  0.00    -0.269 OA
BRANCH  27  30
ATOM     30  C   UNL     1     -12.221   6.364   4.175  1.00  0.00     0.039 A 
ATOM     31  C   UNL     1     -13.476   5.989   4.669  1.00  0.00     0.014 A 
ATOM     32  C   UNL     1     -11.568   7.470   4.729  1.00  0.00     0.014 A 
ATOM     33  C   UNL     1     -14.055   6.695   5.726  1.00  0.00     0.010 A 
ATOM     34  C   UNL     1     -12.118   8.135   5.829  1.00  0.00     0.010 A 
ATOM     35  C   UNL     1     -13.374   7.764   6.329  1.00  0.00    -0.014 A 
BRANCH  35  36
ATOM     36  C   UNL     1     -13.984   8.495   7.471  1.00  0.00     0.031 A 
ATOM     37  C   UNL     1     -14.402   9.934   7.326  1.00  0.00     0.074 A 
ATOM     38  C   UNL     1     -14.161   7.857   8.645  1.00  0.00     0.049 A 
ATOM     39  N   UNL     1     -14.970  10.720   8.205  1.00  0.00    -0.248 NA
ATOM     40  C   UNL     1     -14.126  10.581   6.035  1.00  0.00     0.031 C 
ATOM     41  C   UNL     1     -13.765   6.473   8.917  1.00  0.00     0.029 A 
ATOM     42  N   UNL     1     -14.730   8.276   9.821  1.00  0.00    -0.354 N 
ATOM     43  C   UNL     1     -15.113  11.953   7.579  1.00  0.00     0.074 A 
ATOM     44  C   UNL     1     -14.524  11.825   6.263  1.00  0.00     0.031 C 
ATOM     45  C   UNL     1     -14.148   6.144  10.160  1.00  0.00     0.029 A 
ATOM     46  C   UNL     1     -14.782   7.299  10.788  1.00  0.00     0.049 A 
ATOM     47  H   UNL     1     -15.069   9.190   9.960  1.00  0.00     0.167 HD
ATOM     48  C   UNL     1     -15.700  13.081   8.049  1.00  0.00     0.034 A 
ATOM     49  C   UNL     1     -15.289   7.324  12.036  1.00  0.00     0.034 A 
ATOM     50  C   UNL     1     -16.308  13.187   9.352  1.00  0.00     0.049 A 
ATOM     51  C   UNL     1     -15.931   8.586  12.542  1.00  0.00     0.074 A 
ATOM     52  C   UNL     1     -16.986  14.263   9.899  1.00  0.00     0.029 A 
ATOM     53  N   UNL     1     -16.309  12.185  10.312  1.00  0.00    -0.354 N 
ATOM     54  N   UNL     1     -16.079   9.735  11.925  1.00  0.00    -0.248 NA
ATOM     55  C   UNL     1     -16.475   8.559  13.907  1.00  0.00     0.031 C 
ATOM     56  C   UNL     1     -17.347  13.932  11.209  1.00  0.00     0.029 A 
ATOM     57  C   UNL     1     -16.950  12.627  11.457  1.00  0.00     0.049 A 
ATOM     58  H   UNL     1     -15.913  11.291  10.196  1.00  0.00     0.167 HD
ATOM     59  C   UNL     1     -16.750  10.562  12.819  1.00  0.00     0.074 A 
ATOM     60  C   UNL     1     -16.976   9.783  14.020  1.00  0.00     0.031 C 
ATOM     61  C   UNL     1     -17.152  11.846  12.652  1.00  0.00     0.034 A 
BRANCH  48  62
ATOM     62  C   UNL     1     -15.701  14.296   7.156  1.00  0.00     0.023 A 
ATOM     63  C   UNL     1     -16.435  14.328   5.959  1.00  0.00     0.031 A 
ATOM     64  C   UNL     1     -14.969  15.441   7.514  1.00  0.00     0.131 A 
ATOM     65  C   UNL     1     -16.378  15.462   5.134  1.00  0.00     0.055 A 
ATOM     66  C   UNL     1     -14.969  16.591   6.723  1.00  0.00     0.041 A 
ATOM     67  F   UNL     1     -14.237  15.460   8.640  1.00  0.00    -0.206 F 
ATOM     68  C   UNL     1     -15.669  16.602   5.520  1.00  0.00     0.022 A 
BRANCH  65  69
ATOM     69  S   UNL     1     -17.167  15.391   3.504  1.00  0.00     0.124 S 
ATOM     70  O   UNL     1     -16.384  14.349   2.844  1.00  0.00    -0.237 OA
ATOM     71  O   UNL     1     -18.544  15.043   3.833  1.00  0.00    -0.237 OA
ATOM     72  O   UNL     1     -16.975  16.738   2.971  1.00  0.00    -0.744 OA
ENDBRANCH  65  69
ENDBRANCH  48  62
BRANCH  49  73
ATOM     73  C   UNL     1     -15.215   6.102  12.881  1.00  0.00     0.023 A 
ATOM     74  C   UNL     1     -16.360   5.334  13.139  1.00  0.00     0.031 A 
ATOM     75  C   UNL     1     -13.986   5.660  13.399  1.00  0.00     0.131 A 
ATOM     76  C   UNL     1     -16.254   4.162  13.905  1.00  0.00     0.055 A 
ATOM     77  C   UNL     1     -13.880   4.480  14.136  1.00  0.00     0.041 A 
ATOM     78  F   UNL     1     -12.861   6.355  13.162  1.00  0.00    -0.206 F 
ATOM     79  C   UNL     1     -15.020   3.724  14.394  1.00  0.00     0.022 A 
BRANCH  76  80
ATOM     80  S   UNL     1     -17.756   3.207  14.253  1.00  0.00     0.124 S 
ATOM     81  O   UNL     1     -18.499   4.124  15.109  1.00  0.00    -0.237 OA
ATOM     82  O   UNL     1     -18.299   2.990  12.916  1.00  0.00    -0.237 OA
ATOM     83  O   UNL     1     -17.248   2.006  14.915  1.00  0.00    -0.744 OA
ENDBRANCH  76  80
ENDBRANCH  49  73
BRANCH  61  84
ATOM     84  C   UNL     1     -17.902  12.494  13.783  1.00  0.00     0.023 A 
ATOM     85  C   UNL     1     -17.241  12.950  14.934  1.00  0.00     0.031 A 
ATOM     86  C   UNL     1     -19.284  12.728  13.665  1.00  0.00     0.131 A 
ATOM     87  C   UNL     1     -17.968  13.611  15.935  1.00  0.00     0.055 A 
ATOM     88  C   UNL     1     -19.994  13.418  14.646  1.00  0.00     0.041 A 
ATOM     89  F   UNL     1     -19.955  12.315  12.578  1.00  0.00    -0.206 F 
ATOM     90  C   UNL     1     -19.337  13.863  15.790  1.00  0.00     0.022 A 
BRANCH  87  91
ATOM     91  S   UNL     1     -17.105  14.148  17.437  1.00  0.00     0.124 S 
ATOM     92  O   UNL     1     -16.808  12.875  18.084  1.00  0.00    -0.237 OA
ATOM     93  O   UNL     1     -15.958  14.875  16.903  1.00  0.00    -0.237 OA
ATOM     94  O   UNL     1     -18.095  14.977  18.123  1.00  0.00    -0.744 OA
ENDBRANCH  87  91
ENDBRANCH  61  84
ENDBRANCH  35  36
ENDBRANCH  27  30
ENDBRANCH  25  26
ENDBRANCH   1  25
TORSDOF 16
