REMARK SMILES NC(=O)C[C@H](C(=O)NCCCNC(=O)c1ccc(-c2c3nc(c(-c4cc(S(=O)(=O)[O-])ccc4F)c4ccc([nH]4)c(-c4cc(S(=O)(=O)[O-])ccc4F)c4nc(c(-c5cc(S(=O)(=O)[O-])ccc5F)c5ccc2[nH]5)C=C4)C=C3)cc1)N1C(=O)/C(=C/c2ccccc2)SC1=S
REMARK SMILES IDX 10 1 9 2 8 3 6 4 7 5 5 7 4 8 2 9 1 10 3 13 78 14 79 15 90 16
REMARK SMILES IDX 80 17 81 18 89 19 91 20 82 21 83 22 84 23 88 24 85 25 87 26
REMARK SMILES IDX 86 27 11 28 12 29 13 30 14 32 15 33 16 34 77 35 17 36 76 37
REMARK SMILES IDX 18 38 19 39 20 40 70 41 21 42 75 43 69 44 71 45 22 46 74 47
REMARK SMILES IDX 68 48 67 49 23 51 55 52 35 53 54 54 36 55 39 56 53 57 72 58
REMARK SMILES IDX 37 59 38 60 52 62 73 63 40 64 24 65 25 66 33 67 26 68 32 69
REMARK SMILES IDX 34 70 31 71 27 72 28 73 29 74 30 75 56 76 57 77 65 78 58 79
REMARK SMILES IDX 64 80 66 81 63 82 59 83 60 84 61 85 62 86 41 87 42 88 50 89
REMARK SMILES IDX 43 90 49 91 51 92 48 93 44 94 45 95 46 96 47 97
REMARK H PARENT 8 6 1 11 1 12 12 31 71 50 39 61
REMARK Flexibility Score: inf
ROOT
ATOM      1  C   UNL     1      -1.225   3.162  -2.265  1.00  0.00     0.042 C 
ENDROOT
BRANCH   1   2
ATOM      2  C   UNL     1      -0.364   2.343  -1.313  1.00  0.00     0.117 C 
BRANCH   2   3
ATOM      3  N   UNL     1      -0.021   1.053  -1.888  1.00  0.00    -0.354 N 
ATOM      4  C   UNL     1       1.114   0.647  -2.527  1.00  0.00     0.243 C 
ATOM      5  O   UNL     1       1.051  -0.395  -3.179  1.00  0.00    -0.273 OA
ATOM      6  H   UNL     1      -0.719   0.363  -1.802  1.00  0.00     0.163 HD
BRANCH   4   7
ATOM      7  C   UNL     1       2.410   1.472  -2.399  1.00  0.00     0.190 C 
BRANCH   7   8
ATOM      8  C   UNL     1       3.301   1.132  -1.203  1.00  0.00     0.135 C 
BRANCH   8   9
ATOM      9  C   UNL     1       2.527   0.660   0.002  1.00  0.00     0.220 C 
ATOM     10  N   UNL     1       2.006   1.632   0.799  1.00  0.00    -0.370 N 
ATOM     11  H   UNL     1       1.490   1.387   1.601  1.00  0.00     0.159 HD
ATOM     12  H   UNL     1       2.144   2.580   0.573  1.00  0.00     0.159 HD
ATOM     13  O   UNL     1       2.359  -0.523   0.270  1.00  0.00    -0.275 OA
ENDBRANCH   8   9
ENDBRANCH   7   8
BRANCH   7  14
ATOM     14  N   UNL     1       3.114   1.578  -3.700  1.00  0.00    -0.280 N 
ATOM     15  C   UNL     1       3.066   2.806  -4.346  1.00  0.00     0.266 C 
ATOM     16  C   UNL     1       3.805   0.576  -4.361  1.00  0.00     0.149 C 
ATOM     17  O   UNL     1       2.535   3.823  -3.914  1.00  0.00    -0.268 OA
ATOM     18  C   UNL     1       3.794   2.758  -5.636  1.00  0.00     0.081 C 
ATOM     19  S   UNL     1       4.389   1.177  -5.914  1.00  0.00    -0.054 SA
ATOM     20  S   UNL     1       4.165  -0.983  -3.887  1.00  0.00    -0.052 S 
ATOM     21  C   UNL     1       3.955   3.848  -6.398  1.00  0.00     0.029 C 
BRANCH  21  22
ATOM     22  C   UNL     1       4.658   3.889  -7.683  1.00  0.00    -0.024 A 
ATOM     23  C   UNL     1       5.867   4.583  -7.796  1.00  0.00     0.008 A 
ATOM     24  C   UNL     1       4.120   3.258  -8.810  1.00  0.00     0.008 A 
ATOM     25  C   UNL     1       6.538   4.631  -9.020  1.00  0.00     0.001 A 
ATOM     26  C   UNL     1       4.792   3.306 -10.033  1.00  0.00     0.001 A 
ATOM     27  C   UNL     1       6.001   3.990 -10.137  1.00  0.00     0.000 A 
ENDBRANCH  21  22
ENDBRANCH   7  14
ENDBRANCH   4   7
ENDBRANCH   2   3
ENDBRANCH   1   2
BRANCH   1  28
ATOM     28  C   UNL     1      -2.601   2.548  -2.505  1.00  0.00     0.118 C 
BRANCH  28  29
ATOM     29  N   UNL     1      -3.365   2.428  -1.270  1.00  0.00    -0.352 N 
ATOM     30  C   UNL     1      -4.493   3.094  -0.862  1.00  0.00     0.251 C 
ATOM     31  H   UNL     1      -3.019   1.766  -0.630  1.00  0.00     0.163 HD
ATOM     32  O   UNL     1      -4.806   3.067   0.325  1.00  0.00    -0.269 OA
BRANCH  30  33
ATOM     33  C   UNL     1      -5.318   3.836  -1.839  1.00  0.00     0.039 A 
ATOM     34  C   UNL     1      -5.917   5.037  -1.454  1.00  0.00     0.014 A 
ATOM     35  C   UNL     1      -5.540   3.324  -3.121  1.00  0.00     0.014 A 
ATOM     36  C   UNL     1      -6.698   5.746  -2.369  1.00  0.00     0.010 A 
ATOM     37  C   UNL     1      -6.236   4.077  -4.059  1.00  0.00     0.010 A 
ATOM     38  C   UNL     1      -6.843   5.284  -3.687  1.00  0.00    -0.014 A 
BRANCH  38  39
ATOM     39  C   UNL     1      -7.665   6.023  -4.679  1.00  0.00     0.031 A 
ATOM     40  C   UNL     1      -8.888   5.371  -5.270  1.00  0.00     0.074 A 
ATOM     41  C   UNL     1      -7.280   7.248  -5.085  1.00  0.00     0.049 A 
ATOM     42  N   UNL     1      -9.696   5.812  -6.200  1.00  0.00    -0.248 NA
ATOM     43  C   UNL     1      -9.221   4.026  -4.776  1.00  0.00     0.031 C 
ATOM     44  C   UNL     1      -6.085   7.957  -4.620  1.00  0.00     0.029 A 
ATOM     45  N   UNL     1      -7.848   8.113  -5.985  1.00  0.00    -0.354 N 
ATOM     46  C   UNL     1     -10.618   4.792  -6.415  1.00  0.00     0.074 A 
ATOM     47  C   UNL     1     -10.223   3.685  -5.571  1.00  0.00     0.031 C 
ATOM     48  C   UNL     1      -6.028   9.159  -5.215  1.00  0.00     0.029 A 
ATOM     49  C   UNL     1      -7.154   9.291  -6.133  1.00  0.00     0.049 A 
ATOM     50  H   UNL     1      -8.675   7.909  -6.480  1.00  0.00     0.167 HD
ATOM     51  C   UNL     1     -11.711   4.790  -7.219  1.00  0.00     0.034 A 
ATOM     52  C   UNL     1      -7.399  10.355  -6.923  1.00  0.00     0.034 A 
ATOM     53  C   UNL     1     -12.099   5.914  -8.036  1.00  0.00     0.049 A 
ATOM     54  C   UNL     1      -8.624  10.335  -7.802  1.00  0.00     0.074 A 
ATOM     55  C   UNL     1     -13.211   6.048  -8.849  1.00  0.00     0.029 A 
ATOM     56  N   UNL     1     -11.385   7.101  -8.143  1.00  0.00    -0.354 N 
ATOM     57  N   UNL     1      -9.516   9.383  -7.956  1.00  0.00    -0.248 NA
ATOM     58  C   UNL     1      -8.883  11.540  -8.598  1.00  0.00     0.031 C 
ATOM     59  C   UNL     1     -13.136   7.288  -9.493  1.00  0.00     0.029 A 
ATOM     60  C   UNL     1     -12.019   7.963  -9.026  1.00  0.00     0.049 A 
ATOM     61  H   UNL     1     -10.550   7.302  -7.662  1.00  0.00     0.167 HD
ATOM     62  C   UNL     1     -10.459   9.889  -8.846  1.00  0.00     0.074 A 
ATOM     63  C   UNL     1     -10.037  11.237  -9.172  1.00  0.00     0.031 C 
ATOM     64  C   UNL     1     -11.574   9.298  -9.349  1.00  0.00     0.034 A 
BRANCH  51  65
ATOM     65  C   UNL     1     -12.539   3.526  -7.261  1.00  0.00     0.023 A 
ATOM     66  C   UNL     1     -13.176   3.022  -6.112  1.00  0.00     0.031 A 
ATOM     67  C   UNL     1     -12.660   2.790  -8.452  1.00  0.00     0.131 A 
ATOM     68  C   UNL     1     -13.826   1.779  -6.157  1.00  0.00     0.055 A 
ATOM     69  C   UNL     1     -13.385   1.597  -8.512  1.00  0.00     0.041 A 
ATOM     70  F   UNL     1     -12.059   3.206  -9.578  1.00  0.00    -0.206 F 
ATOM     71  C   UNL     1     -13.958   1.075  -7.356  1.00  0.00     0.022 A 
BRANCH  68  72
ATOM     72  S   UNL     1     -14.357   1.024  -4.596  1.00  0.00     0.124 S 
ATOM     73  O   UNL     1     -13.091   0.920  -3.874  1.00  0.00    -0.237 OA
ATOM     74  O   UNL     1     -15.308   2.001  -4.079  1.00  0.00    -0.237 OA
ATOM     75  O   UNL     1     -14.935  -0.253  -5.011  1.00  0.00    -0.744 OA
ENDBRANCH  68  72
ENDBRANCH  51  65
BRANCH  52  76
ATOM     76  C   UNL     1      -6.480  11.529  -6.918  1.00  0.00     0.023 A 
ATOM     77  C   UNL     1      -6.915  12.786  -6.469  1.00  0.00     0.031 A 
ATOM     78  C   UNL     1      -5.164  11.421  -7.401  1.00  0.00     0.131 A 
ATOM     79  C   UNL     1      -6.062  13.896  -6.558  1.00  0.00     0.055 A 
ATOM     80  C   UNL     1      -4.300  12.517  -7.438  1.00  0.00     0.041 A 
ATOM     81  F   UNL     1      -4.693  10.240  -7.833  1.00  0.00    -0.206 F 
ATOM     82  C   UNL     1      -4.753  13.768  -7.029  1.00  0.00     0.022 A 
BRANCH  79  83
ATOM     83  S   UNL     1      -6.717  15.531  -6.128  1.00  0.00     0.124 S 
ATOM     84  O   UNL     1      -7.847  15.649  -7.041  1.00  0.00    -0.237 OA
ATOM     85  O   UNL     1      -7.047  15.362  -4.716  1.00  0.00    -0.237 OA
ATOM     86  O   UNL     1      -5.596  16.429  -6.400  1.00  0.00    -0.744 OA
ENDBRANCH  79  83
ENDBRANCH  52  76
BRANCH  64  87
ATOM     87  C   UNL     1     -12.428  10.134 -10.271  1.00  0.00     0.023 A 
ATOM     88  C   UNL     1     -11.958  10.568 -11.523  1.00  0.00     0.031 A 
ATOM     89  C   UNL     1     -13.718  10.531  -9.876  1.00  0.00     0.131 A 
ATOM     90  C   UNL     1     -12.741  11.432 -12.302  1.00  0.00     0.055 A 
ATOM     91  C   UNL     1     -14.520  11.335 -10.686  1.00  0.00     0.041 A 
ATOM     92  F   UNL     1     -14.218  10.148  -8.690  1.00  0.00    -0.206 F 
ATOM     93  C   UNL     1     -14.026  11.805 -11.899  1.00  0.00     0.022 A 
BRANCH  90  94
ATOM     94  S   UNL     1     -12.008  12.161 -13.793  1.00  0.00     0.124 S 
ATOM     95  O   UNL     1     -10.815  12.810 -13.258  1.00  0.00    -0.237 OA
ATOM     96  O   UNL     1     -11.775  10.989 -14.630  1.00  0.00    -0.237 OA
ATOM     97  O   UNL     1     -13.045  13.071 -14.275  1.00  0.00    -0.744 OA
ENDBRANCH  90  94
ENDBRANCH  64  87
ENDBRANCH  38  39
ENDBRANCH  30  33
ENDBRANCH  28  29
ENDBRANCH   1  28
TORSDOF 17
