REMARK SMILES [NH3+][C@H]1C=C[C@@H](C(=O)NC2(CC(=O)NCCCNC(=O)c3ccc(-c4c5nc(c(-c6cc(S(=O)(=O)[O-])ccc6F)c6ccc([nH]6)c(-c6cc(S(=O)(=O)[O-])ccc6F)c6nc(c(-c7cc(S(=O)(=O)[O-])ccc7F)c7ccc4[nH]7)C=C6)C=C5)cc3)CCC2)C1
REMARK SMILES IDX 14 1 13 2 11 3 12 4 10 6 9 7 83 8 85 9 84 10 8 11 6 12 7 13
REMARK SMILES IDX 5 15 2 16 3 17 86 18 4 19 1 20 15 24 16 25 17 26 18 27 19 29
REMARK SMILES IDX 20 30 21 31 82 32 22 33 81 34 23 35 24 36 25 37 75 38 26 39
REMARK SMILES IDX 80 40 74 41 76 42 27 43 79 44 73 45 72 46 28 48 60 49 40 50
REMARK SMILES IDX 59 51 41 52 44 53 58 54 77 55 42 56 43 57 57 59 78 60 45 61
REMARK SMILES IDX 29 62 30 63 38 64 31 65 37 66 39 67 36 68 32 69 33 70 34 71
REMARK SMILES IDX 35 72 61 73 62 74 70 75 63 76 69 77 71 78 68 79 64 80 65 81
REMARK SMILES IDX 66 82 67 83 46 84 47 85 55 86 48 87 54 88 56 89 53 90 49 91
REMARK SMILES IDX 50 92 51 93 52 94
REMARK H PARENT 13 5 8 14 1 21 1 22 1 23 17 28 76 47 44 58
REMARK Flexibility Score: inf
ROOT
ATOM      1  C   UNL     1       4.614  -2.030  -4.430  1.00  0.00     0.117 C 
ENDROOT
BRANCH   1   2
ATOM      2  N   UNL     1       4.007  -3.292  -4.806  1.00  0.00    -0.356 N 
ATOM      3  C   UNL     1       2.709  -3.678  -4.712  1.00  0.00     0.222 C 
ATOM      4  O   UNL     1       2.441  -4.876  -4.830  1.00  0.00    -0.275 OA
ATOM      5  H   UNL     1       4.622  -3.962  -5.183  1.00  0.00     0.163 HD
BRANCH   3   6
ATOM      6  C   UNL     1       1.605  -2.672  -4.490  1.00  0.00     0.128 C 
BRANCH   6   7
ATOM      7  C   UNL     1       1.081  -2.503  -3.039  1.00  0.00     0.049 C 
ATOM      8  C   UNL     1      -0.175  -1.594  -3.078  1.00  0.00     0.029 C 
ATOM      9  C   UNL     1       1.787  -1.389  -2.239  1.00  0.00     0.029 C 
ATOM     10  C   UNL     1       0.720  -0.396  -2.718  1.00  0.00     0.005 C 
BRANCH   7  11
ATOM     11  N   UNL     1       0.946  -3.833  -2.395  1.00  0.00    -0.350 N 
ATOM     12  C   UNL     1       0.526  -4.388  -1.230  1.00  0.00     0.227 C 
ATOM     13  O   UNL     1       0.663  -5.624  -1.187  1.00  0.00    -0.274 OA
ATOM     14  H   UNL     1       1.261  -4.536  -3.008  1.00  0.00     0.164 HD
BRANCH  12  15
ATOM     15  C   UNL     1      -0.082  -3.716   0.008  1.00  0.00     0.107 C 
ATOM     16  C   UNL     1       0.078  -1.604   1.264  1.00  0.00     0.205 C 
ATOM     17  C   UNL     1      -1.183  -1.704   0.474  1.00  0.00     0.033 C 
ATOM     18  C   UNL     1       0.850  -2.886   0.894  1.00  0.00     0.087 C 
ATOM     19  C   UNL     1      -1.278  -2.855  -0.199  1.00  0.00    -0.012 C 
BRANCH  16  20
ATOM     20  N   UNL     1       0.800  -0.391   0.926  1.00  0.00    -0.352 N 
ATOM     21  H   UNL     1       0.243   0.421   1.192  1.00  0.00     0.345 HD
ATOM     22  H   UNL     1       0.976  -0.369  -0.079  1.00  0.00     0.345 HD
ATOM     23  H   UNL     1       1.688  -0.373   1.427  1.00  0.00     0.345 HD
ENDBRANCH  16  20
ENDBRANCH  12  15
ENDBRANCH   7  11
ENDBRANCH   6   7
ENDBRANCH   3   6
ENDBRANCH   1   2
BRANCH   1  24
ATOM     24  C   UNL     1       5.157  -2.098  -3.003  1.00  0.00     0.042 C 
BRANCH  24  25
ATOM     25  C   UNL     1       6.485  -2.836  -2.890  1.00  0.00     0.118 C 
BRANCH  25  26
ATOM     26  N   UNL     1       7.576  -2.058  -3.451  1.00  0.00    -0.352 N 
ATOM     27  C   UNL     1       8.691  -1.527  -2.853  1.00  0.00     0.251 C 
ATOM     28  H   UNL     1       7.503  -1.883  -4.417  1.00  0.00     0.163 HD
ATOM     29  O   UNL     1       9.327  -0.673  -3.466  1.00  0.00    -0.269 OA
BRANCH  27  30
ATOM     30  C   UNL     1       9.131  -1.954  -1.501  1.00  0.00     0.039 A 
ATOM     31  C   UNL     1       9.791  -1.021  -0.693  1.00  0.00     0.014 A 
ATOM     32  C   UNL     1       8.984  -3.268  -1.049  1.00  0.00     0.014 A 
ATOM     33  C   UNL     1      10.275  -1.397   0.563  1.00  0.00     0.010 A 
ATOM     34  C   UNL     1       9.390  -3.621   0.239  1.00  0.00     0.010 A 
ATOM     35  C   UNL     1      10.063  -2.697   1.050  1.00  0.00    -0.014 A 
BRANCH  35  36
ATOM     36  C   UNL     1      10.591  -3.109   2.379  1.00  0.00     0.031 A 
ATOM     37  C   UNL     1      11.653  -4.176   2.473  1.00  0.00     0.074 A 
ATOM     38  C   UNL     1      10.108  -2.535   3.498  1.00  0.00     0.049 A 
ATOM     39  N   UNL     1      12.224  -4.686   3.535  1.00  0.00    -0.248 NA
ATOM     40  C   UNL     1      12.113  -4.765   1.207  1.00  0.00     0.031 C 
ATOM     41  C   UNL     1       9.058  -1.515   3.539  1.00  0.00     0.029 A 
ATOM     42  N   UNL     1      10.439  -2.720   4.817  1.00  0.00    -0.354 N 
ATOM     43  C   UNL     1      13.104  -5.656   3.066  1.00  0.00     0.074 A 
ATOM     44  C   UNL     1      12.936  -5.712   1.629  1.00  0.00     0.031 C 
ATOM     45  C   UNL     1       8.859  -1.138   4.812  1.00  0.00     0.029 A 
ATOM     46  C   UNL     1       9.735  -1.915   5.683  1.00  0.00     0.049 A 
ATOM     47  H   UNL     1      11.116  -3.369   5.116  1.00  0.00     0.167 HD
ATOM     48  C   UNL     1      13.993  -6.410   3.761  1.00  0.00     0.034 A 
ATOM     49  C   UNL     1       9.791  -1.815   7.026  1.00  0.00     0.034 A 
ATOM     50  C   UNL     1      14.159  -6.337   5.192  1.00  0.00     0.049 A 
ATOM     51  C   UNL     1      10.773  -2.678   7.779  1.00  0.00     0.074 A 
ATOM     52  C   UNL     1      15.043  -7.035   5.998  1.00  0.00     0.029 A 
ATOM     53  N   UNL     1      13.426  -5.511   6.035  1.00  0.00    -0.354 N 
ATOM     54  N   UNL     1      11.621  -3.566   7.313  1.00  0.00    -0.248 NA
ATOM     55  C   UNL     1      10.815  -2.511   9.237  1.00  0.00     0.031 C 
ATOM     56  C   UNL     1      14.807  -6.673   7.329  1.00  0.00     0.029 A 
ATOM     57  C   UNL     1      13.824  -5.696   7.351  1.00  0.00     0.049 A 
ATOM     58  H   UNL     1      12.725  -4.886   5.742  1.00  0.00     0.167 HD
ATOM     59  C   UNL     1      12.320  -4.037   8.421  1.00  0.00     0.074 A 
ATOM     60  C   UNL     1      11.808  -3.320   9.570  1.00  0.00     0.031 C 
ATOM     61  C   UNL     1      13.298  -4.976   8.486  1.00  0.00     0.034 A 
BRANCH  48  62
ATOM     62  C   UNL     1      14.838  -7.386   2.975  1.00  0.00     0.023 A 
ATOM     63  C   UNL     1      15.755  -6.947   2.003  1.00  0.00     0.031 A 
ATOM     64  C   UNL     1      14.710  -8.771   3.178  1.00  0.00     0.131 A 
ATOM     65  C   UNL     1      16.447  -7.881   1.218  1.00  0.00     0.055 A 
ATOM     66  C   UNL     1      15.463  -9.695   2.450  1.00  0.00     0.041 A 
ATOM     67  F   UNL     1      13.838  -9.253   4.078  1.00  0.00    -0.206 F 
ATOM     68  C   UNL     1      16.327  -9.252   1.452  1.00  0.00     0.022 A 
BRANCH  65  69
ATOM     69  S   UNL     1      17.401  -7.281  -0.203  1.00  0.00     0.124 S 
ATOM     70  O   UNL     1      16.361  -6.641  -1.006  1.00  0.00    -0.237 OA
ATOM     71  O   UNL     1      18.368  -6.385   0.420  1.00  0.00    -0.237 OA
ATOM     72  O   UNL     1      17.961  -8.501  -0.780  1.00  0.00    -0.744 OA
ENDBRANCH  65  69
ENDBRANCH  48  62
BRANCH  49  73
ATOM     73  C   UNL     1       8.905  -0.863   7.756  1.00  0.00     0.023 A 
ATOM     74  C   UNL     1       9.445   0.208   8.487  1.00  0.00     0.031 A 
ATOM     75  C   UNL     1       7.511  -1.042   7.784  1.00  0.00     0.131 A 
ATOM     76  C   UNL     1       8.604   1.022   9.261  1.00  0.00     0.055 A 
ATOM     77  C   UNL     1       6.672  -0.196   8.511  1.00  0.00     0.041 A 
ATOM     78  F   UNL     1       6.941  -2.046   7.097  1.00  0.00    -0.206 F 
ATOM     79  C   UNL     1       7.220   0.835   9.269  1.00  0.00     0.022 A 
BRANCH  76  80
ATOM     80  S   UNL     1       9.358   2.270  10.340  1.00  0.00     0.124 S 
ATOM     81  O   UNL     1      10.266   1.460  11.144  1.00  0.00    -0.237 OA
ATOM     82  O   UNL     1       9.983   3.166   9.373  1.00  0.00    -0.237 OA
ATOM     83  O   UNL     1       8.217   2.831  11.060  1.00  0.00    -0.744 OA
ENDBRANCH  76  80
ENDBRANCH  49  73
BRANCH  61  84
ATOM     84  C   UNL     1      13.903  -5.236   9.843  1.00  0.00     0.023 A 
ATOM     85  C   UNL     1      13.156  -5.811  10.886  1.00  0.00     0.031 A 
ATOM     86  C   UNL     1      15.235  -4.870  10.106  1.00  0.00     0.131 A 
ATOM     87  C   UNL     1      13.724  -5.940  12.163  1.00  0.00     0.055 A 
ATOM     88  C   UNL     1      15.814  -5.059  11.361  1.00  0.00     0.041 A 
ATOM     89  F   UNL     1      15.993  -4.317   9.146  1.00  0.00    -0.206 F 
ATOM     90  C   UNL     1      15.053  -5.582  12.403  1.00  0.00     0.022 A 
BRANCH  87  91
ATOM     91  S   UNL     1      12.667  -6.485  13.533  1.00  0.00     0.124 S 
ATOM     92  O   UNL     1      11.602  -5.487  13.510  1.00  0.00    -0.237 OA
ATOM     93  O   UNL     1      12.288  -7.831  13.118  1.00  0.00    -0.237 OA
ATOM     94  O   UNL     1      13.552  -6.421  14.695  1.00  0.00    -0.744 OA
ENDBRANCH  87  91
ENDBRANCH  61  84
ENDBRANCH  35  36
ENDBRANCH  27  30
ENDBRANCH  25  26
ENDBRANCH  24  25
ENDBRANCH   1  24
TORSDOF 17
