REMARK SMILES CCC[C@H](C)C[N@H+]1[C@@H]2CC[C@H]1C[C@H](CC(=O)NCCCNC(=O)c1ccc(-c3c4nc(c(-c5cc(S(=O)(=O)[O-])ccc5F)c5ccc([nH]5)c(-c5cc(S(=O)(=O)[O-])ccc5F)c5nc(c(-c6cc(S(=O)(=O)[O-])ccc6F)c6ccc3[nH]6)C=C5)C=C4)cc1)C2
REMARK SMILES IDX 18 1 17 2 15 3 16 4 14 6 13 7 7 8 8 9 11 10 9 12 87 13 10 14
REMARK SMILES IDX 12 15 6 16 4 17 5 18 3 19 2 20 1 21 19 22 20 23 21 24 22 25
REMARK SMILES IDX 23 27 24 28 25 29 86 30 26 31 85 32 27 33 28 34 29 35 79 36
REMARK SMILES IDX 30 37 84 38 78 39 80 40 31 41 83 42 77 43 76 44 32 46 64 47
REMARK SMILES IDX 44 48 63 49 45 50 48 51 62 52 81 53 46 54 47 55 61 57 82 58
REMARK SMILES IDX 49 59 33 60 34 61 42 62 35 63 41 64 43 65 40 66 36 67 37 68
REMARK SMILES IDX 38 69 39 70 65 71 66 72 74 73 67 74 73 75 75 76 72 77 68 78
REMARK SMILES IDX 69 79 70 80 71 81 50 82 51 83 59 84 52 85 58 86 60 87 57 88
REMARK SMILES IDX 53 89 54 90 55 91 56 92
REMARK H PARENT 17 5 7 11 21 26 80 45 48 56
REMARK Flexibility Score: inf
ROOT
ATOM      1  C   UNL     1       0.668   5.733  -1.418  1.00  0.00     0.117 C 
ENDROOT
BRANCH   1   2
ATOM      2  N   UNL     1       1.592   5.111  -2.358  1.00  0.00    -0.356 N 
ATOM      3  C   UNL     1       2.140   3.865  -2.415  1.00  0.00     0.220 C 
ATOM      4  O   UNL     1       2.849   3.593  -3.387  1.00  0.00    -0.275 OA
ATOM      5  H   UNL     1       1.874   5.705  -3.092  1.00  0.00     0.163 HD
BRANCH   3   6
ATOM      6  C   UNL     1       1.899   2.829  -1.332  1.00  0.00     0.104 C 
BRANCH   6   7
ATOM      7  C   UNL     1       3.003   2.802  -0.252  1.00  0.00     0.010 C 
ATOM      8  N   UNL     1       2.616   2.708   2.682  1.00  0.00    -0.330 N 
ATOM      9  C   UNL     1       3.294   1.593   2.030  1.00  0.00     0.184 C 
ATOM     10  C   UNL     1       3.285   3.881   2.109  1.00  0.00     0.184 C 
ATOM     11  H   UNL     1       2.713   2.546   3.685  1.00  0.00     0.348 HD
ATOM     12  C   UNL     1       4.766   1.998   2.240  1.00  0.00     0.071 C 
ATOM     13  C   UNL     1       2.988   1.467   0.528  1.00  0.00     0.069 C 
ATOM     14  C   UNL     1       4.761   3.522   2.231  1.00  0.00     0.071 C 
ATOM     15  C   UNL     1       2.879   4.042   0.645  1.00  0.00     0.069 C 
BRANCH   8  16
ATOM     16  C   UNL     1       1.161   2.831   2.827  1.00  0.00     0.265 C 
BRANCH  16  17
ATOM     17  C   UNL     1       0.164   1.817   2.207  1.00  0.00     0.041 C 
ATOM     18  C   UNL     1       0.206   0.459   2.910  1.00  0.00     0.013 C 
BRANCH  17  19
ATOM     19  C   UNL     1      -1.295   2.351   2.265  1.00  0.00     0.009 C 
BRANCH  19  20
ATOM     20  C   UNL     1      -1.676   3.244   1.077  1.00  0.00    -0.003 C 
ATOM     21  C   UNL     1      -1.911   2.459  -0.210  1.00  0.00     0.004 C 
ENDBRANCH  19  20
ENDBRANCH  17  19
ENDBRANCH  16  17
ENDBRANCH   8  16
ENDBRANCH   6   7
ENDBRANCH   3   6
ENDBRANCH   1   2
BRANCH   1  22
ATOM     22  C   UNL     1       1.324   6.791  -0.528  1.00  0.00     0.042 C 
BRANCH  22  23
ATOM     23  C   UNL     1       1.850   8.011  -1.271  1.00  0.00     0.118 C 
BRANCH  23  24
ATOM     24  N   UNL     1       0.900   9.106  -1.228  1.00  0.00    -0.352 N 
ATOM     25  C   UNL     1       1.001  10.325  -0.604  1.00  0.00     0.251 C 
ATOM     26  H   UNL     1       0.059   8.953  -1.717  1.00  0.00     0.163 HD
ATOM     27  O   UNL     1      -0.028  10.989  -0.447  1.00  0.00    -0.269 OA
BRANCH  25  28
ATOM     28  C   UNL     1       2.301  10.849  -0.111  1.00  0.00     0.039 A 
ATOM     29  C   UNL     1       2.315  11.637   1.046  1.00  0.00     0.014 A 
ATOM     30  C   UNL     1       3.496  10.643  -0.809  1.00  0.00     0.014 A 
ATOM     31  C   UNL     1       3.514  12.191   1.510  1.00  0.00     0.010 A 
ATOM     32  C   UNL     1       4.704  11.127  -0.300  1.00  0.00     0.010 A 
ATOM     33  C   UNL     1       4.725  11.931   0.850  1.00  0.00    -0.014 A 
BRANCH  33  34
ATOM     34  C   UNL     1       6.005  12.542   1.308  1.00  0.00     0.031 A 
ATOM     35  C   UNL     1       6.739  13.511   0.412  1.00  0.00     0.074 A 
ATOM     36  C   UNL     1       6.531  12.203   2.502  1.00  0.00     0.049 A 
ATOM     37  N   UNL     1       7.896  14.095   0.591  1.00  0.00    -0.248 NA
ATOM     38  C   UNL     1       6.095  13.841  -0.869  1.00  0.00     0.031 C 
ATOM     39  C   UNL     1       5.937  11.259   3.450  1.00  0.00     0.029 A 
ATOM     40  N   UNL     1       7.688  12.610   3.122  1.00  0.00    -0.354 N 
ATOM     41  C   UNL     1       8.132  14.838  -0.562  1.00  0.00     0.074 A 
ATOM     42  C   UNL     1       7.021  14.585  -1.454  1.00  0.00     0.031 C 
ATOM     43  C   UNL     1       6.718  11.180   4.540  1.00  0.00     0.029 A 
ATOM     44  C   UNL     1       7.890  12.030   4.354  1.00  0.00     0.049 A 
ATOM     45  H   UNL     1       8.313  13.256   2.722  1.00  0.00     0.167 HD
ATOM     46  C   UNL     1       9.165  15.670  -0.845  1.00  0.00     0.034 A 
ATOM     47  C   UNL     1       8.907  12.162   5.230  1.00  0.00     0.034 A 
ATOM     48  C   UNL     1      10.250  15.942   0.068  1.00  0.00     0.049 A 
ATOM     49  C   UNL     1      10.050  13.088   4.891  1.00  0.00     0.074 A 
ATOM     50  C   UNL     1      11.309  16.820  -0.089  1.00  0.00     0.029 A 
ATOM     51  N   UNL     1      10.416  15.339   1.307  1.00  0.00    -0.354 N 
ATOM     52  N   UNL     1      10.231  13.819   3.815  1.00  0.00    -0.248 NA
ATOM     53  C   UNL     1      11.119  13.215   5.890  1.00  0.00     0.031 C 
ATOM     54  C   UNL     1      12.148  16.701   1.025  1.00  0.00     0.029 A 
ATOM     55  C   UNL     1      11.575  15.804   1.911  1.00  0.00     0.049 A 
ATOM     56  H   UNL     1       9.802  14.678   1.700  1.00  0.00     0.167 HD
ATOM     57  C   UNL     1      11.416  14.519   4.027  1.00  0.00     0.074 A 
ATOM     58  C   UNL     1      11.898  14.132   5.337  1.00  0.00     0.031 C 
ATOM     59  C   UNL     1      12.046  15.407   3.217  1.00  0.00     0.034 A 
BRANCH  46  60
ATOM     60  C   UNL     1       9.183  16.325  -2.207  1.00  0.00     0.023 A 
ATOM     61  C   UNL     1       8.182  17.225  -2.611  1.00  0.00     0.031 A 
ATOM     62  C   UNL     1      10.209  16.028  -3.123  1.00  0.00     0.131 A 
ATOM     63  C   UNL     1       8.184  17.735  -3.918  1.00  0.00     0.055 A 
ATOM     64  C   UNL     1      10.250  16.604  -4.395  1.00  0.00     0.041 A 
ATOM     65  F   UNL     1      11.183  15.162  -2.802  1.00  0.00    -0.206 F 
ATOM     66  C   UNL     1       9.225  17.451  -4.805  1.00  0.00     0.022 A 
BRANCH  63  67
ATOM     67  S   UNL     1       6.735  18.664  -4.492  1.00  0.00     0.124 S 
ATOM     68  O   UNL     1       5.670  17.675  -4.329  1.00  0.00    -0.237 OA
ATOM     69  O   UNL     1       6.700  19.795  -3.566  1.00  0.00    -0.237 OA
ATOM     70  O   UNL     1       7.062  18.997  -5.872  1.00  0.00    -0.744 OA
ENDBRANCH  63  67
ENDBRANCH  46  60
BRANCH  47  71
ATOM     71  C   UNL     1       8.908  11.403   6.514  1.00  0.00     0.023 A 
ATOM     72  C   UNL     1       8.848  12.072   7.747  1.00  0.00     0.031 A 
ATOM     73  C   UNL     1       9.025  10.002   6.530  1.00  0.00     0.131 A 
ATOM     74  C   UNL     1       8.959  11.347   8.944  1.00  0.00     0.055 A 
ATOM     75  C   UNL     1       9.080   9.280   7.723  1.00  0.00     0.041 A 
ATOM     76  F   UNL     1       9.082   9.312   5.379  1.00  0.00    -0.206 F 
ATOM     77  C   UNL     1       9.062   9.954   8.940  1.00  0.00     0.022 A 
BRANCH  74  78
ATOM     78  S   UNL     1       9.060  12.262  10.507  1.00  0.00     0.124 S 
ATOM     79  O   UNL     1      10.219  13.117  10.277  1.00  0.00    -0.237 OA
ATOM     80  O   UNL     1       7.765  12.932  10.549  1.00  0.00    -0.237 OA
ATOM     81  O   UNL     1       9.248  11.210  11.505  1.00  0.00    -0.744 OA
ENDBRANCH  74  78
ENDBRANCH  47  71
BRANCH  59  82
ATOM     82  C   UNL     1      13.296  16.059   3.754  1.00  0.00     0.023 A 
ATOM     83  C   UNL     1      14.476  15.329   3.978  1.00  0.00     0.031 A 
ATOM     84  C   UNL     1      13.298  17.432   4.059  1.00  0.00     0.131 A 
ATOM     85  C   UNL     1      15.593  15.964   4.543  1.00  0.00     0.055 A 
ATOM     86  C   UNL     1      14.431  18.070   4.566  1.00  0.00     0.041 A 
ATOM     87  F   UNL     1      12.198  18.177   3.866  1.00  0.00    -0.206 F 
ATOM     88  C   UNL     1      15.582  17.333   4.824  1.00  0.00     0.022 A 
BRANCH  85  89
ATOM     89  S   UNL     1      17.034  14.957   4.990  1.00  0.00     0.124 S 
ATOM     90  O   UNL     1      16.456  13.997   5.926  1.00  0.00    -0.237 OA
ATOM     91  O   UNL     1      17.450  14.417   3.700  1.00  0.00    -0.237 OA
ATOM     92  O   UNL     1      17.957  15.923   5.583  1.00  0.00    -0.744 OA
ENDBRANCH  85  89
ENDBRANCH  59  82
ENDBRANCH  33  34
ENDBRANCH  25  28
ENDBRANCH  23  24
ENDBRANCH  22  23
ENDBRANCH   1  22
TORSDOF 18
