REMARK SMILES COc1cc(-c2ccc(NC(=O)CCC(=O)NCCCNC(=O)c3ccc(-c4c5nc(c(-c6cc(S(=O)(=O)[O-])ccc6F)c6ccc([nH]6)c(-c6cc(S(=O)(=O)[O-])ccc6F)c6nc(c(-c7cc(S(=O)(=O)[O-])ccc7F)c7ccc4[nH]7)C=C6)C=C5)cc3)c(OC)c2)ccc1N
REMARK SMILES IDX 18 1 17 2 15 3 16 4 14 6 13 7 11 8 10 9 12 11 9 12 6 13 7 14
REMARK SMILES IDX 90 15 8 16 87 17 5 18 3 19 4 20 93 21 92 22 91 23 2 24 1 25
REMARK SMILES IDX 94 26 88 29 89 30 19 31 20 32 21 33 22 34 23 36 24 37 25 38
REMARK SMILES IDX 86 39 26 40 85 41 27 42 28 43 29 44 79 45 30 46 84 47 78 48
REMARK SMILES IDX 80 49 31 50 83 51 77 52 76 53 32 55 64 56 44 57 63 58 45 59
REMARK SMILES IDX 48 60 62 61 81 62 46 63 47 64 61 66 82 67 49 68 33 69 34 70
REMARK SMILES IDX 42 71 35 72 41 73 43 74 40 75 36 76 37 77 38 78 39 79 65 80
REMARK SMILES IDX 66 81 74 82 67 83 73 84 75 85 72 86 68 87 69 88 70 89 71 90
REMARK SMILES IDX 50 91 51 92 59 93 52 94 58 95 60 96 57 97 53 98 54 99 55 100
REMARK SMILES IDX 56 101
REMARK H PARENT 17 5 10 10 94 27 94 28 21 35 80 54 48 65
REMARK Flexibility Score: inf
ROOT
ATOM      1  C   UNL     1      -5.208   5.173   5.231  1.00  0.00     0.117 C 
ENDROOT
BRANCH   1   2
ATOM      2  N   UNL     1      -4.793   3.960   4.422  1.00  0.00    -0.356 N 
ATOM      3  C   UNL     1      -4.933   2.580   4.325  1.00  0.00     0.220 C 
ATOM      4  O   UNL     1      -4.554   2.146   3.218  1.00  0.00    -0.275 OA
ATOM      5  H   UNL     1      -4.206   4.263   3.692  1.00  0.00     0.163 HD
BRANCH   3   6
ATOM      6  C   UNL     1      -5.449   1.474   5.372  1.00  0.00     0.110 C 
BRANCH   6   7
ATOM      7  C   UNL     1      -4.464   0.547   6.278  1.00  0.00     0.110 C 
BRANCH   7   8
ATOM      8  C   UNL     1      -4.226   0.621   7.881  1.00  0.00     0.224 C 
ATOM      9  N   UNL     1      -3.204   1.367   8.484  1.00  0.00    -0.323 N 
ATOM     10  H   UNL     1      -3.023   1.206   9.438  1.00  0.00     0.170 HD
ATOM     11  O   UNL     1      -4.956  -0.034   8.637  1.00  0.00    -0.275 OA
BRANCH   9  12
ATOM     12  C   UNL     1      -2.421   2.322   7.829  1.00  0.00     0.083 A 
ATOM     13  C   UNL     1      -0.724   2.729   5.681  1.00  0.00    -0.014 A 
ATOM     14  C   UNL     1      -0.262   2.870   7.004  1.00  0.00     0.011 A 
ATOM     15  C   UNL     1      -2.111   2.887   5.573  1.00  0.00     0.057 A 
ATOM     16  C   UNL     1      -1.104   2.610   8.101  1.00  0.00     0.031 A 
ATOM     17  C   UNL     1      -2.948   2.870   6.715  1.00  0.00     0.142 A 
BRANCH  13  18
ATOM     18  C   UNL     1       0.201   2.353   4.539  1.00  0.00    -0.014 A 
ATOM     19  C   UNL     1       0.728   1.645   2.208  1.00  0.00     0.142 A 
ATOM     20  C   UNL     1      -0.195   2.088   3.202  1.00  0.00     0.057 A 
ATOM     21  C   UNL     1       2.096   1.538   2.496  1.00  0.00     0.074 A 
ATOM     22  C   UNL     1       2.480   1.695   3.821  1.00  0.00     0.030 A 
ATOM     23  C   UNL     1       1.562   2.096   4.803  1.00  0.00     0.011 A 
BRANCH  19  24
ATOM     24  O   UNL     1       0.227   1.424   0.940  1.00  0.00    -0.495 OA
ATOM     25  C   UNL     1       0.466   0.097   0.453  1.00  0.00     0.278 C 
ENDBRANCH  19  24
BRANCH  21  26
ATOM     26  N   UNL     1       3.062   1.179   1.557  1.00  0.00    -0.396 N 
ATOM     27  H   UNL     1       2.810   1.063   0.612  1.00  0.00     0.156 HD
ATOM     28  H   UNL     1       3.995   1.042   1.839  1.00  0.00     0.156 HD
ENDBRANCH  21  26
ENDBRANCH  13  18
BRANCH  17  29
ATOM     29  O   UNL     1      -4.280   3.159   6.700  1.00  0.00    -0.495 OA
ATOM     30  C   UNL     1      -5.218   3.205   7.813  1.00  0.00     0.278 C 
ENDBRANCH  17  29
ENDBRANCH   9  12
ENDBRANCH   7   8
ENDBRANCH   6   7
ENDBRANCH   3   6
ENDBRANCH   1   2
BRANCH   1  31
ATOM     31  C   UNL     1      -4.482   5.844   6.485  1.00  0.00     0.042 C 
BRANCH  31  32
ATOM     32  C   UNL     1      -3.018   6.323   6.520  1.00  0.00     0.118 C 
BRANCH  32  33
ATOM     33  N   UNL     1      -2.954   7.784   6.567  1.00  0.00    -0.352 N 
ATOM     34  C   UNL     1      -2.776   8.711   7.571  1.00  0.00     0.251 C 
ATOM     35  H   UNL     1      -3.063   8.199   5.680  1.00  0.00     0.163 HD
ATOM     36  O   UNL     1      -3.154   9.859   7.316  1.00  0.00    -0.269 OA
BRANCH  34  37
ATOM     37  C   UNL     1      -2.158   8.462   8.914  1.00  0.00     0.039 A 
ATOM     38  C   UNL     1      -2.525   9.323   9.966  1.00  0.00     0.014 A 
ATOM     39  C   UNL     1      -1.115   7.562   9.149  1.00  0.00     0.014 A 
ATOM     40  C   UNL     1      -1.879   9.282  11.216  1.00  0.00     0.010 A 
ATOM     41  C   UNL     1      -0.492   7.495  10.420  1.00  0.00     0.010 A 
ATOM     42  C   UNL     1      -0.857   8.358  11.471  1.00  0.00    -0.014 A 
BRANCH  42  43
ATOM     43  C   UNL     1      -0.185   8.314  12.817  1.00  0.00     0.031 A 
ATOM     44  C   UNL     1       1.276   8.675  12.981  1.00  0.00     0.074 A 
ATOM     45  C   UNL     1      -0.884   7.953  13.916  1.00  0.00     0.049 A 
ATOM     46  N   UNL     1       2.019   8.673  14.063  1.00  0.00    -0.248 NA
ATOM     47  C   UNL     1       1.996   9.078  11.766  1.00  0.00     0.031 C 
ATOM     48  C   UNL     1      -2.298   7.578  13.925  1.00  0.00     0.029 A 
ATOM     49  N   UNL     1      -0.509   7.841  15.238  1.00  0.00    -0.354 N 
ATOM     50  C   UNL     1       3.295   9.064  13.660  1.00  0.00     0.074 A 
ATOM     51  C   UNL     1       3.229   9.248  12.224  1.00  0.00     0.031 C 
ATOM     52  C   UNL     1      -2.674   7.296  15.183  1.00  0.00     0.029 A 
ATOM     53  C   UNL     1      -1.522   7.422  16.073  1.00  0.00     0.049 A 
ATOM     54  H   UNL     1       0.401   8.041  15.556  1.00  0.00     0.167 HD
ATOM     55  C   UNL     1       4.411   9.266  14.411  1.00  0.00     0.034 A 
ATOM     56  C   UNL     1      -1.533   7.152  17.396  1.00  0.00     0.034 A 
ATOM     57  C   UNL     1       4.473   9.091  15.846  1.00  0.00     0.049 A 
ATOM     58  C   UNL     1      -0.268   7.334  18.202  1.00  0.00     0.074 A 
ATOM     59  C   UNL     1       5.545   9.318  16.696  1.00  0.00     0.029 A 
ATOM     60  N   UNL     1       3.433   8.636  16.645  1.00  0.00    -0.354 N 
ATOM     61  N   UNL     1       0.915   7.739  17.803  1.00  0.00    -0.248 NA
ATOM     62  C   UNL     1      -0.344   7.031  19.639  1.00  0.00     0.031 C 
ATOM     63  C   UNL     1       5.179   8.925  17.988  1.00  0.00     0.029 A 
ATOM     64  C   UNL     1       3.850   8.537  17.966  1.00  0.00     0.049 A 
ATOM     65  H   UNL     1       2.529   8.415  16.322  1.00  0.00     0.167 HD
ATOM     66  C   UNL     1       1.711   7.771  18.947  1.00  0.00     0.074 A 
ATOM     67  C   UNL     1       0.871   7.361  20.051  1.00  0.00     0.031 C 
ATOM     68  C   UNL     1       3.018   8.116  19.070  1.00  0.00     0.034 A 
BRANCH  55  69
ATOM     69  C   UNL     1       5.680   9.669  13.690  1.00  0.00     0.023 A 
ATOM     70  C   UNL     1       5.782  10.883  12.988  1.00  0.00     0.031 A 
ATOM     71  C   UNL     1       6.808   8.827  13.707  1.00  0.00     0.131 A 
ATOM     72  C   UNL     1       6.953  11.185  12.275  1.00  0.00     0.055 A 
ATOM     73  C   UNL     1       7.999   9.172  13.065  1.00  0.00     0.041 A 
ATOM     74  F   UNL     1       6.771   7.647  14.347  1.00  0.00    -0.206 F 
ATOM     75  C   UNL     1       8.072  10.351  12.329  1.00  0.00     0.022 A 
BRANCH  72  76
ATOM     76  S   UNL     1       6.943  12.612  11.154  1.00  0.00     0.124 S 
ATOM     77  O   UNL     1       5.831  12.282  10.268  1.00  0.00    -0.237 OA
ATOM     78  O   UNL     1       6.721  13.729  12.070  1.00  0.00    -0.237 OA
ATOM     79  O   UNL     1       8.262  12.569  10.531  1.00  0.00    -0.744 OA
ENDBRANCH  72  76
ENDBRANCH  55  69
BRANCH  56  80
ATOM     80  C   UNL     1      -2.776   6.647  18.057  1.00  0.00     0.023 A 
ATOM     81  C   UNL     1      -3.408   7.376  19.078  1.00  0.00     0.031 A 
ATOM     82  C   UNL     1      -3.314   5.393  17.717  1.00  0.00     0.131 A 
ATOM     83  C   UNL     1      -4.510   6.825  19.754  1.00  0.00     0.055 A 
ATOM     84  C   UNL     1      -4.446   4.876  18.350  1.00  0.00     0.041 A 
ATOM     85  F   UNL     1      -2.748   4.650  16.752  1.00  0.00    -0.206 F 
ATOM     86  C   UNL     1      -5.042   5.588  19.386  1.00  0.00     0.022 A 
BRANCH  83  87
ATOM     87  S   UNL     1      -5.178   7.705  21.194  1.00  0.00     0.124 S 
ATOM     88  O   UNL     1      -4.007   7.791  22.059  1.00  0.00    -0.237 OA
ATOM     89  O   UNL     1      -5.630   8.958  20.599  1.00  0.00    -0.237 OA
ATOM     90  O   UNL     1      -6.242   6.822  21.668  1.00  0.00    -0.744 OA
ENDBRANCH  83  87
ENDBRANCH  56  80
BRANCH  68  91
ATOM     91  C   UNL     1       3.610   8.111  20.461  1.00  0.00     0.023 A 
ATOM     92  C   UNL     1       3.758   6.926  21.204  1.00  0.00     0.031 A 
ATOM     93  C   UNL     1       4.023   9.316  21.059  1.00  0.00     0.131 A 
ATOM     94  C   UNL     1       4.248   6.978  22.519  1.00  0.00     0.055 A 
ATOM     95  C   UNL     1       4.570   9.354  22.343  1.00  0.00     0.041 A 
ATOM     96  F   UNL     1       3.903  10.481  20.402  1.00  0.00    -0.206 F 
ATOM     97  C   UNL     1       4.672   8.182  23.086  1.00  0.00     0.022 A 
BRANCH  94  98
ATOM     98  S   UNL     1       4.234   5.463  23.518  1.00  0.00     0.124 S 
ATOM     99  O   UNL     1       2.821   5.099  23.498  1.00  0.00    -0.237 OA
ATOM    100  O   UNL     1       5.129   4.587  22.768  1.00  0.00    -0.237 OA
ATOM    101  O   UNL     1       4.744   5.902  24.816  1.00  0.00    -0.744 OA
ENDBRANCH  94  98
ENDBRANCH  68  91
ENDBRANCH  42  43
ENDBRANCH  34  37
ENDBRANCH  32  33
ENDBRANCH  31  32
ENDBRANCH   1  31
TORSDOF 20
