REMARK SMILES COc1cc(OC)cc(-c2cnc(Cl)c(C(=O)NCCCNC(=O)c3ccc(-c4c5nc(c(-c6cc(S(=O)(=O)[O-])ccc6F)c6ccc([nH]6)c(-c6cc(S(=O)(=O)[O-])ccc6F)c6nc(c(-c7cc(S(=O)(=O)[O-])ccc7F)c7ccc4[nH]7)C=C6)C=C5)cc3)c2)c1
REMARK SMILES IDX 20 1 19 2 18 3 16 4 17 5 15 7 10 8 11 9 88 10 12 11 13 12
REMARK SMILES IDX 14 13 9 14 3 15 4 16 89 17 5 18 8 19 2 20 1 21 6 22 7 23
REMARK SMILES IDX 21 24 22 25 23 26 24 28 25 29 26 30 87 31 27 32 86 33 28 34
REMARK SMILES IDX 29 35 30 36 80 37 31 38 85 39 79 40 81 41 32 42 84 43 78 44
REMARK SMILES IDX 77 45 33 47 65 48 45 49 64 50 46 51 49 52 63 53 82 54 47 55
REMARK SMILES IDX 48 56 62 58 83 59 50 60 34 61 35 62 43 63 36 64 42 65 44 66
REMARK SMILES IDX 41 67 37 68 38 69 39 70 40 71 66 72 67 73 75 74 68 75 74 76
REMARK SMILES IDX 76 77 73 78 69 79 70 80 71 81 72 82 51 83 52 84 60 85 53 86
REMARK SMILES IDX 59 87 61 88 58 89 54 90 55 91 56 92 57 93
REMARK H PARENT 18 6 22 27 81 46 49 57
REMARK Flexibility Score: inf
ROOT
ATOM      1  C   UNL     1      10.282   3.972   1.625  1.00  0.00     0.042 C 
ENDROOT
BRANCH   1   2
ATOM      2  C   UNL     1       9.350   4.825   0.759  1.00  0.00     0.118 C 
BRANCH   2   3
ATOM      3  N   UNL     1       8.523   3.972  -0.074  1.00  0.00    -0.352 N 
ATOM      4  C   UNL     1       7.244   3.501   0.006  1.00  0.00     0.254 C 
ATOM      5  O   UNL     1       6.920   2.700  -0.878  1.00  0.00    -0.269 OA
ATOM      6  H   UNL     1       8.992   3.662  -0.882  1.00  0.00     0.163 HD
BRANCH   4   7
ATOM      7  C   UNL     1       6.186   3.925   0.959  1.00  0.00     0.077 A 
ATOM      8  C   UNL     1       3.744   4.145   1.194  1.00  0.00     0.001 A 
ATOM      9  C   UNL     1       3.966   4.519   2.509  1.00  0.00     0.121 A 
ATOM     10  C   UNL     1       4.880   3.887   0.418  1.00  0.00     0.027 A 
ATOM     11  N   UNL     1       5.186   4.576   3.075  1.00  0.00    -0.243 NA
ATOM     12  C   UNL     1       6.258   4.228   2.311  1.00  0.00     0.141 A 
ATOM     13  Cl  UNL     1       7.608   4.027   3.342  1.00  0.00    -0.061 Cl
BRANCH   8  14
ATOM     14  C   UNL     1       2.390   3.963   0.671  1.00  0.00    -0.009 A 
ATOM     15  C   UNL     1       0.632   2.488  -0.143  1.00  0.00     0.123 A 
ATOM     16  C   UNL     1      -0.217   3.590  -0.261  1.00  0.00     0.092 A 
ATOM     17  C   UNL     1       1.936   2.680   0.311  1.00  0.00     0.055 A 
ATOM     18  C   UNL     1       0.215   4.873   0.083  1.00  0.00     0.123 A 
ATOM     19  C   UNL     1       1.515   5.053   0.556  1.00  0.00     0.055 A 
BRANCH  15  20
ATOM     20  O   UNL     1       0.080   1.291  -0.509  1.00  0.00    -0.497 OA
ATOM     21  C   UNL     1       0.792   0.116  -0.137  1.00  0.00     0.278 C 
ENDBRANCH  15  20
BRANCH  18  22
ATOM     22  O   UNL     1      -0.719   5.861  -0.073  1.00  0.00    -0.497 OA
ATOM     23  C   UNL     1      -0.277   7.196   0.137  1.00  0.00     0.278 C 
ENDBRANCH  18  22
ENDBRANCH   8  14
ENDBRANCH   4   7
ENDBRANCH   2   3
ENDBRANCH   1   2
BRANCH   1  24
ATOM     24  C   UNL     1      11.483   3.397   0.883  1.00  0.00     0.118 C 
BRANCH  24  25
ATOM     25  N   UNL     1      12.483   4.412   0.607  1.00  0.00    -0.352 N 
ATOM     26  C   UNL     1      13.749   4.564   1.111  1.00  0.00     0.251 C 
ATOM     27  H   UNL     1      12.209   5.098  -0.044  1.00  0.00     0.163 HD
ATOM     28  O   UNL     1      14.311   5.652   0.958  1.00  0.00    -0.269 OA
BRANCH  26  29
ATOM     29  C   UNL     1      14.445   3.469   1.830  1.00  0.00     0.039 A 
ATOM     30  C   UNL     1      15.307   3.803   2.879  1.00  0.00     0.014 A 
ATOM     31  C   UNL     1      14.325   2.131   1.441  1.00  0.00     0.014 A 
ATOM     32  C   UNL     1      16.014   2.804   3.554  1.00  0.00     0.010 A 
ATOM     33  C   UNL     1      14.972   1.125   2.164  1.00  0.00     0.010 A 
ATOM     34  C   UNL     1      15.835   1.452   3.219  1.00  0.00    -0.014 A 
BRANCH  34  35
ATOM     35  C   UNL     1      16.557   0.384   3.963  1.00  0.00     0.031 A 
ATOM     36  C   UNL     1      17.584  -0.472   3.268  1.00  0.00     0.074 A 
ATOM     37  C   UNL     1      16.267   0.172   5.262  1.00  0.00     0.049 A 
ATOM     38  N   UNL     1      18.308  -1.452   3.749  1.00  0.00    -0.248 NA
ATOM     39  C   UNL     1      17.808  -0.209   1.839  1.00  0.00     0.031 C 
ATOM     40  C   UNL     1      15.257   0.905   6.030  1.00  0.00     0.029 A 
ATOM     41  N   UNL     1      16.789  -0.716   6.168  1.00  0.00    -0.354 N 
ATOM     42  C   UNL     1      19.067  -1.926   2.682  1.00  0.00     0.074 A 
ATOM     43  C   UNL     1      18.668  -1.164   1.518  1.00  0.00     0.031 C 
ATOM     44  C   UNL     1      15.258   0.460   7.296  1.00  0.00     0.029 A 
ATOM     45  C   UNL     1      16.238  -0.614   7.425  1.00  0.00     0.049 A 
ATOM     46  H   UNL     1      17.493  -1.366   5.941  1.00  0.00     0.167 HD
ATOM     47  C   UNL     1      20.023  -2.889   2.680  1.00  0.00     0.034 A 
ATOM     48  C   UNL     1      16.492  -1.306   8.552  1.00  0.00     0.034 A 
ATOM     49  C   UNL     1      20.416  -3.633   3.853  1.00  0.00     0.049 A 
ATOM     50  C   UNL     1      17.559  -2.370   8.523  1.00  0.00     0.074 A 
ATOM     51  C   UNL     1      21.403  -4.596   3.976  1.00  0.00     0.029 A 
ATOM     52  N   UNL     1      19.837  -3.500   5.110  1.00  0.00    -0.354 N 
ATOM     53  N   UNL     1      18.305  -2.767   7.517  1.00  0.00    -0.248 NA
ATOM     54  C   UNL     1      17.829  -3.066   9.787  1.00  0.00     0.031 C 
ATOM     55  C   UNL     1      21.380  -5.087   5.287  1.00  0.00     0.029 A 
ATOM     56  C   UNL     1      20.427  -4.382   6.005  1.00  0.00     0.049 A 
ATOM     57  H   UNL     1      19.113  -2.872   5.333  1.00  0.00     0.167 HD
ATOM     58  C   UNL     1      19.148  -3.746   8.035  1.00  0.00     0.074 A 
ATOM     59  C   UNL     1      18.838  -3.853   9.447  1.00  0.00     0.031 C 
ATOM     60  C   UNL     1      20.090  -4.493   7.404  1.00  0.00     0.034 A 
BRANCH  47  61
ATOM     61  C   UNL     1      20.690  -3.204   1.361  1.00  0.00     0.023 A 
ATOM     62  C   UNL     1      21.464  -2.249   0.677  1.00  0.00     0.031 A 
ATOM     63  C   UNL     1      20.537  -4.470   0.767  1.00  0.00     0.131 A 
ATOM     64  C   UNL     1      21.994  -2.549  -0.588  1.00  0.00     0.055 A 
ATOM     65  C   UNL     1      21.133  -4.789  -0.456  1.00  0.00     0.041 A 
ATOM     66  F   UNL     1      19.796  -5.419   1.361  1.00  0.00    -0.206 F 
ATOM     67  C   UNL     1      21.855  -3.821  -1.148  1.00  0.00     0.022 A 
BRANCH  64  68
ATOM     68  S   UNL     1      22.755  -1.212  -1.550  1.00  0.00     0.124 S 
ATOM     69  O   UNL     1      21.641  -0.276  -1.685  1.00  0.00    -0.237 OA
ATOM     70  O   UNL     1      23.849  -0.784  -0.685  1.00  0.00    -0.237 OA
ATOM     71  O   UNL     1      23.160  -1.870  -2.790  1.00  0.00    -0.744 OA
ENDBRANCH  64  68
ENDBRANCH  47  61
BRANCH  48  72
ATOM     72  C   UNL     1      15.732  -1.024   9.804  1.00  0.00     0.023 A 
ATOM     73  C   UNL     1      16.378  -0.525  10.946  1.00  0.00     0.031 A 
ATOM     74  C   UNL     1      14.355  -1.295   9.891  1.00  0.00     0.131 A 
ATOM     75  C   UNL     1      15.661  -0.361  12.141  1.00  0.00     0.055 A 
ATOM     76  C   UNL     1      13.634  -1.079  11.067  1.00  0.00     0.041 A 
ATOM     77  F   UNL     1      13.687  -1.767   8.827  1.00  0.00    -0.206 F 
ATOM     78  C   UNL     1      14.291  -0.624  12.206  1.00  0.00     0.022 A 
BRANCH  75  79
ATOM     79  S   UNL     1      16.567   0.112  13.640  1.00  0.00     0.124 S 
ATOM     80  O   UNL     1      17.570  -0.943  13.728  1.00  0.00    -0.237 OA
ATOM     81  O   UNL     1      17.061   1.439  13.287  1.00  0.00    -0.237 OA
ATOM     82  O   UNL     1      15.541   0.088  14.680  1.00  0.00    -0.744 OA
ENDBRANCH  75  79
ENDBRANCH  48  72
BRANCH  60  83
ATOM     83  C   UNL     1      20.861  -5.469   8.259  1.00  0.00     0.023 A 
ATOM     84  C   UNL     1      20.230  -6.567   8.871  1.00  0.00     0.031 A 
ATOM     85  C   UNL     1      22.230  -5.271   8.507  1.00  0.00     0.131 A 
ATOM     86  C   UNL     1      20.947  -7.380   9.760  1.00  0.00     0.055 A 
ATOM     87  C   UNL     1      22.956  -6.123   9.341  1.00  0.00     0.041 A 
ATOM     88  F   UNL     1      22.884  -4.239   7.952  1.00  0.00    -0.206 F 
ATOM     89  C   UNL     1      22.310  -7.174   9.988  1.00  0.00     0.022 A 
BRANCH  86  90
ATOM     90  S   UNL     1      20.045  -8.634  10.711  1.00  0.00     0.124 S 
ATOM     91  O   UNL     1      19.027  -7.832  11.382  1.00  0.00    -0.237 OA
ATOM     92  O   UNL     1      19.564  -9.531   9.666  1.00  0.00    -0.237 OA
ATOM     93  O   UNL     1      21.067  -9.199  11.590  1.00  0.00    -0.744 OA
ENDBRANCH  86  90
ENDBRANCH  60  83
ENDBRANCH  34  35
ENDBRANCH  26  29
ENDBRANCH  24  25
ENDBRANCH   1  24
TORSDOF 16
