REMARK SMILES O=C(CCCNc1ccccc1SC(F)F)NCCCNC(=O)c1ccc(-c2c3nc(c(-c4cc(S(=O)(=O)[O-])ccc4F)c4ccc([nH]4)c(-c4cc(S(=O)(=O)[O-])ccc4F)c4nc(c(-c5cc(S(=O)(=O)[O-])ccc5F)c5ccc2[nH]5)C=C4)C=C3)cc1
REMARK SMILES IDX 1 1 2 2 17 3 3 5 4 6 5 7 6 8 7 10 8 11 12 12 9 13 11 14
REMARK SMILES IDX 10 15 13 16 14 17 15 18 16 19 18 20 19 21 20 22 21 23 22 24
REMARK SMILES IDX 23 26 24 27 25 28 86 29 26 30 85 31 27 32 28 33 29 34 79 35
REMARK SMILES IDX 30 36 84 37 78 38 80 39 31 40 83 41 77 42 76 43 32 45 64 46
REMARK SMILES IDX 44 47 63 48 45 49 48 50 62 51 81 52 46 53 47 54 61 56 82 57
REMARK SMILES IDX 49 58 33 59 34 60 42 61 35 62 41 63 43 64 40 65 36 66 37 67
REMARK SMILES IDX 38 68 39 69 65 70 66 71 74 72 67 73 73 74 75 75 72 76 68 77
REMARK SMILES IDX 69 78 70 79 71 80 50 81 51 82 59 83 52 84 58 85 60 86 57 87
REMARK SMILES IDX 53 88 54 89 55 90 56 91
REMARK H PARENT 17 4 6 9 21 25 80 44 48 55
REMARK Flexibility Score: inf
ROOT
ATOM      1  O   UNL     1       0.962  -0.250  -0.289  1.00  0.00    -0.275 OA
ATOM      2  C   UNL     1       2.135  -0.121   0.044  1.00  0.00     0.220 C 
ATOM      3  N   UNL     1       2.825   1.069  -0.005  1.00  0.00    -0.356 N 
ATOM      4  H   UNL     1       3.772   1.082   0.264  1.00  0.00     0.163 HD
ENDROOT
BRANCH   2   5
ATOM      5  C   UNL     1       2.939  -1.289   0.576  1.00  0.00     0.102 C 
BRANCH   5   6
ATOM      6  C   UNL     1       3.818  -1.974  -0.472  1.00  0.00     0.031 C 
BRANCH   6   7
ATOM      7  C   UNL     1       4.901  -1.103  -1.116  1.00  0.00     0.113 C 
BRANCH   7   8
ATOM      8  N   UNL     1       5.743  -0.498  -0.102  1.00  0.00    -0.384 N 
ATOM      9  H   UNL     1       5.313  -0.166   0.719  1.00  0.00     0.160 HD
BRANCH   8  10
ATOM     10  C   UNL     1       7.124  -0.360  -0.221  1.00  0.00     0.048 A 
ATOM     11  C   UNL     1       7.860  -0.839   0.892  1.00  0.00     0.027 A 
ATOM     12  C   UNL     1       7.850   0.113  -1.335  1.00  0.00     0.036 A 
ATOM     13  C   UNL     1       9.253  -0.852   0.927  1.00  0.00     0.002 A 
ATOM     14  C   UNL     1       9.265   0.127  -1.262  1.00  0.00     0.017 A 
ATOM     15  C   UNL     1       9.960  -0.350  -0.149  1.00  0.00     0.001 A 
BRANCH  12  16
ATOM     16  S   UNL     1       7.238   0.580  -2.957  1.00  0.00    -0.053 SA
BRANCH  16  17
ATOM     17  C   UNL     1       5.860   1.709  -2.692  1.00  0.00     0.405 C 
ATOM     18  F   UNL     1       4.750   1.191  -3.292  1.00  0.00    -0.198 F 
ATOM     19  F   UNL     1       5.530   1.913  -1.396  1.00  0.00    -0.198 F 
ENDBRANCH  16  17
ENDBRANCH  12  16
ENDBRANCH   8  10
ENDBRANCH   7   8
ENDBRANCH   6   7
ENDBRANCH   5   6
ENDBRANCH   2   5
BRANCH   3  20
ATOM     20  C   UNL     1       2.204   2.305  -0.441  1.00  0.00     0.117 C 
BRANCH  20  21
ATOM     21  C   UNL     1       2.457   3.462   0.522  1.00  0.00     0.042 C 
BRANCH  21  22
ATOM     22  C   UNL     1       3.912   3.908   0.625  1.00  0.00     0.118 C 
BRANCH  22  23
ATOM     23  N   UNL     1       4.424   4.457  -0.619  1.00  0.00    -0.352 N 
ATOM     24  C   UNL     1       5.151   5.593  -0.871  1.00  0.00     0.251 C 
ATOM     25  H   UNL     1       4.213   3.922  -1.419  1.00  0.00     0.163 HD
ATOM     26  O   UNL     1       5.403   5.884  -2.036  1.00  0.00    -0.269 OA
BRANCH  24  27
ATOM     27  C   UNL     1       5.606   6.473   0.234  1.00  0.00     0.039 A 
ATOM     28  C   UNL     1       5.563   7.858   0.044  1.00  0.00     0.014 A 
ATOM     29  C   UNL     1       6.112   5.959   1.431  1.00  0.00     0.014 A 
ATOM     30  C   UNL     1       5.984   8.719   1.063  1.00  0.00     0.010 A 
ATOM     31  C   UNL     1       6.453   6.819   2.477  1.00  0.00     0.010 A 
ATOM     32  C   UNL     1       6.410   8.210   2.301  1.00  0.00    -0.014 A 
BRANCH  32  33
ATOM     33  C   UNL     1       6.838   9.128   3.395  1.00  0.00     0.031 A 
ATOM     34  C   UNL     1       8.258   9.100   3.901  1.00  0.00     0.074 A 
ATOM     35  C   UNL     1       5.948   9.977   3.946  1.00  0.00     0.049 A 
ATOM     36  N   UNL     1       8.819   9.823   4.838  1.00  0.00    -0.248 NA
ATOM     37  C   UNL     1       9.159   8.109   3.293  1.00  0.00     0.031 C 
ATOM     38  C   UNL     1       4.534  10.073   3.577  1.00  0.00     0.029 A 
ATOM     39  N   UNL     1       6.097  10.926   4.927  1.00  0.00    -0.354 N 
ATOM     40  C   UNL     1      10.133   9.372   4.934  1.00  0.00     0.074 A 
ATOM     41  C   UNL     1      10.260   8.264   4.012  1.00  0.00     0.031 C 
ATOM     42  C   UNL     1       3.957  11.052   4.293  1.00  0.00     0.029 A 
ATOM     43  C   UNL     1       4.944  11.627   5.202  1.00  0.00     0.049 A 
ATOM     44  H   UNL     1       6.949  11.091   5.392  1.00  0.00     0.167 HD
ATOM     45  C   UNL     1      11.147   9.853   5.697  1.00  0.00     0.034 A 
ATOM     46  C   UNL     1       4.706  12.619   6.084  1.00  0.00     0.034 A 
ATOM     47  C   UNL     1      11.008  10.962   6.612  1.00  0.00     0.049 A 
ATOM     48  C   UNL     1       5.845  13.127   6.933  1.00  0.00     0.074 A 
ATOM     49  C   UNL     1      11.977  11.554   7.404  1.00  0.00     0.029 A 
ATOM     50  N   UNL     1       9.824  11.646   6.864  1.00  0.00    -0.354 N 
ATOM     51  N   UNL     1       7.095  12.723   6.973  1.00  0.00    -0.248 NA
ATOM     52  C   UNL     1       5.544  14.242   7.839  1.00  0.00     0.031 C 
ATOM     53  C   UNL     1      11.366  12.540   8.187  1.00  0.00     0.029 A 
ATOM     54  C   UNL     1      10.034  12.632   7.817  1.00  0.00     0.049 A 
ATOM     55  H   UNL     1       8.961  11.457   6.428  1.00  0.00     0.167 HD
ATOM     56  C   UNL     1       7.737  13.566   7.878  1.00  0.00     0.074 A 
ATOM     57  C   UNL     1       6.740  14.508   8.342  1.00  0.00     0.031 C 
ATOM     58  C   UNL     1       9.033  13.565   8.283  1.00  0.00     0.034 A 
BRANCH  45  59
ATOM     59  C   UNL     1      12.488   9.160   5.590  1.00  0.00     0.023 A 
ATOM     60  C   UNL     1      13.202   9.110   4.378  1.00  0.00     0.031 A 
ATOM     61  C   UNL     1      13.050   8.514   6.706  1.00  0.00     0.131 A 
ATOM     62  C   UNL     1      14.387   8.365   4.291  1.00  0.00     0.055 A 
ATOM     63  C   UNL     1      14.277   7.851   6.635  1.00  0.00     0.041 A 
ATOM     64  F   UNL     1      12.409   8.505   7.886  1.00  0.00    -0.206 F 
ATOM     65  C   UNL     1      14.945   7.759   5.418  1.00  0.00     0.022 A 
BRANCH  62  66
ATOM     66  S   UNL     1      15.104   8.066   2.651  1.00  0.00     0.124 S 
ATOM     67  O   UNL     1      14.000   7.402   1.963  1.00  0.00    -0.237 OA
ATOM     68  O   UNL     1      15.423   9.414   2.195  1.00  0.00    -0.237 OA
ATOM     69  O   UNL     1      16.257   7.212   2.931  1.00  0.00    -0.744 OA
ENDBRANCH  62  66
ENDBRANCH  45  59
BRANCH  46  70
ATOM     70  C   UNL     1       3.341  13.207   6.215  1.00  0.00     0.023 A 
ATOM     71  C   UNL     1       3.099  14.559   5.916  1.00  0.00     0.031 A 
ATOM     72  C   UNL     1       2.265  12.438   6.694  1.00  0.00     0.131 A 
ATOM     73  C   UNL     1       1.832  15.114   6.154  1.00  0.00     0.055 A 
ATOM     74  C   UNL     1       0.991  12.980   6.871  1.00  0.00     0.041 A 
ATOM     75  F   UNL     1       2.438  11.141   6.992  1.00  0.00    -0.206 F 
ATOM     76  C   UNL     1       0.772  14.330   6.616  1.00  0.00     0.022 A 
BRANCH  73  77
ATOM     77  S   UNL     1       1.613  16.903   5.947  1.00  0.00     0.124 S 
ATOM     78  O   UNL     1       2.611  17.432   6.869  1.00  0.00    -0.237 OA
ATOM     79  O   UNL     1       1.893  17.080   4.527  1.00  0.00    -0.237 OA
ATOM     80  O   UNL     1       0.222  17.122   6.338  1.00  0.00    -0.744 OA
ENDBRANCH  73  77
ENDBRANCH  46  70
BRANCH  58  81
ATOM     81  C   UNL     1       9.457  14.663   9.234  1.00  0.00     0.023 A 
ATOM     82  C   UNL     1       8.905  14.789  10.522  1.00  0.00     0.031 A 
ATOM     83  C   UNL     1      10.396  15.627   8.825  1.00  0.00     0.131 A 
ATOM     84  C   UNL     1       9.229  15.900  11.316  1.00  0.00     0.055 A 
ATOM     85  C   UNL     1      10.775  16.686   9.651  1.00  0.00     0.041 A 
ATOM     86  F   UNL     1      10.957  15.562   7.606  1.00  0.00    -0.206 F 
ATOM     87  C   UNL     1      10.174  16.839  10.897  1.00  0.00     0.022 A 
BRANCH  84  88
ATOM     88  S   UNL     1       8.289  16.180  12.843  1.00  0.00     0.124 S 
ATOM     89  O   UNL     1       6.913  16.174  12.357  1.00  0.00    -0.237 OA
ATOM     90  O   UNL     1       8.681  15.038  13.663  1.00  0.00    -0.237 OA
ATOM     91  O   UNL     1       8.775  17.476  13.312  1.00  0.00    -0.744 OA
ENDBRANCH  84  88
ENDBRANCH  58  81
ENDBRANCH  32  33
ENDBRANCH  24  27
ENDBRANCH  22  23
ENDBRANCH  21  22
ENDBRANCH  20  21
ENDBRANCH   3  20
TORSDOF 19
