REMARK SMILES Cc1ccc(C(=O)NC2CC2)cc1NC(=O)[C@@H]1[C@@H](C(=O)NCCCNC(=O)c2ccc(-c3c4nc(c(-c5cc(S(=O)(=O)[O-])ccc5F)c5ccc([nH]5)c(-c5cc(S(=O)(=O)[O-])ccc5F)c5nc(c(-c6cc(S(=O)(=O)[O-])ccc6F)c6ccc3[nH]6)C=C5)C=C4)cc2)[C@H]2C=C[C@@H]1C2
REMARK SMILES IDX 22 1 21 2 19 3 20 4 18 6 17 7 94 8 91 9 93 10 95 11 92 12
REMARK SMILES IDX 15 13 14 14 16 16 13 17 1 18 2 19 3 20 4 21 12 22 5 23 6 24
REMARK SMILES IDX 7 25 8 26 9 28 10 29 11 30 23 31 24 32 25 33 26 34 27 36
REMARK SMILES IDX 28 37 29 38 90 39 30 40 89 41 31 42 32 43 33 44 83 45 34 46
REMARK SMILES IDX 88 47 82 48 84 49 35 50 87 51 81 52 80 53 36 55 68 56 48 57
REMARK SMILES IDX 67 58 49 59 52 60 66 61 85 62 50 63 51 64 65 66 86 67 53 68
REMARK SMILES IDX 37 69 38 70 46 71 39 72 45 73 47 74 44 75 40 76 41 77 42 78
REMARK SMILES IDX 43 79 69 80 70 81 78 82 71 83 77 84 79 85 76 86 72 87 73 88
REMARK SMILES IDX 74 89 75 90 54 91 55 92 63 93 56 94 62 95 64 96 61 97 57 98
REMARK SMILES IDX 58 99 59 100 60 101
REMARK H PARENT 21 5 14 15 8 27 25 35 84 54 52 65
REMARK Flexibility Score: inf
ROOT
ATOM      1  C   UNL     1      -3.916   7.233   1.001  1.00  0.00     0.117 C 
ENDROOT
BRANCH   1   2
ATOM      2  N   UNL     1      -3.268   6.562  -0.115  1.00  0.00    -0.356 N 
ATOM      3  C   UNL     1      -2.195   5.746  -0.222  1.00  0.00     0.224 C 
ATOM      4  O   UNL     1      -1.870   5.405  -1.368  1.00  0.00    -0.275 OA
ATOM      5  H   UNL     1      -3.705   6.741  -0.978  1.00  0.00     0.163 HD
BRANCH   3   6
ATOM      6  C   UNL     1      -1.315   5.298   0.945  1.00  0.00     0.098 C 
ATOM      7  C   UNL     1      -0.895   3.792   0.693  1.00  0.00     0.099 C 
ATOM      8  C   UNL     1      -1.126   3.127   2.076  1.00  0.00     0.025 C 
ATOM      9  C   UNL     1      -1.868   5.216   2.383  1.00  0.00     0.025 C 
ATOM     10  C   UNL     1      -2.615   3.034   2.295  1.00  0.00    -0.027 C 
ATOM     11  C   UNL     1      -0.833   4.286   3.030  1.00  0.00     0.017 C 
ATOM     12  C   UNL     1      -3.062   4.286   2.459  1.00  0.00    -0.027 C 
BRANCH   7  13
ATOM     13  C   UNL     1       0.527   3.562   0.213  1.00  0.00     0.228 C 
ATOM     14  N   UNL     1       0.958   2.308  -0.159  1.00  0.00    -0.326 N 
ATOM     15  H   UNL     1       1.908   2.276  -0.416  1.00  0.00     0.169 HD
ATOM     16  O   UNL     1       1.375   4.459   0.247  1.00  0.00    -0.274 OA
BRANCH  14  17
ATOM     17  C   UNL     1       0.304   1.056  -0.243  1.00  0.00     0.044 A 
ATOM     18  C   UNL     1       2.520  -0.168   0.258  1.00  0.00     0.046 C 
ATOM     19  C   UNL     1       1.033  -0.119   0.028  1.00  0.00    -0.027 A 
ATOM     20  C   UNL     1       0.349  -1.345   0.068  1.00  0.00     0.006 A 
ATOM     21  C   UNL     1      -1.027  -1.409  -0.154  1.00  0.00     0.014 A 
ATOM     22  C   UNL     1      -1.052   0.941  -0.597  1.00  0.00     0.040 A 
ATOM     23  C   UNL     1      -1.755  -0.264  -0.503  1.00  0.00     0.041 A 
BRANCH  23  24
ATOM     24  C   UNL     1      -3.225  -0.452  -0.750  1.00  0.00     0.251 C 
ATOM     25  O   UNL     1      -3.677  -1.601  -0.729  1.00  0.00    -0.269 OA
ATOM     26  N   UNL     1      -4.122   0.573  -0.963  1.00  0.00    -0.349 N 
ATOM     27  H   UNL     1      -5.051   0.275  -1.091  1.00  0.00     0.164 HD
BRANCH  26  28
ATOM     28  C   UNL     1      -3.947   1.980  -1.033  1.00  0.00     0.082 C 
ATOM     29  C   UNL     1      -3.823   2.656  -2.371  1.00  0.00     0.027 C 
ATOM     30  C   UNL     1      -5.035   2.893  -1.522  1.00  0.00     0.027 C 
ENDBRANCH  26  28
ENDBRANCH  23  24
ENDBRANCH  14  17
ENDBRANCH   7  13
ENDBRANCH   3   6
ENDBRANCH   1   2
BRANCH   1  31
ATOM     31  C   UNL     1      -3.425   8.661   1.171  1.00  0.00     0.042 C 
BRANCH  31  32
ATOM     32  C   UNL     1      -4.317   9.655   0.439  1.00  0.00     0.118 C 
BRANCH  32  33
ATOM     33  N   UNL     1      -5.361  10.243   1.281  1.00  0.00    -0.352 N 
ATOM     34  C   UNL     1      -6.280  11.232   0.966  1.00  0.00     0.251 C 
ATOM     35  H   UNL     1      -5.418   9.886   2.197  1.00  0.00     0.163 HD
ATOM     36  O   UNL     1      -7.081  11.647   1.788  1.00  0.00    -0.269 OA
BRANCH  34  37
ATOM     37  C   UNL     1      -6.359  11.688  -0.441  1.00  0.00     0.039 A 
ATOM     38  C   UNL     1      -7.585  11.540  -1.098  1.00  0.00     0.014 A 
ATOM     39  C   UNL     1      -5.200  11.976  -1.154  1.00  0.00     0.014 A 
ATOM     40  C   UNL     1      -7.600  11.425  -2.484  1.00  0.00     0.010 A 
ATOM     41  C   UNL     1      -5.196  11.751  -2.516  1.00  0.00     0.010 A 
ATOM     42  C   UNL     1      -6.384  11.414  -3.172  1.00  0.00    -0.014 A 
BRANCH  42  43
ATOM     43  C   UNL     1      -6.261  10.918  -4.537  1.00  0.00     0.031 A 
ATOM     44  C   UNL     1      -6.027  11.847  -5.658  1.00  0.00     0.074 A 
ATOM     45  C   UNL     1      -6.380   9.596  -4.793  1.00  0.00     0.049 A 
ATOM     46  N   UNL     1      -6.513  11.680  -6.842  1.00  0.00    -0.248 NA
ATOM     47  C   UNL     1      -5.247  13.072  -5.517  1.00  0.00     0.031 C 
ATOM     48  C   UNL     1      -6.129   8.914  -6.059  1.00  0.00     0.029 A 
ATOM     49  N   UNL     1      -6.992   8.633  -3.994  1.00  0.00    -0.354 N 
ATOM     50  C   UNL     1      -5.906  12.595  -7.667  1.00  0.00     0.074 A 
ATOM     51  C   UNL     1      -5.179  13.482  -6.787  1.00  0.00     0.031 C 
ATOM     52  C   UNL     1      -6.795   7.748  -6.061  1.00  0.00     0.029 A 
ATOM     53  C   UNL     1      -7.594   7.696  -4.850  1.00  0.00     0.049 A 
ATOM     54  H   UNL     1      -7.002   8.614  -3.010  1.00  0.00     0.167 HD
ATOM     55  C   UNL     1      -5.947  12.440  -9.018  1.00  0.00     0.034 A 
ATOM     56  C   UNL     1      -8.934   7.450  -4.792  1.00  0.00     0.034 A 
ATOM     57  C   UNL     1      -6.654  11.228  -9.410  1.00  0.00     0.049 A 
ATOM     58  C   UNL     1      -9.662   7.784  -6.075  1.00  0.00     0.074 A 
ATOM     59  C   UNL     1      -6.210   9.960  -9.751  1.00  0.00     0.029 A 
ATOM     60  N   UNL     1      -8.023  11.122  -9.195  1.00  0.00    -0.354 N 
ATOM     61  N   UNL     1      -9.146   8.486  -7.046  1.00  0.00    -0.248 NA
ATOM     62  C   UNL     1     -11.036   7.378  -6.353  1.00  0.00     0.031 C 
ATOM     63  C   UNL     1      -7.313   9.074  -9.671  1.00  0.00     0.029 A 
ATOM     64  C   UNL     1      -8.433   9.807  -9.320  1.00  0.00     0.049 A 
ATOM     65  H   UNL     1      -8.618  11.877  -8.984  1.00  0.00     0.167 HD
ATOM     66  C   UNL     1     -10.084   8.672  -8.030  1.00  0.00     0.074 A 
ATOM     67  C   UNL     1     -11.240   7.926  -7.564  1.00  0.00     0.031 C 
ATOM     68  C   UNL     1      -9.831   9.442  -9.132  1.00  0.00     0.034 A 
BRANCH  55  69
ATOM     69  C   UNL     1      -5.050  13.228  -9.934  1.00  0.00     0.023 A 
ATOM     70  C   UNL     1      -4.434  12.593 -11.030  1.00  0.00     0.031 A 
ATOM     71  C   UNL     1      -4.737  14.588  -9.752  1.00  0.00     0.131 A 
ATOM     72  C   UNL     1      -3.482  13.264 -11.818  1.00  0.00     0.055 A 
ATOM     73  C   UNL     1      -3.748  15.241 -10.499  1.00  0.00     0.041 A 
ATOM     74  F   UNL     1      -5.390  15.335  -8.847  1.00  0.00    -0.206 F 
ATOM     75  C   UNL     1      -3.103  14.572 -11.531  1.00  0.00     0.022 A 
BRANCH  72  76
ATOM     76  S   UNL     1      -2.748  12.397 -13.232  1.00  0.00     0.124 S 
ATOM     77  O   UNL     1      -2.141  11.229 -12.601  1.00  0.00    -0.237 OA
ATOM     78  O   UNL     1      -3.911  12.143 -14.075  1.00  0.00    -0.237 OA
ATOM     79  O   UNL     1      -1.798  13.370 -13.770  1.00  0.00    -0.744 OA
ENDBRANCH  72  76
ENDBRANCH  55  69
BRANCH  56  80
ATOM     80  C   UNL     1      -9.492   7.569  -3.414  1.00  0.00     0.023 A 
ATOM     81  C   UNL     1      -8.928   6.737  -2.423  1.00  0.00     0.031 A 
ATOM     82  C   UNL     1     -10.216   8.691  -2.993  1.00  0.00     0.131 A 
ATOM     83  C   UNL     1      -8.941   7.129  -1.077  1.00  0.00     0.055 A 
ATOM     84  C   UNL     1     -10.292   9.038  -1.636  1.00  0.00     0.041 A 
ATOM     85  F   UNL     1     -10.748   9.538  -3.886  1.00  0.00    -0.206 F 
ATOM     86  C   UNL     1      -9.614   8.283  -0.676  1.00  0.00     0.022 A 
BRANCH  83  87
ATOM     87  S   UNL     1      -7.819   6.276   0.068  1.00  0.00     0.124 S 
ATOM     88  O   UNL     1      -8.587   5.092   0.435  1.00  0.00    -0.237 OA
ATOM     89  O   UNL     1      -6.641   6.038  -0.765  1.00  0.00    -0.237 OA
ATOM     90  O   UNL     1      -7.602   7.246   1.139  1.00  0.00    -0.744 OA
ENDBRANCH  83  87
ENDBRANCH  56  80
BRANCH  68  91
ATOM     91  C   UNL     1     -10.844   9.858 -10.178  1.00  0.00     0.023 A 
ATOM     92  C   UNL     1     -12.229   9.842  -9.963  1.00  0.00     0.031 A 
ATOM     93  C   UNL     1     -10.425  10.371 -11.431  1.00  0.00     0.131 A 
ATOM     94  C   UNL     1     -13.127  10.229 -10.975  1.00  0.00     0.055 A 
ATOM     95  C   UNL     1     -11.316  10.835 -12.404  1.00  0.00     0.041 A 
ATOM     96  F   UNL     1      -9.128  10.448 -11.766  1.00  0.00    -0.206 F 
ATOM     97  C   UNL     1     -12.681  10.749 -12.187  1.00  0.00     0.022 A 
BRANCH  94  98
ATOM     98  S   UNL     1     -14.899   9.966 -10.697  1.00  0.00     0.124 S 
ATOM     99  O   UNL     1     -14.966   8.515 -10.548  1.00  0.00    -0.237 OA
ATOM    100  O   UNL     1     -15.144  10.739  -9.485  1.00  0.00    -0.237 OA
ATOM    101  O   UNL     1     -15.521  10.494 -11.909  1.00  0.00    -0.744 OA
ENDBRANCH  94  98
ENDBRANCH  68  91
ENDBRANCH  42  43
ENDBRANCH  34  37
ENDBRANCH  32  33
ENDBRANCH  31  32
ENDBRANCH   1  31
TORSDOF 17
