REMARK SMILES COc1ccc([C@@H]2C3=C(C[C@@H](c4ccccc4)CC3=O)Nc3ccccc3N2C(=O)CCC(=O)NCCCNC(=O)c2ccc(-c3c4nc(c(-c5cc(S(=O)(=O)[O-])ccc5F)c5ccc([nH]5)c(-c5cc(S(=O)(=O)[O-])ccc5F)c5nc(c(-c6cc(S(=O)(=O)[O-])ccc6F)c6ccc3[nH]6)C=C5)C=C4)cc2)cc1
REMARK SMILES IDX 33 1 34 2 35 3 32 5 31 6 29 7 30 8 28 9 7 10 6 12 3 13 4 14
REMARK SMILES IDX 106 15 5 16 105 17 2 18 1 19 27 20 22 21 26 22 23 23 25 24
REMARK SMILES IDX 24 25 21 26 9 28 8 29 10 30 19 31 11 33 18 34 20 35 12 36
REMARK SMILES IDX 13 37 17 38 14 39 16 40 15 41 36 42 37 43 38 44 39 45 40 46
REMARK SMILES IDX 41 48 42 49 43 50 104 51 44 52 103 53 45 54 46 55 47 56
REMARK SMILES IDX 97 57 48 58 102 59 96 60 98 61 49 62 101 63 95 64 94 65
REMARK SMILES IDX 50 67 82 68 62 69 81 70 63 71 66 72 80 73 99 74 64 75 65 76
REMARK SMILES IDX 79 78 100 79 67 80 51 81 52 82 60 83 53 84 59 85 61 86 58 87
REMARK SMILES IDX 54 88 55 89 56 90 57 91 83 92 84 93 92 94 85 95 91 96 93 97
REMARK SMILES IDX 90 98 86 99 87 100 88 101 89 102 68 103 69 104 77 105 70 106
REMARK SMILES IDX 76 107 78 108 75 109 71 110 72 111 73 112 74 113
REMARK H PARENT 35 4 21 27 39 47 98 66 66 77
REMARK Flexibility Score: 90.00
ROOT
ATOM      1  C   UNL     1       0.173   4.851  -3.599  1.00  0.00     0.220 C 
ATOM      2  O   UNL     1       0.390   5.907  -3.005  1.00  0.00    -0.275 OA
ATOM      3  N   UNL     1       0.810   3.716  -3.189  1.00  0.00    -0.356 N 
ATOM      4  H   UNL     1       1.688   3.852  -2.766  1.00  0.00     0.163 HD
ENDROOT
BRANCH   1   5
ATOM      5  C   UNL     1      -0.707   4.821  -4.822  1.00  0.00     0.110 C 
BRANCH   5   6
ATOM      6  C   UNL     1       0.066   5.224  -6.073  1.00  0.00     0.110 C 
BRANCH   6   7
ATOM      7  C   UNL     1       1.444   4.569  -6.174  1.00  0.00     0.228 C 
ATOM      8  O   UNL     1       1.501   3.413  -6.603  1.00  0.00    -0.274 OA
BRANCH   7   9
ATOM      9  N   UNL     1       2.577   5.293  -5.776  1.00  0.00    -0.298 N 
BRANCH   9  10
ATOM     10  C   UNL     1       3.944   4.725  -6.068  1.00  0.00     0.156 CG0
ATOM     11  G   UNL     1       4.442   4.986  -7.517  1.00  0.00     0.000 G0
BRANCH  10  12
ATOM     12  C   UNL     1       4.992   4.795  -4.943  1.00  0.00    -0.020 A 
ATOM     13  C   UNL     1       7.615   4.676  -4.043  1.00  0.00     0.118 A 
ATOM     14  C   UNL     1       6.990   5.915  -4.161  1.00  0.00     0.047 A 
ATOM     15  C   UNL     1       6.869   3.512  -4.061  1.00  0.00     0.047 A 
ATOM     16  C   UNL     1       5.666   5.976  -4.614  1.00  0.00     0.010 A 
ATOM     17  C   UNL     1       5.549   3.585  -4.480  1.00  0.00     0.010 A 
BRANCH  13  18
ATOM     18  O   UNL     1       8.984   4.619  -4.079  1.00  0.00    -0.497 OA
ATOM     19  C   UNL     1       9.389   4.069  -5.351  1.00  0.00     0.278 C 
ENDBRANCH  13  18
ENDBRANCH  10  12
ENDBRANCH   9  10
BRANCH   9  20
ATOM     20  C   UNL     1       2.546   6.702  -5.863  1.00  0.00     0.068 A 
ATOM     21  C   UNL     1       2.751   7.243  -7.144  1.00  0.00     0.062 A 
ATOM     22  C   UNL     1       2.632   7.478  -4.711  1.00  0.00     0.028 A 
ATOM     23  C   UNL     1       3.184   8.563  -7.240  1.00  0.00     0.028 A 
ATOM     24  C   UNL     1       3.035   8.804  -4.825  1.00  0.00     0.002 A 
ATOM     25  C   UNL     1       3.355   9.328  -6.080  1.00  0.00     0.002 A 
BRANCH  21  26
ATOM     26  N   UNL     1       2.670   6.402  -8.277  1.00  0.00    -0.357 N 
ATOM     27  H   UNL     1       1.918   6.494  -8.906  1.00  0.00     0.166 HD
BRANCH  26  28
ATOM     28  C   UNL     1       3.647   5.448  -8.502  1.00  0.00     0.025 C 
ATOM     29  C   UNL     1       4.442   4.986  -7.517  1.00  0.00     0.042 CG0
ATOM     30  C   UNL     1       3.889   4.967  -9.915  1.00  0.00     0.063 C 
ATOM     31  C   UNL     1       5.875   5.196  -7.919  1.00  0.00     0.163 C 
ATOM     32  G   UNL     1       3.944   4.725  -6.068  1.00  0.00     0.000 G0
ATOM     33  C   UNL     1       5.266   5.376 -10.434  1.00  0.00     0.033 C 
ATOM     34  C   UNL     1       6.326   5.096  -9.367  1.00  0.00     0.089 C 
ATOM     35  O   UNL     1       6.733   5.501  -7.095  1.00  0.00    -0.294 OA
BRANCH  33  36
ATOM     36  C   UNL     1       5.325   6.766 -11.068  1.00  0.00    -0.044 A 
ATOM     37  C   UNL     1       4.327   7.734 -10.890  1.00  0.00     0.004 A 
ATOM     38  C   UNL     1       6.357   7.063 -11.973  1.00  0.00     0.004 A 
ATOM     39  C   UNL     1       4.331   8.937 -11.598  1.00  0.00     0.000 A 
ATOM     40  C   UNL     1       6.359   8.264 -12.693  1.00  0.00     0.000 A 
ATOM     41  C   UNL     1       5.342   9.197 -12.511  1.00  0.00     0.000 A 
ENDBRANCH  33  36
ENDBRANCH  26  28
ENDBRANCH  21  26
ENDBRANCH   9  20
ENDBRANCH   7   9
ENDBRANCH   6   7
ENDBRANCH   5   6
ENDBRANCH   1   5
BRANCH   3  42
ATOM     42  C   UNL     1       0.371   2.332  -3.291  1.00  0.00     0.117 C 
BRANCH  42  43
ATOM     43  C   UNL     1       1.073   1.402  -4.296  1.00  0.00     0.042 C 
BRANCH  43  44
ATOM     44  C   UNL     1       2.576   1.591  -4.522  1.00  0.00     0.118 C 
BRANCH  44  45
ATOM     45  N   UNL     1       3.409   0.529  -3.979  1.00  0.00    -0.352 N 
ATOM     46  C   UNL     1       4.413  -0.266  -4.489  1.00  0.00     0.251 C 
ATOM     47  H   UNL     1       3.210   0.334  -3.035  1.00  0.00     0.163 HD
ATOM     48  O   UNL     1       4.884  -1.091  -3.698  1.00  0.00    -0.269 OA
BRANCH  46  49
ATOM     49  C   UNL     1       4.986  -0.229  -5.880  1.00  0.00     0.039 A 
ATOM     50  C   UNL     1       5.592  -1.410  -6.344  1.00  0.00     0.014 A 
ATOM     51  C   UNL     1       5.063   0.887  -6.714  1.00  0.00     0.014 A 
ATOM     52  C   UNL     1       6.222  -1.475  -7.600  1.00  0.00     0.010 A 
ATOM     53  C   UNL     1       5.707   0.839  -7.965  1.00  0.00     0.010 A 
ATOM     54  C   UNL     1       6.276  -0.349  -8.431  1.00  0.00    -0.014 A 
BRANCH  54  55
ATOM     55  C   UNL     1       6.701  -0.469  -9.853  1.00  0.00     0.031 A 
ATOM     56  C   UNL     1       8.050  -0.029 -10.350  1.00  0.00     0.074 A 
ATOM     57  C   UNL     1       5.787  -0.933 -10.727  1.00  0.00     0.049 A 
ATOM     58  N   UNL     1       8.552  -0.128 -11.557  1.00  0.00    -0.248 NA
ATOM     59  C   UNL     1       8.935   0.627  -9.382  1.00  0.00     0.031 C 
ATOM     60  C   UNL     1       4.418  -1.317 -10.373  1.00  0.00     0.029 A 
ATOM     61  N   UNL     1       5.853  -1.147 -12.080  1.00  0.00    -0.354 N 
ATOM     62  C   UNL     1       9.823   0.436 -11.497  1.00  0.00     0.074 A 
ATOM     63  C   UNL     1       9.987   0.922 -10.139  1.00  0.00     0.031 C 
ATOM     64  C   UNL     1       3.776  -1.722 -11.477  1.00  0.00     0.029 A 
ATOM     65  C   UNL     1       4.679  -1.616 -12.619  1.00  0.00     0.049 A 
ATOM     66  H   UNL     1       6.664  -0.981 -12.614  1.00  0.00     0.167 HD
ATOM     67  C   UNL     1      10.761   0.522 -12.479  1.00  0.00     0.034 A 
ATOM     68  C   UNL     1       4.357  -1.933 -13.887  1.00  0.00     0.034 A 
ATOM     69  C   UNL     1      10.564   0.041 -13.832  1.00  0.00     0.049 A 
ATOM     70  C   UNL     1       5.412  -1.841 -14.953  1.00  0.00     0.074 A 
ATOM     71  C   UNL     1      11.479  -0.011 -14.872  1.00  0.00     0.029 A 
ATOM     72  N   UNL     1       9.367  -0.446 -14.344  1.00  0.00    -0.354 N 
ATOM     73  N   UNL     1       6.652  -1.421 -14.850  1.00  0.00    -0.248 NA
ATOM     74  C   UNL     1       5.035  -2.292 -16.298  1.00  0.00     0.031 C 
ATOM     75  C   UNL     1      10.819  -0.453 -16.025  1.00  0.00     0.029 A 
ATOM     76  C   UNL     1       9.510  -0.756 -15.691  1.00  0.00     0.049 A 
ATOM     77  H   UNL     1       8.537  -0.556 -13.826  1.00  0.00     0.167 HD
ATOM     78  C   UNL     1       7.211  -1.586 -16.113  1.00  0.00     0.074 A 
ATOM     79  C   UNL     1       6.178  -2.156 -16.954  1.00  0.00     0.031 C 
ATOM     80  C   UNL     1       8.469  -1.298 -16.534  1.00  0.00     0.034 A 
BRANCH  67  81
ATOM     81  C   UNL     1      12.088   1.170 -12.142  1.00  0.00     0.023 A 
ATOM     82  C   UNL     1      12.951   0.627 -11.174  1.00  0.00     0.031 A 
ATOM     83  C   UNL     1      12.517   2.327 -12.821  1.00  0.00     0.131 A 
ATOM     84  C   UNL     1      14.162   1.269 -10.869  1.00  0.00     0.055 A 
ATOM     85  C   UNL     1      13.757   2.918 -12.566  1.00  0.00     0.041 A 
ATOM     86  F   UNL     1      11.736   2.903 -13.749  1.00  0.00    -0.206 F 
ATOM     87  C   UNL     1      14.583   2.397 -11.575  1.00  0.00     0.022 A 
BRANCH  84  88
ATOM     88  S   UNL     1      15.123   0.677  -9.448  1.00  0.00     0.124 S 
ATOM     89  O   UNL     1      14.150   0.794  -8.366  1.00  0.00    -0.237 OA
ATOM     90  O   UNL     1      15.472  -0.683  -9.850  1.00  0.00    -0.237 OA
ATOM     91  O   UNL     1      16.242   1.613  -9.377  1.00  0.00    -0.744 OA
ENDBRANCH  84  88
ENDBRANCH  67  81
BRANCH  68  92
ATOM     92  C   UNL     1       2.978  -2.395 -14.203  1.00  0.00     0.023 A 
ATOM     93  C   UNL     1       2.735  -3.717 -14.602  1.00  0.00     0.031 A 
ATOM     94  C   UNL     1       1.883  -1.520 -14.099  1.00  0.00     0.131 A 
ATOM     95  C   UNL     1       1.430  -4.119 -14.920  1.00  0.00     0.055 A 
ATOM     96  C   UNL     1       0.580  -1.938 -14.369  1.00  0.00     0.041 A 
ATOM     97  F   UNL     1       2.064  -0.249 -13.705  1.00  0.00    -0.206 F 
ATOM     98  C   UNL     1       0.349  -3.243 -14.793  1.00  0.00     0.022 A 
BRANCH  95  99
ATOM     99  S   UNL     1       1.175  -5.793 -15.566  1.00  0.00     0.124 S 
ATOM    100  O   UNL     1       2.050  -5.799 -16.732  1.00  0.00    -0.237 OA
ATOM    101  O   UNL     1       1.599  -6.619 -14.440  1.00  0.00    -0.237 OA
ATOM    102  O   UNL     1      -0.257  -5.829 -15.858  1.00  0.00    -0.744 OA
ENDBRANCH  95  99
ENDBRANCH  68  92
BRANCH  80 103
ATOM    103  C   UNL     1       8.797  -1.623 -17.972  1.00  0.00     0.023 A 
ATOM    104  C   UNL     1       8.190  -0.940 -19.041  1.00  0.00     0.031 A 
ATOM    105  C   UNL     1       9.707  -2.651 -18.277  1.00  0.00     0.131 A 
ATOM    106  C   UNL     1       8.456  -1.330 -20.362  1.00  0.00     0.055 A 
ATOM    107  C   UNL     1      10.013  -2.995 -19.595  1.00  0.00     0.041 A 
ATOM    108  F   UNL     1      10.313  -3.341 -17.297  1.00  0.00    -0.206 F 
ATOM    109  C   UNL     1       9.376  -2.342 -20.647  1.00  0.00     0.022 A 
BRANCH 106 110
ATOM    110  S   UNL     1       7.514  -0.555 -21.706  1.00  0.00     0.124 S 
ATOM    111  O   UNL     1       6.142  -0.911 -21.357  1.00  0.00    -0.237 OA
ATOM    112  O   UNL     1       7.863   0.854 -21.561  1.00  0.00    -0.237 OA
ATOM    113  O   UNL     1       8.036  -1.202 -22.908  1.00  0.00    -0.744 OA
ENDBRANCH 106 110
ENDBRANCH  80 103
ENDBRANCH  54  55
ENDBRANCH  46  49
ENDBRANCH  44  45
ENDBRANCH  43  44
ENDBRANCH  42  43
ENDBRANCH   3  42
TORSDOF 19
