REMARK SMILES C[C@]12CC[C@H]3[C@@H](CCC4=CC(=O)C=C[C@@]43C)[C@@H]1CC[C@H]2O[C@@H]1O[C@H](C(=O)NCCCNC(=O)c2ccc(-c3c4nc(c(-c5cc(S(=O)(=O)[O-])ccc5F)c5ccc([nH]5)c(-c5cc(S(=O)(=O)[O-])ccc5F)c5nc(c(-c6cc(S(=O)(=O)[O-])ccc6F)c6ccc3[nH]6)C=C5)C=C4)cc2)[C@@H](O)[C@H](O)[C@H]1O
REMARK SMILES IDX 29 1 28 2 27 3 25 4 26 5 24 7 22 8 23 9 101 10 99 11 97 12
REMARK SMILES IDX 21 13 20 14 1 15 2 16 3 17 17 18 4 19 6 20 18 21 19 22 5 23
REMARK SMILES IDX 7 24 15 25 8 26 9 27 14 28 16 29 10 30 13 31 11 32 12 33
REMARK SMILES IDX 102 34 100 36 98 38 30 40 31 41 32 42 33 44 34 45 35 46
REMARK SMILES IDX 96 47 36 48 95 49 37 50 38 51 39 52 89 53 40 54 94 55 88 56
REMARK SMILES IDX 90 57 41 58 93 59 87 60 86 61 42 63 74 64 54 65 73 66 55 67
REMARK SMILES IDX 58 68 72 69 91 70 56 71 57 72 71 74 92 75 59 76 43 77 44 78
REMARK SMILES IDX 52 79 45 80 51 81 53 82 50 83 46 84 47 85 48 86 49 87 75 88
REMARK SMILES IDX 76 89 84 90 77 91 83 92 85 93 82 94 78 95 79 96 80 97 81 98
REMARK SMILES IDX 60 99 61 100 69 101 62 102 68 103 70 104 67 105 63 106
REMARK SMILES IDX 64 107 65 108 66 109
REMARK H PARENT 27 6 102 35 100 37 98 39 31 43 90 62 58 73
REMARK Flexibility Score: inf
ROOT
ATOM      1  C   UNL     1       1.836  -5.465  -4.185  1.00  0.00     0.042 C 
ENDROOT
BRANCH   1   2
ATOM      2  C   UNL     1       2.587  -4.472  -2.487  1.00  0.00     0.117 C 
BRANCH   2   3
ATOM      3  N   UNL     1       3.928  -4.160  -1.831  1.00  0.00    -0.354 N 
ATOM      4  C   UNL     1       4.465  -3.025  -1.267  1.00  0.00     0.252 C 
ATOM      5  O   UNL     1       5.564  -3.161  -0.709  1.00  0.00    -0.272 OA
ATOM      6  H   UNL     1       4.538  -4.932  -1.806  1.00  0.00     0.163 HD
BRANCH   4   7
ATOM      7  C   UNL     1       3.799  -1.614  -1.272  1.00  0.00     0.241 C 
ATOM      8  C   UNL     1       3.090   0.294  -2.604  1.00  0.00     0.282 C 
ATOM      9  O   UNL     1       3.656  -1.021  -2.559  1.00  0.00    -0.334 OA
ATOM     10  C   UNL     1       1.876   0.538  -1.659  1.00  0.00     0.202 C 
ATOM     11  C   UNL     1       2.012  -0.170  -0.305  1.00  0.00     0.180 C 
ATOM     12  C   UNL     1       2.485  -1.616  -0.485  1.00  0.00     0.184 C 
BRANCH   8  13
ATOM     13  O   UNL     1       2.865   0.765  -3.954  1.00  0.00    -0.346 OA
BRANCH  13  14
ATOM     14  C   UNL     1       1.952   0.225  -4.936  1.00  0.00     0.127 C 
ATOM     15  C   UNL     1       1.399  -1.536  -6.715  1.00  0.00     0.014 C 
ATOM     16  C   UNL     1       2.149  -1.254  -5.368  1.00  0.00    -0.003 C 
ATOM     17  C   UNL     1       3.617  -1.694  -5.633  1.00  0.00     0.010 C 
ATOM     18  C   UNL     1       1.397  -1.891  -4.174  1.00  0.00     0.001 C 
ATOM     19  C   UNL     1       3.846  -3.231  -5.728  1.00  0.00     0.006 C 
ATOM     20  C   UNL     1       1.478  -3.381  -4.168  1.00  0.00    -0.003 C 
ATOM     21  C   UNL     1       0.061  -1.165  -4.118  1.00  0.00     0.007 C 
ATOM     22  C   UNL     1       0.445   0.274  -4.554  1.00  0.00     0.033 C 
ATOM     23  C   UNL     1       3.382  -3.845  -4.411  1.00  0.00     0.006 C 
ATOM     24  C   UNL     1       0.459  -4.340  -2.790  1.00  0.00     0.009 C 
ATOM     25  C   UNL     1       4.013  -5.631  -3.917  1.00  0.00     0.010 C 
ATOM     26  C   UNL     1       1.135  -6.117  -2.276  1.00  0.00     0.032 C 
ATOM     27  C   UNL     1       2.943  -6.623  -2.688  1.00  0.00    -0.056 C 
ATOM     28  C   UNL     1       5.454  -5.634  -3.366  1.00  0.00    -0.012 C 
ATOM     29  C   UNL     1       4.386  -6.536  -5.156  1.00  0.00     0.021 C 
ATOM     30  C   UNL     1       3.592  -7.431  -1.828  1.00  0.00     0.052 C 
ATOM     31  C   UNL     1       5.917  -6.537  -2.484  1.00  0.00     0.048 C 
ATOM     32  C   UNL     1       5.077  -7.550  -1.786  1.00  0.00     0.178 C 
ATOM     33  O   UNL     1       5.606  -8.395  -1.070  1.00  0.00    -0.290 OA
ENDBRANCH  13  14
ENDBRANCH   8  13
BRANCH  10  34
ATOM     34  O   UNL     1       1.613   1.935  -1.444  1.00  0.00    -0.385 OA
ATOM     35  H   UNL     1       2.361   2.337  -0.976  1.00  0.00     0.211 HD
ENDBRANCH  10  34
BRANCH  11  36
ATOM     36  O   UNL     1       0.754  -0.178   0.397  1.00  0.00    -0.387 OA
ATOM     37  H   UNL     1       0.098  -0.671  -0.121  1.00  0.00     0.211 HD
ENDBRANCH  11  36
BRANCH  12  38
ATOM     38  O   UNL     1       2.613  -2.277   0.775  1.00  0.00    -0.387 OA
ATOM     39  H   UNL     1       3.268  -1.813   1.319  1.00  0.00     0.211 HD
ENDBRANCH  12  38
ENDBRANCH   4   7
ENDBRANCH   2   3
ENDBRANCH   1   2
BRANCH   1  40
ATOM     40  C   UNL     1       1.562  -6.799  -5.066  1.00  0.00     0.118 C 
BRANCH  40  41
ATOM     41  N   UNL     1       0.994  -8.065  -4.712  1.00  0.00    -0.352 N 
ATOM     42  C   UNL     1       0.457  -8.906  -5.683  1.00  0.00     0.251 C 
ATOM     43  H   UNL     1       0.982  -8.344  -3.768  1.00  0.00     0.163 HD
ATOM     44  O   UNL     1      -0.375  -9.759  -5.384  1.00  0.00    -0.269 OA
BRANCH  42  45
ATOM     45  C   UNL     1       0.887  -8.714  -7.099  1.00  0.00     0.039 A 
ATOM     46  C   UNL     1      -0.046  -8.499  -8.114  1.00  0.00     0.014 A 
ATOM     47  C   UNL     1       2.254  -8.673  -7.393  1.00  0.00     0.014 A 
ATOM     48  C   UNL     1       0.401  -8.258  -9.421  1.00  0.00     0.010 A 
ATOM     49  C   UNL     1       2.694  -8.298  -8.657  1.00  0.00     0.010 A 
ATOM     50  C   UNL     1       1.775  -8.158  -9.705  1.00  0.00    -0.014 A 
BRANCH  50  51
ATOM     51  C   UNL     1       2.272  -8.047 -11.105  1.00  0.00     0.031 A 
ATOM     52  C   UNL     1       3.134  -9.156 -11.667  1.00  0.00     0.074 A 
ATOM     53  C   UNL     1       1.958  -6.976 -11.861  1.00  0.00     0.049 A 
ATOM     54  N   UNL     1       3.668  -9.274 -12.855  1.00  0.00    -0.248 NA
ATOM     55  C   UNL     1       3.474 -10.261 -10.755  1.00  0.00     0.031 C 
ATOM     56  C   UNL     1       1.178  -5.823 -11.406  1.00  0.00     0.029 A 
ATOM     57  N   UNL     1       2.240  -6.686 -13.172  1.00  0.00    -0.354 N 
ATOM     58  C   UNL     1       4.412 -10.452 -12.820  1.00  0.00     0.074 A 
ATOM     59  C   UNL     1       4.343 -10.955 -11.470  1.00  0.00     0.031 C 
ATOM     60  C   UNL     1       0.994  -4.981 -12.436  1.00  0.00     0.029 A 
ATOM     61  C   UNL     1       1.679  -5.508 -13.613  1.00  0.00     0.049 A 
ATOM     62  H   UNL     1       2.791  -7.266 -13.745  1.00  0.00     0.167 HD
ATOM     63  C   UNL     1       5.056 -11.084 -13.832  1.00  0.00     0.034 A 
ATOM     64  C   UNL     1       1.709  -4.928 -14.830  1.00  0.00     0.034 A 
ATOM     65  C   UNL     1       5.083 -10.578 -15.180  1.00  0.00     0.049 A 
ATOM     66  C   UNL     1       2.439  -5.642 -15.943  1.00  0.00     0.074 A 
ATOM     67  C   UNL     1       5.656 -11.144 -16.304  1.00  0.00     0.029 A 
ATOM     68  N   UNL     1       4.510  -9.378 -15.584  1.00  0.00    -0.354 N 
ATOM     69  N   UNL     1       3.087  -6.785 -15.905  1.00  0.00    -0.248 NA
ATOM     70  C   UNL     1       2.429  -4.999 -17.262  1.00  0.00     0.031 C 
ATOM     71  C   UNL     1       5.496 -10.251 -17.368  1.00  0.00     0.029 A 
ATOM     72  C   UNL     1       4.744  -9.170 -16.932  1.00  0.00     0.049 A 
ATOM     73  H   UNL     1       4.011  -8.765 -14.997  1.00  0.00     0.167 HD
ATOM     74  C   UNL     1       3.535  -7.011 -17.204  1.00  0.00     0.074 A 
ATOM     75  C   UNL     1       3.063  -5.896 -18.002  1.00  0.00     0.031 C 
ATOM     76  C   UNL     1       4.267  -8.043 -17.698  1.00  0.00     0.034 A 
BRANCH  63  77
ATOM     77  C   UNL     1       5.787 -12.368 -13.505  1.00  0.00     0.023 A 
ATOM     78  C   UNL     1       5.116 -13.494 -12.991  1.00  0.00     0.031 A 
ATOM     79  C   UNL     1       7.181 -12.457 -13.665  1.00  0.00     0.131 A 
ATOM     80  C   UNL     1       5.845 -14.617 -12.573  1.00  0.00     0.055 A 
ATOM     81  C   UNL     1       7.890 -13.614 -13.335  1.00  0.00     0.041 A 
ATOM     82  F   UNL     1       7.884 -11.411 -14.127  1.00  0.00    -0.206 F 
ATOM     83  C   UNL     1       7.224 -14.697 -12.768  1.00  0.00     0.022 A 
BRANCH  80  84
ATOM     84  S   UNL     1       4.986 -15.902 -11.621  1.00  0.00     0.124 S 
ATOM     85  O   UNL     1       4.496 -15.139 -10.475  1.00  0.00    -0.237 OA
ATOM     86  O   UNL     1       3.972 -16.366 -12.560  1.00  0.00    -0.237 OA
ATOM     87  O   UNL     1       6.042 -16.864 -11.314  1.00  0.00    -0.744 OA
ENDBRANCH  80  84
ENDBRANCH  63  77
BRANCH  64  88
ATOM     88  C   UNL     1       1.027  -3.620 -15.070  1.00  0.00     0.023 A 
ATOM     89  C   UNL     1      -0.031  -3.506 -15.987  1.00  0.00     0.031 A 
ATOM     90  C   UNL     1       1.449  -2.451 -14.409  1.00  0.00     0.131 A 
ATOM     91  C   UNL     1      -0.598  -2.248 -16.253  1.00  0.00     0.055 A 
ATOM     92  C   UNL     1       0.843  -1.213 -14.633  1.00  0.00     0.041 A 
ATOM     93  F   UNL     1       2.454  -2.499 -13.520  1.00  0.00    -0.206 F 
ATOM     94  C   UNL     1      -0.179  -1.104 -15.570  1.00  0.00     0.022 A 
BRANCH  91  95
ATOM     95  S   UNL     1      -1.830  -2.111 -17.578  1.00  0.00     0.124 S 
ATOM     96  O   UNL     1      -1.097  -2.644 -18.721  1.00  0.00    -0.237 OA
ATOM     97  O   UNL     1      -2.916  -2.939 -17.067  1.00  0.00    -0.237 OA
ATOM     98  O   UNL     1      -2.113  -0.678 -17.631  1.00  0.00    -0.744 OA
ENDBRANCH  91  95
ENDBRANCH  64  88
BRANCH  76  99
ATOM     99  C   UNL     1       4.562  -8.026 -19.177  1.00  0.00     0.023 A 
ATOM    100  C   UNL     1       5.377  -7.039 -19.756  1.00  0.00     0.031 A 
ATOM    101  C   UNL     1       4.019  -9.015 -20.017  1.00  0.00     0.131 A 
ATOM    102  C   UNL     1       5.574  -7.024 -21.143  1.00  0.00     0.055 A 
ATOM    103  C   UNL     1       4.280  -9.038 -21.387  1.00  0.00     0.041 A 
ATOM    104  F   UNL     1       3.232  -9.981 -19.517  1.00  0.00    -0.206 F 
ATOM    105  C   UNL     1       5.050  -8.030 -21.960  1.00  0.00     0.022 A 
BRANCH 102 106
ATOM    106  S   UNL     1       6.434  -5.609 -21.880  1.00  0.00     0.124 S 
ATOM    107  O   UNL     1       5.602  -4.491 -21.447  1.00  0.00    -0.237 OA
ATOM    108  O   UNL     1       7.756  -5.694 -21.268  1.00  0.00    -0.237 OA
ATOM    109  O   UNL     1       6.395  -5.893 -23.313  1.00  0.00    -0.744 OA
ENDBRANCH 102 106
ENDBRANCH  76  99
ENDBRANCH  50  51
ENDBRANCH  42  45
ENDBRANCH  40  41
ENDBRANCH   1  40
TORSDOF 18
