REMARK SMILES O=C(C[C@]1(C(=O)NC2CCCCC2)CC(c2ccc([N+](=O)[O-])cc2)=NO1)NCCCNC(=O)c1ccc(-c2c3nc(c(-c4cc(S(=O)(=O)[O-])ccc4F)c4ccc([nH]4)c(-c4cc(S(=O)(=O)[O-])ccc4F)c4nc(c(-c5cc(S(=O)(=O)[O-])ccc5F)c5ccc2[nH]5)C=C4)C=C3)cc1
REMARK SMILES IDX 29 1 28 2 27 3 1 4 2 5 3 7 4 8 14 9 26 10 15 11 25 12 5 13
REMARK SMILES IDX 6 14 7 15 8 17 9 18 13 19 10 20 12 21 11 22 16 23 17 24
REMARK SMILES IDX 24 25 18 26 23 27 19 28 20 29 21 30 22 31 30 32 31 33 32 34
REMARK SMILES IDX 33 36 34 37 35 38 96 39 36 40 95 41 37 42 38 43 39 44 89 45
REMARK SMILES IDX 40 46 94 47 88 48 90 49 41 50 93 51 87 52 86 53 42 55 74 56
REMARK SMILES IDX 54 57 73 58 55 59 58 60 72 61 91 62 56 63 57 64 71 66 92 67
REMARK SMILES IDX 59 68 43 69 44 70 52 71 45 72 51 73 53 74 50 75 46 76 47 77
REMARK SMILES IDX 48 78 49 79 75 80 76 81 84 82 77 83 83 84 85 85 82 86 78 87
REMARK SMILES IDX 79 88 80 89 81 90 60 91 61 92 69 93 62 94 68 95 70 96 67 97
REMARK SMILES IDX 63 98 64 99 65 100 66 101
REMARK H PARENT 27 6 7 16 31 35 90 54 58 65
REMARK Flexibility Score: inf
ROOT
ATOM      1  C   UNL     1       5.625   5.576  -0.846  1.00  0.00     0.042 C 
ENDROOT
BRANCH   1   2
ATOM      2  C   UNL     1       5.235   4.928   0.472  1.00  0.00     0.117 C 
BRANCH   2   3
ATOM      3  N   UNL     1       5.157   3.482   0.391  1.00  0.00    -0.356 N 
ATOM      4  O   UNL     1       6.645   3.056   2.084  1.00  0.00    -0.275 OA
ATOM      5  C   UNL     1       5.819   2.657   1.268  1.00  0.00     0.224 C 
ATOM      6  H   UNL     1       4.609   3.076  -0.319  1.00  0.00     0.163 HD
BRANCH   5   7
ATOM      7  C   UNL     1       5.357   1.215   1.254  1.00  0.00     0.162 C 
BRANCH   7   8
ATOM      8  C   UNL     1       3.904   1.120   1.787  1.00  0.00     0.229 C 
ATOM      9  C   UNL     1       3.797   1.830   3.127  1.00  0.00     0.123 C 
ATOM     10  O   UNL     1       3.651  -0.278   2.076  1.00  0.00    -0.378 OA
ATOM     11  C   UNL     1       3.247   0.738   3.964  1.00  0.00     0.092 C 
ATOM     12  N   UNL     1       3.192  -0.424   3.410  1.00  0.00    -0.089 NA
BRANCH   8  13
ATOM     13  C   UNL     1       2.946   1.471   0.604  1.00  0.00     0.268 C 
ATOM     14  O   UNL     1       3.353   1.407  -0.567  1.00  0.00    -0.270 OA
ATOM     15  N   UNL     1       1.645   1.846   0.707  1.00  0.00    -0.350 N 
ATOM     16  H   UNL     1       1.108   1.689  -0.103  1.00  0.00     0.163 HD
BRANCH  15  17
ATOM     17  C   UNL     1       0.913   2.437   1.805  1.00  0.00     0.082 C 
ATOM     18  C   UNL     1       1.158   3.952   1.838  1.00  0.00     0.025 C 
ATOM     19  C   UNL     1      -0.591   2.169   1.716  1.00  0.00     0.025 C 
ATOM     20  C   UNL     1       0.481   4.592   3.043  1.00  0.00     0.002 C 
ATOM     21  C   UNL     1      -1.312   2.778   2.921  1.00  0.00     0.002 C 
ATOM     22  C   UNL     1      -1.010   4.268   3.095  1.00  0.00     0.000 C 
ENDBRANCH  15  17
ENDBRANCH   8  13
BRANCH  11  23
ATOM     23  C   UNL     1       2.859   0.995   5.357  1.00  0.00    -0.000 A 
ATOM     24  C   UNL     1       3.630   0.480   6.401  1.00  0.00     0.017 A 
ATOM     25  C   UNL     1       1.727   1.768   5.626  1.00  0.00     0.017 A 
ATOM     26  C   UNL     1       3.274   0.760   7.726  1.00  0.00     0.086 A 
ATOM     27  C   UNL     1       1.361   2.046   6.943  1.00  0.00     0.086 A 
ATOM     28  C   UNL     1       2.140   1.544   7.991  1.00  0.00     0.269 A 
BRANCH  28  29
ATOM     29  N   UNL     1       1.758   1.841   9.378  1.00  0.00     0.062 N 
ATOM     30  O   UNL     1       2.452   1.359  10.283  1.00  0.00    -0.258 OA
ATOM     31  O   UNL     1       0.762   2.556   9.560  1.00  0.00    -0.258 OA
ENDBRANCH  28  29
ENDBRANCH  11  23
ENDBRANCH   7   8
ENDBRANCH   5   7
ENDBRANCH   2   3
ENDBRANCH   1   2
BRANCH   1  32
ATOM     32  C   UNL     1       4.608   5.390  -1.967  1.00  0.00     0.118 C 
BRANCH  32  33
ATOM     33  N   UNL     1       3.340   6.061  -1.714  1.00  0.00    -0.352 N 
ATOM     34  C   UNL     1       2.640   6.943  -2.504  1.00  0.00     0.251 C 
ATOM     35  H   UNL     1       2.921   5.851  -0.848  1.00  0.00     0.163 HD
ATOM     36  O   UNL     1       1.642   7.496  -2.047  1.00  0.00    -0.269 OA
BRANCH  34  37
ATOM     37  C   UNL     1       3.106   7.253  -3.876  1.00  0.00     0.039 A 
ATOM     38  C   UNL     1       3.130   8.585  -4.298  1.00  0.00     0.014 A 
ATOM     39  C   UNL     1       3.530   6.241  -4.742  1.00  0.00     0.014 A 
ATOM     40  C   UNL     1       3.659   8.909  -5.551  1.00  0.00     0.010 A 
ATOM     41  C   UNL     1       4.126   6.572  -5.958  1.00  0.00     0.010 A 
ATOM     42  C   UNL     1       4.206   7.911  -6.373  1.00  0.00    -0.014 A 
BRANCH  42  43
ATOM     43  C   UNL     1       4.879   8.243  -7.658  1.00  0.00     0.031 A 
ATOM     44  C   UNL     1       4.327   7.725  -8.959  1.00  0.00     0.074 A 
ATOM     45  C   UNL     1       6.031   8.944  -7.648  1.00  0.00     0.049 A 
ATOM     46  N   UNL     1       4.826   7.815 -10.165  1.00  0.00    -0.248 NA
ATOM     47  C   UNL     1       3.059   6.985  -8.886  1.00  0.00     0.031 C 
ATOM     48  C   UNL     1       6.688   9.472  -6.450  1.00  0.00     0.029 A 
ATOM     49  N   UNL     1       6.863   9.322  -8.673  1.00  0.00    -0.354 N 
ATOM     50  C   UNL     1       3.942   7.131 -10.994  1.00  0.00     0.074 A 
ATOM     51  C   UNL     1       2.908   6.585 -10.140  1.00  0.00     0.031 C 
ATOM     52  C   UNL     1       7.808  10.119  -6.811  1.00  0.00     0.029 A 
ATOM     53  C   UNL     1       7.980  10.009  -8.256  1.00  0.00     0.049 A 
ATOM     54  H   UNL     1       6.677   9.120  -9.619  1.00  0.00     0.167 HD
ATOM     55  C   UNL     1       3.979   6.989 -12.343  1.00  0.00     0.034 A 
ATOM     56  C   UNL     1       9.034  10.481  -8.953  1.00  0.00     0.034 A 
ATOM     57  C   UNL     1       5.011   7.547 -13.183  1.00  0.00     0.049 A 
ATOM     58  C   UNL     1       9.072  10.279 -10.447  1.00  0.00     0.074 A 
ATOM     59  C   UNL     1       5.113   7.510 -14.563  1.00  0.00     0.029 A 
ATOM     60  N   UNL     1       6.128   8.235 -12.724  1.00  0.00    -0.354 N 
ATOM     61  N   UNL     1       8.203   9.670 -11.221  1.00  0.00    -0.248 NA
ATOM     62  C   UNL     1      10.228  10.835 -11.162  1.00  0.00     0.031 C 
ATOM     63  C   UNL     1       6.322   8.111 -14.932  1.00  0.00     0.029 A 
ATOM     64  C   UNL     1       6.938   8.596 -13.790  1.00  0.00     0.049 A 
ATOM     65  H   UNL     1       6.316   8.436 -11.779  1.00  0.00     0.167 HD
ATOM     66  C   UNL     1       8.695   9.798 -12.517  1.00  0.00     0.074 A 
ATOM     67  C   UNL     1       9.928  10.553 -12.421  1.00  0.00     0.031 C 
ATOM     68  C   UNL     1       8.172   9.339 -13.682  1.00  0.00     0.034 A 
BRANCH  55  69
ATOM     69  C   UNL     1       2.881   6.174 -12.986  1.00  0.00     0.023 A 
ATOM     70  C   UNL     1       1.533   6.568 -12.919  1.00  0.00     0.031 A 
ATOM     71  C   UNL     1       3.182   4.974 -13.655  1.00  0.00     0.131 A 
ATOM     72  C   UNL     1       0.532   5.734 -13.439  1.00  0.00     0.055 A 
ATOM     73  C   UNL     1       2.188   4.190 -14.245  1.00  0.00     0.041 A 
ATOM     74  F   UNL     1       4.448   4.535 -13.735  1.00  0.00    -0.206 F 
ATOM     75  C   UNL     1       0.852   4.560 -14.125  1.00  0.00     0.022 A 
BRANCH  72  76
ATOM     76  S   UNL     1      -1.200   6.132 -13.077  1.00  0.00     0.124 S 
ATOM     77  O   UNL     1      -1.206   6.122 -11.616  1.00  0.00    -0.237 OA
ATOM     78  O   UNL     1      -1.363   7.437 -13.707  1.00  0.00    -0.237 OA
ATOM     79  O   UNL     1      -1.942   5.039 -13.703  1.00  0.00    -0.744 OA
ENDBRANCH  72  76
ENDBRANCH  55  69
BRANCH  56  80
ATOM     80  C   UNL     1      10.154  11.174  -8.253  1.00  0.00     0.023 A 
ATOM     81  C   UNL     1      10.432  12.527  -8.498  1.00  0.00     0.031 A 
ATOM     82  C   UNL     1      10.990  10.480  -7.360  1.00  0.00     0.131 A 
ATOM     83  C   UNL     1      11.546  13.133  -7.896  1.00  0.00     0.055 A 
ATOM     84  C   UNL     1      12.065  11.101  -6.722  1.00  0.00     0.041 A 
ATOM     85  F   UNL     1      10.766   9.185  -7.087  1.00  0.00    -0.206 F 
ATOM     86  C   UNL     1      12.357  12.433  -7.000  1.00  0.00     0.022 A 
BRANCH  83  87
ATOM     87  S   UNL     1      11.973  14.831  -8.370  1.00  0.00     0.124 S 
ATOM     88  O   UNL     1      12.158  14.700  -9.811  1.00  0.00    -0.237 OA
ATOM     89  O   UNL     1      10.792  15.571  -7.939  1.00  0.00    -0.237 OA
ATOM     90  O   UNL     1      13.189  15.102  -7.606  1.00  0.00    -0.744 OA
ENDBRANCH  83  87
ENDBRANCH  56  80
BRANCH  68  91
ATOM     91  C   UNL     1       8.911   9.686 -14.952  1.00  0.00     0.023 A 
ATOM     92  C   UNL     1      10.183   9.159 -15.238  1.00  0.00     0.031 A 
ATOM     93  C   UNL     1       8.334  10.564 -15.886  1.00  0.00     0.131 A 
ATOM     94  C   UNL     1      10.858   9.556 -16.403  1.00  0.00     0.055 A 
ATOM     95  C   UNL     1       8.984  10.909 -17.072  1.00  0.00     0.041 A 
ATOM     96  F   UNL     1       7.123  11.100 -15.663  1.00  0.00    -0.206 F 
ATOM     97  C   UNL     1      10.259  10.414 -17.330  1.00  0.00     0.022 A 
BRANCH  94  98
ATOM     98  S   UNL     1      12.567   9.002 -16.654  1.00  0.00     0.124 S 
ATOM     99  O   UNL     1      13.237   9.543 -15.475  1.00  0.00    -0.237 OA
ATOM    100  O   UNL     1      12.422   7.551 -16.695  1.00  0.00    -0.237 OA
ATOM    101  O   UNL     1      12.947   9.623 -17.922  1.00  0.00    -0.744 OA
ENDBRANCH  94  98
ENDBRANCH  68  91
ENDBRANCH  42  43
ENDBRANCH  34  37
ENDBRANCH  32  33
ENDBRANCH   1  32
TORSDOF 18
