REMARK SMILES O=C(COc1cc(-c2ccccc2)nc(NCc2ccc(Cl)c(Cl)c2)n1)NCCCNC(=O)c1ccc(-c2c3nc(c(-c4cc(S(=O)(=O)[O-])ccc4F)c4ccc([nH]4)c(-c4cc(S(=O)(=O)[O-])ccc4F)c4nc(c(-c5cc(S(=O)(=O)[O-])ccc5F)c5ccc2[nH]5)C=C4)C=C3)cc1
REMARK SMILES IDX 28 1 27 2 1 3 2 4 3 6 4 7 5 8 6 9 26 10 7 11 15 12 14 13
REMARK SMILES IDX 8 14 9 15 13 16 10 17 12 18 11 19 16 20 17 22 18 23 19 24
REMARK SMILES IDX 25 25 20 26 23 27 21 28 24 29 22 30 29 31 30 32 31 33 32 34
REMARK SMILES IDX 33 36 34 37 35 38 96 39 36 40 95 41 37 42 38 43 39 44 89 45
REMARK SMILES IDX 40 46 94 47 88 48 90 49 41 50 93 51 87 52 86 53 42 55 74 56
REMARK SMILES IDX 54 57 73 58 55 59 58 60 72 61 91 62 56 63 57 64 71 66 92 67
REMARK SMILES IDX 59 68 43 69 44 70 52 71 45 72 51 73 53 74 50 75 46 76 47 77
REMARK SMILES IDX 48 78 49 79 75 80 76 81 84 82 77 83 83 84 85 85 82 86 78 87
REMARK SMILES IDX 79 88 80 89 81 90 60 91 61 92 69 93 62 94 68 95 70 96 67 97
REMARK SMILES IDX 63 98 64 99 65 100 66 101
REMARK H PARENT 27 5 16 21 31 35 90 54 58 65
REMARK Flexibility Score: inf
ROOT
ATOM      1  C   UNL     1       2.206  -0.792   2.179  1.00  0.00     0.117 C 
ENDROOT
BRANCH   1   2
ATOM      2  N   UNL     1       2.891  -0.348   0.982  1.00  0.00    -0.353 N 
ATOM      3  O   UNL     1       1.095  -0.546  -0.443  1.00  0.00    -0.271 OA
ATOM      4  C   UNL     1       2.236  -0.156  -0.219  1.00  0.00     0.258 C 
ATOM      5  H   UNL     1       3.860  -0.178   1.026  1.00  0.00     0.163 HD
BRANCH   4   6
ATOM      6  C   UNL     1       3.038   0.663  -1.235  1.00  0.00     0.331 C 
BRANCH   6   7
ATOM      7  O   UNL     1       3.913   1.628  -0.651  1.00  0.00    -0.467 OA
BRANCH   7   8
ATOM      8  C   UNL     1       3.284   2.798  -0.297  1.00  0.00     0.219 A 
ATOM      9  C   UNL     1       2.303   2.829   0.657  1.00  0.00     0.097 A 
ATOM     10  N   UNL     1       3.810   3.905  -0.834  1.00  0.00    -0.177 NA
ATOM     11  C   UNL     1       1.852   4.072   1.036  1.00  0.00     0.080 A 
ATOM     12  C   UNL     1       3.305   5.076  -0.425  1.00  0.00     0.226 A 
ATOM     13  N   UNL     1       2.327   5.202   0.482  1.00  0.00    -0.213 NA
BRANCH  11  14
ATOM     14  C   UNL     1       0.842   4.205   2.095  1.00  0.00     0.000 A 
ATOM     15  C   UNL     1      -0.332   4.945   1.892  1.00  0.00     0.010 A 
ATOM     16  C   UNL     1       1.001   3.540   3.327  1.00  0.00     0.010 A 
ATOM     17  C   UNL     1      -1.327   4.991   2.873  1.00  0.00     0.001 A 
ATOM     18  C   UNL     1       0.010   3.589   4.309  1.00  0.00     0.001 A 
ATOM     19  C   UNL     1      -1.157   4.309   4.077  1.00  0.00     0.000 A 
ENDBRANCH  11  14
BRANCH  12  20
ATOM     20  N   UNL     1       3.785   6.248  -0.928  1.00  0.00    -0.350 N 
ATOM     21  H   UNL     1       3.347   7.087  -0.657  1.00  0.00     0.164 HD
BRANCH  20  22
ATOM     22  C   UNL     1       4.896   6.323  -1.831  1.00  0.00     0.152 C 
BRANCH  22  23
ATOM     23  C   UNL     1       4.488   7.162  -3.021  1.00  0.00    -0.027 A 
ATOM     24  C   UNL     1       4.838   8.515  -3.108  1.00  0.00     0.007 A 
ATOM     25  C   UNL     1       3.698   6.593  -4.034  1.00  0.00     0.027 A 
ATOM     26  C   UNL     1       4.418   9.282  -4.197  1.00  0.00     0.022 A 
ATOM     27  C   UNL     1       3.276   7.360  -5.124  1.00  0.00     0.060 A 
ATOM     28  C   UNL     1       3.638   8.708  -5.206  1.00  0.00     0.059 A 
ATOM     29  Cl  UNL     1       2.307   6.585  -6.326  1.00  0.00    -0.083 Cl
ATOM     30  Cl  UNL     1       3.151   9.721  -6.519  1.00  0.00    -0.083 Cl
ENDBRANCH  22  23
ENDBRANCH  20  22
ENDBRANCH  12  20
ENDBRANCH   7   8
ENDBRANCH   6   7
ENDBRANCH   4   6
ENDBRANCH   1   2
BRANCH   1  31
ATOM     31  C   UNL     1       2.520  -2.229   2.557  1.00  0.00     0.042 C 
BRANCH  31  32
ATOM     32  C   UNL     1       3.994  -2.493   2.841  1.00  0.00     0.118 C 
BRANCH  32  33
ATOM     33  N   UNL     1       4.503  -1.757   3.991  1.00  0.00    -0.352 N 
ATOM     34  C   UNL     1       5.172  -2.212   5.104  1.00  0.00     0.251 C 
ATOM     35  H   UNL     1       4.345  -0.785   3.968  1.00  0.00     0.163 HD
ATOM     36  O   UNL     1       5.399  -1.433   6.026  1.00  0.00    -0.269 OA
BRANCH  34  37
ATOM     37  C   UNL     1       5.580  -3.632   5.207  1.00  0.00     0.039 A 
ATOM     38  C   UNL     1       5.381  -4.305   6.416  1.00  0.00     0.014 A 
ATOM     39  C   UNL     1       6.147  -4.305   4.122  1.00  0.00     0.014 A 
ATOM     40  C   UNL     1       5.670  -5.669   6.509  1.00  0.00     0.010 A 
ATOM     41  C   UNL     1       6.358  -5.681   4.191  1.00  0.00     0.010 A 
ATOM     42  C   UNL     1       6.116  -6.380   5.383  1.00  0.00    -0.014 A 
BRANCH  42  43
ATOM     43  C   UNL     1       6.325  -7.853   5.427  1.00  0.00     0.031 A 
ATOM     44  C   UNL     1       7.693  -8.432   5.187  1.00  0.00     0.074 A 
ATOM     45  C   UNL     1       5.269  -8.673   5.609  1.00  0.00     0.049 A 
ATOM     46  N   UNL     1       8.058  -9.685   5.087  1.00  0.00    -0.248 NA
ATOM     47  C   UNL     1       8.791  -7.471   5.005  1.00  0.00     0.031 C 
ATOM     48  C   UNL     1       3.886  -8.237   5.814  1.00  0.00     0.029 A 
ATOM     49  N   UNL     1       5.190 -10.044   5.639  1.00  0.00    -0.354 N 
ATOM     50  C   UNL     1       9.422  -9.664   4.816  1.00  0.00     0.074 A 
ATOM     51  C   UNL     1       9.803  -8.271   4.707  1.00  0.00     0.031 C 
ATOM     52  C   UNL     1       3.103  -9.316   5.971  1.00  0.00     0.029 A 
ATOM     53  C   UNL     1       3.912 -10.521   5.827  1.00  0.00     0.049 A 
ATOM     54  H   UNL     1       5.974 -10.630   5.537  1.00  0.00     0.167 HD
ATOM     55  C   UNL     1      10.280 -10.707   4.692  1.00  0.00     0.034 A 
ATOM     56  C   UNL     1       3.442 -11.784   5.862  1.00  0.00     0.034 A 
ATOM     57  C   UNL     1       9.886 -12.090   4.815  1.00  0.00     0.049 A 
ATOM     58  C   UNL     1       4.410 -12.929   5.692  1.00  0.00     0.074 A 
ATOM     59  C   UNL     1      10.683 -13.221   4.760  1.00  0.00     0.029 A 
ATOM     60  N   UNL     1       8.584 -12.534   5.009  1.00  0.00    -0.354 N 
ATOM     61  N   UNL     1       5.705 -12.890   5.483  1.00  0.00    -0.248 NA
ATOM     62  C   UNL     1       3.853 -14.286   5.775  1.00  0.00     0.031 C 
ATOM     63  C   UNL     1       9.857 -14.346   4.850  1.00  0.00     0.029 A 
ATOM     64  C   UNL     1       8.553 -13.920   5.045  1.00  0.00     0.049 A 
ATOM     65  H   UNL     1       7.798 -11.949   5.107  1.00  0.00     0.167 HD
ATOM     66  C   UNL     1       6.123 -14.219   5.447  1.00  0.00     0.074 A 
ATOM     67  C   UNL     1       4.943 -15.031   5.664  1.00  0.00     0.031 C 
ATOM     68  C   UNL     1       7.370 -14.720   5.259  1.00  0.00     0.034 A 
BRANCH  55  69
ATOM     69  C   UNL     1      11.724 -10.387   4.382  1.00  0.00     0.023 A 
ATOM     70  C   UNL     1      12.522  -9.641   5.268  1.00  0.00     0.031 A 
ATOM     71  C   UNL     1      12.306 -10.812   3.175  1.00  0.00     0.131 A 
ATOM     72  C   UNL     1      13.826  -9.277   4.901  1.00  0.00     0.055 A 
ATOM     73  C   UNL     1      13.634 -10.519   2.853  1.00  0.00     0.041 A 
ATOM     74  F   UNL     1      11.591 -11.509   2.279  1.00  0.00    -0.206 F 
ATOM     75  C   UNL     1      14.397  -9.733   3.712  1.00  0.00     0.022 A 
BRANCH  72  76
ATOM     76  S   UNL     1      14.709  -8.073   5.931  1.00  0.00     0.124 S 
ATOM     77  O   UNL     1      13.803  -6.927   5.887  1.00  0.00    -0.237 OA
ATOM     78  O   UNL     1      14.806  -8.763   7.211  1.00  0.00    -0.237 OA
ATOM     79  O   UNL     1      15.976  -7.883   5.226  1.00  0.00    -0.744 OA
ENDBRANCH  72  76
ENDBRANCH  55  69
BRANCH  56  80
ATOM     80  C   UNL     1       1.985 -12.043   6.053  1.00  0.00     0.023 A 
ATOM     81  C   UNL     1       1.513 -12.710   7.194  1.00  0.00     0.031 A 
ATOM     82  C   UNL     1       1.047 -11.665   5.075  1.00  0.00     0.131 A 
ATOM     83  C   UNL     1       0.150 -13.023   7.309  1.00  0.00     0.055 A 
ATOM     84  C   UNL     1      -0.316 -11.928   5.220  1.00  0.00     0.041 A 
ATOM     85  F   UNL     1       1.444 -11.020   3.966  1.00  0.00    -0.206 F 
ATOM     86  C   UNL     1      -0.770 -12.624   6.336  1.00  0.00     0.022 A 
BRANCH  83  87
ATOM     87  S   UNL     1      -0.393 -14.039   8.710  1.00  0.00     0.124 S 
ATOM     88  O   UNL     1       0.416 -15.240   8.536  1.00  0.00    -0.237 OA
ATOM     89  O   UNL     1      -0.051 -13.192   9.848  1.00  0.00    -0.237 OA
ATOM     90  O   UNL     1      -1.825 -14.209   8.471  1.00  0.00    -0.744 OA
ENDBRANCH  83  87
ENDBRANCH  56  80
BRANCH  68  91
ATOM     91  C   UNL     1       7.530 -16.219   5.341  1.00  0.00     0.023 A 
ATOM     92  C   UNL     1       6.970 -17.082   4.382  1.00  0.00     0.031 A 
ATOM     93  C   UNL     1       8.256 -16.791   6.401  1.00  0.00     0.131 A 
ATOM     94  C   UNL     1       7.104 -18.471   4.530  1.00  0.00     0.055 A 
ATOM     95  C   UNL     1       8.437 -18.170   6.510  1.00  0.00     0.041 A 
ATOM     96  F   UNL     1       8.810 -16.015   7.346  1.00  0.00    -0.206 F 
ATOM     97  C   UNL     1       7.849 -19.020   5.578  1.00  0.00     0.022 A 
BRANCH  94  98
ATOM     98  S   UNL     1       6.222 -19.561   3.379  1.00  0.00     0.124 S 
ATOM     99  O   UNL     1       4.834 -19.160   3.585  1.00  0.00    -0.237 OA
ATOM    100  O   UNL     1       6.807 -19.197   2.093  1.00  0.00    -0.237 OA
ATOM    101  O   UNL     1       6.556 -20.903   3.853  1.00  0.00    -0.744 OA
ENDBRANCH  94  98
ENDBRANCH  68  91
ENDBRANCH  42  43
ENDBRANCH  34  37
ENDBRANCH  32  33
ENDBRANCH  31  32
ENDBRANCH   1  31
TORSDOF 19
