REMARK SMILES Cc1ccc(NC(=O)c2ccccc2NC(=O)[C@H]2CCCC[C@H]2C(=O)NCCCNC(=O)c2ccc(-c3c4nc(c(-c5cc(S(=O)(=O)[O-])ccc5F)c5ccc([nH]5)c(-c5cc(S(=O)(=O)[O-])ccc5F)c5nc(c(-c6cc(S(=O)(=O)[O-])ccc6F)c6ccc3[nH]6)C=C5)C=C4)cc2)cc1
REMARK SMILES IDX 27 1 26 2 24 3 25 4 23 6 18 7 19 8 20 9 22 10 21 11 16 12
REMARK SMILES IDX 15 13 17 15 14 16 9 17 10 18 11 19 13 20 12 21 7 22 6 23
REMARK SMILES IDX 8 25 5 26 1 27 2 28 3 29 97 30 4 31 96 32 28 33 29 34 30 35
REMARK SMILES IDX 31 36 32 38 33 39 34 40 95 41 35 42 94 43 36 44 37 45 38 46
REMARK SMILES IDX 88 47 39 48 93 49 87 50 89 51 40 52 92 53 86 54 85 55 41 57
REMARK SMILES IDX 73 58 53 59 72 60 54 61 57 62 71 63 90 64 55 65 56 66 70 68
REMARK SMILES IDX 91 69 58 70 42 71 43 72 51 73 44 74 50 75 52 76 49 77 45 78
REMARK SMILES IDX 46 79 47 80 48 81 74 82 75 83 83 84 76 85 82 86 84 87 81 88
REMARK SMILES IDX 77 89 78 90 79 91 80 92 59 93 60 94 68 95 61 96 67 97 69 98
REMARK SMILES IDX 66 99 62 100 63 101 64 102 65 103
REMARK H PARENT 26 5 15 14 6 24 30 37 89 56 57 67
REMARK Flexibility Score: inf
ROOT
ATOM      1  C   UNL     1       0.576  -0.981   7.011  1.00  0.00     0.117 C 
ENDROOT
BRANCH   1   2
ATOM      2  N   UNL     1      -0.558  -0.355   6.333  1.00  0.00    -0.356 N 
ATOM      3  C   UNL     1      -1.515  -0.779   5.481  1.00  0.00     0.223 C 
ATOM      4  O   UNL     1      -2.364   0.061   5.146  1.00  0.00    -0.275 OA
ATOM      5  H   UNL     1      -0.644   0.602   6.548  1.00  0.00     0.163 HD
BRANCH   3   6
ATOM      6  C   UNL     1      -1.578  -2.151   4.817  1.00  0.00     0.091 C 
ATOM      7  C   UNL     1      -0.841  -2.153   3.462  1.00  0.00     0.091 C 
ATOM      8  C   UNL     1      -1.046  -3.484   2.713  1.00  0.00     0.014 C 
ATOM      9  C   UNL     1      -0.875  -4.732   3.589  1.00  0.00     0.001 C 
ATOM     10  C   UNL     1      -1.374  -3.399   5.670  1.00  0.00     0.014 C 
ATOM     11  C   UNL     1      -1.703  -4.659   4.869  1.00  0.00     0.001 C 
BRANCH   7  12
ATOM     12  C   UNL     1       0.641  -1.900   3.627  1.00  0.00     0.228 C 
ATOM     13  N   UNL     1       1.315  -0.828   3.136  1.00  0.00    -0.325 N 
ATOM     14  H   UNL     1       2.180  -0.720   3.593  1.00  0.00     0.169 HD
ATOM     15  O   UNL     1       1.313  -2.711   4.275  1.00  0.00    -0.274 OA
BRANCH  13  16
ATOM     16  C   UNL     1       1.137   0.175   2.162  1.00  0.00     0.054 A 
ATOM     17  C   UNL     1       2.117   1.191   1.993  1.00  0.00     0.063 A 
ATOM     18  C   UNL     1       1.872   2.246   1.083  1.00  0.00     0.016 A 
ATOM     19  C   UNL     1       0.716   2.291   0.314  1.00  0.00     0.001 A 
ATOM     20  C   UNL     1       0.027   0.200   1.308  1.00  0.00     0.027 A 
ATOM     21  C   UNL     1      -0.197   1.256   0.414  1.00  0.00     0.002 A 
BRANCH  17  22
ATOM     22  C   UNL     1       3.377   1.394   2.769  1.00  0.00     0.257 C 
ATOM     23  N   UNL     1       4.257   0.427   3.179  1.00  0.00    -0.322 N 
ATOM     24  H   UNL     1       4.964   0.796   3.756  1.00  0.00     0.170 HD
ATOM     25  O   UNL     1       3.659   2.550   3.110  1.00  0.00    -0.269 OA
BRANCH  23  26
ATOM     26  C   UNL     1       4.408  -0.946   2.986  1.00  0.00     0.041 A 
ATOM     27  C   UNL     1       4.021  -5.202   3.223  1.00  0.00     0.044 C 
ATOM     28  C   UNL     1       4.297  -3.736   3.078  1.00  0.00    -0.051 A 
ATOM     29  C   UNL     1       3.869  -3.042   1.936  1.00  0.00     0.005 A 
ATOM     30  C   UNL     1       4.895  -3.028   4.121  1.00  0.00     0.005 A 
ATOM     31  C   UNL     1       3.928  -1.646   1.886  1.00  0.00     0.026 A 
ATOM     32  C   UNL     1       4.978  -1.641   4.059  1.00  0.00     0.026 A 
ENDBRANCH  23  26
ENDBRANCH  17  22
ENDBRANCH  13  16
ENDBRANCH   7  12
ENDBRANCH   3   6
ENDBRANCH   1   2
BRANCH   1  33
ATOM     33  C   UNL     1       1.916  -0.569   6.398  1.00  0.00     0.042 C 
BRANCH  33  34
ATOM     34  C   UNL     1       2.872   0.117   7.370  1.00  0.00     0.118 C 
BRANCH  34  35
ATOM     35  N   UNL     1       4.149  -0.594   7.511  1.00  0.00    -0.352 N 
ATOM     36  C   UNL     1       5.417  -0.074   7.710  1.00  0.00     0.251 C 
ATOM     37  H   UNL     1       4.097  -1.576   7.456  1.00  0.00     0.163 HD
ATOM     38  O   UNL     1       6.408  -0.762   7.880  1.00  0.00    -0.269 OA
BRANCH  36  39
ATOM     39  C   UNL     1       5.518   1.398   7.744  1.00  0.00     0.039 A 
ATOM     40  C   UNL     1       5.434   2.003   8.997  1.00  0.00     0.014 A 
ATOM     41  C   UNL     1       5.220   2.090   6.573  1.00  0.00     0.014 A 
ATOM     42  C   UNL     1       4.776   3.222   9.098  1.00  0.00     0.010 A 
ATOM     43  C   UNL     1       4.512   3.273   6.680  1.00  0.00     0.010 A 
ATOM     44  C   UNL     1       4.203   3.778   7.949  1.00  0.00    -0.014 A 
BRANCH  44  45
ATOM     45  C   UNL     1       3.103   4.736   8.036  1.00  0.00     0.031 A 
ATOM     46  C   UNL     1       3.320   6.155   7.710  1.00  0.00     0.074 A 
ATOM     47  C   UNL     1       1.885   4.358   8.488  1.00  0.00     0.049 A 
ATOM     48  N   UNL     1       2.773   7.131   8.355  1.00  0.00    -0.248 NA
ATOM     49  C   UNL     1       4.214   6.584   6.645  1.00  0.00     0.031 C 
ATOM     50  C   UNL     1       0.663   5.159   8.502  1.00  0.00     0.029 A 
ATOM     51  N   UNL     1       1.558   3.232   9.232  1.00  0.00    -0.354 N 
ATOM     52  C   UNL     1       3.015   8.280   7.641  1.00  0.00     0.074 A 
ATOM     53  C   UNL     1       3.976   7.898   6.628  1.00  0.00     0.031 C 
ATOM     54  C   UNL     1      -0.190   4.637   9.397  1.00  0.00     0.029 A 
ATOM     55  C   UNL     1       0.485   3.544  10.075  1.00  0.00     0.049 A 
ATOM     56  H   UNL     1       2.006   2.357   9.176  1.00  0.00     0.167 HD
ATOM     57  C   UNL     1       2.276   9.402   7.873  1.00  0.00     0.034 A 
ATOM     58  C   UNL     1       0.570   3.384  11.427  1.00  0.00     0.034 A 
ATOM     59  C   UNL     1       1.245   9.183   8.886  1.00  0.00     0.049 A 
ATOM     60  C   UNL     1       0.453   4.683  12.198  1.00  0.00     0.074 A 
ATOM     61  C   UNL     1      -0.112   8.919   8.787  1.00  0.00     0.029 A 
ATOM     62  N   UNL     1       1.597   8.940  10.209  1.00  0.00    -0.354 N 
ATOM     63  N   UNL     1       0.487   5.868  11.653  1.00  0.00    -0.248 NA
ATOM     64  C   UNL     1       0.334   4.743  13.652  1.00  0.00     0.031 C 
ATOM     65  C   UNL     1      -0.567   8.470  10.052  1.00  0.00     0.029 A 
ATOM     66  C   UNL     1       0.505   8.486  10.928  1.00  0.00     0.049 A 
ATOM     67  H   UNL     1       2.498   9.073  10.583  1.00  0.00     0.167 HD
ATOM     68  C   UNL     1       0.474   6.828  12.636  1.00  0.00     0.074 A 
ATOM     69  C   UNL     1       0.324   6.070  13.866  1.00  0.00     0.031 C 
ATOM     70  C   UNL     1       0.620   8.158  12.345  1.00  0.00     0.034 A 
BRANCH  57  71
ATOM     71  C   UNL     1       2.278  10.583   6.930  1.00  0.00     0.023 A 
ATOM     72  C   UNL     1       1.096  11.323   6.731  1.00  0.00     0.031 A 
ATOM     73  C   UNL     1       3.391  11.002   6.176  1.00  0.00     0.131 A 
ATOM     74  C   UNL     1       1.015  12.321   5.743  1.00  0.00     0.055 A 
ATOM     75  C   UNL     1       3.294  11.943   5.143  1.00  0.00     0.041 A 
ATOM     76  F   UNL     1       4.624  10.544   6.438  1.00  0.00    -0.206 F 
ATOM     77  C   UNL     1       2.094  12.596   4.908  1.00  0.00     0.022 A 
BRANCH  74  78
ATOM     78  S   UNL     1      -0.522  13.270   5.574  1.00  0.00     0.124 S 
ATOM     79  O   UNL     1      -1.510  12.226   5.326  1.00  0.00    -0.237 OA
ATOM     80  O   UNL     1      -0.607  13.948   6.863  1.00  0.00    -0.237 OA
ATOM     81  O   UNL     1      -0.254  14.147   4.434  1.00  0.00    -0.744 OA
ENDBRANCH  74  78
ENDBRANCH  57  71
BRANCH  58  82
ATOM     82  C   UNL     1       1.409   2.224  11.838  1.00  0.00     0.023 A 
ATOM     83  C   UNL     1       0.946   0.927  11.529  1.00  0.00     0.031 A 
ATOM     84  C   UNL     1       2.762   2.384  12.163  1.00  0.00     0.131 A 
ATOM     85  C   UNL     1       1.854  -0.137  11.424  1.00  0.00     0.055 A 
ATOM     86  C   UNL     1       3.659   1.313  12.085  1.00  0.00     0.041 A 
ATOM     87  F   UNL     1       3.261   3.598  12.436  1.00  0.00    -0.206 F 
ATOM     88  C   UNL     1       3.215   0.056  11.673  1.00  0.00     0.022 A 
BRANCH  85  89
ATOM     89  S   UNL     1       1.318  -1.752  10.784  1.00  0.00     0.124 S 
ATOM     90  O   UNL     1       1.500  -2.621  11.940  1.00  0.00    -0.237 OA
ATOM     91  O   UNL     1      -0.064  -1.515  10.380  1.00  0.00    -0.237 OA
ATOM     92  O   UNL     1       2.242  -1.974   9.672  1.00  0.00    -0.744 OA
ENDBRANCH  85  89
ENDBRANCH  58  82
BRANCH  70  93
ATOM     93  C   UNL     1       0.793   9.280  13.354  1.00  0.00     0.023 A 
ATOM     94  C   UNL     1       1.143   9.074  14.697  1.00  0.00     0.031 A 
ATOM     95  C   UNL     1       0.658  10.637  12.965  1.00  0.00     0.131 A 
ATOM     96  C   UNL     1       1.245  10.148  15.601  1.00  0.00     0.055 A 
ATOM     97  C   UNL     1       0.843  11.708  13.846  1.00  0.00     0.041 A 
ATOM     98  F   UNL     1       0.346  10.985  11.708  1.00  0.00    -0.206 F 
ATOM     99  C   UNL     1       1.118  11.468  15.181  1.00  0.00     0.022 A 
BRANCH  96 100
ATOM    100  S   UNL     1       1.472   9.770  17.360  1.00  0.00     0.124 S 
ATOM    101  O   UNL     1       0.257   9.020  17.665  1.00  0.00    -0.237 OA
ATOM    102  O   UNL     1       2.709   8.997  17.357  1.00  0.00    -0.237 OA
ATOM    103  O   UNL     1       1.562  11.086  17.988  1.00  0.00    -0.744 OA
ENDBRANCH  96 100
ENDBRANCH  70  93
ENDBRANCH  44  45
ENDBRANCH  36  39
ENDBRANCH  34  35
ENDBRANCH  33  34
ENDBRANCH   1  33
TORSDOF 17
