REMARK SMILES O=C(C[C@@H](C(=O)NCCCNC(=O)c1ccc(-c2c3nc(c(-c4cc(S(=O)(=O)[O-])ccc4F)c4ccc([nH]4)c(-c4cc(S(=O)(=O)[O-])ccc4F)c4nc(c(-c5cc(S(=O)(=O)[O-])ccc5F)c5ccc2[nH]5)C=C4)C=C3)cc1)[NH+]1CCN(c2cccc(Cl)c2)CC1)c1ccc(F)cc1
REMARK SMILES IDX 9 1 8 2 7 3 5 4 6 5 4 7 3 8 2 9 1 10 90 11 91 12 96 13 92 14
REMARK SMILES IDX 95 15 93 16 94 17 77 18 78 19 89 20 79 22 88 23 80 24 81 25
REMARK SMILES IDX 82 26 87 27 83 28 85 29 84 30 86 31 10 32 11 33 12 34 13 36
REMARK SMILES IDX 14 37 15 38 76 39 16 40 75 41 17 42 18 43 19 44 69 45 20 46
REMARK SMILES IDX 74 47 68 48 70 49 21 50 73 51 67 52 66 53 22 55 54 56 34 57
REMARK SMILES IDX 53 58 35 59 38 60 52 61 71 62 36 63 37 64 51 66 72 67 39 68
REMARK SMILES IDX 23 69 24 70 32 71 25 72 31 73 33 74 30 75 26 76 27 77 28 78
REMARK SMILES IDX 29 79 55 80 56 81 64 82 57 83 63 84 65 85 62 86 58 87 59 88
REMARK SMILES IDX 60 89 61 90 40 91 41 92 49 93 42 94 48 95 50 96 47 97 43 98
REMARK SMILES IDX 44 99 45 100 46 101
REMARK H PARENT 7 6 77 21 11 35 70 54 38 65
REMARK Flexibility Score: inf
ROOT
ATOM      1  C   UNL     1       1.664  -2.668  -0.906  1.00  0.00     0.042 C 
ENDROOT
BRANCH   1   2
ATOM      2  C   UNL     1       2.373  -2.767   0.455  1.00  0.00     0.118 C 
BRANCH   2   3
ATOM      3  N   UNL     1       3.741  -2.277   0.534  1.00  0.00    -0.351 N 
ATOM      4  C   UNL     1       4.324  -1.250   1.224  1.00  0.00     0.278 C 
ATOM      5  O   UNL     1       5.549  -1.350   1.379  1.00  0.00    -0.268 OA
ATOM      6  H   UNL     1       4.374  -2.787  -0.021  1.00  0.00     0.163 HD
BRANCH   4   7
ATOM      7  C   UNL     1       3.539   0.023   1.690  1.00  0.00     0.282 C 
BRANCH   7   8
ATOM      8  C   UNL     1       3.349   1.048   0.563  1.00  0.00     0.156 C 
BRANCH   8   9
ATOM      9  C   UNL     1       2.841   0.599  -0.774  1.00  0.00     0.169 C 
ATOM     10  O   UNL     1       1.635   0.594  -1.008  1.00  0.00    -0.294 OA
BRANCH   9  11
ATOM     11  C   UNL     1       3.823   0.247  -1.847  1.00  0.00     0.018 A 
ATOM     12  C   UNL     1       5.148  -0.122  -1.570  1.00  0.00     0.015 A 
ATOM     13  C   UNL     1       3.375   0.223  -3.170  1.00  0.00     0.015 A 
ATOM     14  C   UNL     1       5.960  -0.661  -2.566  1.00  0.00     0.040 A 
ATOM     15  C   UNL     1       4.219  -0.240  -4.179  1.00  0.00     0.040 A 
ATOM     16  C   UNL     1       5.481  -0.729  -3.863  1.00  0.00     0.123 A 
ATOM     17  F   UNL     1       6.238  -1.286  -4.815  1.00  0.00    -0.207 F 
ENDBRANCH   9  11
ENDBRANCH   8   9
ENDBRANCH   7   8
BRANCH   7  18
ATOM     18  N   UNL     1       4.281   0.607   2.862  1.00  0.00    -0.321 N 
ATOM     19  C   UNL     1       5.271   1.679   2.573  1.00  0.00     0.284 C 
ATOM     20  C   UNL     1       3.449   1.030   4.001  1.00  0.00     0.284 C 
ATOM     21  H   UNL     1       4.808  -0.224   3.130  1.00  0.00     0.348 HD
ATOM     22  C   UNL     1       4.713   3.128   2.432  1.00  0.00     0.178 C 
ATOM     23  C   UNL     1       2.771   2.412   3.859  1.00  0.00     0.178 C 
ATOM     24  N   UNL     1       3.761   3.434   3.500  1.00  0.00    -0.360 N 
BRANCH  24  25
ATOM     25  C   UNL     1       3.457   4.767   3.723  1.00  0.00     0.038 A 
ATOM     26  C   UNL     1       3.003   5.627   2.712  1.00  0.00     0.026 A 
ATOM     27  C   UNL     1       3.694   5.303   4.993  1.00  0.00     0.046 A 
ATOM     28  C   UNL     1       2.835   6.995   2.954  1.00  0.00     0.004 A 
ATOM     29  C   UNL     1       3.545   6.668   5.229  1.00  0.00     0.043 A 
ATOM     30  C   UNL     1       3.122   7.519   4.213  1.00  0.00     0.020 A 
ATOM     31  Cl  UNL     1       3.928   7.307   6.781  1.00  0.00    -0.084 Cl
ENDBRANCH  24  25
ENDBRANCH   7  18
ENDBRANCH   4   7
ENDBRANCH   2   3
ENDBRANCH   1   2
BRANCH   1  32
ATOM     32  C   UNL     1       2.464  -2.954  -2.184  1.00  0.00     0.118 C 
BRANCH  32  33
ATOM     33  N   UNL     1       2.396  -4.336  -2.626  1.00  0.00    -0.352 N 
ATOM     34  C   UNL     1       2.133  -4.841  -3.881  1.00  0.00     0.251 C 
ATOM     35  H   UNL     1       2.563  -5.010  -1.927  1.00  0.00     0.163 HD
ATOM     36  O   UNL     1       2.062  -6.062  -4.030  1.00  0.00    -0.269 OA
BRANCH  34  37
ATOM     37  C   UNL     1       1.901  -3.956  -5.051  1.00  0.00     0.039 A 
ATOM     38  C   UNL     1       0.681  -4.038  -5.728  1.00  0.00     0.014 A 
ATOM     39  C   UNL     1       2.902  -3.124  -5.555  1.00  0.00     0.014 A 
ATOM     40  C   UNL     1       0.438  -3.240  -6.859  1.00  0.00     0.010 A 
ATOM     41  C   UNL     1       2.646  -2.307  -6.675  1.00  0.00     0.010 A 
ATOM     42  C   UNL     1       1.402  -2.331  -7.328  1.00  0.00    -0.014 A 
BRANCH  42  43
ATOM     43  C   UNL     1       1.091  -1.387  -8.454  1.00  0.00     0.031 A 
ATOM     44  C   UNL     1       1.841  -1.440  -9.765  1.00  0.00     0.074 A 
ATOM     45  C   UNL     1       0.136  -0.444  -8.297  1.00  0.00     0.049 A 
ATOM     46  N   UNL     1       1.721  -0.670 -10.821  1.00  0.00    -0.248 NA
ATOM     47  C   UNL     1       2.864  -2.485  -9.904  1.00  0.00     0.031 C 
ATOM     48  C   UNL     1      -0.668  -0.254  -7.088  1.00  0.00     0.029 A 
ATOM     49  N   UNL     1      -0.324   0.535  -9.151  1.00  0.00    -0.354 N 
ATOM     50  C   UNL     1       2.647  -1.137 -11.750  1.00  0.00     0.074 A 
ATOM     51  C   UNL     1       3.356  -2.225 -11.108  1.00  0.00     0.031 C 
ATOM     52  C   UNL     1      -1.535   0.752  -7.287  1.00  0.00     0.029 A 
ATOM     53  C   UNL     1      -1.317   1.325  -8.613  1.00  0.00     0.049 A 
ATOM     54  H   UNL     1       0.026   0.659 -10.063  1.00  0.00     0.167 HD
ATOM     55  C   UNL     1       2.874  -0.717 -13.023  1.00  0.00     0.034 A 
ATOM     56  C   UNL     1      -1.967   2.400  -9.108  1.00  0.00     0.034 A 
ATOM     57  C   UNL     1       2.167   0.366 -13.669  1.00  0.00     0.049 A 
ATOM     58  C   UNL     1      -1.632   2.904 -10.492  1.00  0.00     0.074 A 
ATOM     59  C   UNL     1       2.296   0.820 -14.973  1.00  0.00     0.029 A 
ATOM     60  N   UNL     1       1.213   1.175 -13.068  1.00  0.00    -0.354 N 
ATOM     61  N   UNL     1      -0.783   2.415 -11.365  1.00  0.00    -0.248 NA
ATOM     62  C   UNL     1      -2.341   4.106 -10.955  1.00  0.00     0.031 C 
ATOM     63  C   UNL     1       1.484   1.948 -15.134  1.00  0.00     0.029 A 
ATOM     64  C   UNL     1       0.785   2.152 -13.957  1.00  0.00     0.049 A 
ATOM     65  H   UNL     1       0.888   1.071 -12.144  1.00  0.00     0.167 HD
ATOM     66  C   UNL     1      -0.880   3.237 -12.487  1.00  0.00     0.074 A 
ATOM     67  C   UNL     1      -1.880   4.238 -12.190  1.00  0.00     0.031 C 
ATOM     68  C   UNL     1      -0.200   3.164 -13.659  1.00  0.00     0.034 A 
BRANCH  55  69
ATOM     69  C   UNL     1       3.956  -1.419 -13.811  1.00  0.00     0.023 A 
ATOM     70  C   UNL     1       3.845  -2.773 -14.170  1.00  0.00     0.031 A 
ATOM     71  C   UNL     1       5.101  -0.719 -14.233  1.00  0.00     0.131 A 
ATOM     72  C   UNL     1       4.885  -3.400 -14.873  1.00  0.00     0.055 A 
ATOM     73  C   UNL     1       6.098  -1.329 -14.998  1.00  0.00     0.041 A 
ATOM     74  F   UNL     1       5.269   0.573 -13.912  1.00  0.00    -0.206 F 
ATOM     75  C   UNL     1       6.000  -2.681 -15.311  1.00  0.00     0.022 A 
BRANCH  72  76
ATOM     76  S   UNL     1       4.818  -5.198 -15.101  1.00  0.00     0.124 S 
ATOM     77  O   UNL     1       4.744  -5.668 -13.719  1.00  0.00    -0.237 OA
ATOM     78  O   UNL     1       3.608  -5.369 -15.899  1.00  0.00    -0.237 OA
ATOM     79  O   UNL     1       6.069  -5.504 -15.790  1.00  0.00    -0.744 OA
ENDBRANCH  72  76
ENDBRANCH  55  69
BRANCH  56  80
ATOM     80  C   UNL     1      -2.981   3.123  -8.281  1.00  0.00     0.023 A 
ATOM     81  C   UNL     1      -4.318   3.226  -8.700  1.00  0.00     0.031 A 
ATOM     82  C   UNL     1      -2.609   3.792  -7.101  1.00  0.00     0.131 A 
ATOM     83  C   UNL     1      -5.219   4.024  -7.976  1.00  0.00     0.055 A 
ATOM     84  C   UNL     1      -3.525   4.530  -6.349  1.00  0.00     0.041 A 
ATOM     85  F   UNL     1      -1.342   3.736  -6.658  1.00  0.00    -0.206 F 
ATOM     86  C   UNL     1      -4.835   4.662  -6.795  1.00  0.00     0.022 A 
BRANCH  83  87
ATOM     87  S   UNL     1      -6.873   4.310  -8.665  1.00  0.00     0.124 S 
ATOM     88  O   UNL     1      -6.556   4.887  -9.965  1.00  0.00    -0.237 OA
ATOM     89  O   UNL     1      -7.432   2.962  -8.679  1.00  0.00    -0.237 OA
ATOM     90  O   UNL     1      -7.486   5.227  -7.706  1.00  0.00    -0.744 OA
ENDBRANCH  83  87
ENDBRANCH  56  80
BRANCH  68  91
ATOM     91  C   UNL     1      -0.537   4.182 -14.723  1.00  0.00     0.023 A 
ATOM     92  C   UNL     1      -0.236   5.547 -14.563  1.00  0.00     0.031 A 
ATOM     93  C   UNL     1      -1.165   3.782 -15.917  1.00  0.00     0.131 A 
ATOM     94  C   UNL     1      -0.601   6.467 -15.559  1.00  0.00     0.055 A 
ATOM     95  C   UNL     1      -1.476   4.694 -16.927  1.00  0.00     0.041 A 
ATOM     96  F   UNL     1      -1.481   2.493 -16.124  1.00  0.00    -0.206 F 
ATOM     97  C   UNL     1      -1.203   6.046 -16.747  1.00  0.00     0.022 A 
BRANCH  94  98
ATOM     98  S   UNL     1      -0.339   8.236 -15.253  1.00  0.00     0.124 S 
ATOM     99  O   UNL     1      -1.174   8.469 -14.079  1.00  0.00    -0.237 OA
ATOM    100  O   UNL     1       1.102   8.307 -15.034  1.00  0.00    -0.237 OA
ATOM    101  O   UNL     1      -0.808   8.871 -16.483  1.00  0.00    -0.744 OA
ENDBRANCH  94  98
ENDBRANCH  68  91
ENDBRANCH  42  43
ENDBRANCH  34  37
ENDBRANCH  32  33
ENDBRANCH   1  32
TORSDOF 18
