REMARK SMILES COc1ccccc1C(=O)N1[C@@H](C(=O)NCCCNC(=O)c2ccc(-c3c4nc(c(-c5cc(S(=O)(=O)[O-])ccc5F)c5ccc([nH]5)c(-c5cc(S(=O)(=O)[O-])ccc5F)c5nc(c(-c6cc(S(=O)(=O)[O-])ccc6F)c6ccc3[nH]6)C=C5)C=C4)cc2)COC12CC[NH+](Cc1ccccc1)CC2
REMARK SMILES IDX 17 1 16 2 15 3 13 4 14 5 12 7 11 8 87 9 85 10 86 11 88 12
REMARK SMILES IDX 99 13 89 14 98 15 90 16 9 18 10 19 8 20 3 21 4 22 5 23 7 24
REMARK SMILES IDX 6 25 2 26 1 27 91 28 92 29 93 30 97 31 94 32 96 33 95 34
REMARK SMILES IDX 18 35 19 36 20 37 21 39 22 40 23 41 84 42 24 43 83 44 25 45
REMARK SMILES IDX 26 46 27 47 77 48 28 49 82 50 76 51 78 52 29 53 81 54 75 55
REMARK SMILES IDX 74 56 30 58 62 59 42 60 61 61 43 62 46 63 60 64 79 65 44 66
REMARK SMILES IDX 45 67 59 69 80 70 47 71 31 72 32 73 40 74 33 75 39 76 41 77
REMARK SMILES IDX 38 78 34 79 35 80 36 81 37 82 63 83 64 84 72 85 65 86 71 87
REMARK SMILES IDX 73 88 70 89 66 90 67 91 68 92 69 93 48 94 49 95 57 96 50 97
REMARK SMILES IDX 56 98 58 99 55 100 51 101 52 102 53 103 54 104
REMARK H PARENT 15 6 90 17 19 38 78 57 46 68
REMARK Flexibility Score: inf
ROOT
ATOM      1  C   UNL     1      -0.944  -0.399   3.087  1.00  0.00     0.042 C 
ENDROOT
BRANCH   1   2
ATOM      2  C   UNL     1      -0.237   0.297   1.945  1.00  0.00     0.117 C 
BRANCH   2   3
ATOM      3  N   UNL     1       0.665   1.350   2.334  1.00  0.00    -0.354 N 
ATOM      4  C   UNL     1       1.986   1.499   2.020  1.00  0.00     0.245 C 
ATOM      5  O   UNL     1       2.506   2.576   2.331  1.00  0.00    -0.273 OA
ATOM      6  H   UNL     1       0.278   2.056   2.902  1.00  0.00     0.163 HD
BRANCH   4   7
ATOM      7  C   UNL     1       2.842   0.350   1.433  1.00  0.00     0.203 C 
ATOM      8  N   UNL     1       2.430  -0.202   0.144  1.00  0.00    -0.295 N 
ATOM      9  C   UNL     1       2.190  -1.653   0.283  1.00  0.00     0.155 C 
ATOM     10  C   UNL     1       2.840  -0.838   2.370  1.00  0.00     0.198 C 
ATOM     11  O   UNL     1       2.018  -1.827   1.720  1.00  0.00    -0.352 OA
ATOM     12  C   UNL     1       0.957  -2.204  -0.448  1.00  0.00     0.120 C 
ATOM     13  C   UNL     1       3.409  -2.517  -0.078  1.00  0.00     0.120 C 
ATOM     14  C   UNL     1       0.735  -3.687  -0.175  1.00  0.00     0.267 C 
ATOM     15  C   UNL     1       3.111  -4.010   0.174  1.00  0.00     0.267 C 
ATOM     16  N   UNL     1       1.900  -4.513  -0.467  1.00  0.00    -0.331 N 
ATOM     17  H   UNL     1       1.733  -5.404   0.002  1.00  0.00     0.348 HD
BRANCH   8  18
ATOM     18  C   UNL     1       2.752   0.535  -0.993  1.00  0.00     0.260 C 
ATOM     19  O   UNL     1       3.664   1.367  -0.966  1.00  0.00    -0.269 OA
BRANCH  18  20
ATOM     20  C   UNL     1       1.978   0.472  -2.264  1.00  0.00     0.082 A 
ATOM     21  C   UNL     1       0.581   0.455  -2.332  1.00  0.00     0.131 A 
ATOM     22  C   UNL     1      -0.093   0.441  -3.562  1.00  0.00     0.047 A 
ATOM     23  C   UNL     1       0.615   0.634  -4.742  1.00  0.00     0.004 A 
ATOM     24  C   UNL     1       2.671   0.711  -3.463  1.00  0.00     0.018 A 
ATOM     25  C   UNL     1       1.994   0.817  -4.688  1.00  0.00     0.001 A 
BRANCH  21  26
ATOM     26  O   UNL     1      -0.208   0.592  -1.220  1.00  0.00    -0.496 OA
ATOM     27  C   UNL     1      -0.383   1.993  -0.964  1.00  0.00     0.278 C 
ENDBRANCH  21  26
ENDBRANCH  18  20
ENDBRANCH   8  18
BRANCH  16  28
ATOM     28  C   UNL     1       2.009  -5.026  -1.836  1.00  0.00     0.299 C 
BRANCH  28  29
ATOM     29  C   UNL     1       2.724  -4.161  -2.849  1.00  0.00     0.006 A 
ATOM     30  C   UNL     1       2.011  -3.372  -3.756  1.00  0.00     0.009 A 
ATOM     31  C   UNL     1       4.128  -4.113  -2.874  1.00  0.00     0.009 A 
ATOM     32  C   UNL     1       2.689  -2.516  -4.625  1.00  0.00     0.001 A 
ATOM     33  C   UNL     1       4.800  -3.206  -3.693  1.00  0.00     0.001 A 
ATOM     34  C   UNL     1       4.077  -2.401  -4.565  1.00  0.00     0.000 A 
ENDBRANCH  28  29
ENDBRANCH  16  28
ENDBRANCH   4   7
ENDBRANCH   2   3
ENDBRANCH   1   2
BRANCH   1  35
ATOM     35  C   UNL     1      -2.412  -0.009   3.123  1.00  0.00     0.118 C 
BRANCH  35  36
ATOM     36  N   UNL     1      -3.150  -0.413   1.922  1.00  0.00    -0.352 N 
ATOM     37  C   UNL     1      -4.389  -0.998   1.813  1.00  0.00     0.251 C 
ATOM     38  H   UNL     1      -2.691  -0.239   1.069  1.00  0.00     0.163 HD
ATOM     39  O   UNL     1      -4.811  -1.345   0.713  1.00  0.00    -0.269 OA
BRANCH  37  40
ATOM     40  C   UNL     1      -5.169  -1.255   3.038  1.00  0.00     0.039 A 
ATOM     41  C   UNL     1      -5.766  -2.503   3.220  1.00  0.00     0.014 A 
ATOM     42  C   UNL     1      -5.214  -0.295   4.049  1.00  0.00     0.014 A 
ATOM     43  C   UNL     1      -6.322  -2.820   4.460  1.00  0.00     0.010 A 
ATOM     44  C   UNL     1      -5.635  -0.663   5.316  1.00  0.00     0.010 A 
ATOM     45  C   UNL     1      -6.207  -1.925   5.535  1.00  0.00    -0.014 A 
BRANCH  45  46
ATOM     46  C   UNL     1      -6.703  -2.259   6.895  1.00  0.00     0.031 A 
ATOM     47  C   UNL     1      -7.714  -1.355   7.553  1.00  0.00     0.074 A 
ATOM     48  C   UNL     1      -6.180  -3.304   7.567  1.00  0.00     0.049 A 
ATOM     49  N   UNL     1      -8.171  -1.372   8.777  1.00  0.00    -0.248 NA
ATOM     50  C   UNL     1      -8.232  -0.243   6.738  1.00  0.00     0.031 C 
ATOM     51  C   UNL     1      -5.142  -4.207   7.062  1.00  0.00     0.029 A 
ATOM     52  N   UNL     1      -6.444  -3.781   8.825  1.00  0.00    -0.354 N 
ATOM     53  C   UNL     1      -8.992  -0.255   8.887  1.00  0.00     0.074 A 
ATOM     54  C   UNL     1      -8.898   0.462   7.636  1.00  0.00     0.031 C 
ATOM     55  C   UNL     1      -4.891  -5.151   7.983  1.00  0.00     0.029 A 
ATOM     56  C   UNL     1      -5.710  -4.895   9.162  1.00  0.00     0.049 A 
ATOM     57  H   UNL     1      -7.099  -3.365   9.432  1.00  0.00     0.167 HD
ATOM     58  C   UNL     1      -9.784   0.119   9.923  1.00  0.00     0.034 A 
ATOM     59  C   UNL     1      -5.699  -5.623  10.296  1.00  0.00     0.034 A 
ATOM     60  C   UNL     1      -9.903  -0.643  11.140  1.00  0.00     0.049 A 
ATOM     61  C   UNL     1      -6.619  -5.217  11.419  1.00  0.00     0.074 A 
ATOM     62  C   UNL     1     -10.724  -0.410  12.228  1.00  0.00     0.029 A 
ATOM     63  N   UNL     1      -9.181  -1.796  11.425  1.00  0.00    -0.354 N 
ATOM     64  N   UNL     1      -7.433  -4.187  11.489  1.00  0.00    -0.248 NA
ATOM     65  C   UNL     1      -6.632  -6.078  12.607  1.00  0.00     0.031 C 
ATOM     66  C   UNL     1     -10.461  -1.391  13.191  1.00  0.00     0.029 A 
ATOM     67  C   UNL     1      -9.527  -2.277  12.677  1.00  0.00     0.049 A 
ATOM     68  H   UNL     1      -8.521  -2.212  10.824  1.00  0.00     0.167 HD
ATOM     69  C   UNL     1      -8.077  -4.296  12.719  1.00  0.00     0.074 A 
ATOM     70  C   UNL     1      -7.569  -5.501  13.345  1.00  0.00     0.031 C 
ATOM     71  C   UNL     1      -9.004  -3.479  13.281  1.00  0.00     0.034 A 
BRANCH  58  72
ATOM     72  C   UNL     1     -10.564   1.405   9.771  1.00  0.00     0.023 A 
ATOM     73  C   UNL     1     -11.511   1.578   8.746  1.00  0.00     0.031 A 
ATOM     74  C   UNL     1     -10.320   2.493  10.628  1.00  0.00     0.131 A 
ATOM     75  C   UNL     1     -12.103   2.833   8.540  1.00  0.00     0.055 A 
ATOM     76  C   UNL     1     -10.985   3.712  10.477  1.00  0.00     0.041 A 
ATOM     77  F   UNL     1      -9.414   2.398  11.613  1.00  0.00    -0.206 F 
ATOM     78  C   UNL     1     -11.868   3.894   9.416  1.00  0.00     0.022 A 
BRANCH  75  79
ATOM     79  S   UNL     1     -13.051   3.101   7.017  1.00  0.00     0.124 S 
ATOM     80  O   UNL     1     -12.039   2.847   5.994  1.00  0.00    -0.237 OA
ATOM     81  O   UNL     1     -14.112   2.108   7.126  1.00  0.00    -0.237 OA
ATOM     82  O   UNL     1     -13.483   4.493   7.123  1.00  0.00    -0.744 OA
ENDBRANCH  75  79
ENDBRANCH  58  72
BRANCH  59  83
ATOM     83  C   UNL     1      -4.808  -6.811  10.428  1.00  0.00     0.023 A 
ATOM     84  C   UNL     1      -5.343  -8.104  10.551  1.00  0.00     0.031 A 
ATOM     85  C   UNL     1      -3.409  -6.671  10.470  1.00  0.00     0.131 A 
ATOM     86  C   UNL     1      -4.490  -9.199  10.760  1.00  0.00     0.055 A 
ATOM     87  C   UNL     1      -2.562  -7.771  10.626  1.00  0.00     0.041 A 
ATOM     88  F   UNL     1      -2.844  -5.460  10.348  1.00  0.00    -0.206 F 
ATOM     89  C   UNL     1      -3.103  -9.043  10.786  1.00  0.00     0.022 A 
BRANCH  86  90
ATOM     90  S   UNL     1      -5.228 -10.826  11.080  1.00  0.00     0.124 S 
ATOM     91  O   UNL     1      -6.051 -10.553  12.252  1.00  0.00    -0.237 OA
ATOM     92  O   UNL     1      -5.947 -11.081   9.836  1.00  0.00    -0.237 OA
ATOM     93  O   UNL     1      -4.069 -11.684  11.316  1.00  0.00    -0.744 OA
ENDBRANCH  86  90
ENDBRANCH  59  83
BRANCH  71  94
ATOM     94  C   UNL     1      -9.559  -3.898  14.619  1.00  0.00     0.023 A 
ATOM     95  C   UNL     1      -8.761  -3.919  15.775  1.00  0.00     0.031 A 
ATOM     96  C   UNL     1     -10.903  -4.295  14.731  1.00  0.00     0.131 A 
ATOM     97  C   UNL     1      -9.299  -4.386  16.984  1.00  0.00     0.055 A 
ATOM     98  C   UNL     1     -11.449  -4.698  15.950  1.00  0.00     0.041 A 
ATOM     99  F   UNL     1     -11.708  -4.293  13.657  1.00  0.00    -0.206 F 
ATOM    100  C   UNL     1     -10.642  -4.759  17.082  1.00  0.00     0.022 A 
BRANCH  97 101
ATOM    101  S   UNL     1      -8.191  -4.592  18.404  1.00  0.00     0.124 S 
ATOM    102  O   UNL     1      -7.186  -5.509  17.876  1.00  0.00    -0.237 OA
ATOM    103  O   UNL     1      -7.740  -3.226  18.649  1.00  0.00    -0.237 OA
ATOM    104  O   UNL     1      -9.060  -5.152  19.438  1.00  0.00    -0.744 OA
ENDBRANCH  97 101
ENDBRANCH  71  94
ENDBRANCH  45  46
ENDBRANCH  37  40
ENDBRANCH  35  36
ENDBRANCH   1  35
TORSDOF 18
