REMARK SMILES CC(C)C[NH+]1CC[NH+]([C@@H]2CC[C@]([NH3+])(C(=O)NCCCNC(=O)c3ccc(-c4c5nc(c(-c6cc(S(=O)(=O)[O-])ccc6F)c6ccc([nH]6)c(-c6cc(S(=O)(=O)[O-])ccc6F)c6nc(c(-c7cc(S(=O)(=O)[O-])ccc7F)c7ccc4[nH]7)C=C6)C=C5)cc3)C2)CC1
REMARK SMILES IDX 18 1 17 2 16 3 14 4 15 5 12 7 9 8 10 9 86 10 11 11 8 12 5 13
REMARK SMILES IDX 6 14 88 15 7 17 87 18 4 20 2 21 1 22 3 23 13 24 19 28 20 29
REMARK SMILES IDX 21 30 22 32 23 33 24 34 85 35 25 36 84 37 26 38 27 39 28 40
REMARK SMILES IDX 78 41 29 42 83 43 77 44 79 45 30 46 82 47 76 48 75 49 31 51
REMARK SMILES IDX 63 52 43 53 62 54 44 55 47 56 61 57 80 58 45 59 46 60 60 62
REMARK SMILES IDX 81 63 48 64 32 65 33 66 41 67 34 68 40 69 42 70 39 71 35 72
REMARK SMILES IDX 36 73 37 74 38 75 64 76 65 77 73 78 66 79 72 80 74 81 71 82
REMARK SMILES IDX 67 83 68 84 69 85 70 86 49 87 50 88 58 89 51 90 57 91 59 92
REMARK SMILES IDX 56 93 52 94 53 95 54 96 55 97
REMARK H PARENT 16 6 5 16 8 19 13 25 13 26 13 27 20 31 79 50 47 61
REMARK Flexibility Score: inf
ROOT
ATOM      1  C   UNL     1      -3.208   5.663  -5.460  1.00  0.00     0.042 C 
ENDROOT
BRANCH   1   2
ATOM      2  C   UNL     1      -2.279   4.936  -4.504  1.00  0.00     0.118 C 
BRANCH   2   3
ATOM      3  N   UNL     1      -2.173   5.605  -3.219  1.00  0.00    -0.351 N 
ATOM      4  C   UNL     1      -2.691   5.378  -1.983  1.00  0.00     0.281 C 
ATOM      5  O   UNL     1      -2.302   6.157  -1.102  1.00  0.00    -0.268 OA
ATOM      6  H   UNL     1      -1.595   6.402  -3.250  1.00  0.00     0.163 HD
BRANCH   4   7
ATOM      7  C   UNL     1      -3.752   4.278  -1.665  1.00  0.00     0.179 C 
ATOM      8  C   UNL     1      -3.921   2.221  -0.251  1.00  0.00     0.191 C 
ATOM      9  C   UNL     1      -4.331   1.923  -1.697  1.00  0.00     0.072 C 
ATOM     10  C   UNL     1      -3.446   3.699  -0.261  1.00  0.00     0.144 C 
ATOM     11  C   UNL     1      -3.717   3.027  -2.529  1.00  0.00     0.085 C 
BRANCH   8  12
ATOM     12  N   UNL     1      -3.067   1.245   0.451  1.00  0.00    -0.323 N 
ATOM     13  N   UNL     1      -1.400  -0.887  -0.953  1.00  0.00    -0.325 N 
ATOM     14  C   UNL     1      -2.863  -1.054  -0.750  1.00  0.00     0.324 C 
ATOM     15  C   UNL     1      -1.117   0.555  -0.985  1.00  0.00     0.324 C 
ATOM     16  H   UNL     1      -1.080  -1.269  -1.843  1.00  0.00     0.348 HD
ATOM     17  C   UNL     1      -3.521  -0.160   0.352  1.00  0.00     0.324 C 
ATOM     18  C   UNL     1      -1.614   1.311   0.258  1.00  0.00     0.324 C 
ATOM     19  H   UNL     1      -3.215   1.587   1.400  1.00  0.00     0.348 HD
BRANCH  13  20
ATOM     20  C   UNL     1      -0.662  -1.655   0.064  1.00  0.00     0.265 C 
BRANCH  20  21
ATOM     21  C   UNL     1       0.883  -1.732  -0.055  1.00  0.00     0.038 C 
ATOM     22  C   UNL     1       1.628  -0.480   0.423  1.00  0.00     0.013 C 
ATOM     23  C   UNL     1       1.372  -2.924   0.782  1.00  0.00     0.013 C 
ENDBRANCH  20  21
ENDBRANCH  13  20
ENDBRANCH   8  12
BRANCH   7  24
ATOM     24  N   UNL     1      -5.094   4.892  -1.680  1.00  0.00    -0.345 N 
ATOM     25  H   UNL     1      -5.795   4.180  -1.473  1.00  0.00     0.345 HD
ATOM     26  H   UNL     1      -5.276   5.290  -2.601  1.00  0.00     0.345 HD
ATOM     27  H   UNL     1      -5.139   5.628  -0.976  1.00  0.00     0.345 HD
ENDBRANCH   7  24
ENDBRANCH   4   7
ENDBRANCH   2   3
ENDBRANCH   1   2
BRANCH   1  28
ATOM     28  C   UNL     1      -2.583   6.938  -6.012  1.00  0.00     0.118 C 
BRANCH  28  29
ATOM     29  N   UNL     1      -1.425   6.657  -6.858  1.00  0.00    -0.352 N 
ATOM     30  C   UNL     1      -1.271   6.805  -8.217  1.00  0.00     0.251 C 
ATOM     31  H   UNL     1      -0.635   6.309  -6.383  1.00  0.00     0.163 HD
ATOM     32  O   UNL     1      -0.323   6.282  -8.786  1.00  0.00    -0.269 OA
BRANCH  30  33
ATOM     33  C   UNL     1      -2.270   7.586  -8.974  1.00  0.00     0.039 A 
ATOM     34  C   UNL     1      -2.754   7.101 -10.191  1.00  0.00     0.014 A 
ATOM     35  C   UNL     1      -2.738   8.795  -8.459  1.00  0.00     0.014 A 
ATOM     36  C   UNL     1      -3.776   7.791 -10.850  1.00  0.00     0.010 A 
ATOM     37  C   UNL     1      -3.816   9.425  -9.062  1.00  0.00     0.010 A 
ATOM     38  C   UNL     1      -4.344   8.933 -10.266  1.00  0.00    -0.014 A 
BRANCH  38  39
ATOM     39  C   UNL     1      -5.470   9.678 -10.886  1.00  0.00     0.031 A 
ATOM     40  C   UNL     1      -5.272  11.127 -11.240  1.00  0.00     0.074 A 
ATOM     41  C   UNL     1      -6.682   9.103 -11.004  1.00  0.00     0.049 A 
ATOM     42  N   UNL     1      -6.160  12.037 -11.541  1.00  0.00    -0.248 NA
ATOM     43  C   UNL     1      -3.888  11.624 -11.193  1.00  0.00     0.031 C 
ATOM     44  C   UNL     1      -6.999   7.712 -10.673  1.00  0.00     0.029 A 
ATOM     45  N   UNL     1      -7.885   9.630 -11.405  1.00  0.00    -0.354 N 
ATOM     46  C   UNL     1      -5.447  13.225 -11.676  1.00  0.00     0.074 A 
ATOM     47  C   UNL     1      -4.066  12.924 -11.368  1.00  0.00     0.031 C 
ATOM     48  C   UNL     1      -8.306   7.495 -10.893  1.00  0.00     0.029 A 
ATOM     49  C   UNL     1      -8.933   8.742 -11.318  1.00  0.00     0.049 A 
ATOM     50  H   UNL     1      -7.987  10.555 -11.725  1.00  0.00     0.167 HD
ATOM     51  C   UNL     1      -5.904  14.449 -12.040  1.00  0.00     0.034 A 
ATOM     52  C   UNL     1     -10.252   8.924 -11.528  1.00  0.00     0.034 A 
ATOM     53  C   UNL     1      -7.281  14.714 -12.374  1.00  0.00     0.049 A 
ATOM     54  C   UNL     1     -10.742  10.293 -11.928  1.00  0.00     0.074 A 
ATOM     55  C   UNL     1      -7.852  15.898 -12.805  1.00  0.00     0.029 A 
ATOM     56  N   UNL     1      -8.304  13.775 -12.320  1.00  0.00    -0.354 N 
ATOM     57  N   UNL     1     -10.057  11.406 -12.067  1.00  0.00    -0.248 NA
ATOM     58  C   UNL     1     -12.178  10.433 -12.207  1.00  0.00     0.031 C 
ATOM     59  C   UNL     1      -9.227  15.691 -12.957  1.00  0.00     0.029 A 
ATOM     60  C   UNL     1      -9.503  14.358 -12.694  1.00  0.00     0.049 A 
ATOM     61  H   UNL     1      -8.193  12.834 -12.054  1.00  0.00     0.167 HD
ATOM     62  C   UNL     1     -10.973  12.364 -12.492  1.00  0.00     0.074 A 
ATOM     63  C   UNL     1     -12.258  11.701 -12.582  1.00  0.00     0.031 C 
ATOM     64  C   UNL     1     -10.770  13.671 -12.793  1.00  0.00     0.034 A 
BRANCH  51  65
ATOM     65  C   UNL     1      -4.909  15.583 -12.064  1.00  0.00     0.023 A 
ATOM     66  C   UNL     1      -3.792  15.568 -12.918  1.00  0.00     0.031 A 
ATOM     67  C   UNL     1      -5.053  16.677 -11.192  1.00  0.00     0.131 A 
ATOM     68  C   UNL     1      -2.819  16.573 -12.819  1.00  0.00     0.055 A 
ATOM     69  C   UNL     1      -4.127  17.723 -11.163  1.00  0.00     0.041 A 
ATOM     70  F   UNL     1      -6.086  16.740 -10.338  1.00  0.00    -0.206 F 
ATOM     71  C   UNL     1      -2.992  17.666 -11.966  1.00  0.00     0.022 A 
BRANCH  68  72
ATOM     72  S   UNL     1      -1.252  16.347 -13.703  1.00  0.00     0.124 S 
ATOM     73  O   UNL     1      -0.764  15.099 -13.121  1.00  0.00    -0.237 OA
ATOM     74  O   UNL     1      -1.682  16.277 -15.095  1.00  0.00    -0.237 OA
ATOM     75  O   UNL     1      -0.482  17.536 -13.345  1.00  0.00    -0.744 OA
ENDBRANCH  68  72
ENDBRANCH  51  65
BRANCH  52  76
ATOM     76  C   UNL     1     -11.208   7.793 -11.354  1.00  0.00     0.023 A 
ATOM     77  C   UNL     1     -11.923   7.280 -12.448  1.00  0.00     0.031 A 
ATOM     78  C   UNL     1     -11.449   7.230 -10.088  1.00  0.00     0.131 A 
ATOM     79  C   UNL     1     -12.877   6.271 -12.250  1.00  0.00     0.055 A 
ATOM     80  C   UNL     1     -12.362   6.189  -9.905  1.00  0.00     0.041 A 
ATOM     81  F   UNL     1     -10.786   7.676  -9.008  1.00  0.00    -0.206 F 
ATOM     82  C   UNL     1     -13.093   5.713 -10.988  1.00  0.00     0.022 A 
BRANCH  79  83
ATOM     83  S   UNL     1     -13.897   5.754 -13.659  1.00  0.00     0.124 S 
ATOM     84  O   UNL     1     -14.525   7.012 -14.047  1.00  0.00    -0.237 OA
ATOM     85  O   UNL     1     -12.895   5.225 -14.578  1.00  0.00    -0.237 OA
ATOM     86  O   UNL     1     -14.796   4.759 -13.080  1.00  0.00    -0.744 OA
ENDBRANCH  79  83
ENDBRANCH  52  76
BRANCH  64  87
ATOM     87  C   UNL     1     -11.943  14.449 -13.332  1.00  0.00     0.023 A 
ATOM     88  C   UNL     1     -13.035  14.808 -12.526  1.00  0.00     0.031 A 
ATOM     89  C   UNL     1     -11.942  14.863 -14.677  1.00  0.00     0.131 A 
ATOM     90  C   UNL     1     -14.101  15.533 -13.082  1.00  0.00     0.055 A 
ATOM     91  C   UNL     1     -12.979  15.626 -15.210  1.00  0.00     0.041 A 
ATOM     92  F   UNL     1     -10.920  14.544 -15.488  1.00  0.00    -0.206 F 
ATOM     93  C   UNL     1     -14.071  15.958 -14.414  1.00  0.00     0.022 A 
BRANCH  90  94
ATOM     94  S   UNL     1     -15.557  15.872 -12.056  1.00  0.00     0.124 S 
ATOM     95  O   UNL     1     -16.027  14.526 -11.743  1.00  0.00    -0.237 OA
ATOM     96  O   UNL     1     -14.988  16.623 -10.943  1.00  0.00    -0.237 OA
ATOM     97  O   UNL     1     -16.429  16.643 -12.941  1.00  0.00    -0.744 OA
ENDBRANCH  90  94
ENDBRANCH  64  87
ENDBRANCH  38  39
ENDBRANCH  30  33
ENDBRANCH  28  29
ENDBRANCH   1  28
TORSDOF 17
