REMARK SMILES Cc1cccc(O[C@H](C)C(=O)NNC(=O)[C@H]2[C@@H]3CC[C@@H](C3)[C@@H]2C(=O)NCCCNC(=O)c2ccc(-c3c4nc(c(-c5cc(S(=O)(=O)[O-])ccc5F)c5ccc([nH]5)c(-c5cc(S(=O)(=O)[O-])ccc5F)c5nc(c(-c6cc(S(=O)(=O)[O-])ccc6F)c6ccc3[nH]6)C=C5)C=C4)cc2)c1
REMARK SMILES IDX 26 1 25 2 23 3 24 4 22 6 16 7 17 8 18 9 21 10 20 11 19 12
REMARK SMILES IDX 14 13 13 14 15 16 12 17 10 18 11 19 8 21 9 22 7 23 6 24 1 25
REMARK SMILES IDX 2 26 3 27 95 28 4 29 5 30 27 31 28 32 29 33 30 34 31 36
REMARK SMILES IDX 32 37 33 38 94 39 34 40 93 41 35 42 36 43 37 44 87 45 38 46
REMARK SMILES IDX 92 47 86 48 88 49 39 50 91 51 85 52 84 53 40 55 72 56 52 57
REMARK SMILES IDX 71 58 53 59 56 60 70 61 89 62 54 63 55 64 69 66 90 67 57 68
REMARK SMILES IDX 41 69 42 70 50 71 43 72 49 73 51 74 48 75 44 76 45 77 46 78
REMARK SMILES IDX 47 79 73 80 74 81 82 82 75 83 81 84 83 85 80 86 76 87 77 88
REMARK SMILES IDX 78 89 79 90 58 91 59 92 67 93 60 94 66 95 68 96 65 97 61 98
REMARK SMILES IDX 62 99 63 100 64 101
REMARK H PARENT 25 5 13 15 12 20 29 35 88 54 56 65
REMARK Flexibility Score: inf
ROOT
ATOM      1  C   UNL     1       3.692   5.104  -3.802  1.00  0.00     0.117 C 
ENDROOT
BRANCH   1   2
ATOM      2  N   UNL     1       4.696   4.181  -3.283  1.00  0.00    -0.356 N 
ATOM      3  C   UNL     1       4.562   2.874  -2.902  1.00  0.00     0.224 C 
ATOM      4  O   UNL     1       5.527   2.268  -2.444  1.00  0.00    -0.275 OA
ATOM      5  H   UNL     1       5.603   4.554  -3.193  1.00  0.00     0.163 HD
BRANCH   3   6
ATOM      6  C   UNL     1       3.189   2.228  -3.045  1.00  0.00     0.094 C 
ATOM      7  C   UNL     1       3.012   0.902  -2.275  1.00  0.00     0.096 C 
ATOM      8  C   UNL     1       2.422  -0.059  -3.340  1.00  0.00     0.002 C 
ATOM      9  C   UNL     1       3.574  -0.494  -4.269  1.00  0.00     0.005 C 
ATOM     10  C   UNL     1       1.653   0.867  -4.277  1.00  0.00     0.009 C 
ATOM     11  C   UNL     1       2.849   1.796  -4.496  1.00  0.00     0.002 C 
ATOM     12  C   UNL     1       3.893   0.798  -5.038  1.00  0.00     0.005 C 
BRANCH   7  13
ATOM     13  C   UNL     1       2.242   0.882  -0.959  1.00  0.00     0.242 C 
ATOM     14  N   UNL     1       1.218   1.716  -0.619  1.00  0.00    -0.267 N 
ATOM     15  H   UNL     1       0.969   1.713   0.333  1.00  0.00     0.191 HD
ATOM     16  O   UNL     1       2.522   0.007  -0.126  1.00  0.00    -0.273 OA
BRANCH  14  17
ATOM     17  N   UNL     1       0.487   2.556  -1.417  1.00  0.00    -0.264 N 
ATOM     18  C   UNL     1      -0.529   3.387  -1.066  1.00  0.00     0.279 C 
ATOM     19  O   UNL     1      -0.940   4.128  -1.974  1.00  0.00    -0.269 OA
ATOM     20  H   UNL     1       0.731   2.558  -2.371  1.00  0.00     0.191 HD
BRANCH  18  21
ATOM     21  C   UNL     1      -1.256   3.416   0.310  1.00  0.00     0.260 C 
ATOM     22  C   UNL     1      -2.666   2.821   0.179  1.00  0.00     0.064 C 
BRANCH  21  23
ATOM     23  O   UNL     1      -0.676   3.310   1.590  1.00  0.00    -0.481 OA
BRANCH  23  24
ATOM     24  C   UNL     1      -0.257   2.169   2.189  1.00  0.00     0.120 A 
ATOM     25  C   UNL     1       2.351   1.578   4.913  1.00  0.00     0.044 C 
ATOM     26  C   UNL     1       1.306   1.328   3.867  1.00  0.00    -0.047 A 
ATOM     27  C   UNL     1       0.992   0.022   3.487  1.00  0.00     0.003 A 
ATOM     28  C   UNL     1       0.664   2.391   3.221  1.00  0.00     0.049 A 
ATOM     29  C   UNL     1       0.045  -0.210   2.490  1.00  0.00     0.004 A 
ATOM     30  C   UNL     1      -0.585   0.860   1.847  1.00  0.00     0.046 A 
ENDBRANCH  23  24
ENDBRANCH  21  23
ENDBRANCH  18  21
ENDBRANCH  14  17
ENDBRANCH   7  13
ENDBRANCH   3   6
ENDBRANCH   1   2
BRANCH   1  31
ATOM     31  C   UNL     1       2.892   5.779  -2.691  1.00  0.00     0.042 C 
BRANCH  31  32
ATOM     32  C   UNL     1       3.559   7.049  -2.184  1.00  0.00     0.118 C 
BRANCH  32  33
ATOM     33  N   UNL     1       3.124   8.265  -2.866  1.00  0.00    -0.352 N 
ATOM     34  C   UNL     1       3.570   9.572  -2.699  1.00  0.00     0.251 C 
ATOM     35  H   UNL     1       2.416   8.143  -3.539  1.00  0.00     0.163 HD
ATOM     36  O   UNL     1       3.050  10.496  -3.282  1.00  0.00    -0.269 OA
BRANCH  34  37
ATOM     37  C   UNL     1       4.767   9.796  -1.852  1.00  0.00     0.039 A 
ATOM     38  C   UNL     1       5.856  10.467  -2.424  1.00  0.00     0.014 A 
ATOM     39  C   UNL     1       4.891   9.151  -0.627  1.00  0.00     0.014 A 
ATOM     40  C   UNL     1       7.126  10.282  -1.883  1.00  0.00     0.010 A 
ATOM     41  C   UNL     1       6.157   8.877  -0.158  1.00  0.00     0.010 A 
ATOM     42  C   UNL     1       7.277   9.391  -0.825  1.00  0.00    -0.014 A 
BRANCH  42  43
ATOM     43  C   UNL     1       8.553   8.817  -0.416  1.00  0.00     0.031 A 
ATOM     44  C   UNL     1       9.123   9.131   0.907  1.00  0.00     0.074 A 
ATOM     45  C   UNL     1       9.130   7.872  -1.190  1.00  0.00     0.049 A 
ATOM     46  N   UNL     1      10.326   8.838   1.262  1.00  0.00    -0.248 NA
ATOM     47  C   UNL     1       8.399   9.886   1.923  1.00  0.00     0.031 C 
ATOM     48  C   UNL     1      10.159   6.910  -0.803  1.00  0.00     0.029 A 
ATOM     49  N   UNL     1       9.070   7.776  -2.580  1.00  0.00    -0.354 N 
ATOM     50  C   UNL     1      10.435   9.062   2.613  1.00  0.00     0.074 A 
ATOM     51  C   UNL     1       9.265   9.838   2.940  1.00  0.00     0.031 C 
ATOM     52  C   UNL     1      10.814   6.509  -1.903  1.00  0.00     0.029 A 
ATOM     53  C   UNL     1      10.337   7.324  -3.003  1.00  0.00     0.049 A 
ATOM     54  H   UNL     1       8.297   7.984  -3.152  1.00  0.00     0.167 HD
ATOM     55  C   UNL     1      11.438   8.437   3.293  1.00  0.00     0.034 A 
ATOM     56  C   UNL     1      11.125   8.100  -3.803  1.00  0.00     0.034 A 
ATOM     57  C   UNL     1      12.421   7.856   2.363  1.00  0.00     0.049 A 
ATOM     58  C   UNL     1      12.469   8.456  -3.195  1.00  0.00     0.074 A 
ATOM     59  C   UNL     1      12.773   6.570   1.989  1.00  0.00     0.029 A 
ATOM     60  N   UNL     1      13.065   8.701   1.465  1.00  0.00    -0.354 N 
ATOM     61  N   UNL     1      12.804   8.240  -1.952  1.00  0.00    -0.248 NA
ATOM     62  C   UNL     1      13.523   9.141  -3.934  1.00  0.00     0.031 C 
ATOM     63  C   UNL     1      13.629   6.657   0.850  1.00  0.00     0.029 A 
ATOM     64  C   UNL     1      13.821   7.993   0.551  1.00  0.00     0.049 A 
ATOM     65  H   UNL     1      12.992   9.682   1.479  1.00  0.00     0.167 HD
ATOM     66  C   UNL     1      14.049   8.769  -1.697  1.00  0.00     0.074 A 
ATOM     67  C   UNL     1      14.450   9.328  -2.978  1.00  0.00     0.031 C 
ATOM     68  C   UNL     1      14.608   8.722  -0.444  1.00  0.00     0.034 A 
BRANCH  55  69
ATOM     69  C   UNL     1      11.454   8.153   4.790  1.00  0.00     0.023 A 
ATOM     70  C   UNL     1      12.413   7.244   5.296  1.00  0.00     0.031 A 
ATOM     71  C   UNL     1      10.534   8.626   5.752  1.00  0.00     0.131 A 
ATOM     72  C   UNL     1      12.394   6.812   6.639  1.00  0.00     0.055 A 
ATOM     73  C   UNL     1      10.525   8.209   7.090  1.00  0.00     0.041 A 
ATOM     74  F   UNL     1       9.579   9.513   5.473  1.00  0.00    -0.206 F 
ATOM     75  C   UNL     1      11.449   7.287   7.540  1.00  0.00     0.022 A 
BRANCH  72  76
ATOM     76  S   UNL     1      13.594   5.570   7.193  1.00  0.00     0.124 S 
ATOM     77  O   UNL     1      13.289   4.438   6.325  1.00  0.00    -0.237 OA
ATOM     78  O   UNL     1      14.866   6.244   6.961  1.00  0.00    -0.237 OA
ATOM     79  O   UNL     1      13.251   5.373   8.602  1.00  0.00    -0.744 OA
ENDBRANCH  72  76
ENDBRANCH  55  69
BRANCH  56  80
ATOM     80  C   UNL     1      10.327   8.948  -4.739  1.00  0.00     0.023 A 
ATOM     81  C   UNL     1       9.435   8.277  -5.605  1.00  0.00     0.031 A 
ATOM     82  C   UNL     1      10.106  10.311  -4.501  1.00  0.00     0.131 A 
ATOM     83  C   UNL     1       8.268   8.913  -6.050  1.00  0.00     0.055 A 
ATOM     84  C   UNL     1       8.980  10.966  -5.020  1.00  0.00     0.041 A 
ATOM     85  F   UNL     1      10.895  10.996  -3.659  1.00  0.00    -0.206 F 
ATOM     86  C   UNL     1       8.030  10.256  -5.758  1.00  0.00     0.022 A 
BRANCH  83  87
ATOM     87  S   UNL     1       6.947   7.878  -6.753  1.00  0.00     0.124 S 
ATOM     88  O   UNL     1       7.437   7.636  -8.105  1.00  0.00    -0.237 OA
ATOM     89  O   UNL     1       6.940   6.721  -5.858  1.00  0.00    -0.237 OA
ATOM     90  O   UNL     1       5.758   8.719  -6.657  1.00  0.00    -0.744 OA
ENDBRANCH  83  87
ENDBRANCH  56  80
BRANCH  68  91
ATOM     91  C   UNL     1      15.922   9.360   0.003  1.00  0.00     0.023 A 
ATOM     92  C   UNL     1      16.926   9.799  -0.873  1.00  0.00     0.031 A 
ATOM     93  C   UNL     1      16.225   9.528   1.383  1.00  0.00     0.131 A 
ATOM     94  C   UNL     1      18.097  10.430  -0.399  1.00  0.00     0.055 A 
ATOM     95  C   UNL     1      17.400  10.124   1.854  1.00  0.00     0.041 A 
ATOM     96  F   UNL     1      15.389   9.135   2.353  1.00  0.00    -0.206 F 
ATOM     97  C   UNL     1      18.341  10.596   0.961  1.00  0.00     0.022 A 
BRANCH  94  98
ATOM     98  S   UNL     1      19.298  11.046  -1.609  1.00  0.00     0.124 S 
ATOM     99  O   UNL     1      19.620   9.842  -2.368  1.00  0.00    -0.237 OA
ATOM    100  O   UNL     1      18.519  12.054  -2.322  1.00  0.00    -0.237 OA
ATOM    101  O   UNL     1      20.385  11.572  -0.785  1.00  0.00    -0.744 OA
ENDBRANCH  94  98
ENDBRANCH  68  91
ENDBRANCH  42  43
ENDBRANCH  34  37
ENDBRANCH  32  33
ENDBRANCH  31  32
ENDBRANCH   1  31
TORSDOF 18
