REMARK SMILES O=C(C[C@H](NC(=O)[C@]12C[C@H]3C[C@H](C[C@H](C3)C1)C2)c1cccc([N+](=O)[O-])c1)NCCCNC(=O)c1ccc(-c2c3nc(c(-c4cc(S(=O)(=O)[O-])ccc4F)c4ccc([nH]4)c(-c4cc(S(=O)(=O)[O-])ccc4F)c4nc(c(-c5cc(S(=O)(=O)[O-])ccc5F)c5ccc2[nH]5)C=C4)C=C3)cc1
REMARK SMILES IDX 29 1 28 2 27 3 1 4 2 5 3 7 4 8 18 9 19 10 26 11 20 12 22 13
REMARK SMILES IDX 21 14 23 15 24 16 25 17 5 18 6 19 7 21 8 22 9 23 16 24 17 25
REMARK SMILES IDX 10 26 14 27 12 28 11 29 15 30 13 31 30 32 31 33 32 34 33 36
REMARK SMILES IDX 34 37 35 38 96 39 36 40 95 41 37 42 38 43 39 44 89 45 40 46
REMARK SMILES IDX 94 47 88 48 90 49 41 50 93 51 87 52 86 53 42 55 74 56 54 57
REMARK SMILES IDX 73 58 55 59 58 60 72 61 91 62 56 63 57 64 71 66 92 67 59 68
REMARK SMILES IDX 43 69 44 70 52 71 45 72 51 73 53 74 50 75 46 76 47 77 48 78
REMARK SMILES IDX 49 79 75 80 76 81 84 82 77 83 83 84 85 85 82 86 78 87 79 88
REMARK SMILES IDX 80 89 81 90 60 91 61 92 69 93 62 94 68 95 70 96 67 97 63 98
REMARK SMILES IDX 64 99 65 100 66 101
REMARK H PARENT 27 6 5 20 31 35 90 54 58 65
REMARK Flexibility Score: inf
ROOT
ATOM      1  C   UNL     1       8.003  -2.575   1.525  1.00  0.00     0.042 C 
ENDROOT
BRANCH   1   2
ATOM      2  C   UNL     1       7.510  -2.621   0.092  1.00  0.00     0.117 C 
BRANCH   2   3
ATOM      3  N   UNL     1       6.369  -1.754  -0.110  1.00  0.00    -0.356 N 
ATOM      4  O   UNL     1       7.548  -0.054  -1.085  1.00  0.00    -0.275 OA
ATOM      5  C   UNL     1       6.475  -0.560  -0.769  1.00  0.00     0.222 C 
ATOM      6  H   UNL     1       5.491  -2.032   0.238  1.00  0.00     0.163 HD
BRANCH   5   7
ATOM      7  C   UNL     1       5.166   0.107  -1.119  1.00  0.00     0.129 C 
BRANCH   7   8
ATOM      8  C   UNL     1       4.071  -0.768  -1.791  1.00  0.00     0.122 C 
BRANCH   8   9
ATOM      9  C   UNL     1       4.599  -2.026  -2.486  1.00  0.00    -0.018 A 
ATOM     10  C   UNL     1       4.055  -3.305  -2.275  1.00  0.00     0.006 A 
ATOM     11  C   UNL     1       5.732  -1.922  -3.320  1.00  0.00     0.091 A 
ATOM     12  C   UNL     1       4.689  -4.450  -2.775  1.00  0.00     0.007 A 
ATOM     13  C   UNL     1       6.386  -3.072  -3.782  1.00  0.00     0.269 A 
ATOM     14  C   UNL     1       5.872  -4.340  -3.504  1.00  0.00     0.085 A 
BRANCH  13  15
ATOM     15  N   UNL     1       7.652  -2.939  -4.514  1.00  0.00     0.062 N 
ATOM     16  O   UNL     1       8.309  -3.970  -4.718  1.00  0.00    -0.258 OA
ATOM     17  O   UNL     1       7.983  -1.807  -4.893  1.00  0.00    -0.258 OA
ENDBRANCH  13  15
ENDBRANCH   8   9
BRANCH   8  18
ATOM     18  N   UNL     1       3.006  -1.040  -0.817  1.00  0.00    -0.348 N 
ATOM     19  C   UNL     1       1.913  -0.320  -0.429  1.00  0.00     0.226 C 
ATOM     20  H   UNL     1       3.097  -1.905  -0.356  1.00  0.00     0.164 HD
ATOM     21  O   UNL     1       1.285  -0.784   0.527  1.00  0.00    -0.274 OA
BRANCH  19  22
ATOM     22  C   UNL     1       1.435   0.954  -1.156  1.00  0.00     0.050 C 
ATOM     23  C   UNL     1       0.234   1.589  -0.383  1.00  0.00     0.020 C 
ATOM     24  C   UNL     1       0.908   0.593  -2.565  1.00  0.00     0.020 C 
ATOM     25  C   UNL     1       2.521   2.049  -1.233  1.00  0.00     0.020 C 
ATOM     26  C   UNL     1      -0.289   2.849  -1.105  1.00  0.00    -0.010 C 
ATOM     27  C   UNL     1       0.426   1.853  -3.303  1.00  0.00    -0.010 C 
ATOM     28  C   UNL     1       2.018   3.291  -1.975  1.00  0.00    -0.010 C 
ATOM     29  C   UNL     1       0.837   3.888  -1.205  1.00  0.00     0.007 C 
ATOM     30  C   UNL     1      -0.743   2.475  -2.525  1.00  0.00     0.007 C 
ATOM     31  C   UNL     1       1.578   2.868  -3.387  1.00  0.00     0.007 C 
ENDBRANCH  19  22
ENDBRANCH   8  18
ENDBRANCH   7   8
ENDBRANCH   5   7
ENDBRANCH   2   3
ENDBRANCH   1   2
BRANCH   1  32
ATOM     32  C   UNL     1       6.925  -2.914   2.545  1.00  0.00     0.118 C 
BRANCH  32  33
ATOM     33  N   UNL     1       6.378  -4.255   2.370  1.00  0.00    -0.352 N 
ATOM     34  C   UNL     1       6.318  -5.293   3.268  1.00  0.00     0.251 C 
ATOM     35  H   UNL     1       5.998  -4.442   1.482  1.00  0.00     0.163 HD
ATOM     36  O   UNL     1       5.971  -6.406   2.883  1.00  0.00    -0.269 OA
BRANCH  34  37
ATOM     37  C   UNL     1       6.707  -5.066   4.675  1.00  0.00     0.039 A 
ATOM     38  C   UNL     1       7.559  -5.980   5.297  1.00  0.00     0.014 A 
ATOM     39  C   UNL     1       6.261  -3.936   5.365  1.00  0.00     0.014 A 
ATOM     40  C   UNL     1       8.024  -5.719   6.587  1.00  0.00     0.010 A 
ATOM     41  C   UNL     1       6.796  -3.634   6.613  1.00  0.00     0.010 A 
ATOM     42  C   UNL     1       7.682  -4.523   7.240  1.00  0.00    -0.014 A 
BRANCH  42  43
ATOM     43  C   UNL     1       8.237  -4.187   8.577  1.00  0.00     0.031 A 
ATOM     44  C   UNL     1       7.314  -4.020   9.755  1.00  0.00     0.074 A 
ATOM     45  C   UNL     1       9.561  -3.976   8.718  1.00  0.00     0.049 A 
ATOM     46  N   UNL     1       7.594  -3.663  10.982  1.00  0.00    -0.248 NA
ATOM     47  C   UNL     1       5.883  -4.256   9.510  1.00  0.00     0.031 C 
ATOM     48  C   UNL     1      10.550  -4.066   7.642  1.00  0.00     0.029 A 
ATOM     49  N   UNL     1      10.304  -3.636   9.821  1.00  0.00    -0.354 N 
ATOM     50  C   UNL     1       6.375  -3.620  11.651  1.00  0.00     0.074 A 
ATOM     51  C   UNL     1       5.351  -3.921  10.675  1.00  0.00     0.031 C 
ATOM     52  C   UNL     1      11.771  -3.818   8.144  1.00  0.00     0.029 A 
ATOM     53  C   UNL     1      11.649  -3.502   9.563  1.00  0.00     0.049 A 
ATOM     54  H   UNL     1       9.911  -3.500  10.713  1.00  0.00     0.167 HD
ATOM     55  C   UNL     1       6.136  -3.379  12.964  1.00  0.00     0.034 A 
ATOM     56  C   UNL     1      12.668  -3.152  10.374  1.00  0.00     0.034 A 
ATOM     57  C   UNL     1       7.172  -3.091  13.927  1.00  0.00     0.049 A 
ATOM     58  C   UNL     1      12.373  -2.858  11.824  1.00  0.00     0.074 A 
ATOM     59  C   UNL     1       7.048  -2.884  15.289  1.00  0.00     0.029 A 
ATOM     60  N   UNL     1       8.523  -2.960  13.628  1.00  0.00    -0.354 N 
ATOM     61  N   UNL     1      11.221  -2.874  12.454  1.00  0.00    -0.248 NA
ATOM     62  C   UNL     1      13.518  -2.510  12.674  1.00  0.00     0.031 C 
ATOM     63  C   UNL     1       8.308  -2.555  15.800  1.00  0.00     0.029 A 
ATOM     64  C   UNL     1       9.236  -2.641  14.774  1.00  0.00     0.049 A 
ATOM     65  H   UNL     1       8.916  -3.076  12.733  1.00  0.00     0.167 HD
ATOM     66  C   UNL     1      11.510  -2.571  13.782  1.00  0.00     0.074 A 
ATOM     67  C   UNL     1      12.945  -2.394  13.863  1.00  0.00     0.031 C 
ATOM     68  C   UNL     1      10.667  -2.455  14.840  1.00  0.00     0.034 A 
BRANCH  55  69
ATOM     69  C   UNL     1       4.697  -3.394  13.423  1.00  0.00     0.023 A 
ATOM     70  C   UNL     1       3.903  -4.551  13.329  1.00  0.00     0.031 A 
ATOM     71  C   UNL     1       4.099  -2.230  13.937  1.00  0.00     0.131 A 
ATOM     72  C   UNL     1       2.542  -4.498  13.667  1.00  0.00     0.055 A 
ATOM     73  C   UNL     1       2.767  -2.207  14.354  1.00  0.00     0.041 A 
ATOM     74  F   UNL     1       4.798  -1.087  14.030  1.00  0.00    -0.206 F 
ATOM     75  C   UNL     1       1.975  -3.341  14.205  1.00  0.00     0.022 A 
BRANCH  72  76
ATOM     76  S   UNL     1       1.492  -5.917  13.251  1.00  0.00     0.124 S 
ATOM     77  O   UNL     1       1.679  -6.008  11.804  1.00  0.00    -0.237 OA
ATOM     78  O   UNL     1       2.083  -6.991  14.040  1.00  0.00    -0.237 OA
ATOM     79  O   UNL     1       0.158  -5.492  13.673  1.00  0.00    -0.744 OA
ENDBRANCH  72  76
ENDBRANCH  55  69
BRANCH  56  80
ATOM     80  C   UNL     1      14.058  -3.048   9.844  1.00  0.00     0.023 A 
ATOM     81  C   UNL     1      15.077  -3.892  10.314  1.00  0.00     0.031 A 
ATOM     82  C   UNL     1      14.400  -2.071   8.891  1.00  0.00     0.131 A 
ATOM     83  C   UNL     1      16.397  -3.710   9.871  1.00  0.00     0.055 A 
ATOM     84  C   UNL     1      15.703  -1.933   8.410  1.00  0.00     0.041 A 
ATOM     85  F   UNL     1      13.464  -1.240   8.405  1.00  0.00    -0.206 F 
ATOM     86  C   UNL     1      16.714  -2.746   8.912  1.00  0.00     0.022 A 
BRANCH  83  87
ATOM     87  S   UNL     1      17.713  -4.693  10.641  1.00  0.00     0.124 S 
ATOM     88  O   UNL     1      17.566  -4.337  12.047  1.00  0.00    -0.237 OA
ATOM     89  O   UNL     1      17.328  -6.052  10.278  1.00  0.00    -0.237 OA
ATOM     90  O   UNL     1      18.928  -4.198   9.995  1.00  0.00    -0.744 OA
ENDBRANCH  83  87
ENDBRANCH  56  80
BRANCH  68  91
ATOM     91  C   UNL     1      11.289  -2.169  16.186  1.00  0.00     0.023 A 
ATOM     92  C   UNL     1      11.944  -0.955  16.459  1.00  0.00     0.031 A 
ATOM     93  C   UNL     1      11.233  -3.134  17.208  1.00  0.00     0.131 A 
ATOM     94  C   UNL     1      12.568  -0.762  17.701  1.00  0.00     0.055 A 
ATOM     95  C   UNL     1      11.798  -2.909  18.464  1.00  0.00     0.041 A 
ATOM     96  F   UNL     1      10.623  -4.312  17.004  1.00  0.00    -0.206 F 
ATOM     97  C   UNL     1      12.483  -1.723  18.711  1.00  0.00     0.022 A 
BRANCH  94  98
ATOM     98  S   UNL     1      13.580   0.724  17.945  1.00  0.00     0.124 S 
ATOM     99  O   UNL     1      14.563   0.600  16.874  1.00  0.00    -0.237 OA
ATOM    100  O   UNL     1      12.602   1.796  17.792  1.00  0.00    -0.237 OA
ATOM    101  O   UNL     1      14.111   0.559  19.297  1.00  0.00    -0.744 OA
ENDBRANCH  94  98
ENDBRANCH  68  91
ENDBRANCH  42  43
ENDBRANCH  34  37
ENDBRANCH  32  33
ENDBRANCH   1  32
TORSDOF 18
