REMARK SMILES Cc1nc(-c2cccc(N3C[C@H](C(=O)NCCCNC(=O)c4ccc(-c5c6nc(c(-c7cc(S(=O)(=O)[O-])ccc7F)c7ccc([nH]7)c(-c7cc(S(=O)(=O)[O-])ccc7F)c7nc(c(-c8cc(S(=O)(=O)[O-])ccc8F)c8ccc5[nH]8)C=C7)C=C6)cc4)CC3=O)c2)no1
REMARK SMILES IDX 17 1 16 2 15 3 13 4 14 5 12 7 10 8 11 9 86 10 85 11 87 12
REMARK SMILES IDX 9 13 5 14 6 15 88 16 7 17 8 18 4 19 1 20 2 21 3 22 90 23
REMARK SMILES IDX 89 24 18 25 19 26 20 27 21 29 22 30 23 31 84 32 24 33 83 34
REMARK SMILES IDX 25 35 26 36 27 37 77 38 28 39 82 40 76 41 78 42 29 43 81 44
REMARK SMILES IDX 75 45 74 46 30 48 62 49 42 50 61 51 43 52 46 53 60 54 79 55
REMARK SMILES IDX 44 56 45 57 59 59 80 60 47 61 31 62 32 63 40 64 33 65 39 66
REMARK SMILES IDX 41 67 38 68 34 69 35 70 36 71 37 72 63 73 64 74 72 75 65 76
REMARK SMILES IDX 71 77 73 78 70 79 66 80 67 81 68 82 69 83 48 84 49 85 57 86
REMARK SMILES IDX 50 87 56 88 58 89 55 90 51 91 52 92 53 93 54 94
REMARK H PARENT 15 6 19 28 78 47 46 58
REMARK Flexibility Score: inf
ROOT
ATOM      1  C   UNL     1       6.009   9.480   4.141  1.00  0.00     0.042 C 
ENDROOT
BRANCH   1   2
ATOM      2  C   UNL     1       5.925   8.461   3.007  1.00  0.00     0.117 C 
BRANCH   2   3
ATOM      3  N   UNL     1       6.556   7.202   3.369  1.00  0.00    -0.356 N 
ATOM      4  C   UNL     1       5.988   6.027   3.771  1.00  0.00     0.225 C 
ATOM      5  O   UNL     1       6.722   5.110   4.131  1.00  0.00    -0.275 OA
ATOM      6  H   UNL     1       7.539   7.196   3.317  1.00  0.00     0.163 HD
BRANCH   4   7
ATOM      7  C   UNL     1       4.485   5.876   3.662  1.00  0.00     0.107 C 
ATOM      8  N   UNL     1       3.886   4.019   2.349  1.00  0.00    -0.312 N 
ATOM      9  C   UNL     1       4.160   5.429   2.247  1.00  0.00     0.139 C 
ATOM     10  C   UNL     1       3.674   3.613   3.665  1.00  0.00     0.227 C 
ATOM     11  C   UNL     1       3.917   4.791   4.570  1.00  0.00     0.116 C 
ATOM     12  O   UNL     1       3.334   2.509   4.069  1.00  0.00    -0.274 OA
BRANCH   8  13
ATOM     13  C   UNL     1       3.727   3.191   1.220  1.00  0.00     0.044 A 
ATOM     14  C   UNL     1       2.508   1.442   0.043  1.00  0.00     0.025 A 
ATOM     15  C   UNL     1       3.441   1.497  -0.999  1.00  0.00     0.012 A 
ATOM     16  C   UNL     1       2.675   2.270   1.161  1.00  0.00     0.038 A 
ATOM     17  C   UNL     1       4.494   2.410  -0.947  1.00  0.00     0.003 A 
ATOM     18  C   UNL     1       4.620   3.272   0.145  1.00  0.00     0.026 A 
BRANCH  14  19
ATOM     19  C   UNL     1       1.336   0.590  -0.053  1.00  0.00     0.202 A 
ATOM     20  C   UNL     1      -2.148  -0.095   0.092  1.00  0.00     0.114 C 
ATOM     21  C   UNL     1      -0.684   0.032  -0.001  1.00  0.00     0.223 A 
ATOM     22  N   UNL     1       0.088   1.041   0.322  1.00  0.00    -0.191 NA
ATOM     23  O   UNL     1      -0.004  -1.026  -0.524  1.00  0.00    -0.339 OA
ATOM     24  N   UNL     1       1.338  -0.646  -0.578  1.00  0.00    -0.057 NA
ENDBRANCH  14  19
ENDBRANCH   8  13
ENDBRANCH   4   7
ENDBRANCH   2   3
ENDBRANCH   1   2
BRANCH   1  25
ATOM     25  C   UNL     1       7.433   9.928   4.470  1.00  0.00     0.118 C 
BRANCH  25  26
ATOM     26  N   UNL     1       8.079  10.597   3.350  1.00  0.00    -0.352 N 
ATOM     27  C   UNL     1       8.677  11.831   3.276  1.00  0.00     0.251 C 
ATOM     28  H   UNL     1       8.088  10.083   2.511  1.00  0.00     0.163 HD
ATOM     29  O   UNL     1       8.986  12.271   2.171  1.00  0.00    -0.269 OA
BRANCH  27  30
ATOM     30  C   UNL     1       8.929  12.633   4.495  1.00  0.00     0.039 A 
ATOM     31  C   UNL     1       8.736  14.017   4.438  1.00  0.00     0.014 A 
ATOM     32  C   UNL     1       9.392  12.045   5.675  1.00  0.00     0.014 A 
ATOM     33  C   UNL     1       8.949  14.799   5.576  1.00  0.00     0.010 A 
ATOM     34  C   UNL     1       9.536  12.816   6.829  1.00  0.00     0.010 A 
ATOM     35  C   UNL     1       9.319  14.201   6.791  1.00  0.00    -0.014 A 
BRANCH  35  36
ATOM     36  C   UNL     1       9.487  15.012   8.027  1.00  0.00     0.031 A 
ATOM     37  C   UNL     1      10.834  15.116   8.690  1.00  0.00     0.074 A 
ATOM     38  C   UNL     1       8.413  15.607   8.584  1.00  0.00     0.049 A 
ATOM     39  N   UNL     1      11.165  15.717   9.805  1.00  0.00    -0.248 NA
ATOM     40  C   UNL     1      11.950  14.429   8.024  1.00  0.00     0.031 C 
ATOM     41  C   UNL     1       7.048  15.550   8.056  1.00  0.00     0.029 A 
ATOM     42  N   UNL     1       8.296  16.370   9.719  1.00  0.00    -0.354 N 
ATOM     43  C   UNL     1      12.522  15.468   9.984  1.00  0.00     0.074 A 
ATOM     44  C   UNL     1      12.935  14.612   8.891  1.00  0.00     0.031 C 
ATOM     45  C   UNL     1       6.239  16.268   8.850  1.00  0.00     0.029 A 
ATOM     46  C   UNL     1       7.013  16.799   9.968  1.00  0.00     0.049 A 
ATOM     47  H   UNL     1       9.060  16.590  10.300  1.00  0.00     0.167 HD
ATOM     48  C   UNL     1      13.351  15.926  10.956  1.00  0.00     0.034 A 
ATOM     49  C   UNL     1       6.514  17.528  10.986  1.00  0.00     0.034 A 
ATOM     50  C   UNL     1      12.925  16.791  12.031  1.00  0.00     0.049 A 
ATOM     51  C   UNL     1       7.449  18.007  12.067  1.00  0.00     0.074 A 
ATOM     52  C   UNL     1      13.691  17.362  13.033  1.00  0.00     0.029 A 
ATOM     53  N   UNL     1      11.617  17.202  12.253  1.00  0.00    -0.354 N 
ATOM     54  N   UNL     1       8.740  17.807  12.192  1.00  0.00    -0.248 NA
ATOM     55  C   UNL     1       6.859  18.821  13.137  1.00  0.00     0.031 C 
ATOM     56  C   UNL     1      12.839  18.060  13.896  1.00  0.00     0.029 A 
ATOM     57  C   UNL     1      11.550  17.991  13.392  1.00  0.00     0.049 A 
ATOM     58  H   UNL     1      10.848  16.967  11.685  1.00  0.00     0.167 HD
ATOM     59  C   UNL     1       9.121  18.500  13.338  1.00  0.00     0.074 A 
ATOM     60  C   UNL     1       7.926  19.133  13.856  1.00  0.00     0.031 C 
ATOM     61  C   UNL     1      10.350  18.608  13.907  1.00  0.00     0.034 A 
BRANCH  48  62
ATOM     62  C   UNL     1      14.792  15.473  10.912  1.00  0.00     0.023 A 
ATOM     63  C   UNL     1      15.635  15.793   9.833  1.00  0.00     0.031 A 
ATOM     64  C   UNL     1      15.324  14.685  11.948  1.00  0.00     0.131 A 
ATOM     65  C   UNL     1      16.932  15.260   9.773  1.00  0.00     0.055 A 
ATOM     66  C   UNL     1      16.644  14.230  11.925  1.00  0.00     0.041 A 
ATOM     67  F   UNL     1      14.564  14.331  12.996  1.00  0.00    -0.206 F 
ATOM     68  C   UNL     1      17.451  14.502  10.824  1.00  0.00     0.022 A 
BRANCH  65  69
ATOM     69  S   UNL     1      17.873  15.444   8.233  1.00  0.00     0.124 S 
ATOM     70  O   UNL     1      16.983  14.806   7.266  1.00  0.00    -0.237 OA
ATOM     71  O   UNL     1      18.010  16.891   8.118  1.00  0.00    -0.237 OA
ATOM     72  O   UNL     1      19.113  14.718   8.500  1.00  0.00    -0.744 OA
ENDBRANCH  65  69
ENDBRANCH  48  62
BRANCH  49  73
ATOM     73  C   UNL     1       5.059  17.851  11.042  1.00  0.00     0.023 A 
ATOM     74  C   UNL     1       4.611  19.177  10.946  1.00  0.00     0.031 A 
ATOM     75  C   UNL     1       4.099  16.842  11.236  1.00  0.00     0.131 A 
ATOM     76  C   UNL     1       3.246  19.467  11.093  1.00  0.00     0.055 A 
ATOM     77  C   UNL     1       2.736  17.130  11.329  1.00  0.00     0.041 A 
ATOM     78  F   UNL     1       4.473  15.556  11.328  1.00  0.00    -0.206 F 
ATOM     79  C   UNL     1       2.304  18.452  11.271  1.00  0.00     0.022 A 
BRANCH  76  80
ATOM     80  S   UNL     1       2.727  21.205  11.131  1.00  0.00     0.124 S 
ATOM     81  O   UNL     1       3.499  21.721  12.255  1.00  0.00    -0.237 OA
ATOM     82  O   UNL     1       3.130  21.669   9.807  1.00  0.00    -0.237 OA
ATOM     83  O   UNL     1       1.284  21.124  11.347  1.00  0.00    -0.744 OA
ENDBRANCH  76  80
ENDBRANCH  49  73
BRANCH  61  84
ATOM     84  C   UNL     1      10.462  19.487  15.130  1.00  0.00     0.023 A 
ATOM     85  C   UNL     1       9.835  19.154  16.343  1.00  0.00     0.031 A 
ATOM     86  C   UNL     1      11.191  20.689  15.070  1.00  0.00     0.131 A 
ATOM     87  C   UNL     1       9.898  20.041  17.429  1.00  0.00     0.055 A 
ATOM     88  C   UNL     1      11.303  21.537  16.172  1.00  0.00     0.041 A 
ATOM     89  F   UNL     1      11.807  21.059  13.936  1.00  0.00    -0.206 F 
ATOM     90  C   UNL     1      10.642  21.222  17.356  1.00  0.00     0.022 A 
BRANCH  87  91
ATOM     91  S   UNL     1       8.912  19.680  18.908  1.00  0.00     0.124 S 
ATOM     92  O   UNL     1       7.561  19.607  18.361  1.00  0.00    -0.237 OA
ATOM     93  O   UNL     1       9.484  18.418  19.364  1.00  0.00    -0.237 OA
ATOM     94  O   UNL     1       9.166  20.826  19.779  1.00  0.00    -0.744 OA
ENDBRANCH  87  91
ENDBRANCH  61  84
ENDBRANCH  35  36
ENDBRANCH  27  30
ENDBRANCH  25  26
ENDBRANCH   1  25
TORSDOF 15
