REMARK SMILES C[C@H]1CCC[C@H](C(C)(C)C(=O)NCCCNC(=O)c2ccc(-c3c4nc(c(-c5cc(S(=O)(=O)[O-])ccc5F)c5ccc([nH]5)c(-c5cc(S(=O)(=O)[O-])ccc5F)c5nc(c(-c6cc(S(=O)(=O)[O-])ccc6F)c6ccc3[nH]6)C=C5)C=C4)cc2)C1
REMARK SMILES IDX 15 1 14 2 13 3 12 4 10 5 11 6 7 8 8 9 9 10 6 11 1 12 2 13
REMARK SMILES IDX 3 14 82 15 4 16 5 17 16 18 17 19 18 21 19 22 20 23 81 24
REMARK SMILES IDX 21 25 80 26 22 27 23 28 24 29 74 30 25 31 79 32 73 33 75 34
REMARK SMILES IDX 26 35 78 36 72 37 71 38 27 40 59 41 39 42 58 43 40 44 43 45
REMARK SMILES IDX 57 46 76 47 41 48 42 49 56 51 77 52 44 53 28 54 29 55 37 56
REMARK SMILES IDX 30 57 36 58 38 59 35 60 31 61 32 62 33 63 34 64 60 65 61 66
REMARK SMILES IDX 69 67 62 68 68 69 70 70 67 71 63 72 64 73 65 74 66 75 45 76
REMARK SMILES IDX 46 77 54 78 47 79 53 80 55 81 52 82 48 83 49 84 50 85 51 86
REMARK H PARENT 12 7 16 20 75 39 43 50
REMARK Flexibility Score: inf
ROOT
ATOM      1  C   UNL     1       0.521  -0.268   6.468  1.00  0.00     0.118 C 
ENDROOT
BRANCH   1   2
ATOM      2  C   UNL     1      -0.275  -1.422   5.860  1.00  0.00     0.042 C 
BRANCH   2   3
ATOM      3  C   UNL     1      -1.510  -0.984   5.078  1.00  0.00     0.117 C 
BRANCH   3   4
ATOM      4  N   UNL     1      -1.169  -0.010   4.060  1.00  0.00    -0.356 N 
ATOM      5  C   UNL     1      -0.970  -0.050   2.722  1.00  0.00     0.225 C 
ATOM      6  O   UNL     1      -0.480   0.991   2.285  1.00  0.00    -0.275 OA
ATOM      7  H   UNL     1      -1.056   0.896   4.429  1.00  0.00     0.163 HD
BRANCH   5   8
ATOM      8  C   UNL     1      -1.360  -1.244   1.821  1.00  0.00     0.046 C 
ATOM      9  C   UNL     1      -2.885  -1.462   1.979  1.00  0.00     0.022 C 
ATOM     10  C   UNL     1      -0.617  -2.518   2.279  1.00  0.00     0.022 C 
BRANCH   8  11
ATOM     11  C   UNL     1      -1.067  -1.045   0.262  1.00  0.00     0.004 C 
ATOM     12  C   UNL     1       2.603   0.013  -0.611  1.00  0.00     0.007 C 
ATOM     13  C   UNL     1       1.189   0.172  -0.044  1.00  0.00    -0.014 C 
ATOM     14  C   UNL     1       0.479   1.354  -0.720  1.00  0.00     0.003 C 
ATOM     15  C   UNL     1       0.400  -1.125  -0.211  1.00  0.00     0.008 C 
ATOM     16  C   UNL     1      -1.024   1.460  -0.463  1.00  0.00     0.001 C 
ATOM     17  C   UNL     1      -1.766   0.127  -0.461  1.00  0.00     0.005 C 
ENDBRANCH   8  11
ENDBRANCH   5   8
ENDBRANCH   3   4
ENDBRANCH   2   3
ENDBRANCH   1   2
BRANCH   1  18
ATOM     18  N   UNL     1      -0.290   0.579   7.334  1.00  0.00    -0.352 N 
ATOM     19  C   UNL     1      -0.243   0.763   8.690  1.00  0.00     0.251 C 
ATOM     20  H   UNL     1      -0.983   1.103   6.869  1.00  0.00     0.163 HD
ATOM     21  O   UNL     1      -1.172   1.352   9.249  1.00  0.00    -0.269 OA
BRANCH  19  22
ATOM     22  C   UNL     1       0.891   0.245   9.481  1.00  0.00     0.039 A 
ATOM     23  C   UNL     1       0.634  -0.368  10.710  1.00  0.00     0.014 A 
ATOM     24  C   UNL     1       2.206   0.378   9.027  1.00  0.00     0.014 A 
ATOM     25  C   UNL     1       1.689  -0.909  11.447  1.00  0.00     0.010 A 
ATOM     26  C   UNL     1       3.245  -0.236   9.721  1.00  0.00     0.010 A 
ATOM     27  C   UNL     1       2.999  -0.884  10.940  1.00  0.00    -0.014 A 
BRANCH  27  28
ATOM     28  C   UNL     1       4.118  -1.532  11.673  1.00  0.00     0.031 A 
ATOM     29  C   UNL     1       5.269  -0.708  12.183  1.00  0.00     0.074 A 
ATOM     30  C   UNL     1       4.120  -2.871  11.829  1.00  0.00     0.049 A 
ATOM     31  N   UNL     1       6.358  -1.097  12.796  1.00  0.00    -0.248 NA
ATOM     32  C   UNL     1       5.201   0.741  11.944  1.00  0.00     0.031 C 
ATOM     33  C   UNL     1       3.082  -3.780  11.335  1.00  0.00     0.029 A 
ATOM     34  N   UNL     1       5.022  -3.704  12.441  1.00  0.00    -0.354 N 
ATOM     35  C   UNL     1       7.109   0.055  13.005  1.00  0.00     0.074 A 
ATOM     36  C   UNL     1       6.379   1.145  12.393  1.00  0.00     0.031 C 
ATOM     37  C   UNL     1       3.391  -5.037  11.691  1.00  0.00     0.029 A 
ATOM     38  C   UNL     1       4.669  -5.033  12.395  1.00  0.00     0.049 A 
ATOM     39  H   UNL     1       5.846  -3.381  12.873  1.00  0.00     0.167 HD
ATOM     40  C   UNL     1       8.285   0.194  13.667  1.00  0.00     0.034 A 
ATOM     41  C   UNL     1       5.306  -6.126  12.859  1.00  0.00     0.034 A 
ATOM     42  C   UNL     1       8.993  -0.905  14.280  1.00  0.00     0.049 A 
ATOM     43  C   UNL     1       6.619  -5.949  13.578  1.00  0.00     0.074 A 
ATOM     44  C   UNL     1      10.160  -0.872  15.023  1.00  0.00     0.029 A 
ATOM     45  N   UNL     1       8.605  -2.238  14.213  1.00  0.00    -0.354 N 
ATOM     46  N   UNL     1       7.287  -4.843  13.818  1.00  0.00    -0.248 NA
ATOM     47  C   UNL     1       7.256  -7.164  14.098  1.00  0.00     0.031 C 
ATOM     48  C   UNL     1      10.514  -2.187  15.345  1.00  0.00     0.029 A 
ATOM     49  C   UNL     1       9.527  -3.037  14.873  1.00  0.00     0.049 A 
ATOM     50  H   UNL     1       7.794  -2.567  13.763  1.00  0.00     0.167 HD
ATOM     51  C   UNL     1       8.411  -5.231  14.544  1.00  0.00     0.074 A 
ATOM     52  C   UNL     1       8.315  -6.666  14.719  1.00  0.00     0.031 C 
ATOM     53  C   UNL     1       9.428  -4.471  15.024  1.00  0.00     0.034 A 
BRANCH  40  54
ATOM     54  C   UNL     1       8.884   1.580  13.737  1.00  0.00     0.023 A 
ATOM     55  C   UNL     1       8.220   2.641  14.378  1.00  0.00     0.031 A 
ATOM     56  C   UNL     1      10.124   1.852  13.132  1.00  0.00     0.131 A 
ATOM     57  C   UNL     1       8.758   3.937  14.331  1.00  0.00     0.055 A 
ATOM     58  C   UNL     1      10.695   3.127  13.162  1.00  0.00     0.041 A 
ATOM     59  F   UNL     1      10.797   0.887  12.487  1.00  0.00    -0.206 F 
ATOM     60  C   UNL     1      10.004   4.182  13.750  1.00  0.00     0.022 A 
BRANCH  57  61
ATOM     61  S   UNL     1       7.736   5.320  14.908  1.00  0.00     0.124 S 
ATOM     62  O   UNL     1       6.564   5.201  14.042  1.00  0.00    -0.237 OA
ATOM     63  O   UNL     1       7.527   4.993  16.313  1.00  0.00    -0.237 OA
ATOM     64  O   UNL     1       8.571   6.492  14.655  1.00  0.00    -0.744 OA
ENDBRANCH  57  61
ENDBRANCH  40  54
BRANCH  41  65
ATOM     65  C   UNL     1       4.723  -7.484  12.659  1.00  0.00     0.023 A 
ATOM     66  C   UNL     1       4.320  -8.267  13.753  1.00  0.00     0.031 A 
ATOM     67  C   UNL     1       4.596  -8.036  11.372  1.00  0.00     0.131 A 
ATOM     68  C   UNL     1       3.858  -9.576  13.545  1.00  0.00     0.055 A 
ATOM     69  C   UNL     1       4.084  -9.318  11.166  1.00  0.00     0.041 A 
ATOM     70  F   UNL     1       4.960  -7.328  10.291  1.00  0.00    -0.206 F 
ATOM     71  C   UNL     1       3.725 -10.102  12.258  1.00  0.00     0.022 A 
BRANCH  68  72
ATOM     72  S   UNL     1       3.514 -10.616  14.991  1.00  0.00     0.124 S 
ATOM     73  O   UNL     1       4.801 -10.606  15.676  1.00  0.00    -0.237 OA
ATOM     74  O   UNL     1       2.434  -9.882  15.641  1.00  0.00    -0.237 OA
ATOM     75  O   UNL     1       3.129 -11.897  14.403  1.00  0.00    -0.744 OA
ENDBRANCH  68  72
ENDBRANCH  41  65
BRANCH  53  76
ATOM     76  C   UNL     1      10.497  -5.185  15.816  1.00  0.00     0.023 A 
ATOM     77  C   UNL     1      11.346  -6.136  15.224  1.00  0.00     0.031 A 
ATOM     78  C   UNL     1      10.650  -4.929  17.191  1.00  0.00     0.131 A 
ATOM     79  C   UNL     1      12.262  -6.846  16.015  1.00  0.00     0.055 A 
ATOM     80  C   UNL     1      11.609  -5.589  17.960  1.00  0.00     0.041 A 
ATOM     81  F   UNL     1       9.865  -4.033  17.811  1.00  0.00    -0.206 F 
ATOM     82  C   UNL     1      12.411  -6.565  17.376  1.00  0.00     0.022 A 
BRANCH  79  83
ATOM     83  S   UNL     1      13.179  -8.219  15.265  1.00  0.00     0.124 S 
ATOM     84  O   UNL     1      12.100  -9.078  14.785  1.00  0.00    -0.237 OA
ATOM     85  O   UNL     1      13.963  -7.545  14.235  1.00  0.00    -0.237 OA
ATOM     86  O   UNL     1      13.955  -8.762  16.378  1.00  0.00    -0.744 OA
ENDBRANCH  79  83
ENDBRANCH  53  76
ENDBRANCH  27  28
ENDBRANCH  19  22
ENDBRANCH   1  18
TORSDOF 14
