REMARK SMILES CN(CC(=O)NCCCNC(=O)c1ccc(-c2c3nc(c(-c4cc(S(=O)(=O)[O-])ccc4F)c4ccc([nH]4)c(-c4cc(S(=O)(=O)[O-])ccc4F)c4nc(c(-c5cc(S(=O)(=O)[O-])ccc5F)c5ccc2[nH]5)C=C4)C=C3)cc1)c1nc2cc(N)ccc2[nH]1
REMARK SMILES IDX 8 1 7 2 6 3 4 4 5 5 3 7 2 8 1 9 76 10 77 11 85 12 78 13
REMARK SMILES IDX 84 14 79 16 83 17 80 18 82 19 81 20 9 23 10 24 11 25 12 27
REMARK SMILES IDX 13 28 14 29 75 30 15 31 74 32 16 33 17 34 18 35 68 36 19 37
REMARK SMILES IDX 73 38 67 39 69 40 20 41 72 42 66 43 65 44 21 46 53 47 33 48
REMARK SMILES IDX 52 49 34 50 37 51 51 52 70 53 35 54 36 55 50 57 71 58 38 59
REMARK SMILES IDX 22 60 23 61 31 62 24 63 30 64 32 65 29 66 25 67 26 68 27 69
REMARK SMILES IDX 28 70 54 71 55 72 63 73 56 74 62 75 64 76 61 77 57 78 58 79
REMARK SMILES IDX 59 80 60 81 39 82 40 83 48 84 41 85 47 86 49 87 46 88 42 89
REMARK SMILES IDX 43 90 44 91 45 92
REMARK H PARENT 6 6 85 15 81 21 81 22 10 26 69 45 37 56
REMARK Flexibility Score: inf
ROOT
ATOM      1  C   UNL     1      -2.077  -1.226  -1.079  1.00  0.00     0.042 C 
ENDROOT
BRANCH   1   2
ATOM      2  C   UNL     1      -2.205  -0.050  -0.119  1.00  0.00     0.117 C 
BRANCH   2   3
ATOM      3  N   UNL     1      -2.516  -0.440   1.238  1.00  0.00    -0.354 N 
ATOM      4  C   UNL     1      -1.709  -0.385   2.343  1.00  0.00     0.239 C 
ATOM      5  O   UNL     1      -2.238  -0.531   3.450  1.00  0.00    -0.273 OA
ATOM      6  H   UNL     1      -3.423  -0.791   1.386  1.00  0.00     0.163 HD
BRANCH   4   7
ATOM      7  C   UNL     1      -0.224  -0.016   2.194  1.00  0.00     0.219 C 
BRANCH   7   8
ATOM      8  N   UNL     1       0.568  -0.956   1.375  1.00  0.00    -0.336 N 
ATOM      9  C   UNL     1       1.405  -0.437   0.314  1.00  0.00     0.147 C 
BRANCH   8  10
ATOM     10  C   UNL     1       0.594  -2.252   1.773  1.00  0.00     0.204 A 
ATOM     11  N   UNL     1      -0.297  -2.849   2.527  1.00  0.00    -0.213 NA
ATOM     12  N   UNL     1       1.618  -3.118   1.468  1.00  0.00    -0.324 N 
ATOM     13  C   UNL     1       0.166  -4.116   2.742  1.00  0.00     0.093 A 
ATOM     14  C   UNL     1       1.393  -4.304   2.124  1.00  0.00     0.067 A 
ATOM     15  H   UNL     1       2.382  -2.921   0.879  1.00  0.00     0.170 HD
ATOM     16  C   UNL     1      -0.407  -5.155   3.485  1.00  0.00     0.056 A 
ATOM     17  C   UNL     1       2.127  -5.484   2.248  1.00  0.00     0.030 A 
ATOM     18  C   UNL     1       0.271  -6.374   3.593  1.00  0.00     0.034 A 
ATOM     19  C   UNL     1       1.542  -6.505   3.016  1.00  0.00     0.028 A 
BRANCH  18  20
ATOM     20  N   UNL     1      -0.248  -7.385   4.395  1.00  0.00    -0.399 N 
ATOM     21  H   UNL     1      -1.141  -7.285   4.796  1.00  0.00     0.156 HD
ATOM     22  H   UNL     1       0.278  -8.200   4.561  1.00  0.00     0.156 HD
ENDBRANCH  18  20
ENDBRANCH   8  10
ENDBRANCH   7   8
ENDBRANCH   4   7
ENDBRANCH   2   3
ENDBRANCH   1   2
BRANCH   1  23
ATOM     23  C   UNL     1      -3.361  -2.029  -1.271  1.00  0.00     0.118 C 
BRANCH  23  24
ATOM     24  N   UNL     1      -4.460  -1.226  -1.796  1.00  0.00    -0.352 N 
ATOM     25  C   UNL     1      -5.138  -1.294  -2.991  1.00  0.00     0.251 C 
ATOM     26  H   UNL     1      -4.770  -0.513  -1.192  1.00  0.00     0.163 HD
ATOM     27  O   UNL     1      -5.904  -0.386  -3.295  1.00  0.00    -0.269 OA
BRANCH  25  28
ATOM     28  C   UNL     1      -4.928  -2.428  -3.919  1.00  0.00     0.039 A 
ATOM     29  C   UNL     1      -4.818  -2.165  -5.288  1.00  0.00     0.014 A 
ATOM     30  C   UNL     1      -4.858  -3.744  -3.457  1.00  0.00     0.014 A 
ATOM     31  C   UNL     1      -4.533  -3.205  -6.177  1.00  0.00     0.010 A 
ATOM     32  C   UNL     1      -4.507  -4.770  -4.333  1.00  0.00     0.010 A 
ATOM     33  C   UNL     1      -4.316  -4.507  -5.698  1.00  0.00    -0.014 A 
BRANCH  33  34
ATOM     34  C   UNL     1      -3.824  -5.590  -6.592  1.00  0.00     0.031 A 
ATOM     35  C   UNL     1      -4.658  -6.814  -6.843  1.00  0.00     0.074 A 
ATOM     36  C   UNL     1      -2.579  -5.502  -7.104  1.00  0.00     0.049 A 
ATOM     37  N   UNL     1      -4.345  -7.909  -7.488  1.00  0.00    -0.248 NA
ATOM     38  C   UNL     1      -6.014  -6.815  -6.278  1.00  0.00     0.031 C 
ATOM     39  C   UNL     1      -1.666  -4.373  -6.911  1.00  0.00     0.029 A 
ATOM     40  N   UNL     1      -1.857  -6.380  -7.874  1.00  0.00    -0.354 N 
ATOM     41  C   UNL     1      -5.461  -8.734  -7.401  1.00  0.00     0.074 A 
ATOM     42  C   UNL     1      -6.438  -8.029  -6.598  1.00  0.00     0.031 C 
ATOM     43  C   UNL     1      -0.516  -4.620  -7.555  1.00  0.00     0.029 A 
ATOM     44  C   UNL     1      -0.580  -5.950  -8.152  1.00  0.00     0.049 A 
ATOM     45  H   UNL     1      -2.219  -7.237  -8.196  1.00  0.00     0.167 HD
ATOM     46  C   UNL     1      -5.654  -9.959  -7.953  1.00  0.00     0.034 A 
ATOM     47  C   UNL     1       0.439  -6.566  -8.786  1.00  0.00     0.034 A 
ATOM     48  C   UNL     1      -4.664 -10.647  -8.748  1.00  0.00     0.049 A 
ATOM     49  C   UNL     1       0.225  -7.959  -9.322  1.00  0.00     0.074 A 
ATOM     50  C   UNL     1      -4.779 -11.861  -9.402  1.00  0.00     0.029 A 
ATOM     51  N   UNL     1      -3.371 -10.195  -8.979  1.00  0.00    -0.354 N 
ATOM     52  N   UNL     1      -0.856  -8.703  -9.279  1.00  0.00    -0.248 NA
ATOM     53  C   UNL     1       1.368  -8.596  -9.989  1.00  0.00     0.031 C 
ATOM     54  C   UNL     1      -3.534 -12.183  -9.955  1.00  0.00     0.029 A 
ATOM     55  C   UNL     1      -2.663 -11.131  -9.720  1.00  0.00     0.049 A 
ATOM     56  H   UNL     1      -3.009  -9.336  -8.664  1.00  0.00     0.167 HD
ATOM     57  C   UNL     1      -0.526  -9.889  -9.929  1.00  0.00     0.074 A 
ATOM     58  C   UNL     1       0.845  -9.750 -10.376  1.00  0.00     0.031 C 
ATOM     59  C   UNL     1      -1.287 -10.993 -10.137  1.00  0.00     0.034 A 
BRANCH  46  60
ATOM     60  C   UNL     1      -6.972 -10.646  -7.687  1.00  0.00     0.023 A 
ATOM     61  C   UNL     1      -8.191 -10.105  -8.131  1.00  0.00     0.031 A 
ATOM     62  C   UNL     1      -7.012 -11.857  -6.972  1.00  0.00     0.131 A 
ATOM     63  C   UNL     1      -9.400 -10.735  -7.798  1.00  0.00     0.055 A 
ATOM     64  C   UNL     1      -8.213 -12.521  -6.714  1.00  0.00     0.041 A 
ATOM     65  F   UNL     1      -5.883 -12.412  -6.504  1.00  0.00    -0.206 F 
ATOM     66  C   UNL     1      -9.418 -11.953  -7.115  1.00  0.00     0.022 A 
BRANCH  63  67
ATOM     67  S   UNL     1     -10.953  -9.866  -8.147  1.00  0.00     0.124 S 
ATOM     68  O   UNL     1     -10.765  -8.617  -7.412  1.00  0.00    -0.237 OA
ATOM     69  O   UNL     1     -10.935  -9.759  -9.601  1.00  0.00    -0.237 OA
ATOM     70  O   UNL     1     -11.975 -10.755  -7.598  1.00  0.00    -0.744 OA
ENDBRANCH  63  67
ENDBRANCH  46  60
BRANCH  47  71
ATOM     71  C   UNL     1       1.766  -5.897  -8.914  1.00  0.00     0.023 A 
ATOM     72  C   UNL     1       2.299  -5.584 -10.174  1.00  0.00     0.031 A 
ATOM     73  C   UNL     1       2.543  -5.601  -7.778  1.00  0.00     0.131 A 
ATOM     74  C   UNL     1       3.589  -5.038 -10.271  1.00  0.00     0.055 A 
ATOM     75  C   UNL     1       3.800  -5.003  -7.878  1.00  0.00     0.041 A 
ATOM     76  F   UNL     1       2.083  -5.880  -6.548  1.00  0.00    -0.206 F 
ATOM     77  C   UNL     1       4.336  -4.730  -9.132  1.00  0.00     0.022 A 
BRANCH  74  78
ATOM     78  S   UNL     1       4.317  -4.824 -11.918  1.00  0.00     0.124 S 
ATOM     79  O   UNL     1       4.275  -6.185 -12.440  1.00  0.00    -0.237 OA
ATOM     80  O   UNL     1       3.400  -3.871 -12.533  1.00  0.00    -0.237 OA
ATOM     81  O   UNL     1       5.653  -4.305 -11.633  1.00  0.00    -0.744 OA
ENDBRANCH  74  78
ENDBRANCH  47  71
BRANCH  59  82
ATOM     82  C   UNL     1      -0.651 -12.132 -10.897  1.00  0.00     0.023 A 
ATOM     83  C   UNL     1       0.418 -12.869 -10.358  1.00  0.00     0.031 A 
ATOM     84  C   UNL     1      -1.119 -12.485 -12.175  1.00  0.00     0.131 A 
ATOM     85  C   UNL     1       1.015 -13.889 -11.113  1.00  0.00     0.055 A 
ATOM     86  C   UNL     1      -0.562 -13.543 -12.896  1.00  0.00     0.041 A 
ATOM     87  F   UNL     1      -2.132 -11.811 -12.743  1.00  0.00    -0.206 F 
ATOM     88  C   UNL     1       0.519 -14.245 -12.369  1.00  0.00     0.022 A 
BRANCH  85  89
ATOM     89  S   UNL     1       2.505 -14.695 -10.464  1.00  0.00     0.124 S 
ATOM     90  O   UNL     1       3.431 -13.572 -10.352  1.00  0.00    -0.237 OA
ATOM     91  O   UNL     1       2.033 -15.259  -9.203  1.00  0.00    -0.237 OA
ATOM     92  O   UNL     1       2.841 -15.676 -11.494  1.00  0.00    -0.744 OA
ENDBRANCH  85  89
ENDBRANCH  59  82
ENDBRANCH  33  34
ENDBRANCH  25  28
ENDBRANCH  23  24
ENDBRANCH   1  23
TORSDOF 16
