REMARK SMILES C[C@H](Oc1ccccc1[N+](=O)[O-])C(=O)N1CCC[C@H](C(=O)NCCCNC(=O)c2ccc(-c3c4nc(c(-c5cc(S(=O)(=O)[O-])ccc5F)c5ccc([nH]5)c(-c5cc(S(=O)(=O)[O-])ccc5F)c5nc(c(-c6cc(S(=O)(=O)[O-])ccc6F)c6ccc3[nH]6)C=C5)C=C4)cc2)C1
REMARK SMILES IDX 23 1 22 2 20 3 21 4 19 6 15 7 16 8 92 9 17 10 18 11 13 12
REMARK SMILES IDX 14 13 2 14 1 15 3 16 4 17 5 18 9 19 6 20 8 21 7 22 10 23
REMARK SMILES IDX 11 24 12 25 24 26 25 27 26 28 27 29 28 31 29 32 30 33 91 34
REMARK SMILES IDX 31 35 90 36 32 37 33 38 34 39 84 40 35 41 89 42 83 43 85 44
REMARK SMILES IDX 36 45 88 46 82 47 81 48 37 50 69 51 49 52 68 53 50 54 53 55
REMARK SMILES IDX 67 56 86 57 51 58 52 59 66 61 87 62 54 63 38 64 39 65 47 66
REMARK SMILES IDX 40 67 46 68 48 69 45 70 41 71 42 72 43 73 44 74 70 75 71 76
REMARK SMILES IDX 79 77 72 78 78 79 80 80 77 81 73 82 74 83 75 84 76 85 55 86
REMARK SMILES IDX 56 87 64 88 57 89 63 90 65 91 62 92 58 93 59 94 60 95 61 96
REMARK H PARENT 22 5 26 30 85 49 53 60
REMARK Flexibility Score: inf
ROOT
ATOM      1  C   UNL     1      -3.285  -0.861   0.427  1.00  0.00     0.117 C 
ENDROOT
BRANCH   1   2
ATOM      2  N   UNL     1      -3.293  -0.932  -1.015  1.00  0.00    -0.356 N 
ATOM      3  C   UNL     1      -2.903  -0.035  -1.956  1.00  0.00     0.224 C 
ATOM      4  O   UNL     1      -2.924  -0.431  -3.128  1.00  0.00    -0.275 OA
ATOM      5  H   UNL     1      -3.642  -1.777  -1.379  1.00  0.00     0.163 HD
BRANCH   3   6
ATOM      6  C   UNL     1      -2.494   1.418  -1.667  1.00  0.00     0.098 C 
ATOM      7  N   UNL     1      -1.457   1.825   0.592  1.00  0.00    -0.339 N 
ATOM      8  C   UNL     1      -2.506   2.776   0.952  1.00  0.00     0.119 C 
ATOM      9  C   UNL     1      -1.223   1.606  -0.832  1.00  0.00     0.133 C 
ATOM     10  C   UNL     1      -3.822   2.556   0.217  1.00  0.00     0.022 C 
ATOM     11  C   UNL     1      -3.654   2.333  -1.279  1.00  0.00     0.017 C 
BRANCH   7  12
ATOM     12  C   UNL     1      -0.791   1.129   1.605  1.00  0.00     0.263 C 
ATOM     13  O   UNL     1      -1.361   0.848   2.664  1.00  0.00    -0.271 OA
BRANCH  12  14
ATOM     14  C   UNL     1       0.750   0.961   1.505  1.00  0.00     0.259 C 
ATOM     15  C   UNL     1       1.273   2.365   1.846  1.00  0.00     0.064 C 
BRANCH  14  16
ATOM     16  O   UNL     1       1.197   0.419   0.265  1.00  0.00    -0.474 OA
BRANCH  16  17
ATOM     17  C   UNL     1       2.510   0.426  -0.109  1.00  0.00     0.197 A 
ATOM     18  C   UNL     1       3.570   0.664   0.767  1.00  0.00     0.054 A 
ATOM     19  C   UNL     1       2.821   0.239  -1.467  1.00  0.00     0.310 A 
ATOM     20  C   UNL     1       4.863   0.900   0.283  1.00  0.00     0.004 A 
ATOM     21  C   UNL     1       4.117   0.469  -1.961  1.00  0.00     0.090 A 
ATOM     22  C   UNL     1       5.130   0.838  -1.082  1.00  0.00     0.007 A 
BRANCH  19  23
ATOM     23  N   UNL     1       1.817  -0.238  -2.416  1.00  0.00     0.066 N 
ATOM     24  O   UNL     1       1.882   0.202  -3.574  1.00  0.00    -0.258 OA
ATOM     25  O   UNL     1       1.007  -1.090  -2.029  1.00  0.00    -0.258 OA
ENDBRANCH  19  23
ENDBRANCH  16  17
ENDBRANCH  14  16
ENDBRANCH  12  14
ENDBRANCH   7  12
ENDBRANCH   3   6
ENDBRANCH   1   2
BRANCH   1  26
ATOM     26  C   UNL     1      -4.667  -0.879   1.055  1.00  0.00     0.042 C 
BRANCH  26  27
ATOM     27  C   UNL     1      -5.058  -2.240   1.597  1.00  0.00     0.118 C 
BRANCH  27  28
ATOM     28  N   UNL     1      -4.243  -2.649   2.737  1.00  0.00    -0.352 N 
ATOM     29  C   UNL     1      -4.601  -3.004   4.019  1.00  0.00     0.251 C 
ATOM     30  H   UNL     1      -3.275  -2.675   2.560  1.00  0.00     0.163 HD
ATOM     31  O   UNL     1      -3.729  -3.196   4.855  1.00  0.00    -0.269 OA
BRANCH  29  32
ATOM     32  C   UNL     1      -6.029  -3.114   4.395  1.00  0.00     0.039 A 
ATOM     33  C   UNL     1      -6.433  -2.669   5.658  1.00  0.00     0.014 A 
ATOM     34  C   UNL     1      -6.972  -3.638   3.512  1.00  0.00     0.014 A 
ATOM     35  C   UNL     1      -7.789  -2.676   5.995  1.00  0.00     0.010 A 
ATOM     36  C   UNL     1      -8.326  -3.527   3.798  1.00  0.00     0.010 A 
ATOM     37  C   UNL     1      -8.752  -3.060   5.050  1.00  0.00    -0.014 A 
BRANCH  37  38
ATOM     38  C   UNL     1     -10.208  -3.024   5.350  1.00  0.00     0.031 A 
ATOM     39  C   UNL     1     -11.015  -4.294   5.263  1.00  0.00     0.074 A 
ATOM     40  C   UNL     1     -10.812  -1.849   5.617  1.00  0.00     0.049 A 
ATOM     41  N   UNL     1     -12.308  -4.464   5.359  1.00  0.00    -0.248 NA
ATOM     42  C   UNL     1     -10.269  -5.531   4.981  1.00  0.00     0.031 C 
ATOM     43  C   UNL     1     -10.143  -0.547   5.678  1.00  0.00     0.029 A 
ATOM     44  N   UNL     1     -12.126  -1.556   5.879  1.00  0.00    -0.354 N 
ATOM     45  C   UNL     1     -12.530  -5.817   5.118  1.00  0.00     0.074 A 
ATOM     46  C   UNL     1     -11.248  -6.402   4.798  1.00  0.00     0.031 C 
ATOM     47  C   UNL     1     -11.044   0.397   5.995  1.00  0.00     0.029 A 
ATOM     48  C   UNL     1     -12.361  -0.219   6.107  1.00  0.00     0.049 A 
ATOM     49  H   UNL     1     -12.835  -2.238   5.902  1.00  0.00     0.167 HD
ATOM     50  C   UNL     1     -13.693  -6.512   5.187  1.00  0.00     0.034 A 
ATOM     51  C   UNL     1     -13.511   0.435   6.368  1.00  0.00     0.034 A 
ATOM     52  C   UNL     1     -14.954  -5.915   5.547  1.00  0.00     0.049 A 
ATOM     53  C   UNL     1     -14.791  -0.359   6.446  1.00  0.00     0.074 A 
ATOM     54  C   UNL     1     -16.182  -6.529   5.718  1.00  0.00     0.029 A 
ATOM     55  N   UNL     1     -15.149  -4.561   5.793  1.00  0.00    -0.354 N 
ATOM     56  N   UNL     1     -14.977  -1.647   6.265  1.00  0.00    -0.248 NA
ATOM     57  C   UNL     1     -16.013   0.386   6.773  1.00  0.00     0.031 C 
ATOM     58  C   UNL     1     -17.130  -5.540   6.005  1.00  0.00     0.029 A 
ATOM     59  C   UNL     1     -16.481  -4.317   6.088  1.00  0.00     0.049 A 
ATOM     60  H   UNL     1     -14.444  -3.874   5.762  1.00  0.00     0.167 HD
ATOM     61  C   UNL     1     -16.333  -1.869   6.490  1.00  0.00     0.074 A 
ATOM     62  C   UNL     1     -16.911  -0.586   6.833  1.00  0.00     0.031 C 
ATOM     63  C   UNL     1     -17.038  -3.028   6.423  1.00  0.00     0.034 A 
BRANCH  50  64
ATOM     64  C   UNL     1     -13.644  -7.984   4.849  1.00  0.00     0.023 A 
ATOM     65  C   UNL     1     -12.868  -8.890   5.594  1.00  0.00     0.031 A 
ATOM     66  C   UNL     1     -14.353  -8.485   3.743  1.00  0.00     0.131 A 
ATOM     67  C   UNL     1     -12.748 -10.223   5.174  1.00  0.00     0.055 A 
ATOM     68  C   UNL     1     -14.301  -9.833   3.383  1.00  0.00     0.041 A 
ATOM     69  F   UNL     1     -15.096  -7.668   2.980  1.00  0.00    -0.206 F 
ATOM     70  C   UNL     1     -13.480 -10.708   4.089  1.00  0.00     0.022 A 
BRANCH  67  71
ATOM     71  S   UNL     1     -11.502 -11.273   5.972  1.00  0.00     0.124 S 
ATOM     72  O   UNL     1     -10.273 -10.534   5.693  1.00  0.00    -0.237 OA
ATOM     73  O   UNL     1     -11.941 -11.282   7.362  1.00  0.00    -0.237 OA
ATOM     74  O   UNL     1     -11.626 -12.548   5.269  1.00  0.00    -0.744 OA
ENDBRANCH  67  71
ENDBRANCH  50  64
BRANCH  51  75
ATOM     75  C   UNL     1     -13.515   1.912   6.576  1.00  0.00     0.023 A 
ATOM     76  C   UNL     1     -13.878   2.465   7.815  1.00  0.00     0.031 A 
ATOM     77  C   UNL     1     -13.198   2.796   5.529  1.00  0.00     0.131 A 
ATOM     78  C   UNL     1     -13.963   3.858   7.964  1.00  0.00     0.055 A 
ATOM     79  C   UNL     1     -13.232   4.182   5.698  1.00  0.00     0.041 A 
ATOM     80  F   UNL     1     -12.839   2.323   4.325  1.00  0.00    -0.206 F 
ATOM     81  C   UNL     1     -13.630   4.720   6.918  1.00  0.00     0.022 A 
BRANCH  78  82
ATOM     82  S   UNL     1     -14.603   4.527   9.524  1.00  0.00     0.124 S 
ATOM     83  O   UNL     1     -15.914   3.893   9.604  1.00  0.00    -0.237 OA
ATOM     84  O   UNL     1     -13.607   4.064  10.483  1.00  0.00    -0.237 OA
ATOM     85  O   UNL     1     -14.620   5.970   9.293  1.00  0.00    -0.744 OA
ENDBRANCH  78  82
ENDBRANCH  51  75
BRANCH  63  86
ATOM     86  C   UNL     1     -18.502  -2.958   6.778  1.00  0.00     0.023 A 
ATOM     87  C   UNL     1     -19.425  -2.264   5.977  1.00  0.00     0.031 A 
ATOM     88  C   UNL     1     -18.976  -3.591   7.941  1.00  0.00     0.131 A 
ATOM     89  C   UNL     1     -20.766  -2.171   6.380  1.00  0.00     0.055 A 
ATOM     90  C   UNL     1     -20.322  -3.548   8.303  1.00  0.00     0.041 A 
ATOM     91  F   UNL     1     -18.136  -4.267   8.742  1.00  0.00    -0.206 F 
ATOM     92  C   UNL     1     -21.223  -2.824   7.528  1.00  0.00     0.022 A 
BRANCH  89  93
ATOM     93  S   UNL     1     -21.887  -1.108   5.431  1.00  0.00     0.124 S 
ATOM     94  O   UNL     1     -21.228   0.191   5.527  1.00  0.00    -0.237 OA
ATOM     95  O   UNL     1     -21.873  -1.735   4.114  1.00  0.00    -0.237 OA
ATOM     96  O   UNL     1     -23.154  -1.215   6.154  1.00  0.00    -0.744 OA
ENDBRANCH  89  93
ENDBRANCH  63  86
ENDBRANCH  37  38
ENDBRANCH  29  32
ENDBRANCH  27  28
ENDBRANCH  26  27
ENDBRANCH   1  26
TORSDOF 18
