REMARK SMILES [NH3+][C@@H](CC(=O)NCCCNC(=O)c1ccc(-c2c3nc(c(-c4cc(S(=O)(=O)[O-])ccc4F)c4ccc([nH]4)c(-c4cc(S(=O)(=O)[O-])ccc4F)c4nc(c(-c5cc(S(=O)(=O)[O-])ccc5F)c5ccc2[nH]5)C=C4)C=C3)cc1)[NH+]1CCOCC1
REMARK SMILES IDX 8 1 7 2 6 3 4 4 5 5 3 7 2 8 1 9 76 13 77 14 81 15 78 17
REMARK SMILES IDX 80 18 79 19 9 20 10 21 11 22 12 24 13 25 14 26 75 27 15 28
REMARK SMILES IDX 74 29 16 30 17 31 18 32 68 33 19 34 73 35 67 36 69 37 20 38
REMARK SMILES IDX 72 39 66 40 65 41 21 43 53 44 33 45 52 46 34 47 37 48 51 49
REMARK SMILES IDX 70 50 35 51 36 52 50 54 71 55 38 56 22 57 23 58 31 59 24 60
REMARK SMILES IDX 30 61 32 62 29 63 25 64 26 65 27 66 28 67 54 68 55 69 63 70
REMARK SMILES IDX 56 71 62 72 64 73 61 74 57 75 58 76 59 77 60 78 39 79 40 80
REMARK SMILES IDX 48 81 41 82 47 83 49 84 46 85 42 86 43 87 44 88 45 89
REMARK H PARENT 6 6 1 10 1 11 1 12 76 16 10 23 69 42 37 53
REMARK Flexibility Score: inf
ROOT
ATOM      1  C   UNL     1       1.324  -1.107   2.364  1.00  0.00     0.042 C 
ENDROOT
BRANCH   1   2
ATOM      2  C   UNL     1       1.943  -2.079   1.363  1.00  0.00     0.117 C 
BRANCH   2   3
ATOM      3  N   UNL     1       0.930  -2.832   0.650  1.00  0.00    -0.356 N 
ATOM      4  C   UNL     1       0.521  -2.756  -0.648  1.00  0.00     0.232 C 
ATOM      5  O   UNL     1      -0.343  -3.554  -1.022  1.00  0.00    -0.275 OA
ATOM      6  H   UNL     1       0.461  -3.508   1.191  1.00  0.00     0.163 HD
BRANCH   4   7
ATOM      7  C   UNL     1       1.179  -1.800  -1.625  1.00  0.00     0.232 C 
BRANCH   7   8
ATOM      8  C   UNL     1       0.657  -0.348  -1.668  1.00  0.00     0.389 C 
BRANCH   8   9
ATOM      9  N   UNL     1       1.362   0.536  -0.760  1.00  0.00    -0.308 N 
ATOM     10  H   UNL     1       2.366   0.449  -0.913  1.00  0.00     0.349 HD
ATOM     11  H   UNL     1       1.141   0.281   0.203  1.00  0.00     0.349 HD
ATOM     12  H   UNL     1       1.073   1.499  -0.931  1.00  0.00     0.349 HD
ENDBRANCH   8   9
BRANCH   8  13
ATOM     13  N   UNL     1      -0.792  -0.273  -1.501  1.00  0.00    -0.282 N 
ATOM     14  C   UNL     1      -1.472  -0.173  -2.818  1.00  0.00     0.296 C 
ATOM     15  C   UNL     1      -1.359   0.789  -0.643  1.00  0.00     0.296 C 
ATOM     16  H   UNL     1      -0.970  -1.144  -1.001  1.00  0.00     0.353 HD
ATOM     17  C   UNL     1      -1.415   1.247  -3.419  1.00  0.00     0.222 C 
ATOM     18  C   UNL     1      -1.319   2.194  -1.265  1.00  0.00     0.222 C 
ATOM     19  O   UNL     1      -1.991   2.214  -2.534  1.00  0.00    -0.370 OA
ENDBRANCH   8  13
ENDBRANCH   7   8
ENDBRANCH   4   7
ENDBRANCH   2   3
ENDBRANCH   1   2
BRANCH   1  20
ATOM     20  C   UNL     1       0.731  -1.770   3.600  1.00  0.00     0.118 C 
BRANCH  20  21
ATOM     21  N   UNL     1       1.750  -2.322   4.475  1.00  0.00    -0.352 N 
ATOM     22  C   UNL     1       2.077  -2.010   5.771  1.00  0.00     0.251 C 
ATOM     23  H   UNL     1       2.296  -3.035   4.073  1.00  0.00     0.163 HD
ATOM     24  O   UNL     1       3.123  -2.468   6.235  1.00  0.00    -0.269 OA
BRANCH  22  25
ATOM     25  C   UNL     1       1.222  -1.130   6.604  1.00  0.00     0.039 A 
ATOM     26  C   UNL     1       1.842  -0.272   7.519  1.00  0.00     0.014 A 
ATOM     27  C   UNL     1      -0.174  -1.172   6.542  1.00  0.00     0.014 A 
ATOM     28  C   UNL     1       1.071   0.567   8.328  1.00  0.00     0.010 A 
ATOM     29  C   UNL     1      -0.940  -0.274   7.288  1.00  0.00     0.010 A 
ATOM     30  C   UNL     1      -0.327   0.596   8.200  1.00  0.00    -0.014 A 
BRANCH  30  31
ATOM     31  C   UNL     1      -1.144   1.529   9.023  1.00  0.00     0.031 A 
ATOM     32  C   UNL     1      -2.137   1.003  10.025  1.00  0.00     0.074 A 
ATOM     33  C   UNL     1      -1.020   2.857   8.833  1.00  0.00     0.049 A 
ATOM     34  N   UNL     1      -2.927   1.663  10.835  1.00  0.00    -0.248 NA
ATOM     35  C   UNL     1      -2.287  -0.457  10.102  1.00  0.00     0.031 C 
ATOM     36  C   UNL     1      -0.153   3.489   7.835  1.00  0.00     0.029 A 
ATOM     37  N   UNL     1      -1.627   3.915   9.461  1.00  0.00    -0.354 N 
ATOM     38  C   UNL     1      -3.678   0.702  11.504  1.00  0.00     0.074 A 
ATOM     39  C   UNL     1      -3.291  -0.581  10.955  1.00  0.00     0.031 C 
ATOM     40  C   UNL     1      -0.267   4.823   7.936  1.00  0.00     0.029 A 
ATOM     41  C   UNL     1      -1.233   5.142   8.981  1.00  0.00     0.049 A 
ATOM     42  H   UNL     1      -2.282   3.806  10.188  1.00  0.00     0.167 HD
ATOM     43  C   UNL     1      -4.586   0.871  12.499  1.00  0.00     0.034 A 
ATOM     44  C   UNL     1      -1.607   6.386   9.339  1.00  0.00     0.034 A 
ATOM     45  C   UNL     1      -4.949   2.159  13.042  1.00  0.00     0.049 A 
ATOM     46  C   UNL     1      -2.584   6.554  10.471  1.00  0.00     0.074 A 
ATOM     47  C   UNL     1      -5.786   2.444  14.107  1.00  0.00     0.029 A 
ATOM     48  N   UNL     1      -4.508   3.383  12.552  1.00  0.00    -0.354 N 
ATOM     49  N   UNL     1      -3.214   5.631  11.162  1.00  0.00    -0.248 NA
ATOM     50  C   UNL     1      -2.881   7.929  10.885  1.00  0.00     0.031 C 
ATOM     51  C   UNL     1      -5.905   3.835  14.216  1.00  0.00     0.029 A 
ATOM     52  C   UNL     1      -5.084   4.424  13.268  1.00  0.00     0.049 A 
ATOM     53  H   UNL     1      -3.878   3.496  11.804  1.00  0.00     0.167 HD
ATOM     54  C   UNL     1      -3.977   6.318  12.102  1.00  0.00     0.074 A 
ATOM     55  C   UNL     1      -3.699   7.728  11.908  1.00  0.00     0.031 C 
ATOM     56  C   UNL     1      -4.831   5.829  13.039  1.00  0.00     0.034 A 
BRANCH  43  57
ATOM     57  C   UNL     1      -5.266  -0.370  13.035  1.00  0.00     0.023 A 
ATOM     58  C   UNL     1      -4.540  -1.413  13.638  1.00  0.00     0.031 A 
ATOM     59  C   UNL     1      -6.656  -0.537  12.898  1.00  0.00     0.131 A 
ATOM     60  C   UNL     1      -5.186  -2.608  13.992  1.00  0.00     0.055 A 
ATOM     61  C   UNL     1      -7.308  -1.693  13.335  1.00  0.00     0.041 A 
ATOM     62  F   UNL     1      -7.405   0.413  12.316  1.00  0.00    -0.206 F 
ATOM     63  C   UNL     1      -6.569  -2.746  13.867  1.00  0.00     0.022 A 
BRANCH  60  64
ATOM     64  S   UNL     1      -4.169  -4.037  14.456  1.00  0.00     0.124 S 
ATOM     65  O   UNL     1      -3.305  -4.178  13.286  1.00  0.00    -0.237 OA
ATOM     66  O   UNL     1      -3.519  -3.578  15.679  1.00  0.00    -0.237 OA
ATOM     67  O   UNL     1      -5.145  -5.111  14.632  1.00  0.00    -0.744 OA
ENDBRANCH  60  64
ENDBRANCH  43  57
BRANCH  44  68
ATOM     68  C   UNL     1      -1.056   7.566   8.616  1.00  0.00     0.023 A 
ATOM     69  C   UNL     1      -0.177   8.462   9.243  1.00  0.00     0.031 A 
ATOM     70  C   UNL     1      -1.409   7.811   7.277  1.00  0.00     0.131 A 
ATOM     71  C   UNL     1       0.295   9.582   8.541  1.00  0.00     0.055 A 
ATOM     72  C   UNL     1      -0.903   8.903   6.570  1.00  0.00     0.041 A 
ATOM     73  F   UNL     1      -2.236   6.975   6.628  1.00  0.00    -0.206 F 
ATOM     74  C   UNL     1      -0.052   9.802   7.206  1.00  0.00     0.022 A 
BRANCH  71  75
ATOM     75  S   UNL     1       1.341  10.779   9.415  1.00  0.00     0.124 S 
ATOM     76  O   UNL     1       0.457  11.222  10.487  1.00  0.00    -0.237 OA
ATOM     77  O   UNL     1       2.475   9.954   9.817  1.00  0.00    -0.237 OA
ATOM     78  O   UNL     1       1.637  11.782   8.393  1.00  0.00    -0.744 OA
ENDBRANCH  71  75
ENDBRANCH  44  68
BRANCH  56  79
ATOM     79  C   UNL     1      -5.515   6.844  13.924  1.00  0.00     0.023 A 
ATOM     80  C   UNL     1      -6.424   7.781  13.401  1.00  0.00     0.031 A 
ATOM     81  C   UNL     1      -5.221   6.907  15.297  1.00  0.00     0.131 A 
ATOM     82  C   UNL     1      -6.946   8.787  14.227  1.00  0.00     0.055 A 
ATOM     83  C   UNL     1      -5.797   7.868  16.129  1.00  0.00     0.041 A 
ATOM     84  F   UNL     1      -4.358   6.040  15.852  1.00  0.00    -0.206 F 
ATOM     85  C   UNL     1      -6.651   8.827  15.592  1.00  0.00     0.022 A 
BRANCH  82  86
ATOM     86  S   UNL     1      -7.916  10.120  13.468  1.00  0.00     0.124 S 
ATOM     87  O   UNL     1      -6.993  10.629  12.458  1.00  0.00    -0.237 OA
ATOM     88  O   UNL     1      -9.084   9.407  12.964  1.00  0.00    -0.237 OA
ATOM     89  O   UNL     1      -8.177  11.030  14.582  1.00  0.00    -0.744 OA
ENDBRANCH  82  86
ENDBRANCH  56  79
ENDBRANCH  30  31
ENDBRANCH  22  25
ENDBRANCH  20  21
ENDBRANCH   1  20
TORSDOF 16
