REMARK SMILES O=C(NCCCNC(=O)[C@@H]1CCCCN1c1ccccc1[N+](=O)[O-])c1ccc(-c2c3nc(c(-c4cc(S(=O)(=O)[O-])ccc4F)c4ccc([nH]4)c(-c4cc(S(=O)(=O)[O-])ccc4F)c4nc(c(-c5cc(S(=O)(=O)[O-])ccc5F)c5ccc2[nH]5)C=C4)C=C3)cc1
REMARK SMILES IDX 4 1 3 2 1 3 2 4 25 6 26 7 87 8 27 9 86 10 28 11 29 12 30 13
REMARK SMILES IDX 80 14 31 15 85 16 79 17 81 18 32 19 84 20 78 21 77 22 33 24
REMARK SMILES IDX 65 25 45 26 64 27 46 28 49 29 63 30 82 31 47 32 48 33 62 35
REMARK SMILES IDX 83 36 50 37 34 38 35 39 43 40 36 41 42 42 44 43 41 44 37 45
REMARK SMILES IDX 38 46 39 47 40 48 66 49 67 50 75 51 68 52 74 53 76 54 73 55
REMARK SMILES IDX 69 56 70 57 71 58 72 59 51 60 52 61 60 62 53 63 59 64 61 65
REMARK SMILES IDX 58 66 54 67 55 68 56 69 57 70 5 71 6 72 7 73 8 74 9 76 10 77
REMARK SMILES IDX 11 78 15 79 12 80 14 81 13 82 16 83 17 84 21 85 18 86 20 87
REMARK SMILES IDX 19 88 22 89 23 90 24 91
REMARK H PARENT 3 5 81 23 49 34 7 75
REMARK Flexibility Score: inf
ROOT
ATOM      1  C   UNL     1       4.845   0.009  -1.683  1.00  0.00     0.118 C 
ENDROOT
BRANCH   1   2
ATOM      2  N   UNL     1       3.454  -0.213  -1.293  1.00  0.00    -0.352 N 
ATOM      3  O   UNL     1       1.525  -0.237  -0.159  1.00  0.00    -0.269 OA
ATOM      4  C   UNL     1       2.697   0.143  -0.200  1.00  0.00     0.251 C 
ATOM      5  H   UNL     1       2.947  -0.731  -1.959  1.00  0.00     0.163 HD
BRANCH   4   6
ATOM      6  C   UNL     1       3.252   0.903   0.948  1.00  0.00     0.039 A 
ATOM      7  C   UNL     1       4.278   1.825   0.802  1.00  0.00     0.014 A 
ATOM      8  C   UNL     1       2.721   0.694   2.230  1.00  0.00     0.014 A 
ATOM      9  C   UNL     1       4.940   2.319   1.917  1.00  0.00     0.010 A 
ATOM     10  C   UNL     1       3.287   1.327   3.349  1.00  0.00     0.010 A 
ATOM     11  C   UNL     1       4.450   2.094   3.212  1.00  0.00    -0.014 A 
BRANCH  11  12
ATOM     12  C   UNL     1       5.195   2.691   4.360  1.00  0.00     0.031 A 
ATOM     13  C   UNL     1       5.764   1.825   5.456  1.00  0.00     0.074 A 
ATOM     14  C   UNL     1       5.458   4.016   4.345  1.00  0.00     0.049 A 
ATOM     15  N   UNL     1       6.534   2.167   6.460  1.00  0.00    -0.248 NA
ATOM     16  C   UNL     1       5.412   0.398   5.439  1.00  0.00     0.031 C 
ATOM     17  C   UNL     1       4.946   4.962   3.349  1.00  0.00     0.029 A 
ATOM     18  N   UNL     1       6.270   4.788   5.138  1.00  0.00    -0.354 N 
ATOM     19  C   UNL     1       6.721   1.012   7.214  1.00  0.00     0.074 A 
ATOM     20  C   UNL     1       5.963  -0.035   6.564  1.00  0.00     0.031 C 
ATOM     21  C   UNL     1       5.548   6.148   3.514  1.00  0.00     0.029 A 
ATOM     22  C   UNL     1       6.412   6.081   4.686  1.00  0.00     0.049 A 
ATOM     23  H   UNL     1       6.708   4.450   5.952  1.00  0.00     0.167 HD
ATOM     24  C   UNL     1       7.461   0.841   8.338  1.00  0.00     0.034 A 
ATOM     25  C   UNL     1       7.150   7.105   5.157  1.00  0.00     0.034 A 
ATOM     26  C   UNL     1       8.246   1.887   8.951  1.00  0.00     0.049 A 
ATOM     27  C   UNL     1       7.981   6.881   6.390  1.00  0.00     0.074 A 
ATOM     28  C   UNL     1       9.059   1.813  10.070  1.00  0.00     0.029 A 
ATOM     29  N   UNL     1       8.319   3.198   8.498  1.00  0.00    -0.354 N 
ATOM     30  N   UNL     1       8.140   5.781   7.088  1.00  0.00    -0.248 NA
ATOM     31  C   UNL     1       8.723   8.038   6.903  1.00  0.00     0.031 C 
ATOM     32  C   UNL     1       9.574   3.089  10.326  1.00  0.00     0.029 A 
ATOM     33  C   UNL     1       9.142   3.947   9.328  1.00  0.00     0.049 A 
ATOM     34  H   UNL     1       7.855   3.546   7.702  1.00  0.00     0.167 HD
ATOM     35  C   UNL     1       9.009   6.113   8.121  1.00  0.00     0.074 A 
ATOM     36  C   UNL     1       9.363   7.506   7.933  1.00  0.00     0.031 C 
ATOM     37  C   UNL     1       9.467   5.340   9.139  1.00  0.00     0.034 A 
BRANCH  24  38
ATOM     38  C   UNL     1       7.409  -0.514   9.009  1.00  0.00     0.023 A 
ATOM     39  C   UNL     1       7.901  -1.677   8.392  1.00  0.00     0.031 A 
ATOM     40  C   UNL     1       6.828  -0.643  10.285  1.00  0.00     0.131 A 
ATOM     41  C   UNL     1       7.740  -2.924   9.019  1.00  0.00     0.055 A 
ATOM     42  C   UNL     1       6.741  -1.875  10.936  1.00  0.00     0.041 A 
ATOM     43  F   UNL     1       6.323   0.428  10.917  1.00  0.00    -0.206 F 
ATOM     44  C   UNL     1       7.185  -3.028  10.296  1.00  0.00     0.022 A 
BRANCH  41  45
ATOM     45  S   UNL     1       8.138  -4.426   8.081  1.00  0.00     0.124 S 
ATOM     46  O   UNL     1       7.261  -4.287   6.921  1.00  0.00    -0.237 OA
ATOM     47  O   UNL     1       9.565  -4.269   7.828  1.00  0.00    -0.237 OA
ATOM     48  O   UNL     1       7.782  -5.507   8.998  1.00  0.00    -0.744 OA
ENDBRANCH  41  45
ENDBRANCH  24  38
BRANCH  25  49
ATOM     49  C   UNL     1       7.115   8.436   4.483  1.00  0.00     0.023 A 
ATOM     50  C   UNL     1       8.268   8.990   3.903  1.00  0.00     0.031 A 
ATOM     51  C   UNL     1       5.926   9.186   4.428  1.00  0.00     0.131 A 
ATOM     52  C   UNL     1       8.214  10.268   3.322  1.00  0.00     0.055 A 
ATOM     53  C   UNL     1       5.864  10.430   3.801  1.00  0.00     0.041 A 
ATOM     54  F   UNL     1       4.794   8.704   4.966  1.00  0.00    -0.206 F 
ATOM     55  C   UNL     1       7.016  10.984   3.254  1.00  0.00     0.022 A 
BRANCH  52  56
ATOM     56  S   UNL     1       9.752  11.018   2.720  1.00  0.00     0.124 S 
ATOM     57  O   UNL     1      10.577  11.015   3.922  1.00  0.00    -0.237 OA
ATOM     58  O   UNL     1      10.148  10.090   1.666  1.00  0.00    -0.237 OA
ATOM     59  O   UNL     1       9.327  12.338   2.257  1.00  0.00    -0.744 OA
ENDBRANCH  52  56
ENDBRANCH  25  49
BRANCH  37  60
ATOM     60  C   UNL     1      10.425   5.995  10.101  1.00  0.00     0.023 A 
ATOM     61  C   UNL     1      10.015   7.034  10.955  1.00  0.00     0.031 A 
ATOM     62  C   UNL     1      11.775   5.604  10.133  1.00  0.00     0.131 A 
ATOM     63  C   UNL     1      10.959   7.694  11.755  1.00  0.00     0.055 A 
ATOM     64  C   UNL     1      12.698   6.224  10.976  1.00  0.00     0.041 A 
ATOM     65  F   UNL     1      12.220   4.619   9.336  1.00  0.00    -0.206 F 
ATOM     66  C   UNL     1      12.296   7.286  11.781  1.00  0.00     0.022 A 
BRANCH  63  67
ATOM     67  S   UNL     1      10.440   9.167  12.678  1.00  0.00     0.124 S 
ATOM     68  O   UNL     1       9.926  10.025  11.616  1.00  0.00    -0.237 OA
ATOM     69  O   UNL     1       9.445   8.624  13.597  1.00  0.00    -0.237 OA
ATOM     70  O   UNL     1      11.676   9.631  13.306  1.00  0.00    -0.744 OA
ENDBRANCH  63  67
ENDBRANCH  37  60
ENDBRANCH  11  12
ENDBRANCH   4   6
ENDBRANCH   1   2
BRANCH   1  71
ATOM     71  C   UNL     1       5.835  -1.048  -1.197  1.00  0.00     0.042 C 
BRANCH  71  72
ATOM     72  C   UNL     1       5.583  -2.429  -1.781  1.00  0.00     0.117 C 
BRANCH  72  73
ATOM     73  N   UNL     1       5.519  -2.482  -3.225  1.00  0.00    -0.354 N 
ATOM     74  C   UNL     1       5.370  -3.587  -4.014  1.00  0.00     0.242 C 
ATOM     75  H   UNL     1       5.592  -1.621  -3.696  1.00  0.00     0.163 HD
ATOM     76  O   UNL     1       5.003  -3.373  -5.176  1.00  0.00    -0.273 OA
BRANCH  74  77
ATOM     77  C   UNL     1       5.759  -5.006  -3.521  1.00  0.00     0.171 C 
ATOM     78  C   UNL     1       5.751  -5.959  -4.737  1.00  0.00     0.035 C 
ATOM     79  N   UNL     1       4.956  -5.643  -2.437  1.00  0.00    -0.354 N 
ATOM     80  C   UNL     1       6.198  -7.372  -4.373  1.00  0.00     0.004 C 
ATOM     81  C   UNL     1       5.428  -6.966  -2.011  1.00  0.00     0.117 C 
ATOM     82  C   UNL     1       5.385  -7.919  -3.204  1.00  0.00     0.022 C 
BRANCH  79  83
ATOM     83  C   UNL     1       3.841  -5.096  -1.833  1.00  0.00     0.116 A 
ATOM     84  C   UNL     1       2.782  -4.654  -2.648  1.00  0.00     0.033 A 
ATOM     85  C   UNL     1       3.677  -4.896  -0.438  1.00  0.00     0.292 A 
ATOM     86  C   UNL     1       1.661  -3.999  -2.124  1.00  0.00     0.003 A 
ATOM     87  C   UNL     1       2.555  -4.230   0.094  1.00  0.00     0.088 A 
ATOM     88  C   UNL     1       1.555  -3.772  -0.757  1.00  0.00     0.007 A 
BRANCH  85  89
ATOM     89  N   UNL     1       4.722  -5.239   0.528  1.00  0.00     0.064 N 
ATOM     90  O   UNL     1       4.348  -5.751   1.593  1.00  0.00    -0.258 OA
ATOM     91  O   UNL     1       5.899  -4.978   0.246  1.00  0.00    -0.258 OA
ENDBRANCH  85  89
ENDBRANCH  79  83
ENDBRANCH  74  77
ENDBRANCH  72  73
ENDBRANCH  71  72
ENDBRANCH   1  71
TORSDOF 15
