REMARK SMILES CC1(C)CCCC[C@H]1NC(=O)Nc1ccccc1C(=O)NCCCNC(=O)c1ccc(-c2c3nc(c(-c4cc(S(=O)(=O)[O-])ccc4F)c4ccc([nH]4)c(-c4cc(S(=O)(=O)[O-])ccc4F)c4nc(c(-c5cc(S(=O)(=O)[O-])ccc5F)c5ccc2[nH]5)C=C4)C=C3)cc1
REMARK SMILES IDX 23 1 22 2 21 3 19 4 20 5 18 7 13 8 14 9 15 10 17 11 16 12
REMARK SMILES IDX 12 13 9 14 10 15 11 17 8 19 1 20 2 21 3 22 4 23 5 24 7 25
REMARK SMILES IDX 6 26 24 27 25 28 26 29 27 31 28 32 29 33 90 34 30 35 89 36
REMARK SMILES IDX 31 37 32 38 33 39 83 40 34 41 88 42 82 43 84 44 35 45 87 46
REMARK SMILES IDX 81 47 80 48 36 50 68 51 48 52 67 53 49 54 52 55 66 56 85 57
REMARK SMILES IDX 50 58 51 59 65 61 86 62 53 63 37 64 38 65 46 66 39 67 45 68
REMARK SMILES IDX 47 69 44 70 40 71 41 72 42 73 43 74 69 75 70 76 78 77 71 78
REMARK SMILES IDX 77 79 79 80 76 81 72 82 73 83 74 84 75 85 54 86 55 87 63 88
REMARK SMILES IDX 56 89 62 90 64 91 61 92 57 93 58 94 59 95 60 96
REMARK H PARENT 21 6 9 16 12 18 25 30 84 49 52 60
REMARK Flexibility Score: inf
ROOT
ATOM      1  C   UNL     1      -4.950  -2.363  -0.469  1.00  0.00     0.042 C 
ENDROOT
BRANCH   1   2
ATOM      2  C   UNL     1      -4.062  -1.154  -0.249  1.00  0.00     0.118 C 
BRANCH   2   3
ATOM      3  N   UNL     1      -3.642  -0.507  -1.472  1.00  0.00    -0.352 N 
ATOM      4  C   UNL     1      -3.260   0.778  -1.738  1.00  0.00     0.253 C 
ATOM      5  O   UNL     1      -2.941   1.014  -2.909  1.00  0.00    -0.269 OA
ATOM      6  H   UNL     1      -3.628  -1.101  -2.257  1.00  0.00     0.163 HD
BRANCH   4   7
ATOM      7  C   UNL     1      -3.294   1.919  -0.767  1.00  0.00     0.063 A 
ATOM      8  C   UNL     1      -3.138   1.932   0.633  1.00  0.00     0.055 A 
ATOM      9  C   UNL     1      -3.445   3.118   1.338  1.00  0.00     0.027 A 
ATOM     10  C   UNL     1      -3.734   4.313   0.682  1.00  0.00     0.002 A 
ATOM     11  C   UNL     1      -3.566   3.156  -1.409  1.00  0.00     0.016 A 
ATOM     12  C   UNL     1      -3.758   4.341  -0.700  1.00  0.00     0.001 A 
BRANCH   8  13
ATOM     13  N   UNL     1      -2.646   0.921   1.482  1.00  0.00    -0.307 N 
ATOM     14  N   UNL     1      -0.735  -0.009   0.441  1.00  0.00    -0.335 N 
ATOM     15  C   UNL     1      -1.713  -0.043   1.361  1.00  0.00     0.319 C 
ATOM     16  H   UNL     1      -0.413  -0.884   0.127  1.00  0.00     0.165 HD
ATOM     17  O   UNL     1      -1.730  -0.981   2.161  1.00  0.00    -0.248 OA
ATOM     18  H   UNL     1      -3.082   0.920   2.365  1.00  0.00     0.171 HD
BRANCH  14  19
ATOM     19  C   UNL     1      -0.090   1.149  -0.152  1.00  0.00     0.089 C 
ATOM     20  C   UNL     1       2.292   0.477   0.583  1.00  0.00     0.013 C 
ATOM     21  C   UNL     1       1.208   1.575   0.603  1.00  0.00    -0.015 C 
ATOM     22  C   UNL     1       0.903   1.897   2.082  1.00  0.00     0.013 C 
ATOM     23  C   UNL     1       1.735   2.866  -0.078  1.00  0.00     0.008 C 
ATOM     24  C   UNL     1       1.901   2.745  -1.597  1.00  0.00     0.001 C 
ATOM     25  C   UNL     1       0.180   0.913  -1.640  1.00  0.00     0.025 C 
ATOM     26  C   UNL     1       0.651   2.208  -2.287  1.00  0.00     0.002 C 
ENDBRANCH  14  19
ENDBRANCH   8  13
ENDBRANCH   4   7
ENDBRANCH   2   3
ENDBRANCH   1   2
BRANCH   1  27
ATOM     27  C   UNL     1      -4.180  -3.567  -1.003  1.00  0.00     0.118 C 
BRANCH  27  28
ATOM     28  N   UNL     1      -3.293  -4.194  -0.021  1.00  0.00    -0.352 N 
ATOM     29  C   UNL     1      -3.398  -5.388   0.659  1.00  0.00     0.251 C 
ATOM     30  H   UNL     1      -2.484  -3.674   0.190  1.00  0.00     0.163 HD
ATOM     31  O   UNL     1      -2.566  -5.690   1.511  1.00  0.00    -0.269 OA
BRANCH  29  32
ATOM     32  C   UNL     1      -4.550  -6.277   0.404  1.00  0.00     0.039 A 
ATOM     33  C   UNL     1      -5.270  -6.796   1.483  1.00  0.00     0.014 A 
ATOM     34  C   UNL     1      -4.965  -6.533  -0.899  1.00  0.00     0.014 A 
ATOM     35  C   UNL     1      -6.482  -7.452   1.250  1.00  0.00     0.010 A 
ATOM     36  C   UNL     1      -6.231  -7.056  -1.120  1.00  0.00     0.010 A 
ATOM     37  C   UNL     1      -7.011  -7.519  -0.049  1.00  0.00    -0.014 A 
BRANCH  37  38
ATOM     38  C   UNL     1      -8.361  -8.079  -0.333  1.00  0.00     0.031 A 
ATOM     39  C   UNL     1      -8.498  -9.201  -1.331  1.00  0.00     0.074 A 
ATOM     40  C   UNL     1      -9.461  -7.521   0.215  1.00  0.00     0.049 A 
ATOM     41  N   UNL     1      -9.575  -9.697  -1.882  1.00  0.00    -0.248 NA
ATOM     42  C   UNL     1      -7.246  -9.804  -1.816  1.00  0.00     0.031 C 
ATOM     43  C   UNL     1      -9.470  -6.397   1.156  1.00  0.00     0.029 A 
ATOM     44  N   UNL     1     -10.792  -7.817   0.051  1.00  0.00    -0.354 N 
ATOM     45  C   UNL     1      -9.127 -10.640  -2.802  1.00  0.00     0.074 A 
ATOM     46  C   UNL     1      -7.682 -10.584  -2.792  1.00  0.00     0.031 C 
ATOM     47  C   UNL     1     -10.736  -6.129   1.515  1.00  0.00     0.029 A 
ATOM     48  C   UNL     1     -11.636  -7.018   0.790  1.00  0.00     0.049 A 
ATOM     49  H   UNL     1     -11.114  -8.536  -0.540  1.00  0.00     0.167 HD
ATOM     50  C   UNL     1      -9.850 -11.502  -3.558  1.00  0.00     0.034 A 
ATOM     51  C   UNL     1     -12.982  -7.000   0.864  1.00  0.00     0.034 A 
ATOM     52  C   UNL     1     -11.287 -11.585  -3.516  1.00  0.00     0.049 A 
ATOM     53  C   UNL     1     -13.765  -7.982   0.026  1.00  0.00     0.074 A 
ATOM     54  C   UNL     1     -12.126 -12.440  -4.210  1.00  0.00     0.029 A 
ATOM     55  N   UNL     1     -12.101 -10.794  -2.716  1.00  0.00    -0.354 N 
ATOM     56  N   UNL     1     -13.322  -8.877  -0.828  1.00  0.00    -0.248 NA
ATOM     57  C   UNL     1     -15.227  -7.960   0.169  1.00  0.00     0.031 C 
ATOM     58  C   UNL     1     -13.446 -12.143  -3.855  1.00  0.00     0.029 A 
ATOM     59  C   UNL     1     -13.428 -11.142  -2.897  1.00  0.00     0.049 A 
ATOM     60  H   UNL     1     -11.780 -10.089  -2.108  1.00  0.00     0.167 HD
ATOM     61  C   UNL     1     -14.451  -9.550  -1.289  1.00  0.00     0.074 A 
ATOM     62  C   UNL     1     -15.589  -8.967  -0.611  1.00  0.00     0.031 C 
ATOM     63  C   UNL     1     -14.542 -10.558  -2.192  1.00  0.00     0.034 A 
BRANCH  50  64
ATOM     64  C   UNL     1      -9.086 -12.420  -4.481  1.00  0.00     0.023 A 
ATOM     65  C   UNL     1      -8.182 -13.372  -3.978  1.00  0.00     0.031 A 
ATOM     66  C   UNL     1      -9.227 -12.318  -5.875  1.00  0.00     0.131 A 
ATOM     67  C   UNL     1      -7.391 -14.121  -4.860  1.00  0.00     0.055 A 
ATOM     68  C   UNL     1      -8.499 -13.130  -6.748  1.00  0.00     0.041 A 
ATOM     69  F   UNL     1     -10.060 -11.414  -6.415  1.00  0.00    -0.206 F 
ATOM     70  C   UNL     1      -7.562 -14.027  -6.242  1.00  0.00     0.022 A 
BRANCH  67  71
ATOM     71  S   UNL     1      -6.037 -15.114  -4.174  1.00  0.00     0.124 S 
ATOM     72  O   UNL     1      -5.186 -14.081  -3.589  1.00  0.00    -0.237 OA
ATOM     73  O   UNL     1      -6.728 -15.982  -3.228  1.00  0.00    -0.237 OA
ATOM     74  O   UNL     1      -5.478 -15.785  -5.345  1.00  0.00    -0.744 OA
ENDBRANCH  67  71
ENDBRANCH  50  64
BRANCH  51  75
ATOM     75  C   UNL     1     -13.694  -6.037   1.755  1.00  0.00     0.023 A 
ATOM     76  C   UNL     1     -14.486  -6.498   2.820  1.00  0.00     0.031 A 
ATOM     77  C   UNL     1     -13.662  -4.653   1.514  1.00  0.00     0.131 A 
ATOM     78  C   UNL     1     -15.267  -5.596   3.558  1.00  0.00     0.055 A 
ATOM     79  C   UNL     1     -14.394  -3.751   2.290  1.00  0.00     0.041 A 
ATOM     80  F   UNL     1     -12.917  -4.154   0.514  1.00  0.00    -0.206 F 
ATOM     81  C   UNL     1     -15.218  -4.223   3.308  1.00  0.00     0.022 A 
BRANCH  78  82
ATOM     82  S   UNL     1     -16.444  -6.258   4.770  1.00  0.00     0.124 S 
ATOM     83  O   UNL     1     -17.212  -7.194   3.958  1.00  0.00    -0.237 OA
ATOM     84  O   UNL     1     -15.553  -6.848   5.763  1.00  0.00    -0.237 OA
ATOM     85  O   UNL     1     -17.175  -5.073   5.215  1.00  0.00    -0.744 OA
ENDBRANCH  78  82
ENDBRANCH  51  75
BRANCH  63  86
ATOM     86  C   UNL     1     -15.912 -11.136  -2.433  1.00  0.00     0.023 A 
ATOM     87  C   UNL     1     -16.919 -10.407  -3.088  1.00  0.00     0.031 A 
ATOM     88  C   UNL     1     -16.212 -12.438  -1.993  1.00  0.00     0.131 A 
ATOM     89  C   UNL     1     -18.196 -10.964  -3.237  1.00  0.00     0.055 A 
ATOM     90  C   UNL     1     -17.469 -13.007  -2.193  1.00  0.00     0.041 A 
ATOM     91  F   UNL     1     -15.283 -13.176  -1.364  1.00  0.00    -0.206 F 
ATOM     92  C   UNL     1     -18.474 -12.265  -2.807  1.00  0.00     0.022 A 
BRANCH  89  93
ATOM     93  S   UNL     1     -19.517  -9.936  -3.935  1.00  0.00     0.124 S 
ATOM     94  O   UNL     1     -19.566  -8.823  -2.994  1.00  0.00    -0.237 OA
ATOM     95  O   UNL     1     -19.000  -9.625  -5.264  1.00  0.00    -0.237 OA
ATOM     96  O   UNL     1     -20.684 -10.817  -3.917  1.00  0.00    -0.744 OA
ENDBRANCH  89  93
ENDBRANCH  63  86
ENDBRANCH  37  38
ENDBRANCH  29  32
ENDBRANCH  27  28
ENDBRANCH   1  27
TORSDOF 15
