REMARK SMILES CC(C)[NH2+][C@@]1(C(=O)NCCCNC(=O)c2ccc(-c3c4nc(c(-c5cc(S(=O)(=O)[O-])ccc5F)c5ccc([nH]5)c(-c5cc(S(=O)(=O)[O-])ccc5F)c5nc(c(-c6cc(S(=O)(=O)[O-])ccc6F)c6ccc3[nH]6)C=C5)C=C4)cc2)CC[C@H](Oc2ccccc2F)C1
REMARK SMILES IDX 10 1 9 2 8 3 6 4 7 5 5 7 78 8 89 9 79 10 80 11 4 12 2 15
REMARK SMILES IDX 1 16 3 17 81 18 82 19 83 20 87 21 84 22 86 23 88 24 85 25
REMARK SMILES IDX 11 26 12 27 13 28 14 30 15 31 16 32 77 33 17 34 76 35 18 36
REMARK SMILES IDX 19 37 20 38 70 39 21 40 75 41 69 42 71 43 22 44 74 45 68 46
REMARK SMILES IDX 67 47 23 49 55 50 35 51 54 52 36 53 39 54 53 55 72 56 37 57
REMARK SMILES IDX 38 58 52 60 73 61 40 62 24 63 25 64 33 65 26 66 32 67 34 68
REMARK SMILES IDX 31 69 27 70 28 71 29 72 30 73 56 74 57 75 65 76 58 77 64 78
REMARK SMILES IDX 66 79 63 80 59 81 60 82 61 83 62 84 41 85 42 86 50 87 43 88
REMARK SMILES IDX 49 89 51 90 48 91 44 92 45 93 46 94 47 95
REMARK H PARENT 8 6 4 13 4 14 12 29 71 48 39 59
REMARK Flexibility Score: inf
ROOT
ATOM      1  C   UNL     1      -3.366   5.039   3.587  1.00  0.00     0.042 C 
ENDROOT
BRANCH   1   2
ATOM      2  C   UNL     1      -1.909   4.665   3.365  1.00  0.00     0.118 C 
BRANCH   2   3
ATOM      3  N   UNL     1      -1.723   3.240   3.229  1.00  0.00    -0.351 N 
ATOM      4  C   UNL     1      -1.538   2.404   2.176  1.00  0.00     0.281 C 
ATOM      5  O   UNL     1      -1.467   1.211   2.514  1.00  0.00    -0.268 OA
ATOM      6  H   UNL     1      -1.733   2.768   4.093  1.00  0.00     0.163 HD
BRANCH   4   7
ATOM      7  C   UNL     1      -1.464   2.830   0.645  1.00  0.00     0.179 C 
ATOM      8  C   UNL     1      -0.709   4.105   0.271  1.00  0.00     0.083 C 
ATOM      9  C   UNL     1      -2.900   3.054   0.112  1.00  0.00     0.124 C 
ATOM     10  C   UNL     1      -1.721   5.195  -0.032  1.00  0.00     0.052 C 
ATOM     11  C   UNL     1      -3.058   4.527  -0.320  1.00  0.00     0.180 C 
BRANCH   7  12
ATOM     12  N   UNL     1      -0.857   1.687  -0.113  1.00  0.00    -0.332 N 
ATOM     13  H   UNL     1      -1.446   0.869   0.040  1.00  0.00     0.347 HD
ATOM     14  H   UNL     1      -0.807   2.008  -1.080  1.00  0.00     0.347 HD
BRANCH  12  15
ATOM     15  C   UNL     1       0.523   1.312   0.236  1.00  0.00     0.176 C 
ATOM     16  C   UNL     1       0.638  -0.208   0.089  1.00  0.00     0.075 C 
ATOM     17  C   UNL     1       1.569   1.975  -0.667  1.00  0.00     0.075 C 
ENDBRANCH  12  15
ENDBRANCH   7  12
BRANCH  11  18
ATOM     18  O   UNL     1      -4.214   5.024   0.354  1.00  0.00    -0.487 OA
BRANCH  18  19
ATOM     19  C   UNL     1      -4.490   6.337   0.585  1.00  0.00     0.155 A 
ATOM     20  C   UNL     1      -3.777   7.440   0.124  1.00  0.00     0.049 A 
ATOM     21  C   UNL     1      -5.561   6.560   1.464  1.00  0.00     0.165 A 
ATOM     22  C   UNL     1      -4.037   8.714   0.648  1.00  0.00     0.004 A 
ATOM     23  C   UNL     1      -5.842   7.825   1.968  1.00  0.00     0.043 A 
ATOM     24  F   UNL     1      -6.285   5.521   1.908  1.00  0.00    -0.203 F 
ATOM     25  C   UNL     1      -5.055   8.905   1.583  1.00  0.00     0.003 A 
ENDBRANCH  18  19
ENDBRANCH  11  18
ENDBRANCH   4   7
ENDBRANCH   2   3
ENDBRANCH   1   2
BRANCH   1  26
ATOM     26  C   UNL     1      -3.759   5.114   5.057  1.00  0.00     0.118 C 
BRANCH  26  27
ATOM     27  N   UNL     1      -3.248   6.334   5.675  1.00  0.00    -0.352 N 
ATOM     28  C   UNL     1      -3.860   7.531   5.963  1.00  0.00     0.251 C 
ATOM     29  H   UNL     1      -2.298   6.291   5.931  1.00  0.00     0.163 HD
ATOM     30  O   UNL     1      -3.144   8.512   6.162  1.00  0.00    -0.269 OA
BRANCH  28  31
ATOM     31  C   UNL     1      -5.338   7.672   6.038  1.00  0.00     0.039 A 
ATOM     32  C   UNL     1      -5.913   8.920   5.763  1.00  0.00     0.014 A 
ATOM     33  C   UNL     1      -6.160   6.630   6.465  1.00  0.00     0.014 A 
ATOM     34  C   UNL     1      -7.299   9.102   5.871  1.00  0.00     0.010 A 
ATOM     35  C   UNL     1      -7.547   6.781   6.473  1.00  0.00     0.010 A 
ATOM     36  C   UNL     1      -8.134   8.024   6.200  1.00  0.00    -0.014 A 
BRANCH  36  37
ATOM     37  C   UNL     1      -9.612   8.175   6.318  1.00  0.00     0.031 A 
ATOM     38  C   UNL     1     -10.296   7.883   7.631  1.00  0.00     0.074 A 
ATOM     39  C   UNL     1     -10.349   8.494   5.236  1.00  0.00     0.049 A 
ATOM     40  N   UNL     1     -11.574   7.829   7.910  1.00  0.00    -0.248 NA
ATOM     41  C   UNL     1      -9.422   7.574   8.772  1.00  0.00     0.031 C 
ATOM     42  C   UNL     1      -9.816   8.769   3.901  1.00  0.00     0.029 A 
ATOM     43  N   UNL     1     -11.707   8.627   5.081  1.00  0.00    -0.354 N 
ATOM     44  C   UNL     1     -11.656   7.447   9.247  1.00  0.00     0.074 A 
ATOM     45  C   UNL     1     -10.300   7.224   9.699  1.00  0.00     0.031 C 
ATOM     46  C   UNL     1     -10.830   9.056   3.070  1.00  0.00     0.029 A 
ATOM     47  C   UNL     1     -12.090   8.940   3.797  1.00  0.00     0.049 A 
ATOM     48  H   UNL     1     -12.347   8.509   5.820  1.00  0.00     0.167 HD
ATOM     49  C   UNL     1     -12.757   7.319  10.031  1.00  0.00     0.034 A 
ATOM     50  C   UNL     1     -13.316   9.101   3.260  1.00  0.00     0.034 A 
ATOM     51  C   UNL     1     -14.101   7.572   9.571  1.00  0.00     0.049 A 
ATOM     52  C   UNL     1     -14.527   8.937   4.143  1.00  0.00     0.074 A 
ATOM     53  C   UNL     1     -15.281   7.544  10.295  1.00  0.00     0.029 A 
ATOM     54  N   UNL     1     -14.447   7.895   8.264  1.00  0.00    -0.354 N 
ATOM     55  N   UNL     1     -14.585   8.624   5.418  1.00  0.00    -0.248 NA
ATOM     56  C   UNL     1     -15.836   9.157   3.516  1.00  0.00     0.031 C 
ATOM     57  C   UNL     1     -16.343   7.781   9.414  1.00  0.00     0.029 A 
ATOM     58  C   UNL     1     -15.823   8.035   8.155  1.00  0.00     0.049 A 
ATOM     59  H   UNL     1     -13.808   8.007   7.524  1.00  0.00     0.167 HD
ATOM     60  C   UNL     1     -15.936   8.643   5.751  1.00  0.00     0.074 A 
ATOM     61  C   UNL     1     -16.655   9.009   4.547  1.00  0.00     0.031 C 
ATOM     62  C   UNL     1     -16.529   8.389   6.946  1.00  0.00     0.034 A 
BRANCH  49  63
ATOM     63  C   UNL     1     -12.544   6.859  11.457  1.00  0.00     0.023 A 
ATOM     64  C   UNL     1     -11.770   7.600  12.367  1.00  0.00     0.031 A 
ATOM     65  C   UNL     1     -13.086   5.639  11.901  1.00  0.00     0.131 A 
ATOM     66  C   UNL     1     -11.478   7.073  13.635  1.00  0.00     0.055 A 
ATOM     67  C   UNL     1     -12.869   5.164  13.197  1.00  0.00     0.041 A 
ATOM     68  F   UNL     1     -13.820   4.876  11.077  1.00  0.00    -0.206 F 
ATOM     69  C   UNL     1     -12.044   5.872  14.066  1.00  0.00     0.022 A 
BRANCH  66  70
ATOM     70  S   UNL     1     -10.214   7.897  14.642  1.00  0.00     0.124 S 
ATOM     71  O   UNL     1      -9.056   7.857  13.752  1.00  0.00    -0.237 OA
ATOM     72  O   UNL     1     -10.800   9.210  14.872  1.00  0.00    -0.237 OA
ATOM     73  O   UNL     1     -10.109   7.042  15.825  1.00  0.00    -0.744 OA
ENDBRANCH  66  70
ENDBRANCH  49  63
BRANCH  50  74
ATOM     74  C   UNL     1     -13.467   9.436   1.816  1.00  0.00     0.023 A 
ATOM     75  C   UNL     1     -13.993  10.675   1.416  1.00  0.00     0.031 A 
ATOM     76  C   UNL     1     -13.115   8.514   0.814  1.00  0.00     0.131 A 
ATOM     77  C   UNL     1     -14.189  10.946   0.053  1.00  0.00     0.055 A 
ATOM     78  C   UNL     1     -13.266   8.807  -0.543  1.00  0.00     0.041 A 
ATOM     79  F   UNL     1     -12.602   7.318   1.142  1.00  0.00    -0.206 F 
ATOM     80  C   UNL     1     -13.817  10.025  -0.929  1.00  0.00     0.022 A 
BRANCH  77  81
ATOM     81  S   UNL     1     -15.002  12.497  -0.415  1.00  0.00     0.124 S 
ATOM     82  O   UNL     1     -16.287  12.376   0.264  1.00  0.00    -0.237 OA
ATOM     83  O   UNL     1     -14.084  13.495   0.122  1.00  0.00    -0.237 OA
ATOM     84  O   UNL     1     -15.057  12.426  -1.874  1.00  0.00    -0.744 OA
ENDBRANCH  77  81
ENDBRANCH  50  74
BRANCH  62  85
ATOM     85  C   UNL     1     -18.029   8.548   7.015  1.00  0.00     0.023 A 
ATOM     86  C   UNL     1     -18.899   7.692   6.317  1.00  0.00     0.031 A 
ATOM     87  C   UNL     1     -18.593   9.582   7.783  1.00  0.00     0.131 A 
ATOM     88  C   UNL     1     -20.283   7.920   6.357  1.00  0.00     0.055 A 
ATOM     89  C   UNL     1     -19.973   9.765   7.869  1.00  0.00     0.041 A 
ATOM     90  F   UNL     1     -17.809  10.431   8.467  1.00  0.00    -0.206 F 
ATOM     91  C   UNL     1     -20.826   8.940   7.143  1.00  0.00     0.022 A 
BRANCH  88  92
ATOM     92  S   UNL     1     -21.362   6.922   5.294  1.00  0.00     0.124 S 
ATOM     93  O   UNL     1     -20.829   7.209   3.966  1.00  0.00    -0.237 OA
ATOM     94  O   UNL     1     -21.132   5.571   5.795  1.00  0.00    -0.237 OA
ATOM     95  O   UNL     1     -22.696   7.460   5.556  1.00  0.00    -0.744 OA
ENDBRANCH  88  92
ENDBRANCH  62  85
ENDBRANCH  36  37
ENDBRANCH  28  31
ENDBRANCH  26  27
ENDBRANCH   1  26
TORSDOF 17
