REMARK SMILES COc1ccc(-n2c(SCc3cn(-c4ccc(C(=O)NCCCNC(=O)c5ccc(-c6c7nc(c(-c8cc(S(=O)(=O)[O-])ccc8F)c8ccc([nH]8)c(-c8cc(S(=O)(=O)[O-])ccc8F)c8nc(c(-c9cc(S(=O)(=O)[O-])ccc9F)c9ccc6[nH]9)C=C8)C=C7)cc5)cc4)nn3)nc3ccccc3c2=O)cc1
REMARK SMILES IDX 18 1 19 2 20 3 17 5 14 6 15 7 91 8 16 9 90 10 13 11 11 12
REMARK SMILES IDX 12 13 93 14 92 15 10 16 9 17 8 18 7 19 101 20 94 21 100 22
REMARK SMILES IDX 102 23 95 24 99 25 96 26 98 27 97 28 6 29 3 30 4 31 104 32
REMARK SMILES IDX 5 33 103 34 2 35 1 36 21 37 22 38 23 39 24 40 25 41 26 43
REMARK SMILES IDX 27 44 28 45 89 46 29 47 88 48 30 49 31 50 32 51 82 52 33 53
REMARK SMILES IDX 87 54 81 55 83 56 34 57 86 58 80 59 79 60 35 62 67 63 47 64
REMARK SMILES IDX 66 65 48 66 51 67 65 68 84 69 49 70 50 71 64 73 85 74 52 75
REMARK SMILES IDX 36 76 37 77 45 78 38 79 44 80 46 81 43 82 39 83 40 84 41 85
REMARK SMILES IDX 42 86 68 87 69 88 77 89 70 90 76 91 78 92 75 93 71 94 72 95
REMARK SMILES IDX 73 96 74 97 53 98 54 99 62 100 55 101 61 102 63 103 60 104
REMARK SMILES IDX 56 105 57 106 58 107 59 108
REMARK H PARENT 20 4 24 42 83 61 51 72
REMARK Flexibility Score: inf
ROOT
ATOM      1  C   UNL     1      -1.015  -8.711   2.564  1.00  0.00     0.251 C 
ATOM      2  O   UNL     1      -1.768  -9.076   1.665  1.00  0.00    -0.269 OA
ATOM      3  N   UNL     1      -0.567  -9.644   3.470  1.00  0.00    -0.352 N 
ATOM      4  H   UNL     1      -0.963 -10.538   3.350  1.00  0.00     0.163 HD
ENDROOT
BRANCH   1   5
ATOM      5  C   UNL     1      -0.553  -7.298   2.578  1.00  0.00     0.039 A 
ATOM      6  C   UNL     1       0.711  -4.836   2.400  1.00  0.00     0.066 A 
ATOM      7  C   UNL     1       0.089  -5.351   1.266  1.00  0.00     0.029 A 
ATOM      8  C   UNL     1       0.559  -5.446   3.646  1.00  0.00     0.029 A 
ATOM      9  C   UNL     1      -0.517  -6.605   1.356  1.00  0.00     0.016 A 
ATOM     10  C   UNL     1      -0.117  -6.650   3.731  1.00  0.00     0.016 A 
BRANCH   6  11
ATOM     11  N   UNL     1       1.617  -3.778   2.284  1.00  0.00    -0.220 N 
ATOM     12  C   UNL     1       3.319  -2.474   2.591  1.00  0.00     0.093 A 
ATOM     13  C   UNL     1       2.738  -3.628   3.047  1.00  0.00     0.141 A 
ATOM     14  N   UNL     1       2.596  -2.002   1.534  1.00  0.00    -0.134 NA
ATOM     15  N   UNL     1       1.589  -2.841   1.316  1.00  0.00    -0.062 NA
BRANCH  12  16
ATOM     16  C   UNL     1       4.543  -1.808   3.055  1.00  0.00     0.138 C 
BRANCH  16  17
ATOM     17  S   UNL     1       5.011  -2.259   4.728  1.00  0.00    -0.081 SA
BRANCH  17  18
ATOM     18  C   UNL     1       3.484  -2.103   5.690  1.00  0.00     0.176 A 
ATOM     19  N   UNL     1       3.179  -0.792   5.983  1.00  0.00    -0.255 N 
ATOM     20  C   UNL     1       3.785  -0.267   7.115  1.00  0.00     0.266 A 
ATOM     21  N   UNL     1       3.338  -2.990   6.630  1.00  0.00    -0.223 NA
ATOM     22  C   UNL     1       4.536  -1.293   7.913  1.00  0.00     0.066 A 
ATOM     23  O   UNL     1       3.790   0.909   7.460  1.00  0.00    -0.268 OA
ATOM     24  C   UNL     1       4.175  -2.645   7.719  1.00  0.00     0.079 A 
ATOM     25  C   UNL     1       5.703  -0.972   8.601  1.00  0.00     0.016 A 
ATOM     26  C   UNL     1       4.896  -3.660   8.343  1.00  0.00     0.029 A 
ATOM     27  C   UNL     1       6.488  -2.007   9.120  1.00  0.00     0.001 A 
ATOM     28  C   UNL     1       6.068  -3.339   9.025  1.00  0.00     0.002 A 
BRANCH  19  29
ATOM     29  C   UNL     1       2.348  -0.065   5.104  1.00  0.00     0.052 A 
ATOM     30  C   UNL     1       0.919   0.848   2.892  1.00  0.00     0.119 A 
ATOM     31  C   UNL     1       0.294   0.004   3.805  1.00  0.00     0.048 A 
ATOM     32  C   UNL     1       2.204   1.332   3.141  1.00  0.00     0.048 A 
ATOM     33  C   UNL     1       1.022  -0.481   4.895  1.00  0.00     0.030 A 
ATOM     34  C   UNL     1       2.907   0.904   4.270  1.00  0.00     0.030 A 
BRANCH  30  35
ATOM     35  O   UNL     1       0.245   1.234   1.766  1.00  0.00    -0.497 OA
ATOM     36  C   UNL     1       0.717   0.509   0.623  1.00  0.00     0.278 C 
ENDBRANCH  30  35
ENDBRANCH  19  29
ENDBRANCH  17  18
ENDBRANCH  16  17
ENDBRANCH  12  16
ENDBRANCH   6  11
ENDBRANCH   1   5
BRANCH   3  37
ATOM     37  C   UNL     1       0.385  -9.563   4.573  1.00  0.00     0.118 C 
BRANCH  37  38
ATOM     38  C   UNL     1      -0.301  -9.241   5.911  1.00  0.00     0.042 C 
BRANCH  38  39
ATOM     39  C   UNL     1      -0.897 -10.468   6.564  1.00  0.00     0.118 C 
BRANCH  39  40
ATOM     40  N   UNL     1       0.120 -11.368   7.116  1.00  0.00    -0.352 N 
ATOM     41  C   UNL     1      -0.066 -12.618   7.702  1.00  0.00     0.251 C 
ATOM     42  H   UNL     1       1.050 -11.050   7.067  1.00  0.00     0.163 HD
ATOM     43  O   UNL     1       0.770 -13.093   8.441  1.00  0.00    -0.269 OA
BRANCH  41  44
ATOM     44  C   UNL     1      -1.317 -13.334   7.383  1.00  0.00     0.039 A 
ATOM     45  C   UNL     1      -2.054 -14.058   8.323  1.00  0.00     0.014 A 
ATOM     46  C   UNL     1      -1.786 -13.166   6.091  1.00  0.00     0.014 A 
ATOM     47  C   UNL     1      -3.306 -14.545   7.944  1.00  0.00     0.010 A 
ATOM     48  C   UNL     1      -3.111 -13.342   5.850  1.00  0.00     0.010 A 
ATOM     49  C   UNL     1      -3.827 -14.167   6.698  1.00  0.00    -0.014 A 
BRANCH  49  50
ATOM     50  C   UNL     1      -5.141 -14.557   6.215  1.00  0.00     0.031 A 
ATOM     51  C   UNL     1      -6.265 -14.164   7.096  1.00  0.00     0.074 A 
ATOM     52  C   UNL     1      -5.331 -14.968   4.938  1.00  0.00     0.049 A 
ATOM     53  N   UNL     1      -6.987 -14.939   7.831  1.00  0.00    -0.248 NA
ATOM     54  C   UNL     1      -6.511 -12.732   7.330  1.00  0.00     0.031 C 
ATOM     55  C   UNL     1      -4.354 -15.080   3.842  1.00  0.00     0.029 A 
ATOM     56  N   UNL     1      -6.495 -15.241   4.302  1.00  0.00    -0.354 N 
ATOM     57  C   UNL     1      -7.954 -14.124   8.405  1.00  0.00     0.074 A 
ATOM     58  C   UNL     1      -7.462 -12.780   8.266  1.00  0.00     0.031 C 
ATOM     59  C   UNL     1      -5.000 -15.122   2.656  1.00  0.00     0.029 A 
ATOM     60  C   UNL     1      -6.424 -15.229   2.912  1.00  0.00     0.049 A 
ATOM     61  H   UNL     1      -7.330 -15.432   4.787  1.00  0.00     0.167 HD
ATOM     62  C   UNL     1      -9.194 -14.608   8.701  1.00  0.00     0.034 A 
ATOM     63  C   UNL     1      -7.472 -15.267   2.044  1.00  0.00     0.034 A 
ATOM     64  C   UNL     1      -9.219 -16.054   8.607  1.00  0.00     0.049 A 
ATOM     65  C   UNL     1      -8.611 -15.846   2.809  1.00  0.00     0.074 A 
ATOM     66  C   UNL     1      -8.486 -17.070   9.193  1.00  0.00     0.029 A 
ATOM     67  N   UNL     1      -9.789 -16.619   7.484  1.00  0.00    -0.354 N 
ATOM     68  N   UNL     1      -8.599 -17.067   3.280  1.00  0.00    -0.248 NA
ATOM     69  C   UNL     1      -9.494 -14.925   3.514  1.00  0.00     0.031 C 
ATOM     70  C   UNL     1      -8.206 -17.972   8.122  1.00  0.00     0.029 A 
ATOM     71  C   UNL     1      -8.877 -17.519   6.983  1.00  0.00     0.049 A 
ATOM     72  H   UNL     1     -10.678 -16.418   7.113  1.00  0.00     0.167 HD
ATOM     73  C   UNL     1      -9.107 -16.965   4.569  1.00  0.00     0.074 A 
ATOM     74  C   UNL     1      -9.723 -15.636   4.625  1.00  0.00     0.031 C 
ATOM     75  C   UNL     1      -8.715 -17.814   5.569  1.00  0.00     0.034 A 
BRANCH  62  76
ATOM     76  C   UNL     1     -10.469 -13.797   8.713  1.00  0.00     0.023 A 
ATOM     77  C   UNL     1     -11.643 -14.458   9.119  1.00  0.00     0.031 A 
ATOM     78  C   UNL     1     -10.654 -12.538   8.099  1.00  0.00     0.131 A 
ATOM     79  C   UNL     1     -12.911 -13.929   8.823  1.00  0.00     0.055 A 
ATOM     80  C   UNL     1     -11.915 -11.981   7.873  1.00  0.00     0.041 A 
ATOM     81  F   UNL     1      -9.644 -11.821   7.594  1.00  0.00    -0.206 F 
ATOM     82  C   UNL     1     -13.055 -12.691   8.204  1.00  0.00     0.022 A 
BRANCH  79  83
ATOM     83  S   UNL     1     -14.361 -14.980   9.092  1.00  0.00     0.124 S 
ATOM     84  O   UNL     1     -13.988 -16.189   8.366  1.00  0.00    -0.237 OA
ATOM     85  O   UNL     1     -14.388 -15.085  10.547  1.00  0.00    -0.237 OA
ATOM     86  O   UNL     1     -15.451 -14.208   8.502  1.00  0.00    -0.744 OA
ENDBRANCH  79  83
ENDBRANCH  62  76
BRANCH  63  87
ATOM     87  C   UNL     1      -7.605 -14.507   0.764  1.00  0.00     0.023 A 
ATOM     88  C   UNL     1      -8.557 -14.824  -0.231  1.00  0.00     0.031 A 
ATOM     89  C   UNL     1      -6.919 -13.279   0.603  1.00  0.00     0.131 A 
ATOM     90  C   UNL     1      -8.782 -13.940  -1.318  1.00  0.00     0.055 A 
ATOM     91  C   UNL     1      -7.144 -12.412  -0.470  1.00  0.00     0.041 A 
ATOM     92  F   UNL     1      -6.061 -12.834   1.534  1.00  0.00    -0.206 F 
ATOM     93  C   UNL     1      -8.085 -12.735  -1.433  1.00  0.00     0.022 A 
BRANCH  90  94
ATOM     94  S   UNL     1     -10.063 -14.300  -2.567  1.00  0.00     0.124 S 
ATOM     95  O   UNL     1      -9.472 -15.408  -3.307  1.00  0.00    -0.237 OA
ATOM     96  O   UNL     1     -11.226 -14.616  -1.745  1.00  0.00    -0.237 OA
ATOM     97  O   UNL     1     -10.171 -13.048  -3.318  1.00  0.00    -0.744 OA
ENDBRANCH  90  94
ENDBRANCH  63  87
BRANCH  75  98
ATOM     98  C   UNL     1      -7.873 -19.031   5.220  1.00  0.00     0.023 A 
ATOM     99  C   UNL     1      -6.619 -18.995   4.563  1.00  0.00     0.031 A 
ATOM    100  C   UNL     1      -8.299 -20.273   5.725  1.00  0.00     0.131 A 
ATOM    101  C   UNL     1      -5.853 -20.173   4.430  1.00  0.00     0.055 A 
ATOM    102  C   UNL     1      -7.530 -21.430   5.612  1.00  0.00     0.041 A 
ATOM    103  F   UNL     1      -9.465 -20.374   6.385  1.00  0.00    -0.206 F 
ATOM    104  C   UNL     1      -6.304 -21.386   4.959  1.00  0.00     0.022 A 
BRANCH 101 105
ATOM    105  S   UNL     1      -4.252 -20.159   3.553  1.00  0.00     0.124 S 
ATOM    106  O   UNL     1      -4.544 -19.434   2.322  1.00  0.00    -0.237 OA
ATOM    107  O   UNL     1      -3.375 -19.480   4.502  1.00  0.00    -0.237 OA
ATOM    108  O   UNL     1      -3.955 -21.581   3.365  1.00  0.00    -0.744 OA
ENDBRANCH 101 105
ENDBRANCH  75  98
ENDBRANCH  49  50
ENDBRANCH  41  44
ENDBRANCH  39  40
ENDBRANCH  38  39
ENDBRANCH  37  38
ENDBRANCH   3  37
TORSDOF 19
