REMARK SMILES CC(=O)N[C@H](CC(=O)NCC(=O)NCCCNC(=O)c1ccc(-c2c3nc(c(-c4cc(S(=O)(=O)[O-])ccc4F)c4ccc([nH]4)c(-c4cc(S(=O)(=O)[O-])ccc4F)c4nc(c(-c5cc(S(=O)(=O)[O-])ccc5F)c5ccc2[nH]5)C=C4)C=C3)cc1)c1cccs1
REMARK SMILES IDX 14 1 13 2 11 3 12 4 10 6 9 7 7 8 8 9 6 11 5 12 4 13 1 14
REMARK SMILES IDX 2 15 3 16 83 18 84 19 87 20 85 21 86 22 15 23 16 24 17 25
REMARK SMILES IDX 18 26 19 28 20 29 21 30 82 31 22 32 81 33 23 34 24 35 25 36
REMARK SMILES IDX 75 37 26 38 80 39 74 40 76 41 27 42 79 43 73 44 72 45 28 47
REMARK SMILES IDX 60 48 40 49 59 50 41 51 44 52 58 53 77 54 42 55 43 56 57 58
REMARK SMILES IDX 78 59 45 60 29 61 30 62 38 63 31 64 37 65 39 66 36 67 32 68
REMARK SMILES IDX 33 69 34 70 35 71 61 72 62 73 70 74 63 75 69 76 71 77 68 78
REMARK SMILES IDX 64 79 65 80 66 81 67 82 46 83 47 84 55 85 48 86 54 87 56 88
REMARK SMILES IDX 53 89 49 90 50 91 51 92 52 93
REMARK H PARENT 13 5 9 10 4 17 17 27 76 46 44 57
REMARK Flexibility Score: inf
ROOT
ATOM      1  C   UNL     1       0.596  -2.509   2.533  1.00  0.00     0.117 C 
ENDROOT
BRANCH   1   2
ATOM      2  N   UNL     1       0.583  -3.048   1.190  1.00  0.00    -0.355 N 
ATOM      3  C   UNL     1       0.728  -2.376   0.007  1.00  0.00     0.239 C 
ATOM      4  O   UNL     1       0.973  -3.033  -1.007  1.00  0.00    -0.273 OA
ATOM      5  H   UNL     1       0.453  -4.021   1.118  1.00  0.00     0.163 HD
BRANCH   3   6
ATOM      6  C   UNL     1       0.762  -0.838  -0.023  1.00  0.00     0.216 C 
BRANCH   6   7
ATOM      7  N   UNL     1      -0.334  -0.217   0.705  1.00  0.00    -0.347 N 
ATOM      8  C   UNL     1      -0.357   0.860   1.535  1.00  0.00     0.222 C 
ATOM      9  O   UNL     1      -1.452   1.212   1.973  1.00  0.00    -0.275 OA
ATOM     10  H   UNL     1      -1.208  -0.651   0.576  1.00  0.00     0.164 HD
BRANCH   8  11
ATOM     11  C   UNL     1       0.908   1.627   1.870  1.00  0.00     0.130 C 
BRANCH  11  12
ATOM     12  C   UNL     1       1.841   0.948   2.883  1.00  0.00     0.131 C 
BRANCH  12  13
ATOM     13  N   UNL     1       3.057   1.721   3.118  1.00  0.00    -0.348 N 
ATOM     14  C   UNL     1       4.219   1.074   1.036  1.00  0.00     0.114 C 
ATOM     15  C   UNL     1       4.185   1.793   2.358  1.00  0.00     0.217 C 
ATOM     16  O   UNL     1       5.147   2.449   2.753  1.00  0.00    -0.275 OA
ATOM     17  H   UNL     1       3.062   2.265   3.939  1.00  0.00     0.164 HD
ENDBRANCH  12  13
BRANCH  12  18
ATOM     18  C   UNL     1       1.256   0.637   4.249  1.00  0.00     0.027 A 
ATOM     19  C   UNL     1       1.635  -0.392   5.099  1.00  0.00     0.017 A 
ATOM     20  S   UNL     1       0.029   1.592   4.976  1.00  0.00    -0.147 S 
ATOM     21  C   UNL     1       0.844  -0.455   6.282  1.00  0.00     0.012 A 
ATOM     22  C   UNL     1      -0.092   0.551   6.325  1.00  0.00     0.065 A 
ENDBRANCH  12  18
ENDBRANCH  11  12
ENDBRANCH   8  11
ENDBRANCH   6   7
ENDBRANCH   3   6
ENDBRANCH   1   2
BRANCH   1  23
ATOM     23  C   UNL     1      -0.665  -2.800   3.325  1.00  0.00     0.042 C 
BRANCH  23  24
ATOM     24  C   UNL     1      -0.623  -4.144   4.037  1.00  0.00     0.118 C 
BRANCH  24  25
ATOM     25  N   UNL     1       0.424  -4.212   5.053  1.00  0.00    -0.352 N 
ATOM     26  C   UNL     1       0.362  -4.258   6.426  1.00  0.00     0.251 C 
ATOM     27  H   UNL     1       1.339  -4.228   4.689  1.00  0.00     0.163 HD
ATOM     28  O   UNL     1       1.394  -4.081   7.065  1.00  0.00    -0.269 OA
BRANCH  26  29
ATOM     29  C   UNL     1      -0.920  -4.489   7.133  1.00  0.00     0.039 A 
ATOM     30  C   UNL     1      -1.138  -3.872   8.370  1.00  0.00     0.014 A 
ATOM     31  C   UNL     1      -1.893  -5.341   6.611  1.00  0.00     0.014 A 
ATOM     32  C   UNL     1      -2.356  -4.047   9.035  1.00  0.00     0.010 A 
ATOM     33  C   UNL     1      -3.142  -5.426   7.215  1.00  0.00     0.010 A 
ATOM     34  C   UNL     1      -3.386  -4.792   8.441  1.00  0.00    -0.014 A 
BRANCH  34  35
ATOM     35  C   UNL     1      -4.713  -4.974   9.087  1.00  0.00     0.031 A 
ATOM     36  C   UNL     1      -5.198  -6.365   9.404  1.00  0.00     0.074 A 
ATOM     37  C   UNL     1      -5.519  -3.913   9.292  1.00  0.00     0.049 A 
ATOM     38  N   UNL     1      -6.385  -6.769   9.779  1.00  0.00    -0.248 NA
ATOM     39  C   UNL     1      -4.224  -7.453   9.225  1.00  0.00     0.031 C 
ATOM     40  C   UNL     1      -5.181  -2.520   8.994  1.00  0.00     0.029 A 
ATOM     41  N   UNL     1      -6.800  -3.845   9.780  1.00  0.00    -0.354 N 
ATOM     42  C   UNL     1      -6.310  -8.157   9.840  1.00  0.00     0.074 A 
ATOM     43  C   UNL     1      -4.980  -8.524   9.403  1.00  0.00     0.031 C 
ATOM     44  C   UNL     1      -6.220  -1.735   9.322  1.00  0.00     0.029 A 
ATOM     45  C   UNL     1      -7.317  -2.570   9.802  1.00  0.00     0.049 A 
ATOM     46  H   UNL     1      -7.303  -4.634  10.087  1.00  0.00     0.167 HD
ATOM     47  C   UNL     1      -7.255  -9.042  10.245  1.00  0.00     0.034 A 
ATOM     48  C   UNL     1      -8.542  -2.127  10.148  1.00  0.00     0.034 A 
ATOM     49  C   UNL     1      -8.561  -8.653  10.718  1.00  0.00     0.049 A 
ATOM     50  C   UNL     1      -9.575  -3.126  10.602  1.00  0.00     0.074 A 
ATOM     51  C   UNL     1      -9.575  -9.456  11.213  1.00  0.00     0.029 A 
ATOM     52  N   UNL     1      -9.034  -7.347  10.758  1.00  0.00    -0.354 N 
ATOM     53  N   UNL     1      -9.482  -4.434  10.683  1.00  0.00    -0.248 NA
ATOM     54  C   UNL     1     -10.876  -2.588  11.021  1.00  0.00     0.031 C 
ATOM     55  C   UNL     1     -10.678  -8.643  11.500  1.00  0.00     0.029 A 
ATOM     56  C   UNL     1     -10.330  -7.325  11.251  1.00  0.00     0.049 A 
ATOM     57  H   UNL     1      -8.524  -6.554  10.478  1.00  0.00     0.167 HD
ATOM     58  C   UNL     1     -10.702  -4.870  11.191  1.00  0.00     0.074 A 
ATOM     59  C   UNL     1     -11.507  -3.686  11.410  1.00  0.00     0.031 C 
ATOM     60  C   UNL     1     -11.120  -6.134  11.458  1.00  0.00     0.034 A 
BRANCH  47  61
ATOM     61  C   UNL     1      -6.908 -10.511  10.172  1.00  0.00     0.023 A 
ATOM     62  C   UNL     1      -5.847 -11.058  10.914  1.00  0.00     0.031 A 
ATOM     63  C   UNL     1      -7.620 -11.370   9.315  1.00  0.00     0.131 A 
ATOM     64  C   UNL     1      -5.469 -12.395  10.718  1.00  0.00     0.055 A 
ATOM     65  C   UNL     1      -7.296 -12.723   9.193  1.00  0.00     0.041 A 
ATOM     66  F   UNL     1      -8.631 -10.904   8.565  1.00  0.00    -0.206 F 
ATOM     67  C   UNL     1      -6.203 -13.239   9.883  1.00  0.00     0.022 A 
BRANCH  64  68
ATOM     68  S   UNL     1      -3.909 -12.966  11.447  1.00  0.00     0.124 S 
ATOM     69  O   UNL     1      -2.945 -12.063  10.822  1.00  0.00    -0.237 OA
ATOM     70  O   UNL     1      -4.136 -12.770  12.874  1.00  0.00    -0.237 OA
ATOM     71  O   UNL     1      -3.818 -14.359  11.014  1.00  0.00    -0.744 OA
ENDBRANCH  64  68
ENDBRANCH  47  61
BRANCH  48  72
ATOM     72  C   UNL     1      -8.870  -0.675  10.073  1.00  0.00     0.023 A 
ATOM     73  C   UNL     1      -9.152   0.059  11.236  1.00  0.00     0.031 A 
ATOM     74  C   UNL     1      -8.948  -0.009   8.837  1.00  0.00     0.131 A 
ATOM     75  C   UNL     1      -9.544   1.403  11.137  1.00  0.00     0.055 A 
ATOM     76  C   UNL     1      -9.289   1.342   8.748  1.00  0.00     0.041 A 
ATOM     77  F   UNL     1      -8.682  -0.663   7.695  1.00  0.00    -0.206 F 
ATOM     78  C   UNL     1      -9.603   2.053   9.903  1.00  0.00     0.022 A 
BRANCH  75  79
ATOM     79  S   UNL     1     -10.057   2.268  12.647  1.00  0.00     0.124 S 
ATOM     80  O   UNL     1     -11.155   1.429  13.112  1.00  0.00    -0.237 OA
ATOM     81  O   UNL     1      -8.837   2.230  13.446  1.00  0.00    -0.237 OA
ATOM     82  O   UNL     1     -10.443   3.593  12.165  1.00  0.00    -0.744 OA
ENDBRANCH  75  79
ENDBRANCH  48  72
BRANCH  60  83
ATOM     83  C   UNL     1     -12.491  -6.287  12.066  1.00  0.00     0.023 A 
ATOM     84  C   UNL     1     -13.659  -5.988  11.344  1.00  0.00     0.031 A 
ATOM     85  C   UNL     1     -12.627  -6.727  13.395  1.00  0.00     0.131 A 
ATOM     86  C   UNL     1     -14.911  -6.082  11.971  1.00  0.00     0.055 A 
ATOM     87  C   UNL     1     -13.877  -6.874  13.995  1.00  0.00     0.041 A 
ATOM     88  F   UNL     1     -11.543  -7.024  14.130  1.00  0.00    -0.206 F 
ATOM     89  C   UNL     1     -15.028  -6.538  13.287  1.00  0.00     0.022 A 
BRANCH  86  90
ATOM     90  S   UNL     1     -16.381  -5.516  11.073  1.00  0.00     0.124 S 
ATOM     91  O   UNL     1     -16.047  -4.124  10.791  1.00  0.00    -0.237 OA
ATOM     92  O   UNL     1     -16.406  -6.411   9.920  1.00  0.00    -0.237 OA
ATOM     93  O   UNL     1     -17.466  -5.712  12.032  1.00  0.00    -0.744 OA
ENDBRANCH  86  90
ENDBRANCH  60  83
ENDBRANCH  34  35
ENDBRANCH  26  29
ENDBRANCH  24  25
ENDBRANCH  23  24
ENDBRANCH   1  23
TORSDOF 18
