REMARK SMILES Cc1ccc(S(=O)(=O)n2cc(C(=O)C(=O)NCC(=O)N[C@H](Cc3c[nH]c4ccccc34)C(=O)NCCCNC(=O)c3ccc(-c4c5nc(c(-c6cc(S(=O)(=O)[O-])ccc6F)c6ccc([nH]6)c(-c6cc(S(=O)(=O)[O-])ccc6F)c6nc(c(-c7cc(S(=O)(=O)[O-])ccc7F)c7ccc4[nH]7)C=C6)C=C5)cc3)c3ccccc32)cc1
REMARK SMILES IDX 32 1 33 2 34 3 21 5 20 6 18 7 19 8 17 10 16 11 14 12 15 13
REMARK SMILES IDX 12 15 13 16 11 17 9 18 10 19 109 20 104 21 108 22 105 23
REMARK SMILES IDX 107 24 106 25 6 26 7 27 8 28 5 29 1 30 2 31 3 32 111 33 4 34
REMARK SMILES IDX 110 35 22 36 23 37 24 38 31 39 25 40 26 41 30 42 27 44 29 45
REMARK SMILES IDX 28 46 35 47 36 48 37 49 38 50 39 51 40 53 41 54 42 55 103 56
REMARK SMILES IDX 43 57 102 58 44 59 45 60 46 61 96 62 47 63 101 64 95 65
REMARK SMILES IDX 97 66 48 67 100 68 94 69 93 70 49 72 81 73 61 74 80 75 62 76
REMARK SMILES IDX 65 77 79 78 98 79 63 80 64 81 78 83 99 84 66 85 50 86 51 87
REMARK SMILES IDX 59 88 52 89 58 90 60 91 57 92 53 93 54 94 55 95 56 96 82 97
REMARK SMILES IDX 83 98 91 99 84 100 90 101 92 102 89 103 85 104 86 105 87 106
REMARK SMILES IDX 88 107 67 108 68 109 76 110 69 111 75 112 77 113 74 114
REMARK SMILES IDX 70 115 71 116 72 117 73 118
REMARK H PARENT 34 4 20 9 16 14 25 43 38 52 97 71 65 82
REMARK Flexibility Score: inf
ROOT
ATOM      1  C   UNL     1      -9.246   0.620   4.034  1.00  0.00     0.242 C 
ATOM      2  O   UNL     1      -8.664  -0.466   3.915  1.00  0.00    -0.273 OA
ATOM      3  N   UNL     1      -9.361   1.135   5.280  1.00  0.00    -0.354 N 
ATOM      4  H   UNL     1      -8.932   0.577   5.968  1.00  0.00     0.163 HD
ENDROOT
BRANCH   1   5
ATOM      5  C   UNL     1      -9.801   1.294   2.764  1.00  0.00     0.175 C 
BRANCH   5   6
ATOM      6  N   UNL     1      -9.315   2.682   2.724  1.00  0.00    -0.342 N 
ATOM      7  C   UNL     1      -8.066   3.172   2.506  1.00  0.00     0.240 C 
ATOM      8  O   UNL     1      -7.944   4.401   2.592  1.00  0.00    -0.273 OA
ATOM      9  H   UNL     1     -10.005   3.365   2.881  1.00  0.00     0.164 HD
BRANCH   7  10
ATOM     10  C   UNL     1      -6.904   2.319   1.957  1.00  0.00     0.216 C 
BRANCH  10  11
ATOM     11  N   UNL     1      -6.781   0.904   2.287  1.00  0.00    -0.340 N 
ATOM     12  C   UNL     1      -6.471  -0.154   1.449  1.00  0.00     0.292 C 
ATOM     13  O   UNL     1      -6.280  -1.293   1.855  1.00  0.00    -0.265 OA
ATOM     14  H   UNL     1      -6.939   0.670   3.231  1.00  0.00     0.164 HD
BRANCH  12  15
ATOM     15  C   UNL     1      -6.363   0.102  -0.051  1.00  0.00     0.252 C 
ATOM     16  O   UNL     1      -5.503   0.899  -0.424  1.00  0.00    -0.283 OA
BRANCH  15  17
ATOM     17  C   UNL     1      -7.363  -0.450  -0.972  1.00  0.00     0.054 A 
ATOM     18  N   UNL     1      -8.757  -1.769  -2.163  1.00  0.00    -0.240 N 
ATOM     19  C   UNL     1      -7.794  -1.767  -1.157  1.00  0.00     0.117 A 
ATOM     20  C   UNL     1      -9.105  -0.431  -2.415  1.00  0.00     0.065 A 
ATOM     21  C   UNL     1      -8.041   0.336  -1.949  1.00  0.00     0.012 A 
ATOM     22  C   UNL     1     -10.103   0.122  -3.240  1.00  0.00     0.028 A 
ATOM     23  C   UNL     1      -7.870   1.640  -2.461  1.00  0.00     0.011 A 
ATOM     24  C   UNL     1      -9.875   1.385  -3.787  1.00  0.00     0.002 A 
ATOM     25  C   UNL     1      -8.752   2.120  -3.433  1.00  0.00     0.001 A 
BRANCH  18  26
ATOM     26  S   UNL     1      -8.653  -2.692  -3.643  1.00  0.00     0.268 S 
ATOM     27  O   UNL     1      -7.441  -2.188  -4.269  1.00  0.00    -0.201 OA
ATOM     28  O   UNL     1      -9.955  -2.463  -4.260  1.00  0.00    -0.201 OA
BRANCH  26  29
ATOM     29  C   UNL     1      -8.528  -4.441  -3.729  1.00  0.00     0.088 A 
ATOM     30  C   UNL     1      -8.693  -8.611  -4.845  1.00  0.00     0.044 C 
ATOM     31  C   UNL     1      -8.582  -7.171  -4.431  1.00  0.00    -0.051 A 
ATOM     32  C   UNL     1      -8.695  -6.208  -5.424  1.00  0.00     0.005 A 
ATOM     33  C   UNL     1      -8.429  -6.755  -3.089  1.00  0.00     0.005 A 
ATOM     34  C   UNL     1      -8.656  -4.871  -5.074  1.00  0.00     0.022 A 
ATOM     35  C   UNL     1      -8.405  -5.384  -2.724  1.00  0.00     0.022 A 
ENDBRANCH  26  29
ENDBRANCH  18  26
ENDBRANCH  15  17
ENDBRANCH  12  15
ENDBRANCH  10  11
ENDBRANCH   7  10
ENDBRANCH   5   6
BRANCH   5  36
ATOM     36  C   UNL     1     -11.323   1.240   2.509  1.00  0.00     0.072 C 
BRANCH  36  37
ATOM     37  C   UNL     1     -12.170   0.113   3.037  1.00  0.00    -0.020 A 
ATOM     38  C   UNL     1     -11.829  -0.908   3.898  1.00  0.00     0.087 A 
ATOM     39  C   UNL     1     -13.580  -0.066   2.767  1.00  0.00     0.003 A 
ATOM     40  N   UNL     1     -12.952  -1.608   4.233  1.00  0.00    -0.361 N 
ATOM     41  C   UNL     1     -14.045  -1.089   3.594  1.00  0.00     0.046 A 
ATOM     42  C   UNL     1     -14.516   0.567   1.918  1.00  0.00     0.010 A 
ATOM     43  H   UNL     1     -12.973  -2.378   4.847  1.00  0.00     0.166 HD
ATOM     44  C   UNL     1     -15.391  -1.461   3.681  1.00  0.00     0.026 A 
ATOM     45  C   UNL     1     -15.862   0.172   1.953  1.00  0.00     0.001 A 
ATOM     46  C   UNL     1     -16.294  -0.811   2.840  1.00  0.00     0.002 A 
ENDBRANCH  36  37
ENDBRANCH   5  36
ENDBRANCH   1   5
BRANCH   3  47
ATOM     47  C   UNL     1      -9.978   2.329   5.825  1.00  0.00     0.117 C 
BRANCH  47  48
ATOM     48  C   UNL     1     -11.436   2.139   6.221  1.00  0.00     0.042 C 
BRANCH  48  49
ATOM     49  C   UNL     1     -11.686   0.975   7.184  1.00  0.00     0.118 C 
BRANCH  49  50
ATOM     50  N   UNL     1     -12.247   1.414   8.462  1.00  0.00    -0.352 N 
ATOM     51  C   UNL     1     -12.898   0.685   9.444  1.00  0.00     0.251 C 
ATOM     52  H   UNL     1     -12.146   2.374   8.653  1.00  0.00     0.163 HD
ATOM     53  O   UNL     1     -13.263   1.199  10.482  1.00  0.00    -0.269 OA
BRANCH  51  54
ATOM     54  C   UNL     1     -13.027  -0.780   9.267  1.00  0.00     0.039 A 
ATOM     55  C   UNL     1     -12.447  -1.594  10.246  1.00  0.00     0.014 A 
ATOM     56  C   UNL     1     -13.528  -1.333   8.092  1.00  0.00     0.014 A 
ATOM     57  C   UNL     1     -12.136  -2.915   9.940  1.00  0.00     0.010 A 
ATOM     58  C   UNL     1     -13.187  -2.637   7.774  1.00  0.00     0.010 A 
ATOM     59  C   UNL     1     -12.411  -3.392   8.657  1.00  0.00    -0.014 A 
BRANCH  59  60
ATOM     60  C   UNL     1     -11.752  -4.577   8.115  1.00  0.00     0.031 A 
ATOM     61  C   UNL     1     -12.433  -5.881   8.061  1.00  0.00     0.074 A 
ATOM     62  C   UNL     1     -10.468  -4.496   7.699  1.00  0.00     0.049 A 
ATOM     63  N   UNL     1     -11.838  -7.010   8.258  1.00  0.00    -0.248 NA
ATOM     64  C   UNL     1     -13.861  -6.010   7.801  1.00  0.00     0.031 C 
ATOM     65  C   UNL     1      -9.688  -5.527   7.019  1.00  0.00     0.029 A 
ATOM     66  N   UNL     1      -9.530  -3.529   8.059  1.00  0.00    -0.354 N 
ATOM     67  C   UNL     1     -12.711  -8.004   7.893  1.00  0.00     0.074 A 
ATOM     68  C   UNL     1     -13.979  -7.337   7.685  1.00  0.00     0.031 C 
ATOM     69  C   UNL     1      -8.385  -5.297   7.241  1.00  0.00     0.029 A 
ATOM     70  C   UNL     1      -8.289  -4.180   8.164  1.00  0.00     0.049 A 
ATOM     71  H   UNL     1      -9.704  -2.572   8.211  1.00  0.00     0.167 HD
ATOM     72  C   UNL     1     -12.256  -9.266   7.654  1.00  0.00     0.034 A 
ATOM     73  C   UNL     1      -7.573  -4.167   9.323  1.00  0.00     0.034 A 
ATOM     74  C   UNL     1     -10.809  -9.370   7.801  1.00  0.00     0.049 A 
ATOM     75  C   UNL     1      -7.287  -5.542   9.874  1.00  0.00     0.074 A 
ATOM     76  C   UNL     1      -9.776  -9.363   6.877  1.00  0.00     0.029 A 
ATOM     77  N   UNL     1     -10.219  -9.226   9.051  1.00  0.00    -0.354 N 
ATOM     78  N   UNL     1      -7.926  -6.623   9.520  1.00  0.00    -0.248 NA
ATOM     79  C   UNL     1      -6.273  -5.800  10.889  1.00  0.00     0.031 C 
ATOM     80  C   UNL     1      -8.559  -9.177   7.577  1.00  0.00     0.029 A 
ATOM     81  C   UNL     1      -8.848  -9.096   8.929  1.00  0.00     0.049 A 
ATOM     82  H   UNL     1     -10.709  -9.217   9.905  1.00  0.00     0.167 HD
ATOM     83  C   UNL     1      -7.458  -7.693  10.245  1.00  0.00     0.074 A 
ATOM     84  C   UNL     1      -6.404  -7.125  11.068  1.00  0.00     0.031 C 
ATOM     85  C   UNL     1      -7.996  -8.944  10.102  1.00  0.00     0.034 A 
BRANCH  72  86
ATOM     86  C   UNL     1     -13.099 -10.310   6.965  1.00  0.00     0.023 A 
ATOM     87  C   UNL     1     -12.510 -11.180   6.027  1.00  0.00     0.031 A 
ATOM     88  C   UNL     1     -14.482 -10.471   7.167  1.00  0.00     0.131 A 
ATOM     89  C   UNL     1     -13.287 -12.067   5.263  1.00  0.00     0.055 A 
ATOM     90  C   UNL     1     -15.267 -11.316   6.371  1.00  0.00     0.041 A 
ATOM     91  F   UNL     1     -15.120  -9.826   8.157  1.00  0.00    -0.206 F 
ATOM     92  C   UNL     1     -14.672 -12.109   5.399  1.00  0.00     0.022 A 
BRANCH  89  93
ATOM     93  S   UNL     1     -12.459 -13.165   4.079  1.00  0.00     0.124 S 
ATOM     94  O   UNL     1     -11.744 -12.221   3.226  1.00  0.00    -0.237 OA
ATOM     95  O   UNL     1     -11.637 -13.995   4.952  1.00  0.00    -0.237 OA
ATOM     96  O   UNL     1     -13.568 -13.862   3.430  1.00  0.00    -0.744 OA
ENDBRANCH  89  93
ENDBRANCH  72  86
BRANCH  73  97
ATOM     97  C   UNL     1      -7.780  -2.938  10.139  1.00  0.00     0.023 A 
ATOM     98  C   UNL     1      -7.462  -1.700   9.540  1.00  0.00     0.031 A 
ATOM     99  C   UNL     1      -8.599  -2.926  11.274  1.00  0.00     0.131 A 
ATOM    100  C   UNL     1      -8.083  -0.522   9.976  1.00  0.00     0.055 A 
ATOM    101  C   UNL     1      -9.163  -1.735  11.750  1.00  0.00     0.041 A 
ATOM    102  F   UNL     1      -8.968  -4.072  11.864  1.00  0.00    -0.206 F 
ATOM    103  C   UNL     1      -8.943  -0.532  11.074  1.00  0.00     0.022 A 
BRANCH 100 104
ATOM    104  S   UNL     1      -7.964   0.948   8.921  1.00  0.00     0.124 S 
ATOM    105  O   UNL     1      -6.673   1.506   9.301  1.00  0.00    -0.237 OA
ATOM    106  O   UNL     1      -8.043   0.384   7.572  1.00  0.00    -0.237 OA
ATOM    107  O   UNL     1      -9.129   1.749   9.289  1.00  0.00    -0.744 OA
ENDBRANCH 100 104
ENDBRANCH  73  97
BRANCH  85 108
ATOM    108  C   UNL     1      -7.707 -10.164  10.963  1.00  0.00     0.023 A 
ATOM    109  C   UNL     1      -6.985 -10.123  12.164  1.00  0.00     0.031 A 
ATOM    110  C   UNL     1      -8.217 -11.442  10.613  1.00  0.00     0.131 A 
ATOM    111  C   UNL     1      -6.721 -11.291  12.906  1.00  0.00     0.055 A 
ATOM    112  C   UNL     1      -8.016 -12.590  11.388  1.00  0.00     0.041 A 
ATOM    113  F   UNL     1      -8.949 -11.637   9.506  1.00  0.00    -0.206 F 
ATOM    114  C   UNL     1      -7.248 -12.524  12.537  1.00  0.00     0.022 A 
BRANCH 111 115
ATOM    115  S   UNL     1      -5.622 -11.165  14.342  1.00  0.00     0.124 S 
ATOM    116  O   UNL     1      -4.367 -10.744  13.723  1.00  0.00    -0.237 OA
ATOM    117  O   UNL     1      -6.291 -10.160  15.161  1.00  0.00    -0.237 OA
ATOM    118  O   UNL     1      -5.618 -12.517  14.896  1.00  0.00    -0.744 OA
ENDBRANCH 111 115
ENDBRANCH  85 108
ENDBRANCH  59  60
ENDBRANCH  51  54
ENDBRANCH  49  50
ENDBRANCH  48  49
ENDBRANCH  47  48
ENDBRANCH   3  47
TORSDOF 22
