REMARK SMILES O=C(CN(Cc1ccccc1Cl)S(=O)(=O)c1ccc(Cl)cc1)NCCCNC(=O)c1ccc(-c2c3nc(c(-c4cc(S(=O)(=O)[O-])ccc4F)c4ccc([nH]4)c(-c4cc(S(=O)(=O)[O-])ccc4F)c4nc(c(-c5cc(S(=O)(=O)[O-])ccc5F)c5ccc2[nH]5)C=C4)C=C3)cc1
REMARK SMILES IDX 25 1 24 2 23 3 1 4 2 5 3 7 4 8 5 9 6 10 7 11 11 12 8 13
REMARK SMILES IDX 10 14 12 15 9 16 13 17 14 18 15 19 16 20 17 21 22 22 18 23
REMARK SMILES IDX 21 24 19 25 20 26 26 27 27 28 28 29 29 31 30 32 31 33 92 34
REMARK SMILES IDX 32 35 91 36 33 37 34 38 35 39 85 40 36 41 90 42 84 43 86 44
REMARK SMILES IDX 37 45 89 46 83 47 82 48 38 50 70 51 50 52 69 53 51 54 54 55
REMARK SMILES IDX 68 56 87 57 52 58 53 59 67 61 88 62 55 63 39 64 40 65 48 66
REMARK SMILES IDX 41 67 47 68 49 69 46 70 42 71 43 72 44 73 45 74 71 75 72 76
REMARK SMILES IDX 80 77 73 78 79 79 81 80 78 81 74 82 75 83 76 84 77 85 56 86
REMARK SMILES IDX 57 87 65 88 58 89 64 90 66 91 63 92 59 93 60 94 61 95 62 96
REMARK H PARENT 23 6 27 30 86 49 54 60
REMARK Flexibility Score: inf
ROOT
ATOM      1  C   UNL     1       2.425   2.237   2.802  1.00  0.00     0.042 C 
ENDROOT
BRANCH   1   2
ATOM      2  C   UNL     1       2.103   2.169   1.316  1.00  0.00     0.117 C 
BRANCH   2   3
ATOM      3  N   UNL     1       2.741   1.056   0.640  1.00  0.00    -0.355 N 
ATOM      4  O   UNL     1       0.833  -0.204   0.419  1.00  0.00    -0.274 OA
ATOM      5  C   UNL     1       2.014  -0.005   0.145  1.00  0.00     0.235 C 
ATOM      6  H   UNL     1       3.719   1.058   0.533  1.00  0.00     0.163 HD
BRANCH   5   7
ATOM      7  C   UNL     1       2.806  -0.983  -0.703  1.00  0.00     0.202 C 
BRANCH   7   8
ATOM      8  N   UNL     1       3.607  -0.480  -1.879  1.00  0.00    -0.184 NA
BRANCH   8   9
ATOM      9  C   UNL     1       4.357  -1.617  -2.497  1.00  0.00     0.140 C 
BRANCH   9  10
ATOM     10  C   UNL     1       3.598  -2.831  -3.018  1.00  0.00    -0.014 A 
ATOM     11  C   UNL     1       2.591  -2.693  -3.990  1.00  0.00     0.006 A 
ATOM     12  C   UNL     1       3.905  -4.147  -2.618  1.00  0.00     0.045 A 
ATOM     13  C   UNL     1       1.882  -3.786  -4.497  1.00  0.00     0.000 A 
ATOM     14  C   UNL     1       3.202  -5.248  -3.136  1.00  0.00     0.021 A 
ATOM     15  Cl  UNL     1       5.166  -4.508  -1.492  1.00  0.00    -0.084 Cl
ATOM     16  C   UNL     1       2.184  -5.067  -4.067  1.00  0.00     0.002 A 
ENDBRANCH   9  10
ENDBRANCH   8   9
BRANCH   8  17
ATOM     17  S   UNL     1       2.840   0.724  -2.810  1.00  0.00     0.243 S 
ATOM     18  O   UNL     1       1.669   0.157  -3.450  1.00  0.00    -0.207 OA
ATOM     19  O   UNL     1       2.699   1.876  -1.954  1.00  0.00    -0.207 OA
BRANCH  17  20
ATOM     20  C   UNL     1       3.934   1.259  -4.125  1.00  0.00     0.082 A 
ATOM     21  C   UNL     1       4.402   0.387  -5.112  1.00  0.00     0.023 A 
ATOM     22  C   UNL     1       4.191   2.634  -4.251  1.00  0.00     0.023 A 
ATOM     23  C   UNL     1       5.185   0.869  -6.167  1.00  0.00     0.022 A 
ATOM     24  C   UNL     1       4.935   3.120  -5.331  1.00  0.00     0.022 A 
ATOM     25  C   UNL     1       5.441   2.233  -6.277  1.00  0.00     0.041 A 
ATOM     26  Cl  UNL     1       6.356   2.825  -7.607  1.00  0.00    -0.084 Cl
ENDBRANCH  17  20
ENDBRANCH   8  17
ENDBRANCH   7   8
ENDBRANCH   5   7
ENDBRANCH   2   3
ENDBRANCH   1   2
BRANCH   1  27
ATOM     27  C   UNL     1       3.904   2.415   3.128  1.00  0.00     0.118 C 
BRANCH  27  28
ATOM     28  N   UNL     1       4.466   3.655   2.611  1.00  0.00    -0.352 N 
ATOM     29  C   UNL     1       5.170   4.650   3.245  1.00  0.00     0.251 C 
ATOM     30  H   UNL     1       4.317   3.804   1.650  1.00  0.00     0.163 HD
ATOM     31  O   UNL     1       5.441   5.674   2.621  1.00  0.00    -0.269 OA
BRANCH  29  32
ATOM     32  C   UNL     1       5.576   4.522   4.665  1.00  0.00     0.039 A 
ATOM     33  C   UNL     1       5.476   5.646   5.492  1.00  0.00     0.014 A 
ATOM     34  C   UNL     1       6.081   3.326   5.184  1.00  0.00     0.014 A 
ATOM     35  C   UNL     1       5.812   5.553   6.846  1.00  0.00     0.010 A 
ATOM     36  C   UNL     1       6.349   3.215   6.550  1.00  0.00     0.010 A 
ATOM     37  C   UNL     1       6.216   4.326   7.397  1.00  0.00    -0.014 A 
BRANCH  37  38
ATOM     38  C   UNL     1       6.497   4.190   8.852  1.00  0.00     0.031 A 
ATOM     39  C   UNL     1       7.883   3.850   9.331  1.00  0.00     0.074 A 
ATOM     40  C   UNL     1       5.491   4.314   9.741  1.00  0.00     0.049 A 
ATOM     41  N   UNL     1       8.306   3.617  10.548  1.00  0.00    -0.248 NA
ATOM     42  C   UNL     1       8.923   3.726   8.300  1.00  0.00     0.031 C 
ATOM     43  C   UNL     1       4.095   4.601   9.402  1.00  0.00     0.029 A 
ATOM     44  N   UNL     1       5.482   4.204  11.109  1.00  0.00    -0.354 N 
ATOM     45  C   UNL     1       9.657   3.305  10.429  1.00  0.00     0.074 A 
ATOM     46  C   UNL     1       9.964   3.325   9.014  1.00  0.00     0.031 C 
ATOM     47  C   UNL     1       3.372   4.664  10.531  1.00  0.00     0.029 A 
ATOM     48  C   UNL     1       4.238   4.382  11.671  1.00  0.00     0.049 A 
ATOM     49  H   UNL     1       6.290   4.016  11.639  1.00  0.00     0.167 HD
ATOM     50  C   UNL     1      10.560   3.047  11.408  1.00  0.00     0.034 A 
ATOM     51  C   UNL     1       3.837   4.314  12.956  1.00  0.00     0.034 A 
ATOM     52  C   UNL     1      10.244   3.047  12.817  1.00  0.00     0.049 A 
ATOM     53  C   UNL     1       4.856   4.018  14.026  1.00  0.00     0.074 A 
ATOM     54  C   UNL     1      11.095   2.854  13.892  1.00  0.00     0.029 A 
ATOM     55  N   UNL     1       8.975   3.242  13.348  1.00  0.00    -0.354 N 
ATOM     56  N   UNL     1       6.140   3.771  13.899  1.00  0.00    -0.248 NA
ATOM     57  C   UNL     1       4.374   4.003  15.413  1.00  0.00     0.031 C 
ATOM     58  C   UNL     1      10.333   2.874  15.067  1.00  0.00     0.029 A 
ATOM     59  C   UNL     1       9.017   3.148  14.732  1.00  0.00     0.049 A 
ATOM     60  H   UNL     1       8.164   3.421  12.819  1.00  0.00     0.167 HD
ATOM     61  C   UNL     1       6.622   3.601  15.194  1.00  0.00     0.074 A 
ATOM     62  C   UNL     1       5.495   3.787  16.085  1.00  0.00     0.031 C 
ATOM     63  C   UNL     1       7.883   3.321  15.609  1.00  0.00     0.034 A 
BRANCH  50  64
ATOM     64  C   UNL     1      11.972   2.720  10.979  1.00  0.00     0.023 A 
ATOM     65  C   UNL     1      12.771   3.653  10.296  1.00  0.00     0.031 A 
ATOM     66  C   UNL     1      12.516   1.448  11.231  1.00  0.00     0.131 A 
ATOM     67  C   UNL     1      14.035   3.277   9.818  1.00  0.00     0.055 A 
ATOM     68  C   UNL     1      13.808   1.107  10.825  1.00  0.00     0.041 A 
ATOM     69  F   UNL     1      11.796   0.508  11.863  1.00  0.00    -0.206 F 
ATOM     70  C   UNL     1      14.570   2.018  10.099  1.00  0.00     0.022 A 
BRANCH  67  71
ATOM     71  S   UNL     1      14.909   4.406   8.699  1.00  0.00     0.124 S 
ATOM     72  O   UNL     1      13.954   4.529   7.600  1.00  0.00    -0.237 OA
ATOM     73  O   UNL     1      15.089   5.593   9.525  1.00  0.00    -0.237 OA
ATOM     74  O   UNL     1      16.135   3.682   8.370  1.00  0.00    -0.744 OA
ENDBRANCH  67  71
ENDBRANCH  50  64
BRANCH  51  75
ATOM     75  C   UNL     1       2.405   4.522  13.310  1.00  0.00     0.023 A 
ATOM     76  C   UNL     1       2.002   5.631  14.071  1.00  0.00     0.031 A 
ATOM     77  C   UNL     1       1.423   3.592  12.927  1.00  0.00     0.131 A 
ATOM     78  C   UNL     1       0.661   5.760  14.463  1.00  0.00     0.055 A 
ATOM     79  C   UNL     1       0.081   3.750  13.278  1.00  0.00     0.041 A 
ATOM     80  F   UNL     1       1.755   2.517  12.193  1.00  0.00    -0.206 F 
ATOM     81  C   UNL     1      -0.304   4.833  14.062  1.00  0.00     0.022 A 
BRANCH  78  82
ATOM     82  S   UNL     1       0.209   7.120  15.574  1.00  0.00     0.124 S 
ATOM     83  O   UNL     1       1.071   6.865  16.723  1.00  0.00    -0.237 OA
ATOM     84  O   UNL     1       0.542   8.291  14.769  1.00  0.00    -0.237 OA
ATOM     85  O   UNL     1      -1.219   6.911  15.805  1.00  0.00    -0.744 OA
ENDBRANCH  78  82
ENDBRANCH  51  75
BRANCH  63  86
ATOM     86  C   UNL     1       8.110   3.246  17.099  1.00  0.00     0.023 A 
ATOM     87  C   UNL     1       7.556   2.218  17.881  1.00  0.00     0.031 A 
ATOM     88  C   UNL     1       8.875   4.232  17.747  1.00  0.00     0.131 A 
ATOM     89  C   UNL     1       7.729   2.229  19.274  1.00  0.00     0.055 A 
ATOM     90  C   UNL     1       9.090   4.208  19.125  1.00  0.00     0.041 A 
ATOM     91  F   UNL     1       9.426   5.238  17.048  1.00  0.00    -0.206 F 
ATOM     92  C   UNL     1       8.504   3.210  19.899  1.00  0.00     0.022 A 
BRANCH  89  93
ATOM     93  S   UNL     1       6.851   0.995  20.272  1.00  0.00     0.124 S 
ATOM     94  O   UNL     1       5.458   1.252  19.919  1.00  0.00    -0.237 OA
ATOM     95  O   UNL     1       7.412  -0.260  19.781  1.00  0.00    -0.237 OA
ATOM     96  O   UNL     1       7.216   1.340  21.645  1.00  0.00    -0.744 OA
ENDBRANCH  89  93
ENDBRANCH  63  86
ENDBRANCH  37  38
ENDBRANCH  29  32
ENDBRANCH  27  28
ENDBRANCH   1  27
TORSDOF 18
