REMARK SMILES C[C@@]1(C(=O)NCCCNC(=O)c2ccc(-c3c4nc(c(-c5cc(S(=O)(=O)[O-])ccc5F)c5ccc([nH]5)c(-c5cc(S(=O)(=O)[O-])ccc5F)c5nc(c(-c6cc(S(=O)(=O)[O-])ccc6F)c6ccc3[nH]6)C=C5)C=C4)cc2)CCCN1c1ncnc2c1CCCCC2
REMARK SMILES IDX 6 1 5 2 3 3 4 4 2 6 1 7 75 8 78 9 76 10 77 11 79 12 80 13
REMARK SMILES IDX 84 14 81 15 83 16 82 17 85 18 86 19 87 20 88 21 89 23 7 25
REMARK SMILES IDX 8 26 9 27 10 28 11 30 12 31 13 32 74 33 14 34 73 35 15 36
REMARK SMILES IDX 16 37 17 38 67 39 18 40 72 41 66 42 68 43 19 44 71 45 65 46
REMARK SMILES IDX 64 47 20 49 52 50 32 51 51 52 33 53 36 54 50 55 69 56 34 57
REMARK SMILES IDX 35 58 49 60 70 61 37 62 21 63 22 64 30 65 23 66 29 67 31 68
REMARK SMILES IDX 28 69 24 70 25 71 26 72 27 73 53 74 54 75 62 76 55 77 61 78
REMARK SMILES IDX 63 79 60 80 56 81 57 82 58 83 59 84 38 85 39 86 47 87 40 88
REMARK SMILES IDX 46 89 48 90 45 91 41 92 42 93 43 94 44 95
REMARK H PARENT 5 5 9 29 68 48 36 59
REMARK Flexibility Score: 80.00
ROOT
ATOM      1  C   UNL     1      -1.418  -0.193   4.113  1.00  0.00     0.117 C 
ENDROOT
BRANCH   1   2
ATOM      2  N   UNL     1      -1.733  -0.522   2.738  1.00  0.00    -0.354 N 
ATOM      3  C   UNL     1      -0.998  -0.428   1.590  1.00  0.00     0.245 C 
ATOM      4  O   UNL     1      -1.567  -0.835   0.567  1.00  0.00    -0.272 OA
ATOM      5  H   UNL     1      -2.641  -0.879   2.607  1.00  0.00     0.163 HD
BRANCH   3   6
ATOM      6  C   UNL     1       0.468   0.114   1.538  1.00  0.00     0.117 C 
ATOM      7  C   UNL     1       0.931   0.159   0.063  1.00  0.00     0.045 C 
ATOM      8  C   UNL     1       1.407  -0.870   2.285  1.00  0.00     0.040 C 
ATOM      9  N   UNL     1       0.655   1.435   2.218  1.00  0.00    -0.342 N 
ATOM     10  C   UNL     1       2.014  -0.123   3.458  1.00  0.00     0.024 C 
ATOM     11  C   UNL     1       1.769   1.350   3.184  1.00  0.00     0.119 C 
BRANCH   9  12
ATOM     12  C   UNL     1       0.628   2.641   1.500  1.00  0.00     0.136 A 
ATOM     13  N   UNL     1       1.819   3.266   1.374  1.00  0.00    -0.219 NA
ATOM     14  C   UNL     1      -0.517   3.208   0.921  1.00  0.00     0.016 A 
ATOM     15  C   UNL     1       1.886   4.400   0.675  1.00  0.00     0.224 A 
ATOM     16  C   UNL     1      -0.325   4.386   0.183  1.00  0.00     0.049 A 
ATOM     17  N   UNL     1       0.874   4.988   0.051  1.00  0.00    -0.241 NA
BRANCH  14  18
ATOM     18  C   UNL     1      -1.911   2.667   1.065  1.00  0.00     0.041 C 
BRANCH  18  19
ATOM     19  C   UNL     1      -2.880   3.594   1.806  1.00  0.00     0.005 C 
BRANCH  19  20
ATOM     20  C   UNL     1      -3.485   4.697   0.947  1.00  0.00     0.001 C 
BRANCH  20  21
ATOM     21  C   UNL     1      -2.471   5.709   0.427  1.00  0.00     0.006 CG0
ATOM     22  G   UNL     1      -1.452   5.094  -0.527  1.00  0.00     0.000 G0
ENDBRANCH  20  21
ENDBRANCH  19  20
ENDBRANCH  18  19
ENDBRANCH  14  18
BRANCH  16  23
ATOM     23  C   UNL     1      -1.452   5.094  -0.527  1.00  0.00     0.057 CG0
ATOM     24  G   UNL     1      -2.471   5.709   0.427  1.00  0.00     0.000 G0
ENDBRANCH  16  23
ENDBRANCH   9  12
ENDBRANCH   3   6
ENDBRANCH   1   2
BRANCH   1  25
ATOM     25  C   UNL     1      -1.984   1.135   4.597  1.00  0.00     0.042 C 
BRANCH  25  26
ATOM     26  C   UNL     1      -3.505   1.164   4.698  1.00  0.00     0.118 C 
BRANCH  26  27
ATOM     27  N   UNL     1      -4.010   0.198   5.665  1.00  0.00    -0.352 N 
ATOM     28  C   UNL     1      -4.587   0.373   6.896  1.00  0.00     0.251 C 
ATOM     29  H   UNL     1      -3.922  -0.742   5.387  1.00  0.00     0.163 HD
ATOM     30  O   UNL     1      -4.683  -0.606   7.642  1.00  0.00    -0.269 OA
BRANCH  28  31
ATOM     31  C   UNL     1      -5.080   1.694   7.347  1.00  0.00     0.039 A 
ATOM     32  C   UNL     1      -4.976   2.025   8.702  1.00  0.00     0.014 A 
ATOM     33  C   UNL     1      -5.701   2.585   6.468  1.00  0.00     0.014 A 
ATOM     34  C   UNL     1      -5.436   3.263   9.159  1.00  0.00     0.010 A 
ATOM     35  C   UNL     1      -6.081   3.853   6.907  1.00  0.00     0.010 A 
ATOM     36  C   UNL     1      -5.959   4.205   8.259  1.00  0.00    -0.014 A 
BRANCH  36  37
ATOM     37  C   UNL     1      -6.377   5.557   8.721  1.00  0.00     0.031 A 
ATOM     38  C   UNL     1      -7.811   6.001   8.592  1.00  0.00     0.074 A 
ATOM     39  C   UNL     1      -5.449   6.404   9.209  1.00  0.00     0.049 A 
ATOM     40  N   UNL     1      -8.352   7.154   8.895  1.00  0.00    -0.248 NA
ATOM     41  C   UNL     1      -8.754   5.030   8.017  1.00  0.00     0.031 C 
ATOM     42  C   UNL     1      -4.019   6.109   9.332  1.00  0.00     0.029 A 
ATOM     43  N   UNL     1      -5.564   7.685   9.688  1.00  0.00    -0.354 N 
ATOM     44  C   UNL     1      -9.693   7.053   8.536  1.00  0.00     0.074 A 
ATOM     45  C   UNL     1      -9.865   5.748   7.934  1.00  0.00     0.031 C 
ATOM     46  C   UNL     1      -3.398   7.163   9.883  1.00  0.00     0.029 A 
ATOM     47  C   UNL     1      -4.371   8.226  10.111  1.00  0.00     0.049 A 
ATOM     48  H   UNL     1      -6.419   8.171   9.727  1.00  0.00     0.167 HD
ATOM     49  C   UNL     1     -10.691   7.955   8.714  1.00  0.00     0.034 A 
ATOM     50  C   UNL     1      -4.091   9.441  10.620  1.00  0.00     0.034 A 
ATOM     51  C   UNL     1     -10.504   9.248   9.329  1.00  0.00     0.049 A 
ATOM     52  C   UNL     1      -5.216  10.426  10.808  1.00  0.00     0.074 A 
ATOM     53  C   UNL     1     -11.453  10.216   9.612  1.00  0.00     0.029 A 
ATOM     54  N   UNL     1      -9.283   9.759   9.753  1.00  0.00    -0.354 N 
ATOM     55  N   UNL     1      -6.489  10.292  10.515  1.00  0.00    -0.248 NA
ATOM     56  C   UNL     1      -4.867  11.718  11.409  1.00  0.00     0.031 C 
ATOM     57  C   UNL     1     -10.799  11.333  10.143  1.00  0.00     0.029 A 
ATOM     58  C   UNL     1      -9.451  11.037  10.266  1.00  0.00     0.049 A 
ATOM     59  H   UNL     1      -8.423   9.283   9.697  1.00  0.00     0.167 HD
ATOM     60  C   UNL     1      -7.097  11.477  10.921  1.00  0.00     0.074 A 
ATOM     61  C   UNL     1      -6.054  12.297  11.503  1.00  0.00     0.031 C 
ATOM     62  C   UNL     1      -8.398  11.855  10.822  1.00  0.00     0.034 A 
BRANCH  49  63
ATOM     63  C   UNL     1     -12.068   7.577   8.213  1.00  0.00     0.023 A 
ATOM     64  C   UNL     1     -12.767   6.473   8.732  1.00  0.00     0.031 A 
ATOM     65  C   UNL     1     -12.680   8.315   7.184  1.00  0.00     0.131 A 
ATOM     66  C   UNL     1     -13.995   6.091   8.170  1.00  0.00     0.055 A 
ATOM     67  C   UNL     1     -13.942   7.980   6.686  1.00  0.00     0.041 A 
ATOM     68  F   UNL     1     -12.057   9.368   6.633  1.00  0.00    -0.206 F 
ATOM     69  C   UNL     1     -14.600   6.852   7.168  1.00  0.00     0.022 A 
BRANCH  66  70
ATOM     70  S   UNL     1     -14.718   4.503   8.666  1.00  0.00     0.124 S 
ATOM     71  O   UNL     1     -13.658   3.568   8.295  1.00  0.00    -0.237 OA
ATOM     72  O   UNL     1     -14.935   4.687  10.096  1.00  0.00    -0.237 OA
ATOM     73  O   UNL     1     -15.931   4.410   7.856  1.00  0.00    -0.744 OA
ENDBRANCH  66  70
ENDBRANCH  49  63
BRANCH  50  74
ATOM     74  C   UNL     1      -2.691   9.803  10.987  1.00  0.00     0.023 A 
ATOM     75  C   UNL     1      -2.338  10.065  12.320  1.00  0.00     0.031 A 
ATOM     76  C   UNL     1      -1.694   9.931  10.004  1.00  0.00     0.131 A 
ATOM     77  C   UNL     1      -1.036  10.487  12.629  1.00  0.00     0.055 A 
ATOM     78  C   UNL     1      -0.386  10.299  10.323  1.00  0.00     0.041 A 
ATOM     79  F   UNL     1      -1.977   9.685   8.714  1.00  0.00    -0.206 F 
ATOM     80  C   UNL     1      -0.054  10.593  11.642  1.00  0.00     0.022 A 
BRANCH  77  81
ATOM     81  S   UNL     1      -0.664  10.977  14.336  1.00  0.00     0.124 S 
ATOM     82  O   UNL     1      -1.638  12.039  14.559  1.00  0.00    -0.237 OA
ATOM     83  O   UNL     1      -0.892   9.734  15.064  1.00  0.00    -0.237 OA
ATOM     84  O   UNL     1       0.730  11.412  14.269  1.00  0.00    -0.744 OA
ENDBRANCH  77  81
ENDBRANCH  50  74
BRANCH  62  85
ATOM     85  C   UNL     1      -8.756  13.208  11.390  1.00  0.00     0.023 A 
ATOM     86  C   UNL     1      -8.243  14.397  10.841  1.00  0.00     0.031 A 
ATOM     87  C   UNL     1      -9.585  13.307  12.521  1.00  0.00     0.131 A 
ATOM     88  C   UNL     1      -8.502  15.625  11.467  1.00  0.00     0.055 A 
ATOM     89  C   UNL     1      -9.896  14.539  13.099  1.00  0.00     0.041 A 
ATOM     90  F   UNL     1     -10.100  12.205  13.090  1.00  0.00    -0.206 F 
ATOM     91  C   UNL     1      -9.339  15.705  12.583  1.00  0.00     0.022 A 
BRANCH  88  92
ATOM     92  S   UNL     1      -7.630  17.102  10.876  1.00  0.00     0.124 S 
ATOM     93  O   UNL     1      -6.234  16.697  10.994  1.00  0.00    -0.237 OA
ATOM     94  O   UNL     1      -8.141  17.242   9.516  1.00  0.00    -0.237 OA
ATOM     95  O   UNL     1      -8.054  18.146  11.808  1.00  0.00    -0.744 OA
ENDBRANCH  88  92
ENDBRANCH  62  85
ENDBRANCH  36  37
ENDBRANCH  28  31
ENDBRANCH  26  27
ENDBRANCH  25  26
ENDBRANCH   1  25
TORSDOF 14
