REMARK SMILES O=C(CS(=O)(=O)[C@@H]1CCOC2(CCCCC2)C1)NCCCNC(=O)c1ccc(-c2c3nc(c(-c4cc(S(=O)(=O)[O-])ccc4F)c4ccc([nH]4)c(-c4cc(S(=O)(=O)[O-])ccc4F)c4nc(c(-c5cc(S(=O)(=O)[O-])ccc5F)c5ccc2[nH]5)C=C4)C=C3)cc1
REMARK SMILES IDX 20 1 19 2 18 3 1 4 2 5 3 7 4 8 5 9 6 10 7 11 8 12 17 13 9 14
REMARK SMILES IDX 11 15 10 16 12 17 16 18 13 19 15 20 14 21 21 22 22 23 23 24
REMARK SMILES IDX 24 26 25 27 26 28 87 29 27 30 86 31 28 32 29 33 30 34 80 35
REMARK SMILES IDX 31 36 85 37 79 38 81 39 32 40 84 41 78 42 77 43 33 45 65 46
REMARK SMILES IDX 45 47 64 48 46 49 49 50 63 51 82 52 47 53 48 54 62 56 83 57
REMARK SMILES IDX 50 58 34 59 35 60 43 61 36 62 42 63 44 64 41 65 37 66 38 67
REMARK SMILES IDX 39 68 40 69 66 70 67 71 75 72 68 73 74 74 76 75 73 76 69 77
REMARK SMILES IDX 70 78 71 79 72 80 51 81 52 82 60 83 53 84 59 85 61 86 58 87
REMARK SMILES IDX 54 88 55 89 56 90 57 91
REMARK H PARENT 18 6 22 25 81 44 49 55
REMARK Flexibility Score: inf
ROOT
ATOM      1  C   UNL     1       2.727  -1.210   3.510  1.00  0.00     0.042 C 
ENDROOT
BRANCH   1   2
ATOM      2  C   UNL     1       2.578   0.175   2.891  1.00  0.00     0.117 C 
BRANCH   2   3
ATOM      3  N   UNL     1       3.598   0.579   1.931  1.00  0.00    -0.355 N 
ATOM      4  O   UNL     1       3.220  -1.173   0.541  1.00  0.00    -0.274 OA
ATOM      5  C   UNL     1       3.761  -0.087   0.743  1.00  0.00     0.235 C 
ATOM      6  H   UNL     1       4.181   1.345   2.140  1.00  0.00     0.163 HD
BRANCH   5   7
ATOM      7  C   UNL     1       4.772   0.429  -0.218  1.00  0.00     0.236 C 
BRANCH   7   8
ATOM      8  S   UNL     1       4.551   2.002  -1.009  1.00  0.00     0.162 S 
ATOM      9  O   UNL     1       5.214   2.956  -0.128  1.00  0.00    -0.228 OA
ATOM     10  O   UNL     1       5.087   1.841  -2.354  1.00  0.00    -0.228 OA
BRANCH   8  11
ATOM     11  C   UNL     1       2.900   2.679  -1.247  1.00  0.00     0.114 C 
ATOM     12  C   UNL     1       2.153   3.006   0.033  1.00  0.00     0.048 C 
ATOM     13  C   UNL     1       1.982   2.031  -2.286  1.00  0.00     0.055 C 
ATOM     14  C   UNL     1       1.048   2.002   0.296  1.00  0.00     0.162 C 
ATOM     15  C   UNL     1       1.283   0.763  -1.766  1.00  0.00     0.069 C 
ATOM     16  O   UNL     1       1.344   0.756  -0.332  1.00  0.00    -0.375 OA
ATOM     17  C   UNL     1       2.025  -0.461  -2.353  1.00  0.00     0.035 C 
ATOM     18  C   UNL     1      -0.200   0.661  -2.197  1.00  0.00     0.035 C 
ATOM     19  C   UNL     1       1.407  -1.803  -1.982  1.00  0.00     0.003 C 
ATOM     20  C   UNL     1      -0.827  -0.684  -1.798  1.00  0.00     0.003 C 
ATOM     21  C   UNL     1      -0.056  -1.859  -2.388  1.00  0.00     0.000 C 
ENDBRANCH   8  11
ENDBRANCH   7   8
ENDBRANCH   5   7
ENDBRANCH   2   3
ENDBRANCH   1   2
BRANCH   1  22
ATOM     22  C   UNL     1       4.128  -1.558   3.972  1.00  0.00     0.118 C 
BRANCH  22  23
ATOM     23  N   UNL     1       4.741  -0.505   4.765  1.00  0.00    -0.352 N 
ATOM     24  C   UNL     1       5.508  -0.601   5.898  1.00  0.00     0.251 C 
ATOM     25  H   UNL     1       4.582   0.411   4.441  1.00  0.00     0.163 HD
ATOM     26  O   UNL     1       5.841   0.413   6.493  1.00  0.00    -0.269 OA
BRANCH  24  27
ATOM     27  C   UNL     1       5.883  -1.938   6.400  1.00  0.00     0.039 A 
ATOM     28  C   UNL     1       5.747  -2.199   7.764  1.00  0.00     0.014 A 
ATOM     29  C   UNL     1       6.332  -2.932   5.526  1.00  0.00     0.014 A 
ATOM     30  C   UNL     1       6.010  -3.481   8.242  1.00  0.00     0.010 A 
ATOM     31  C   UNL     1       6.504  -4.230   5.989  1.00  0.00     0.010 A 
ATOM     32  C   UNL     1       6.358  -4.512   7.353  1.00  0.00    -0.014 A 
BRANCH  32  33
ATOM     33  C   UNL     1       6.592  -5.887   7.852  1.00  0.00     0.031 A 
ATOM     34  C   UNL     1       7.961  -6.497   7.746  1.00  0.00     0.074 A 
ATOM     35  C   UNL     1       5.560  -6.581   8.370  1.00  0.00     0.049 A 
ATOM     36  N   UNL     1       8.374  -7.674   8.139  1.00  0.00    -0.248 NA
ATOM     37  C   UNL     1       8.995  -5.691   7.079  1.00  0.00     0.031 C 
ATOM     38  C   UNL     1       4.178  -6.100   8.453  1.00  0.00     0.029 A 
ATOM     39  N   UNL     1       5.510  -7.830   8.929  1.00  0.00    -0.354 N 
ATOM     40  C   UNL     1       9.711  -7.750   7.762  1.00  0.00     0.074 A 
ATOM     41  C   UNL     1      10.014  -6.534   7.041  1.00  0.00     0.031 C 
ATOM     42  C   UNL     1       3.427  -7.025   9.072  1.00  0.00     0.029 A 
ATOM     43  C   UNL     1       4.263  -8.175   9.397  1.00  0.00     0.049 A 
ATOM     44  H   UNL     1       6.292  -8.425   8.991  1.00  0.00     0.167 HD
ATOM     45  C   UNL     1      10.608  -8.732   8.023  1.00  0.00     0.034 A 
ATOM     46  C   UNL     1       3.848  -9.292  10.025  1.00  0.00     0.034 A 
ATOM     47  C   UNL     1      10.276  -9.931   8.753  1.00  0.00     0.049 A 
ATOM     48  C   UNL     1       4.867 -10.362  10.321  1.00  0.00     0.074 A 
ATOM     49  C   UNL     1      11.102 -10.978   9.119  1.00  0.00     0.029 A 
ATOM     50  N   UNL     1       9.006 -10.244   9.227  1.00  0.00    -0.354 N 
ATOM     51  N   UNL     1       6.146 -10.393  10.016  1.00  0.00    -0.248 NA
ATOM     52  C   UNL     1       4.394 -11.534  11.064  1.00  0.00     0.031 C 
ATOM     53  C   UNL     1      10.321 -11.950   9.756  1.00  0.00     0.029 A 
ATOM     54  C   UNL     1       9.022 -11.477   9.860  1.00  0.00     0.049 A 
ATOM     55  H   UNL     1       8.211  -9.672   9.126  1.00  0.00     0.167 HD
ATOM     56  C   UNL     1       6.635 -11.578  10.558  1.00  0.00     0.074 A 
ATOM     57  C   UNL     1       5.518 -12.214  11.229  1.00  0.00     0.031 C 
ATOM     58  C   UNL     1       7.889 -12.098  10.507  1.00  0.00     0.034 A 
BRANCH  45  59
ATOM     59  C   UNL     1      12.012  -8.547   7.494  1.00  0.00     0.023 A 
ATOM     60  C   UNL     1      12.819  -7.468   7.900  1.00  0.00     0.031 A 
ATOM     61  C   UNL     1      12.538  -9.433   6.538  1.00  0.00     0.131 A 
ATOM     62  C   UNL     1      14.066  -7.254   7.293  1.00  0.00     0.055 A 
ATOM     63  C   UNL     1      13.816  -9.264   6.000  1.00  0.00     0.041 A 
ATOM     64  F   UNL     1      11.810 -10.468   6.091  1.00  0.00    -0.206 F 
ATOM     65  C   UNL     1      14.582  -8.160   6.365  1.00  0.00     0.022 A 
BRANCH  62  66
ATOM     66  S   UNL     1      14.935  -5.696   7.622  1.00  0.00     0.124 S 
ATOM     67  O   UNL     1      13.962  -4.712   7.153  1.00  0.00    -0.237 OA
ATOM     68  O   UNL     1      15.146  -5.749   9.064  1.00  0.00    -0.237 OA
ATOM     69  O   UNL     1      16.146  -5.800   6.809  1.00  0.00    -0.744 OA
ENDBRANCH  62  66
ENDBRANCH  45  59
BRANCH  46  70
ATOM     70  C   UNL     1       2.422  -9.448  10.434  1.00  0.00     0.023 A 
ATOM     71  C   UNL     1       2.061  -9.534  11.789  1.00  0.00     0.031 A 
ATOM     72  C   UNL     1       1.400  -9.544   9.474  1.00  0.00     0.131 A 
ATOM     73  C   UNL     1       0.722  -9.760  12.144  1.00  0.00     0.055 A 
ATOM     74  C   UNL     1       0.062  -9.716   9.834  1.00  0.00     0.041 A 
ATOM     75  F   UNL     1       1.688  -9.458   8.165  1.00  0.00    -0.206 F 
ATOM     76  C   UNL     1      -0.282  -9.839  11.176  1.00  0.00     0.022 A 
BRANCH  73  77
ATOM     77  S   UNL     1       0.320 -10.033  13.892  1.00  0.00     0.124 S 
ATOM     78  O   UNL     1       1.174 -11.169  14.220  1.00  0.00    -0.237 OA
ATOM     79  O   UNL     1       0.693  -8.755  14.491  1.00  0.00    -0.237 OA
ATOM     80  O   UNL     1      -1.114 -10.313  13.872  1.00  0.00    -0.744 OA
ENDBRANCH  73  77
ENDBRANCH  46  70
BRANCH  58  81
ATOM     81  C   UNL     1       8.108 -13.402  11.234  1.00  0.00     0.023 A 
ATOM     82  C   UNL     1       7.465 -14.586  10.833  1.00  0.00     0.031 A 
ATOM     83  C   UNL     1       8.939 -13.451  12.367  1.00  0.00     0.131 A 
ATOM     84  C   UNL     1       7.596 -15.748  11.606  1.00  0.00     0.055 A 
ATOM     85  C   UNL     1       9.125 -14.629  13.090  1.00  0.00     0.041 A 
ATOM     86  F   UNL     1       9.578 -12.350  12.795  1.00  0.00    -0.206 F 
ATOM     87  C   UNL     1       8.436 -15.782  12.722  1.00  0.00     0.022 A 
BRANCH  84  88
ATOM     88  S   UNL     1       6.551 -17.175  11.210  1.00  0.00     0.124 S 
ATOM     89  O   UNL     1       5.212 -16.596  11.267  1.00  0.00    -0.237 OA
ATOM     90  O   UNL     1       7.027 -17.551   9.883  1.00  0.00    -0.237 OA
ATOM     91  O   UNL     1       6.859 -18.131  12.273  1.00  0.00    -0.744 OA
ENDBRANCH  84  88
ENDBRANCH  58  81
ENDBRANCH  32  33
ENDBRANCH  24  27
ENDBRANCH  22  23
ENDBRANCH   1  22
TORSDOF 15
