REMARK SMILES C[C@@H](CCC(=O)NCCCNC(=O)c1ccc(-c2c3nc(c(-c4cc(S(=O)(=O)[O-])ccc4F)c4ccc([nH]4)c(-c4cc(S(=O)(=O)[O-])ccc4F)c4nc(c(-c5cc(S(=O)(=O)[O-])ccc5F)c5ccc2[nH]5)C=C4)C=C3)cc1)NC(=O)Nc1ccc(Cl)c(Br)c1
REMARK SMILES IDX 8 1 7 2 5 3 6 4 4 6 3 7 2 8 1 9 77 10 78 11 79 13 80 14
REMARK SMILES IDX 81 16 82 17 88 18 83 19 86 20 84 21 87 22 85 23 9 24 10 25
REMARK SMILES IDX 11 26 12 27 13 29 14 30 15 31 76 32 16 33 75 34 17 35 18 36
REMARK SMILES IDX 19 37 69 38 20 39 74 40 68 41 70 42 21 43 73 44 67 45 66 46
REMARK SMILES IDX 22 48 54 49 34 50 53 51 35 52 38 53 52 54 71 55 36 56 37 57
REMARK SMILES IDX 51 59 72 60 39 61 23 62 24 63 32 64 25 65 31 66 33 67 30 68
REMARK SMILES IDX 26 69 27 70 28 71 29 72 55 73 56 74 64 75 57 76 63 77 65 78
REMARK SMILES IDX 62 79 58 80 59 81 60 82 61 83 40 84 41 85 49 86 42 87 48 88
REMARK SMILES IDX 50 89 47 90 43 91 44 92 45 93 46 94
REMARK H PARENT 7 5 77 12 80 15 11 28 70 47 38 58
REMARK Flexibility Score: inf
ROOT
ATOM      1  C   UNL     1      -1.939  -0.123  -1.274  1.00  0.00     0.117 C 
ENDROOT
BRANCH   1   2
ATOM      2  N   UNL     1      -2.184   1.310  -1.224  1.00  0.00    -0.356 N 
ATOM      3  C   UNL     1      -1.351   2.370  -1.390  1.00  0.00     0.220 C 
ATOM      4  O   UNL     1      -1.832   3.504  -1.327  1.00  0.00    -0.275 OA
ATOM      5  H   UNL     1      -3.119   1.555  -1.037  1.00  0.00     0.163 HD
BRANCH   3   6
ATOM      6  C   UNL     1       0.136   2.183  -1.582  1.00  0.00     0.102 C 
BRANCH   6   7
ATOM      7  C   UNL     1       0.940   2.745  -0.403  1.00  0.00     0.034 C 
BRANCH   7   8
ATOM      8  C   UNL     1       0.856   1.972   0.931  1.00  0.00     0.081 C 
ATOM      9  C   UNL     1       1.331   0.524   0.776  1.00  0.00     0.031 C 
BRANCH   8  10
ATOM     10  N   UNL     1      -0.463   2.128   1.557  1.00  0.00    -0.335 N 
ATOM     11  C   UNL     1      -1.032   1.727   2.712  1.00  0.00     0.319 C 
ATOM     12  H   UNL     1      -1.082   2.652   0.998  1.00  0.00     0.165 HD
ATOM     13  O   UNL     1      -2.263   1.788   2.780  1.00  0.00    -0.248 OA
ATOM     14  N   UNL     1      -0.353   1.141   3.718  1.00  0.00    -0.308 N 
ATOM     15  H   UNL     1      -0.903   0.548   4.280  1.00  0.00     0.171 HD
BRANCH  14  16
ATOM     16  C   UNL     1       0.985   1.218   4.111  1.00  0.00     0.044 A 
ATOM     17  C   UNL     1       1.555   0.090   4.702  1.00  0.00     0.028 A 
ATOM     18  C   UNL     1       1.756   2.364   3.928  1.00  0.00     0.043 A 
ATOM     19  C   UNL     1       2.930   0.051   4.941  1.00  0.00     0.024 A 
ATOM     20  C   UNL     1       3.135   2.327   4.156  1.00  0.00     0.038 A 
ATOM     21  C   UNL     1       3.729   1.156   4.635  1.00  0.00     0.055 A 
ATOM     22  Br  UNL     1       4.130   3.885   3.719  1.00  0.00    -0.049 Br
ATOM     23  Cl  UNL     1       5.436   0.993   4.838  1.00  0.00    -0.083 Cl
ENDBRANCH  14  16
ENDBRANCH   8  10
ENDBRANCH   7   8
ENDBRANCH   6   7
ENDBRANCH   3   6
ENDBRANCH   1   2
BRANCH   1  24
ATOM     24  C   UNL     1      -1.902  -0.782   0.104  1.00  0.00     0.042 C 
BRANCH  24  25
ATOM     25  C   UNL     1      -3.220  -0.749   0.872  1.00  0.00     0.118 C 
BRANCH  25  26
ATOM     26  N   UNL     1      -4.076  -1.857   0.490  1.00  0.00    -0.352 N 
ATOM     27  C   UNL     1      -4.598  -2.856   1.273  1.00  0.00     0.251 C 
ATOM     28  H   UNL     1      -4.316  -1.898  -0.464  1.00  0.00     0.163 HD
ATOM     29  O   UNL     1      -5.037  -3.866   0.718  1.00  0.00    -0.269 OA
BRANCH  27  30
ATOM     30  C   UNL     1      -4.642  -2.750   2.755  1.00  0.00     0.039 A 
ATOM     31  C   UNL     1      -4.479  -3.916   3.512  1.00  0.00     0.014 A 
ATOM     32  C   UNL     1      -4.944  -1.548   3.405  1.00  0.00     0.014 A 
ATOM     33  C   UNL     1      -4.614  -3.881   4.904  1.00  0.00     0.010 A 
ATOM     34  C   UNL     1      -5.032  -1.504   4.801  1.00  0.00     0.010 A 
ATOM     35  C   UNL     1      -4.893  -2.674   5.563  1.00  0.00    -0.014 A 
BRANCH  35  36
ATOM     36  C   UNL     1      -5.101  -2.643   7.037  1.00  0.00     0.031 A 
ATOM     37  C   UNL     1      -6.475  -2.384   7.602  1.00  0.00     0.074 A 
ATOM     38  C   UNL     1      -4.061  -2.834   7.871  1.00  0.00     0.049 A 
ATOM     39  N   UNL     1      -6.856  -2.301   8.852  1.00  0.00    -0.248 NA
ATOM     40  C   UNL     1      -7.557  -2.175   6.629  1.00  0.00     0.031 C 
ATOM     41  C   UNL     1      -2.680  -3.080   7.454  1.00  0.00     0.029 A 
ATOM     42  N   UNL     1      -4.001  -2.846   9.243  1.00  0.00    -0.354 N 
ATOM     43  C   UNL     1      -8.220  -2.024   8.817  1.00  0.00     0.074 A 
ATOM     44  C   UNL     1      -8.584  -1.904   7.421  1.00  0.00     0.031 C 
ATOM     45  C   UNL     1      -1.912  -3.228   8.546  1.00  0.00     0.029 A 
ATOM     46  C   UNL     1      -2.736  -3.057   9.740  1.00  0.00     0.049 A 
ATOM     47  H   UNL     1      -4.790  -2.716   9.817  1.00  0.00     0.167 HD
ATOM     48  C   UNL     1      -9.092  -1.901   9.850  1.00  0.00     0.034 A 
ATOM     49  C   UNL     1      -2.288  -3.100  11.011  1.00  0.00     0.034 A 
ATOM     50  C   UNL     1      -8.721  -2.028  11.240  1.00  0.00     0.049 A 
ATOM     51  C   UNL     1      -3.268  -2.928  12.144  1.00  0.00     0.074 A 
ATOM     52  C   UNL     1      -9.534  -1.969  12.359  1.00  0.00     0.029 A 
ATOM     53  N   UNL     1      -7.427  -2.228  11.704  1.00  0.00    -0.354 N 
ATOM     54  N   UNL     1      -4.562  -2.712  12.092  1.00  0.00    -0.248 NA
ATOM     55  C   UNL     1      -2.727  -3.019  13.507  1.00  0.00     0.031 C 
ATOM     56  C   UNL     1      -8.726  -2.070  13.498  1.00  0.00     0.029 A 
ATOM     57  C   UNL     1      -7.417  -2.263  13.091  1.00  0.00     0.049 A 
ATOM     58  H   UNL     1      -6.633  -2.330  11.131  1.00  0.00     0.167 HD
ATOM     59  C   UNL     1      -4.992  -2.671  13.416  1.00  0.00     0.074 A 
ATOM     60  C   UNL     1      -3.823  -2.896  14.241  1.00  0.00     0.031 C 
ATOM     61  C   UNL     1      -6.243  -2.472  13.905  1.00  0.00     0.034 A 
BRANCH  48  62
ATOM     62  C   UNL     1     -10.529  -1.583   9.510  1.00  0.00     0.023 A 
ATOM     63  C   UNL     1     -11.332  -2.479   8.782  1.00  0.00     0.031 A 
ATOM     64  C   UNL     1     -11.098  -0.358   9.900  1.00  0.00     0.131 A 
ATOM     65  C   UNL     1     -12.630  -2.108   8.403  1.00  0.00     0.055 A 
ATOM     66  C   UNL     1     -12.418  -0.026   9.586  1.00  0.00     0.041 A 
ATOM     67  F   UNL     1     -10.377   0.544  10.583  1.00  0.00    -0.206 F 
ATOM     68  C   UNL     1     -13.188  -0.897   8.820  1.00  0.00     0.022 A 
BRANCH  65  69
ATOM     69  S   UNL     1     -13.536  -3.168   7.242  1.00  0.00     0.124 S 
ATOM     70  O   UNL     1     -12.634  -3.182   6.091  1.00  0.00    -0.237 OA
ATOM     71  O   UNL     1     -13.641  -4.424   7.982  1.00  0.00    -0.237 OA
ATOM     72  O   UNL     1     -14.791  -2.460   7.034  1.00  0.00    -0.744 OA
ENDBRANCH  65  69
ENDBRANCH  48  62
BRANCH  49  73
ATOM     73  C   UNL     1      -0.837  -3.300  11.289  1.00  0.00     0.023 A 
ATOM     74  C   UNL     1      -0.375  -4.461  11.928  1.00  0.00     0.031 A 
ATOM     75  C   UNL     1       0.103  -2.309  10.955  1.00  0.00     0.131 A 
ATOM     76  C   UNL     1       0.986  -4.586  12.250  1.00  0.00     0.055 A 
ATOM     77  C   UNL     1       1.462  -2.458  11.237  1.00  0.00     0.041 A 
ATOM     78  F   UNL     1      -0.287  -1.184  10.334  1.00  0.00    -0.206 F 
ATOM     79  C   UNL     1       1.908  -3.597  11.900  1.00  0.00     0.022 A 
BRANCH  76  80
ATOM     80  S   UNL     1       1.524  -6.034  13.200  1.00  0.00     0.124 S 
ATOM     81  O   UNL     1       0.712  -5.918  14.406  1.00  0.00    -0.237 OA
ATOM     82  O   UNL     1       1.183  -7.129  12.298  1.00  0.00    -0.237 OA
ATOM     83  O   UNL     1       2.955  -5.806  13.385  1.00  0.00    -0.744 OA
ENDBRANCH  76  80
ENDBRANCH  49  73
BRANCH  61  84
ATOM     84  C   UNL     1      -6.410  -2.531  15.404  1.00  0.00     0.023 A 
ATOM     85  C   UNL     1      -5.862  -1.551  16.249  1.00  0.00     0.031 A 
ATOM     86  C   UNL     1      -7.115  -3.595  15.994  1.00  0.00     0.131 A 
ATOM     87  C   UNL     1      -5.983  -1.681  17.641  1.00  0.00     0.055 A 
ATOM     88  C   UNL     1      -7.279  -3.691  17.377  1.00  0.00     0.041 A 
ATOM     89  F   UNL     1      -7.657  -4.560  15.234  1.00  0.00    -0.206 F 
ATOM     90  C   UNL     1      -6.700  -2.738  18.210  1.00  0.00     0.022 A 
BRANCH  87  91
ATOM     91  S   UNL     1      -5.117  -0.497  18.708  1.00  0.00     0.124 S 
ATOM     92  O   UNL     1      -3.728  -0.677  18.297  1.00  0.00    -0.237 OA
ATOM     93  O   UNL     1      -5.733   0.771  18.332  1.00  0.00    -0.237 OA
ATOM     94  O   UNL     1      -5.428  -0.959  20.059  1.00  0.00    -0.744 OA
ENDBRANCH  87  91
ENDBRANCH  61  84
ENDBRANCH  35  36
ENDBRANCH  27  30
ENDBRANCH  25  26
ENDBRANCH  24  25
ENDBRANCH   1  24
TORSDOF 17
