REMARK SMILES N#Cc1ccc2c(c1)C=C(C(=O)NCCCNC(=O)c1ccc(-c3c4nc(c(-c5cc(S(=O)(=O)[O-])ccc5F)c5ccc([nH]5)c(-c5cc(S(=O)(=O)[O-])ccc5F)c5nc(c(-c6cc(S(=O)(=O)[O-])ccc6F)c6ccc3[nH]6)C=C5)C=C4)cc1)[C@@H](C(F)(F)F)O2
REMARK SMILES IDX 16 1 15 2 14 3 13 4 11 5 12 6 10 8 3 9 4 10 8 11 5 12 7 13
REMARK SMILES IDX 6 14 9 15 88 16 83 17 2 18 1 19 84 20 85 21 86 22 87 23
REMARK SMILES IDX 17 24 18 25 19 27 20 28 21 29 82 30 22 31 81 32 23 33 24 34
REMARK SMILES IDX 25 35 75 36 26 37 80 38 74 39 76 40 27 41 79 42 73 43 72 44
REMARK SMILES IDX 28 46 60 47 40 48 59 49 41 50 44 51 58 52 77 53 42 54 43 55
REMARK SMILES IDX 57 57 78 58 45 59 29 60 30 61 38 62 31 63 37 64 39 65 36 66
REMARK SMILES IDX 32 67 33 68 34 69 35 70 61 71 62 72 70 73 63 74 69 75 71 76
REMARK SMILES IDX 68 77 64 78 65 79 66 80 67 81 46 82 47 83 55 84 48 85 54 86
REMARK SMILES IDX 56 87 53 88 49 89 50 90 51 91 52 92
REMARK H PARENT 13 7 17 26 76 45 44 56
REMARK Flexibility Score: inf
ROOT
ATOM      1  C   UNL     1      12.830  -3.620   1.282  1.00  0.00     0.118 C 
ENDROOT
BRANCH   1   2
ATOM      2  C   UNL     1      11.867  -2.460   1.109  1.00  0.00     0.042 C 
BRANCH   2   3
ATOM      3  C   UNL     1      11.075  -2.579  -0.179  1.00  0.00     0.118 C 
BRANCH   3   4
ATOM      4  N   UNL     1       9.963  -3.511  -0.054  1.00  0.00    -0.352 N 
ATOM      5  C   UNL     1       8.611  -3.442  -0.035  1.00  0.00     0.251 C 
ATOM      6  O   UNL     1       8.022  -4.524   0.049  1.00  0.00    -0.270 OA
ATOM      7  H   UNL     1      10.278  -4.439   0.042  1.00  0.00     0.163 HD
BRANCH   5   8
ATOM      8  C   UNL     1       7.824  -2.177  -0.113  1.00  0.00     0.067 C 
ATOM      9  C   UNL     1       3.524   0.036  -0.086  1.00  0.00     0.053 A 
ATOM     10  C   UNL     1       4.168   1.278  -0.074  1.00  0.00     0.023 A 
ATOM     11  C   UNL     1       4.277  -1.147  -0.063  1.00  0.00     0.031 A 
ATOM     12  C   UNL     1       5.558   1.339  -0.042  1.00  0.00     0.048 A 
ATOM     13  C   UNL     1       5.674  -1.086  -0.036  1.00  0.00     0.018 A 
ATOM     14  C   UNL     1       6.300   0.162  -0.032  1.00  0.00     0.128 A 
ATOM     15  C   UNL     1       6.491  -2.292   0.033  1.00  0.00     0.025 C 
ATOM     16  O   UNL     1       7.652   0.313   0.027  1.00  0.00    -0.475 OA
ATOM     17  C   UNL     1       8.448  -0.835  -0.364  1.00  0.00     0.314 C 
BRANCH   9  18
ATOM     18  C   UNL     1       2.093  -0.019  -0.114  1.00  0.00     0.099 C 
ATOM     19  N   UNL     1       0.932  -0.052  -0.142  1.00  0.00    -0.192 NA
ENDBRANCH   9  18
BRANCH  17  20
ATOM     20  C   UNL     1       8.888  -0.662  -1.833  1.00  0.00     0.429 C 
ATOM     21  F   UNL     1       9.800   0.335  -1.941  1.00  0.00    -0.167 F 
ATOM     22  F   UNL     1       9.471  -1.772  -2.344  1.00  0.00    -0.167 F 
ATOM     23  F   UNL     1       7.855  -0.359  -2.651  1.00  0.00    -0.167 F 
ENDBRANCH  17  20
ENDBRANCH   5   8
ENDBRANCH   3   4
ENDBRANCH   2   3
ENDBRANCH   1   2
BRANCH   1  24
ATOM     24  N   UNL     1      13.851  -3.653   0.232  1.00  0.00    -0.352 N 
ATOM     25  C   UNL     1      15.208  -3.433   0.299  1.00  0.00     0.251 C 
ATOM     26  H   UNL     1      13.512  -3.867  -0.667  1.00  0.00     0.163 HD
ATOM     27  O   UNL     1      15.854  -3.279  -0.732  1.00  0.00    -0.269 OA
BRANCH  25  28
ATOM     28  C   UNL     1      15.858  -3.353   1.620  1.00  0.00     0.039 A 
ATOM     29  C   UNL     1      15.449  -4.210   2.637  1.00  0.00     0.014 A 
ATOM     30  C   UNL     1      16.823  -2.375   1.867  1.00  0.00     0.014 A 
ATOM     31  C   UNL     1      15.783  -3.914   3.946  1.00  0.00     0.010 A 
ATOM     32  C   UNL     1      17.285  -2.185   3.172  1.00  0.00     0.010 A 
ATOM     33  C   UNL     1      16.710  -2.901   4.234  1.00  0.00    -0.014 A 
BRANCH  33  34
ATOM     34  C   UNL     1      17.050  -2.625   5.654  1.00  0.00     0.031 A 
ATOM     35  C   UNL     1      16.818  -1.265   6.258  1.00  0.00     0.074 A 
ATOM     36  C   UNL     1      17.507  -3.637   6.420  1.00  0.00     0.049 A 
ATOM     37  N   UNL     1      17.029  -0.869   7.487  1.00  0.00    -0.248 NA
ATOM     38  C   UNL     1      16.290  -0.211   5.376  1.00  0.00     0.031 C 
ATOM     39  C   UNL     1      17.760  -4.997   5.939  1.00  0.00     0.029 A 
ATOM     40  N   UNL     1      17.811  -3.697   7.755  1.00  0.00    -0.354 N 
ATOM     41  C   UNL     1      16.687   0.479   7.520  1.00  0.00     0.074 A 
ATOM     42  C   UNL     1      16.293   0.845   6.178  1.00  0.00     0.031 C 
ATOM     43  C   UNL     1      18.109  -5.771   6.972  1.00  0.00     0.029 A 
ATOM     44  C   UNL     1      18.212  -4.947   8.170  1.00  0.00     0.049 A 
ATOM     45  H   UNL     1      17.748  -2.922   8.359  1.00  0.00     0.167 HD
ATOM     46  C   UNL     1      16.686   1.323   8.578  1.00  0.00     0.034 A 
ATOM     47  C   UNL     1      18.642  -5.383   9.371  1.00  0.00     0.034 A 
ATOM     48  C   UNL     1      17.059   0.927   9.914  1.00  0.00     0.049 A 
ATOM     49  C   UNL     1      18.666  -4.415  10.521  1.00  0.00     0.074 A 
ATOM     50  C   UNL     1      17.057   1.700  11.062  1.00  0.00     0.029 A 
ATOM     51  N   UNL     1      17.494  -0.337  10.288  1.00  0.00    -0.354 N 
ATOM     52  N   UNL     1      18.291  -3.157  10.545  1.00  0.00    -0.248 NA
ATOM     53  C   UNL     1      19.158  -4.918  11.808  1.00  0.00     0.031 C 
ATOM     54  C   UNL     1      17.577   0.935  12.104  1.00  0.00     0.029 A 
ATOM     55  C   UNL     1      17.799  -0.351  11.640  1.00  0.00     0.049 A 
ATOM     56  H   UNL     1      17.575  -1.109   9.683  1.00  0.00     0.167 HD
ATOM     57  C   UNL     1      18.477  -2.727  11.855  1.00  0.00     0.074 A 
ATOM     58  C   UNL     1      18.967  -3.870  12.598  1.00  0.00     0.031 C 
ATOM     59  C   UNL     1      18.267  -1.497  12.387  1.00  0.00     0.034 A 
BRANCH  46  60
ATOM     60  C   UNL     1      16.270   2.762   8.372  1.00  0.00     0.023 A 
ATOM     61  C   UNL     1      17.172   3.799   8.683  1.00  0.00     0.031 A 
ATOM     62  C   UNL     1      14.953   3.112   8.028  1.00  0.00     0.131 A 
ATOM     63  C   UNL     1      16.729   5.127   8.703  1.00  0.00     0.055 A 
ATOM     64  C   UNL     1      14.532   4.444   7.991  1.00  0.00     0.041 A 
ATOM     65  F   UNL     1      14.051   2.165   7.724  1.00  0.00    -0.206 F 
ATOM     66  C   UNL     1      15.417   5.456   8.348  1.00  0.00     0.022 A 
BRANCH  63  67
ATOM     67  S   UNL     1      17.807   6.465   9.285  1.00  0.00     0.124 S 
ATOM     68  O   UNL     1      17.834   7.354   8.125  1.00  0.00    -0.237 OA
ATOM     69  O   UNL     1      17.069   6.968  10.440  1.00  0.00    -0.237 OA
ATOM     70  O   UNL     1      19.068   5.795   9.583  1.00  0.00    -0.744 OA
ENDBRANCH  63  67
ENDBRANCH  46  60
BRANCH  47  71
ATOM     71  C   UNL     1      19.044  -6.813   9.520  1.00  0.00     0.023 A 
ATOM     72  C   UNL     1      20.072  -7.355   8.725  1.00  0.00     0.031 A 
ATOM     73  C   UNL     1      18.331  -7.684  10.358  1.00  0.00     0.131 A 
ATOM     74  C   UNL     1      20.294  -8.737   8.718  1.00  0.00     0.055 A 
ATOM     75  C   UNL     1      18.618  -9.050  10.416  1.00  0.00     0.041 A 
ATOM     76  F   UNL     1      17.330  -7.221  11.123  1.00  0.00    -0.206 F 
ATOM     77  C   UNL     1      19.590  -9.586   9.576  1.00  0.00     0.022 A 
BRANCH  74  78
ATOM     78  S   UNL     1      21.388  -9.492   7.482  1.00  0.00     0.124 S 
ATOM     79  O   UNL     1      22.372 -10.171   8.319  1.00  0.00    -0.237 OA
ATOM     80  O   UNL     1      20.462 -10.364   6.762  1.00  0.00    -0.237 OA
ATOM     81  O   UNL     1      21.885  -8.353   6.719  1.00  0.00    -0.744 OA
ENDBRANCH  74  78
ENDBRANCH  47  71
BRANCH  59  82
ATOM     82  C   UNL     1      18.533  -1.288  13.861  1.00  0.00     0.023 A 
ATOM     83  C   UNL     1      17.491  -0.847  14.701  1.00  0.00     0.031 A 
ATOM     84  C   UNL     1      19.828  -1.366  14.399  1.00  0.00     0.131 A 
ATOM     85  C   UNL     1      17.772  -0.448  16.012  1.00  0.00     0.055 A 
ATOM     86  C   UNL     1      20.091  -1.033  15.728  1.00  0.00     0.041 A 
ATOM     87  F   UNL     1      20.861  -1.764  13.638  1.00  0.00    -0.206 F 
ATOM     88  C   UNL     1      19.064  -0.553  16.536  1.00  0.00     0.022 A 
BRANCH  85  89
ATOM     89  S   UNL     1      16.500   0.330  17.045  1.00  0.00     0.124 S 
ATOM     90  O   UNL     1      16.427  -0.590  18.178  1.00  0.00    -0.237 OA
ATOM     91  O   UNL     1      17.095   1.631  17.336  1.00  0.00    -0.237 OA
ATOM     92  O   UNL     1      15.318   0.357  16.189  1.00  0.00    -0.744 OA
ENDBRANCH  85  89
ENDBRANCH  59  82
ENDBRANCH  33  34
ENDBRANCH  25  28
ENDBRANCH   1  24
TORSDOF 15
