REMARK SMILES C[N@H+](CC(C)(C)C(=O)NCCCNC(=O)c1ccc(-c2c3nc(c(-c4cc(S(=O)(=O)[O-])ccc4F)c4ccc([nH]4)c(-c4cc(S(=O)(=O)[O-])ccc4F)c4nc(c(-c5cc(S(=O)(=O)[O-])ccc5F)c5ccc2[nH]5)C=C4)C=C3)cc1)[C@@H]1CCCC[C@@H]1C[NH3+]
REMARK SMILES IDX 10 1 9 2 7 3 8 4 4 6 5 7 6 8 3 9 2 10 1 11 79 13 80 14 84 15
REMARK SMILES IDX 81 16 83 17 82 18 85 19 86 20 11 24 12 25 13 26 14 27 15 29
REMARK SMILES IDX 16 30 17 31 78 32 18 33 77 34 19 35 20 36 21 37 71 38 22 39
REMARK SMILES IDX 76 40 70 41 72 42 23 43 75 44 69 45 68 46 24 48 56 49 36 50
REMARK SMILES IDX 55 51 37 52 40 53 54 54 73 55 38 56 39 57 53 59 74 60 41 61
REMARK SMILES IDX 25 62 26 63 34 64 27 65 33 66 35 67 32 68 28 69 29 70 30 71
REMARK SMILES IDX 31 72 57 73 58 74 66 75 59 76 65 77 67 78 64 79 60 80 61 81
REMARK SMILES IDX 62 82 63 83 42 84 43 85 51 86 44 87 50 88 52 89 49 90 45 91
REMARK SMILES IDX 46 92 47 93 48 94
REMARK H PARENT 9 5 2 12 86 21 86 22 86 23 13 28 72 47 40 58
REMARK Flexibility Score: inf
ROOT
ATOM      1  C   UNL     1      -2.571   2.958   2.188  1.00  0.00     0.117 C 
ENDROOT
BRANCH   1   2
ATOM      2  N   UNL     1      -1.950   1.658   2.009  1.00  0.00    -0.355 N 
ATOM      3  C   UNL     1      -1.830   0.773   0.999  1.00  0.00     0.231 C 
ATOM      4  O   UNL     1      -1.424  -0.342   1.363  1.00  0.00    -0.274 OA
ATOM      5  H   UNL     1      -1.507   1.345   2.830  1.00  0.00     0.163 HD
BRANCH   3   6
ATOM      6  C   UNL     1      -2.145   1.023  -0.489  1.00  0.00     0.092 C 
ATOM      7  C   UNL     1      -2.761   2.355  -0.929  1.00  0.00     0.027 C 
ATOM      8  C   UNL     1      -3.232  -0.032  -0.830  1.00  0.00     0.027 C 
BRANCH   6   9
ATOM      9  C   UNL     1      -0.842   0.745  -1.338  1.00  0.00     0.278 C 
BRANCH   9  10
ATOM     10  N   UNL     1       0.455   1.016  -0.660  1.00  0.00    -0.334 N 
ATOM     11  C   UNL     1       1.169  -0.250  -0.436  1.00  0.00     0.333 C 
ATOM     12  H   UNL     1       0.216   1.436   0.238  1.00  0.00     0.348 HD
BRANCH  10  13
ATOM     13  C   UNL     1       1.311   2.081  -1.264  1.00  0.00     0.192 C 
ATOM     14  C   UNL     1       2.812   2.010  -0.831  1.00  0.00     0.065 C 
ATOM     15  C   UNL     1       0.733   3.507  -1.000  1.00  0.00     0.102 C 
ATOM     16  C   UNL     1       3.677   3.198  -1.257  1.00  0.00     0.006 C 
ATOM     17  C   UNL     1       1.650   4.595  -1.579  1.00  0.00     0.015 C 
ATOM     18  C   UNL     1       3.036   4.543  -0.963  1.00  0.00     0.001 C 
BRANCH  15  19
ATOM     19  C   UNL     1       0.377   3.850   0.470  1.00  0.00     0.268 C 
BRANCH  19  20
ATOM     20  N   UNL     1       1.057   3.090   1.509  1.00  0.00    -0.357 N 
ATOM     21  H   UNL     1       0.792   2.107   1.439  1.00  0.00     0.344 HD
ATOM     22  H   UNL     1       0.789   3.450   2.425  1.00  0.00     0.344 HD
ATOM     23  H   UNL     1       2.066   3.179   1.390  1.00  0.00     0.344 HD
ENDBRANCH  19  20
ENDBRANCH  15  19
ENDBRANCH  10  13
ENDBRANCH   9  10
ENDBRANCH   6   9
ENDBRANCH   3   6
ENDBRANCH   1   2
BRANCH   1  24
ATOM     24  C   UNL     1      -3.725   2.885   3.172  1.00  0.00     0.042 C 
BRANCH  24  25
ATOM     25  C   UNL     1      -3.282   2.507   4.580  1.00  0.00     0.118 C 
BRANCH  25  26
ATOM     26  N   UNL     1      -2.483   3.547   5.220  1.00  0.00    -0.352 N 
ATOM     27  C   UNL     1      -2.772   4.311   6.329  1.00  0.00     0.251 C 
ATOM     28  H   UNL     1      -1.612   3.728   4.799  1.00  0.00     0.163 HD
ATOM     29  O   UNL     1      -2.070   5.270   6.612  1.00  0.00    -0.269 OA
BRANCH  27  30
ATOM     30  C   UNL     1      -3.961   3.977   7.142  1.00  0.00     0.039 A 
ATOM     31  C   UNL     1      -4.836   4.994   7.525  1.00  0.00     0.014 A 
ATOM     32  C   UNL     1      -4.232   2.649   7.480  1.00  0.00     0.014 A 
ATOM     33  C   UNL     1      -6.030   4.665   8.172  1.00  0.00     0.010 A 
ATOM     34  C   UNL     1      -5.467   2.316   8.020  1.00  0.00     0.010 A 
ATOM     35  C   UNL     1      -6.377   3.320   8.381  1.00  0.00    -0.014 A 
BRANCH  35  36
ATOM     36  C   UNL     1      -7.675   2.936   8.994  1.00  0.00     0.031 A 
ATOM     37  C   UNL     1      -7.691   2.155  10.281  1.00  0.00     0.074 A 
ATOM     38  C   UNL     1      -8.830   3.221   8.360  1.00  0.00     0.049 A 
ATOM     39  N   UNL     1      -8.705   1.645  10.931  1.00  0.00    -0.248 NA
ATOM     40  C   UNL     1      -6.384   1.875  10.893  1.00  0.00     0.031 C 
ATOM     41  C   UNL     1      -8.943   3.928   7.082  1.00  0.00     0.029 A 
ATOM     42  N   UNL     1     -10.130   2.948   8.702  1.00  0.00    -0.354 N 
ATOM     43  C   UNL     1      -8.156   0.968  12.015  1.00  0.00     0.074 A 
ATOM     44  C   UNL     1      -6.718   1.061  11.880  1.00  0.00     0.031 C 
ATOM     45  C   UNL     1     -10.241   4.069   6.771  1.00  0.00     0.029 A 
ATOM     46  C   UNL     1     -11.051   3.422   7.797  1.00  0.00     0.049 A 
ATOM     47  H   UNL     1     -10.380   2.459   9.519  1.00  0.00     0.167 HD
ATOM     48  C   UNL     1      -8.790   0.355  13.046  1.00  0.00     0.034 A 
ATOM     49  C   UNL     1     -12.396   3.341   7.795  1.00  0.00     0.034 A 
ATOM     50  C   UNL     1     -10.225   0.285  13.169  1.00  0.00     0.049 A 
ATOM     51  C   UNL     1     -13.084   2.635   8.935  1.00  0.00     0.074 A 
ATOM     52  C   UNL     1     -10.980  -0.263  14.191  1.00  0.00     0.029 A 
ATOM     53  N   UNL     1     -11.127   0.775  12.231  1.00  0.00    -0.354 N 
ATOM     54  N   UNL     1     -12.554   2.040   9.979  1.00  0.00    -0.248 NA
ATOM     55  C   UNL     1     -14.551   2.599   8.900  1.00  0.00     0.031 C 
ATOM     56  C   UNL     1     -12.331  -0.164  13.841  1.00  0.00     0.029 A 
ATOM     57  C   UNL     1     -12.428   0.516  12.637  1.00  0.00     0.049 A 
ATOM     58  H   UNL     1     -10.878   1.239  11.399  1.00  0.00     0.167 HD
ATOM     59  C   UNL     1     -13.627   1.588  10.743  1.00  0.00     0.074 A 
ATOM     60  C   UNL     1     -14.831   1.989  10.042  1.00  0.00     0.031 C 
ATOM     61  C   UNL     1     -13.619   0.910  11.919  1.00  0.00     0.034 A 
BRANCH  48  62
ATOM     62  C   UNL     1      -7.919  -0.299  14.096  1.00  0.00     0.023 A 
ATOM     63  C   UNL     1      -6.983   0.442  14.842  1.00  0.00     0.031 A 
ATOM     64  C   UNL     1      -7.971  -1.687  14.308  1.00  0.00     0.131 A 
ATOM     65  C   UNL     1      -6.066  -0.218  15.673  1.00  0.00     0.055 A 
ATOM     66  C   UNL     1      -7.122  -2.326  15.215  1.00  0.00     0.041 A 
ATOM     67  F   UNL     1      -8.828  -2.454  13.616  1.00  0.00    -0.206 F 
ATOM     68  C   UNL     1      -6.146  -1.595  15.886  1.00  0.00     0.022 A 
BRANCH  65  69
ATOM     69  S   UNL     1      -4.652   0.722  16.313  1.00  0.00     0.124 S 
ATOM     70  O   UNL     1      -4.040   1.210  15.078  1.00  0.00    -0.237 OA
ATOM     71  O   UNL     1      -5.295   1.729  17.148  1.00  0.00    -0.237 OA
ATOM     72  O   UNL     1      -3.870  -0.281  17.032  1.00  0.00    -0.744 OA
ENDBRANCH  65  69
ENDBRANCH  48  62
BRANCH  49  73
ATOM     73  C   UNL     1     -13.185   3.953   6.688  1.00  0.00     0.023 A 
ATOM     74  C   UNL     1     -14.029   5.049   6.928  1.00  0.00     0.031 A 
ATOM     75  C   UNL     1     -13.123   3.441   5.380  1.00  0.00     0.131 A 
ATOM     76  C   UNL     1     -14.805   5.576   5.885  1.00  0.00     0.055 A 
ATOM     77  C   UNL     1     -13.862   3.999   4.335  1.00  0.00     0.041 A 
ATOM     78  F   UNL     1     -12.325   2.400   5.095  1.00  0.00    -0.206 F 
ATOM     79  C   UNL     1     -14.718   5.067   4.587  1.00  0.00     0.022 A 
BRANCH  76  80
ATOM     80  S   UNL     1     -15.981   6.904   6.262  1.00  0.00     0.124 S 
ATOM     81  O   UNL     1     -16.851   6.261   7.241  1.00  0.00    -0.237 OA
ATOM     82  O   UNL     1     -15.103   7.951   6.773  1.00  0.00    -0.237 OA
ATOM     83  O   UNL     1     -16.599   7.189   4.969  1.00  0.00    -0.744 OA
ENDBRANCH  76  80
ENDBRANCH  49  73
BRANCH  61  84
ATOM     84  C   UNL     1     -14.959   0.603  12.541  1.00  0.00     0.023 A 
ATOM     85  C   UNL     1     -15.870  -0.285  11.942  1.00  0.00     0.031 A 
ATOM     86  C   UNL     1     -15.335   1.223  13.747  1.00  0.00     0.131 A 
ATOM     87  C   UNL     1     -17.133  -0.485  12.520  1.00  0.00     0.055 A 
ATOM     88  C   UNL     1     -16.568   0.972  14.349  1.00  0.00     0.041 A 
ATOM     89  F   UNL     1     -14.506   2.082  14.361  1.00  0.00    -0.206 F 
ATOM     90  C   UNL     1     -17.481   0.124  13.728  1.00  0.00     0.022 A 
BRANCH  87  91
ATOM     91  S   UNL     1     -18.356  -1.476  11.618  1.00  0.00     0.124 S 
ATOM     92  O   UNL     1     -18.462  -0.752  10.356  1.00  0.00    -0.237 OA
ATOM     93  O   UNL     1     -17.710  -2.783  11.551  1.00  0.00    -0.237 OA
ATOM     94  O   UNL     1     -19.542  -1.415  12.470  1.00  0.00    -0.744 OA
ENDBRANCH  87  91
ENDBRANCH  61  84
ENDBRANCH  35  36
ENDBRANCH  27  30
ENDBRANCH  25  26
ENDBRANCH  24  25
ENDBRANCH   1  24
TORSDOF 18
