REMARK SMILES CC(C)[C@@H](CC(=O)NCCCNC(=O)c1ccc(-c2c3nc(c(-c4cc(S(=O)(=O)[O-])ccc4F)c4ccc([nH]4)c(-c4cc(S(=O)(=O)[O-])ccc4F)c4nc(c(-c5cc(S(=O)(=O)[O-])ccc5F)c5ccc2[nH]5)C=C4)C=C3)cc1)NC(=O)OCc1ccccc1
REMARK SMILES IDX 9 1 8 2 6 3 7 4 5 6 4 7 2 8 1 9 3 10 78 11 79 12 80 14 81 15
REMARK SMILES IDX 82 16 83 17 84 18 88 19 85 20 87 21 86 22 10 23 11 24 12 25
REMARK SMILES IDX 13 26 14 28 15 29 16 30 77 31 17 32 76 33 18 34 19 35 20 36
REMARK SMILES IDX 70 37 21 38 75 39 69 40 71 41 22 42 74 43 68 44 67 45 23 47
REMARK SMILES IDX 55 48 35 49 54 50 36 51 39 52 53 53 72 54 37 55 38 56 52 58
REMARK SMILES IDX 73 59 40 60 24 61 25 62 33 63 26 64 32 65 34 66 31 67 27 68
REMARK SMILES IDX 28 69 29 70 30 71 56 72 57 73 65 74 58 75 64 76 66 77 63 78
REMARK SMILES IDX 59 79 60 80 61 81 62 82 41 83 42 84 50 85 43 86 49 87 51 88
REMARK SMILES IDX 48 89 44 90 45 91 46 92 47 93
REMARK H PARENT 8 5 78 13 12 27 71 46 39 57
REMARK Flexibility Score: inf
ROOT
ATOM      1  C   UNL     1       1.412  -2.495  -1.263  1.00  0.00     0.117 C 
ENDROOT
BRANCH   1   2
ATOM      2  N   UNL     1       0.175  -3.234  -1.091  1.00  0.00    -0.356 N 
ATOM      3  C   UNL     1      -1.051  -2.828  -0.667  1.00  0.00     0.222 C 
ATOM      4  O   UNL     1      -1.921  -3.693  -0.541  1.00  0.00    -0.275 OA
ATOM      5  H   UNL     1       0.233  -4.190  -1.319  1.00  0.00     0.163 HD
BRANCH   3   6
ATOM      6  C   UNL     1      -1.361  -1.367  -0.381  1.00  0.00     0.125 C 
BRANCH   6   7
ATOM      7  C   UNL     1      -1.117  -0.870   1.062  1.00  0.00     0.097 C 
BRANCH   7   8
ATOM      8  C   UNL     1       0.315  -0.322   1.321  1.00  0.00     0.006 C 
ATOM      9  C   UNL     1       0.632   0.940   0.515  1.00  0.00     0.009 C 
ATOM     10  C   UNL     1       0.622  -0.051   2.800  1.00  0.00     0.009 C 
ENDBRANCH   7   8
BRANCH   7  11
ATOM     11  N   UNL     1      -1.455  -1.900   2.039  1.00  0.00    -0.318 N 
ATOM     12  C   UNL     1      -2.156  -1.748   3.196  1.00  0.00     0.407 C 
ATOM     13  H   UNL     1      -1.140  -2.811   1.838  1.00  0.00     0.167 HD
ATOM     14  O   UNL     1      -2.122  -2.619   4.061  1.00  0.00    -0.225 OA
BRANCH  12  15
ATOM     15  O   UNL     1      -2.837  -0.582   3.275  1.00  0.00    -0.445 OA
BRANCH  15  16
ATOM     16  C   UNL     1      -3.545  -0.363   4.504  1.00  0.00     0.270 C 
BRANCH  16  17
ATOM     17  C   UNL     1      -4.962  -0.884   4.441  1.00  0.00    -0.011 A 
ATOM     18  C   UNL     1      -6.049  -0.010   4.310  1.00  0.00     0.007 A 
ATOM     19  C   UNL     1      -5.218  -2.261   4.528  1.00  0.00     0.007 A 
ATOM     20  C   UNL     1      -7.357  -0.503   4.269  1.00  0.00     0.000 A 
ATOM     21  C   UNL     1      -6.522  -2.755   4.473  1.00  0.00     0.000 A 
ATOM     22  C   UNL     1      -7.592  -1.875   4.346  1.00  0.00     0.000 A 
ENDBRANCH  16  17
ENDBRANCH  15  16
ENDBRANCH  12  15
ENDBRANCH   7  11
ENDBRANCH   6   7
ENDBRANCH   3   6
ENDBRANCH   1   2
BRANCH   1  23
ATOM     23  C   UNL     1       2.391  -2.794  -0.129  1.00  0.00     0.042 C 
BRANCH  23  24
ATOM     24  C   UNL     1       3.183  -4.079  -0.302  1.00  0.00     0.118 C 
BRANCH  24  25
ATOM     25  N   UNL     1       4.245  -3.941  -1.281  1.00  0.00    -0.352 N 
ATOM     26  C   UNL     1       5.611  -3.974  -1.134  1.00  0.00     0.251 C 
ATOM     27  H   UNL     1       3.935  -3.799  -2.205  1.00  0.00     0.163 HD
ATOM     28  O   UNL     1       6.303  -3.603  -2.081  1.00  0.00    -0.269 OA
BRANCH  26  29
ATOM     29  C   UNL     1       6.260  -4.418   0.128  1.00  0.00     0.039 A 
ATOM     30  C   UNL     1       7.487  -3.845   0.481  1.00  0.00     0.014 A 
ATOM     31  C   UNL     1       5.725  -5.427   0.933  1.00  0.00     0.014 A 
ATOM     32  C   UNL     1       8.146  -4.253   1.645  1.00  0.00     0.010 A 
ATOM     33  C   UNL     1       6.331  -5.760   2.146  1.00  0.00     0.010 A 
ATOM     34  C   UNL     1       7.563  -5.197   2.505  1.00  0.00    -0.014 A 
BRANCH  34  35
ATOM     35  C   UNL     1       8.257  -5.636   3.747  1.00  0.00     0.031 A 
ATOM     36  C   UNL     1       8.675  -7.075   3.917  1.00  0.00     0.074 A 
ATOM     37  C   UNL     1       8.489  -4.748   4.735  1.00  0.00     0.049 A 
ATOM     38  N   UNL     1       9.269  -7.654   4.930  1.00  0.00    -0.248 NA
ATOM     39  C   UNL     1       8.352  -7.992   2.813  1.00  0.00     0.031 C 
ATOM     40  C   UNL     1       8.085  -3.340   4.716  1.00  0.00     0.029 A 
ATOM     41  N   UNL     1       9.120  -4.893   5.945  1.00  0.00    -0.354 N 
ATOM     42  C   UNL     1       9.381  -8.999   4.590  1.00  0.00     0.074 A 
ATOM     43  C   UNL     1       8.724  -9.161   3.311  1.00  0.00     0.031 C 
ATOM     44  C   UNL     1       8.507  -2.745   5.843  1.00  0.00     0.029 A 
ATOM     45  C   UNL     1       9.177  -3.733   6.683  1.00  0.00     0.049 A 
ATOM     46  H   UNL     1       9.496  -5.748   6.256  1.00  0.00     0.167 HD
ATOM     47  C   UNL     1      10.000 -10.002   5.264  1.00  0.00     0.034 A 
ATOM     48  C   UNL     1       9.708  -3.491   7.898  1.00  0.00     0.034 A 
ATOM     49  C   UNL     1      10.665  -9.822   6.532  1.00  0.00     0.049 A 
ATOM     50  C   UNL     1      10.398  -4.616   8.626  1.00  0.00     0.074 A 
ATOM     51  C   UNL     1      11.360 -10.755   7.283  1.00  0.00     0.029 A 
ATOM     52  N   UNL     1      10.716  -8.628   7.240  1.00  0.00    -0.354 N 
ATOM     53  N   UNL     1      10.539  -5.871   8.264  1.00  0.00    -0.248 NA
ATOM     54  C   UNL     1      11.017  -4.287   9.915  1.00  0.00     0.031 C 
ATOM     55  C   UNL     1      11.780 -10.140   8.469  1.00  0.00     0.029 A 
ATOM     56  C   UNL     1      11.411  -8.805   8.427  1.00  0.00     0.049 A 
ATOM     57  H   UNL     1      10.317  -7.779   6.942  1.00  0.00     0.167 HD
ATOM     58  C   UNL     1      11.284  -6.474   9.274  1.00  0.00     0.074 A 
ATOM     59  C   UNL     1      11.583  -5.439  10.242  1.00  0.00     0.031 C 
ATOM     60  C   UNL     1      11.686  -7.766   9.392  1.00  0.00     0.034 A 
BRANCH  47  61
ATOM     61  C   UNL     1       9.968 -11.379   4.640  1.00  0.00     0.023 A 
ATOM     62  C   UNL     1      10.560 -11.636   3.390  1.00  0.00     0.031 A 
ATOM     63  C   UNL     1       9.307 -12.441   5.282  1.00  0.00     0.131 A 
ATOM     64  C   UNL     1      10.407 -12.892   2.784  1.00  0.00     0.055 A 
ATOM     65  C   UNL     1       9.232 -13.715   4.712  1.00  0.00     0.041 A 
ATOM     66  F   UNL     1       8.705 -12.256   6.467  1.00  0.00    -0.206 F 
ATOM     67  C   UNL     1       9.769 -13.942   3.448  1.00  0.00     0.022 A 
BRANCH  64  68
ATOM     68  S   UNL     1      10.919 -13.087   1.055  1.00  0.00     0.124 S 
ATOM     69  O   UNL     1      10.086 -12.089   0.387  1.00  0.00    -0.237 OA
ATOM     70  O   UNL     1      12.346 -12.792   1.113  1.00  0.00    -0.237 OA
ATOM     71  O   UNL     1      10.579 -14.475   0.751  1.00  0.00    -0.744 OA
ENDBRANCH  64  68
ENDBRANCH  47  61
BRANCH  48  72
ATOM     72  C   UNL     1       9.614  -2.132   8.505  1.00  0.00     0.023 A 
ATOM     73  C   UNL     1      10.763  -1.360   8.742  1.00  0.00     0.031 A 
ATOM     74  C   UNL     1       8.371  -1.600   8.893  1.00  0.00     0.131 A 
ATOM     75  C   UNL     1      10.651  -0.119   9.389  1.00  0.00     0.055 A 
ATOM     76  C   UNL     1       8.260  -0.343   9.490  1.00  0.00     0.041 A 
ATOM     77  F   UNL     1       7.241  -2.293   8.682  1.00  0.00    -0.206 F 
ATOM     78  C   UNL     1       9.407   0.399   9.754  1.00  0.00     0.022 A 
BRANCH  75  79
ATOM     79  S   UNL     1      12.169   0.775   9.821  1.00  0.00     0.124 S 
ATOM     80  O   UNL     1      12.867  -0.203  10.647  1.00  0.00    -0.237 OA
ATOM     81  O   UNL     1      12.749   1.038   8.508  1.00  0.00    -0.237 OA
ATOM     82  O   UNL     1      11.679   1.955  10.530  1.00  0.00    -0.744 OA
ENDBRANCH  75  79
ENDBRANCH  48  72
BRANCH  60  83
ATOM     83  C   UNL     1      12.523  -8.110  10.600  1.00  0.00     0.023 A 
ATOM     84  C   UNL     1      11.998  -8.052  11.902  1.00  0.00     0.031 A 
ATOM     85  C   UNL     1      13.873  -8.473  10.447  1.00  0.00     0.131 A 
ATOM     86  C   UNL     1      12.834  -8.284  13.005  1.00  0.00     0.055 A 
ATOM     87  C   UNL     1      14.684  -8.765  11.544  1.00  0.00     0.041 A 
ATOM     88  F   UNL     1      14.428  -8.544   9.226  1.00  0.00    -0.206 F 
ATOM     89  C   UNL     1      14.170  -8.655  12.833  1.00  0.00     0.022 A 
BRANCH  86  90
ATOM     90  S   UNL     1      12.180  -7.985  14.670  1.00  0.00     0.124 S 
ATOM     91  O   UNL     1      11.759  -6.591  14.586  1.00  0.00    -0.237 OA
ATOM     92  O   UNL     1      11.108  -8.971  14.765  1.00  0.00    -0.237 OA
ATOM     93  O   UNL     1      13.329  -8.234  15.539  1.00  0.00    -0.744 OA
ENDBRANCH  86  90
ENDBRANCH  60  83
ENDBRANCH  34  35
ENDBRANCH  26  29
ENDBRANCH  24  25
ENDBRANCH  23  24
ENDBRANCH   1  23
TORSDOF 19
