REMARK SMILES O=C(NCCCNC(=O)[C@H]1CN(S(=O)(=O)c2ccc(Cl)nc2)c2ccccc21)c1ccc(-c2c3nc(c(-c4cc(S(=O)(=O)[O-])ccc4F)c4ccc([nH]4)c(-c4cc(S(=O)(=O)[O-])ccc4F)c4nc(c(-c5cc(S(=O)(=O)[O-])ccc5F)c5ccc2[nH]5)C=C4)C=C3)cc1
REMARK SMILES IDX 4 1 3 2 1 3 2 4 29 6 30 7 91 8 31 9 90 10 32 11 33 12 34 13
REMARK SMILES IDX 84 14 35 15 89 16 83 17 85 18 36 19 88 20 82 21 81 22 37 24
REMARK SMILES IDX 69 25 49 26 68 27 50 28 53 29 67 30 86 31 51 32 52 33 66 35
REMARK SMILES IDX 87 36 54 37 38 38 39 39 47 40 40 41 46 42 48 43 45 44 41 45
REMARK SMILES IDX 42 46 43 47 44 48 70 49 71 50 79 51 72 52 78 53 80 54 77 55
REMARK SMILES IDX 73 56 74 57 75 58 76 59 55 60 56 61 64 62 57 63 63 64 65 65
REMARK SMILES IDX 62 66 58 67 59 68 60 69 61 70 5 71 6 72 7 73 8 74 9 76 10 77
REMARK SMILES IDX 11 78 28 79 12 80 23 81 27 82 24 83 26 84 25 85 13 86 14 87
REMARK SMILES IDX 15 88 16 89 17 90 22 91 18 92 21 93 19 94 20 95
REMARK H PARENT 3 5 85 23 53 34 7 75
REMARK Flexibility Score: inf
ROOT
ATOM      1  C   UNL     1       4.497   0.871   0.981  1.00  0.00     0.118 C 
ENDROOT
BRANCH   1   2
ATOM      2  N   UNL     1       3.057   0.675   0.890  1.00  0.00    -0.352 N 
ATOM      3  O   UNL     1       1.113   0.028  -0.044  1.00  0.00    -0.269 OA
ATOM      4  C   UNL     1       2.335  -0.078  -0.004  1.00  0.00     0.251 C 
ATOM      5  H   UNL     1       2.523   1.152   1.567  1.00  0.00     0.163 HD
BRANCH   4   6
ATOM      6  C   UNL     1       3.039  -1.000  -0.920  1.00  0.00     0.039 A 
ATOM      7  C   UNL     1       4.083  -1.799  -0.449  1.00  0.00     0.014 A 
ATOM      8  C   UNL     1       2.639  -1.083  -2.256  1.00  0.00     0.014 A 
ATOM      9  C   UNL     1       4.819  -2.572  -1.335  1.00  0.00     0.010 A 
ATOM     10  C   UNL     1       3.311  -1.947  -3.126  1.00  0.00     0.010 A 
ATOM     11  C   UNL     1       4.412  -2.691  -2.672  1.00  0.00    -0.014 A 
BRANCH  11  12
ATOM     12  C   UNL     1       5.063  -3.710  -3.531  1.00  0.00     0.031 A 
ATOM     13  C   UNL     1       5.842  -3.324  -4.755  1.00  0.00     0.074 A 
ATOM     14  C   UNL     1       4.930  -5.005  -3.178  1.00  0.00     0.049 A 
ATOM     15  N   UNL     1       6.435  -4.100  -5.624  1.00  0.00    -0.248 NA
ATOM     16  C   UNL     1       5.969  -1.888  -5.047  1.00  0.00     0.031 C 
ATOM     17  C   UNL     1       4.188  -5.483  -2.004  1.00  0.00     0.029 A 
ATOM     18  N   UNL     1       5.405  -6.155  -3.753  1.00  0.00    -0.354 N 
ATOM     19  C   UNL     1       6.987  -3.255  -6.580  1.00  0.00     0.074 A 
ATOM     20  C   UNL     1       6.648  -1.902  -6.188  1.00  0.00     0.031 C 
ATOM     21  C   UNL     1       4.283  -6.817  -1.933  1.00  0.00     0.029 A 
ATOM     22  C   UNL     1       5.007  -7.300  -3.100  1.00  0.00     0.049 A 
ATOM     23  H   UNL     1       5.976  -6.161  -4.555  1.00  0.00     0.167 HD
ATOM     24  C   UNL     1       7.704  -3.589  -7.681  1.00  0.00     0.034 A 
ATOM     25  C   UNL     1       5.160  -8.596  -3.429  1.00  0.00     0.034 A 
ATOM     26  C   UNL     1       8.034  -4.948  -8.041  1.00  0.00     0.049 A 
ATOM     27  C   UNL     1       5.906  -8.928  -4.694  1.00  0.00     0.074 A 
ATOM     28  C   UNL     1       8.822  -5.390  -9.089  1.00  0.00     0.029 A 
ATOM     29  N   UNL     1       7.575  -6.083  -7.385  1.00  0.00    -0.354 N 
ATOM     30  N   UNL     1       6.480  -8.113  -5.548  1.00  0.00    -0.248 NA
ATOM     31  C   UNL     1       6.023 -10.349  -5.042  1.00  0.00     0.031 C 
ATOM     32  C   UNL     1       8.764  -6.786  -9.124  1.00  0.00     0.029 A 
ATOM     33  C   UNL     1       8.013  -7.222  -8.045  1.00  0.00     0.049 A 
ATOM     34  H   UNL     1       7.021  -6.080  -6.571  1.00  0.00     0.167 HD
ATOM     35  C   UNL     1       7.037  -8.927  -6.528  1.00  0.00     0.074 A 
ATOM     36  C   UNL     1       6.761 -10.294  -6.140  1.00  0.00     0.031 C 
ATOM     37  C   UNL     1       7.710  -8.578  -7.653  1.00  0.00     0.034 A 
BRANCH  24  38
ATOM     38  C   UNL     1       8.141  -2.487  -8.614  1.00  0.00     0.023 A 
ATOM     39  C   UNL     1       9.099  -1.528  -8.248  1.00  0.00     0.031 A 
ATOM     40  C   UNL     1       7.623  -2.437  -9.922  1.00  0.00     0.131 A 
ATOM     41  C   UNL     1       9.488  -0.542  -9.169  1.00  0.00     0.055 A 
ATOM     42  C   UNL     1       8.060  -1.494 -10.854  1.00  0.00     0.041 A 
ATOM     43  F   UNL     1       6.689  -3.316 -10.320  1.00  0.00    -0.206 F 
ATOM     44  C   UNL     1       8.995  -0.535 -10.477  1.00  0.00     0.022 A 
BRANCH  41  45
ATOM     45  S   UNL     1      10.587   0.788  -8.611  1.00  0.00     0.124 S 
ATOM     46  O   UNL     1       9.806   1.385  -7.529  1.00  0.00    -0.237 OA
ATOM     47  O   UNL     1      11.784   0.060  -8.206  1.00  0.00    -0.237 OA
ATOM     48  O   UNL     1      10.740   1.629  -9.796  1.00  0.00    -0.744 OA
ENDBRANCH  41  45
ENDBRANCH  24  38
BRANCH  25  49
ATOM     49  C   UNL     1       4.530  -9.668  -2.604  1.00  0.00     0.023 A 
ATOM     50  C   UNL     1       5.304 -10.679  -2.018  1.00  0.00     0.031 A 
ATOM     51  C   UNL     1       3.132  -9.736  -2.450  1.00  0.00     0.131 A 
ATOM     52  C   UNL     1       4.674 -11.749  -1.364  1.00  0.00     0.055 A 
ATOM     53  C   UNL     1       2.516 -10.761  -1.733  1.00  0.00     0.041 A 
ATOM     54  F   UNL     1       2.340  -8.797  -2.994  1.00  0.00    -0.206 F 
ATOM     55  C   UNL     1       3.288 -11.789  -1.202  1.00  0.00     0.022 A 
BRANCH  52  56
ATOM     56  S   UNL     1       5.688 -13.163  -0.853  1.00  0.00     0.124 S 
ATOM     57  O   UNL     1       6.355 -13.514  -2.102  1.00  0.00    -0.237 OA
ATOM     58  O   UNL     1       6.531 -12.571   0.180  1.00  0.00    -0.237 OA
ATOM     59  O   UNL     1       4.704 -14.131  -0.376  1.00  0.00    -0.744 OA
ENDBRANCH  52  56
ENDBRANCH  25  49
BRANCH  37  60
ATOM     60  C   UNL     1       8.206  -9.703  -8.526  1.00  0.00     0.023 A 
ATOM     61  C   UNL     1       7.314 -10.541  -9.217  1.00  0.00     0.031 A 
ATOM     62  C   UNL     1       9.584  -9.944  -8.661  1.00  0.00     0.131 A 
ATOM     63  C   UNL     1       7.808 -11.613  -9.972  1.00  0.00     0.055 A 
ATOM     64  C   UNL     1      10.072 -10.973  -9.467  1.00  0.00     0.041 A 
ATOM     65  F   UNL     1      10.479  -9.178  -8.018  1.00  0.00    -0.206 F 
ATOM     66  C   UNL     1       9.181 -11.822 -10.119  1.00  0.00     0.022 A 
BRANCH  63  67
ATOM     67  S   UNL     1       6.627 -12.783 -10.697  1.00  0.00     0.124 S 
ATOM     68  O   UNL     1       5.959 -13.312  -9.513  1.00  0.00    -0.237 OA
ATOM     69  O   UNL     1       5.819 -11.923 -11.555  1.00  0.00    -0.237 OA
ATOM     70  O   UNL     1       7.481 -13.736 -11.406  1.00  0.00    -0.744 OA
ENDBRANCH  63  67
ENDBRANCH  37  60
ENDBRANCH  11  12
ENDBRANCH   4   6
ENDBRANCH   1   2
BRANCH   1  71
ATOM     71  C   UNL     1       4.914   2.301   0.683  1.00  0.00     0.042 C 
BRANCH  71  72
ATOM     72  C   UNL     1       4.356   3.313   1.666  1.00  0.00     0.117 C 
BRANCH  72  73
ATOM     73  N   UNL     1       4.728   3.007   3.037  1.00  0.00    -0.355 N 
ATOM     74  C   UNL     1       5.498   3.712   3.915  1.00  0.00     0.229 C 
ATOM     75  H   UNL     1       4.367   2.161   3.386  1.00  0.00     0.163 HD
ATOM     76  O   UNL     1       5.724   3.194   5.009  1.00  0.00    -0.274 OA
BRANCH  74  77
ATOM     77  C   UNL     1       6.053   5.061   3.490  1.00  0.00     0.131 C 
ATOM     78  C   UNL     1       4.899   6.041   3.220  1.00  0.00     0.154 C 
ATOM     79  C   UNL     1       6.804   5.773   4.580  1.00  0.00    -0.009 A 
ATOM     80  N   UNL     1       4.824   6.989   4.388  1.00  0.00    -0.265 N 
ATOM     81  C   UNL     1       6.067   6.841   5.090  1.00  0.00     0.056 A 
ATOM     82  C   UNL     1       8.013   5.384   5.150  1.00  0.00     0.007 A 
ATOM     83  C   UNL     1       6.466   7.440   6.273  1.00  0.00     0.027 A 
ATOM     84  C   UNL     1       8.456   6.049   6.292  1.00  0.00     0.000 A 
ATOM     85  C   UNL     1       7.677   7.060   6.861  1.00  0.00     0.002 A 
BRANCH  80  86
ATOM     86  S   UNL     1       4.219   8.504   3.899  1.00  0.00     0.265 S 
ATOM     87  O   UNL     1       5.146   9.069   2.933  1.00  0.00    -0.201 OA
ATOM     88  O   UNL     1       2.832   8.316   3.539  1.00  0.00    -0.201 OA
BRANCH  86  89
ATOM     89  C   UNL     1       4.257   9.529   5.315  1.00  0.00     0.106 A 
ATOM     90  C   UNL     1       5.278  10.465   5.482  1.00  0.00     0.027 A 
ATOM     91  C   UNL     1       3.284   9.395   6.289  1.00  0.00     0.135 A 
ATOM     92  C   UNL     1       5.335  11.185   6.669  1.00  0.00     0.042 A 
ATOM     93  N   UNL     1       3.317  10.093   7.451  1.00  0.00    -0.243 NA
ATOM     94  C   UNL     1       4.346  10.955   7.612  1.00  0.00     0.129 A 
ATOM     95  Cl  UNL     1       4.391  11.746   9.132  1.00  0.00    -0.062 Cl
ENDBRANCH  86  89
ENDBRANCH  80  86
ENDBRANCH  74  77
ENDBRANCH  72  73
ENDBRANCH  71  72
ENDBRANCH   1  71
TORSDOF 15
