REMARK SMILES CCCCCCNC(=O)Oc1cccc(-c2ccc([C@@H](C)C(=O)NCCCNC(=O)c3ccc(-c4c5nc(c(-c6cc(S(=O)(=O)[O-])ccc6F)c6ccc([nH]6)c(-c6cc(S(=O)(=O)[O-])ccc6F)c6nc(c(-c7cc(S(=O)(=O)[O-])ccc7F)c7ccc4[nH]7)C=C6)C=C5)cc3)cc2C)c1
REMARK SMILES IDX 20 1 21 2 19 3 16 4 17 5 95 6 18 7 94 8 96 9 15 10 11 11
REMARK SMILES IDX 12 12 97 13 13 14 14 15 10 16 8 17 7 18 9 20 6 21 5 22 4 23
REMARK SMILES IDX 3 24 2 25 1 26 22 27 23 28 24 29 25 31 26 32 27 33 28 34
REMARK SMILES IDX 29 35 30 37 31 38 32 39 93 40 33 41 92 42 34 43 35 44 36 45
REMARK SMILES IDX 86 46 37 47 91 48 85 49 87 50 38 51 90 52 84 53 83 54 39 56
REMARK SMILES IDX 71 57 51 58 70 59 52 60 55 61 69 62 88 63 53 64 54 65 68 67
REMARK SMILES IDX 89 68 56 69 40 70 41 71 49 72 42 73 48 74 50 75 47 76 43 77
REMARK SMILES IDX 44 78 45 79 46 80 72 81 73 82 81 83 74 84 80 85 82 86 79 87
REMARK SMILES IDX 75 88 76 89 77 90 78 91 57 92 58 93 66 94 59 95 65 96 67 97
REMARK SMILES IDX 64 98 60 99 61 100 62 101 63 102
REMARK H PARENT 7 19 24 30 28 36 87 55 55 66
REMARK Flexibility Score: inf
ROOT
ATOM      1  C   UNL     1      -4.707  -4.826  12.531  1.00  0.00     0.105 C 
ATOM      2  C   UNL     1      -5.934  -5.038  13.415  1.00  0.00     0.023 C 
ENDROOT
BRANCH   1   3
ATOM      3  C   UNL     1      -4.965  -4.912  11.036  1.00  0.00    -0.036 A 
ATOM      4  C   UNL     1      -5.236  -5.087   8.190  1.00  0.00    -0.015 A 
ATOM      5  C   UNL     1      -5.689  -6.104   9.050  1.00  0.00     0.009 A 
ATOM      6  C   UNL     1      -4.724  -3.917   8.793  1.00  0.00    -0.043 A 
ATOM      7  C   UNL     1      -5.606  -5.994  10.440  1.00  0.00     0.005 A 
ATOM      8  C   UNL     1      -4.545  -3.872  10.194  1.00  0.00     0.008 A 
ATOM      9  C   UNL     1      -4.367  -2.666   8.031  1.00  0.00     0.045 C 
BRANCH   4  10
ATOM     10  C   UNL     1      -5.317  -5.308   6.726  1.00  0.00    -0.014 A 
ATOM     11  C   UNL     1      -4.340  -5.209   4.502  1.00  0.00     0.133 A 
ATOM     12  C   UNL     1      -5.494  -5.739   3.934  1.00  0.00     0.047 A 
ATOM     13  C   UNL     1      -4.235  -5.016   5.880  1.00  0.00     0.056 A 
ATOM     14  C   UNL     1      -6.561  -6.078   4.758  1.00  0.00     0.004 A 
ATOM     15  C   UNL     1      -6.477  -5.849   6.136  1.00  0.00     0.009 A 
BRANCH  11  16
ATOM     16  O   UNL     1      -3.368  -4.726   3.606  1.00  0.00    -0.410 OA
BRANCH  16  17
ATOM     17  C   UNL     1      -2.017  -4.912   3.855  1.00  0.00     0.412 C 
ATOM     18  N   UNL     1      -1.220  -4.193   3.008  1.00  0.00    -0.321 N 
ATOM     19  H   UNL     1      -0.250  -4.344   3.079  1.00  0.00     0.167 HD
ATOM     20  O   UNL     1      -1.534  -5.616   4.732  1.00  0.00    -0.224 OA
BRANCH  18  21
ATOM     21  C   UNL     1      -1.655  -3.230   2.016  1.00  0.00     0.119 C 
BRANCH  21  22
ATOM     22  C   UNL     1      -1.087  -1.837   2.295  1.00  0.00     0.021 C 
BRANCH  22  23
ATOM     23  C   UNL     1       0.442  -1.740   2.215  1.00  0.00     0.002 C 
BRANCH  23  24
ATOM     24  C   UNL     1       1.056  -2.146   0.871  1.00  0.00    -0.000 C 
BRANCH  24  25
ATOM     25  C   UNL     1       0.575  -1.340  -0.338  1.00  0.00    -0.003 C 
ATOM     26  C   UNL     1       0.943   0.134  -0.261  1.00  0.00     0.004 C 
ENDBRANCH  24  25
ENDBRANCH  23  24
ENDBRANCH  22  23
ENDBRANCH  21  22
ENDBRANCH  18  21
ENDBRANCH  16  17
ENDBRANCH  11  16
ENDBRANCH   4  10
ENDBRANCH   1   3
BRANCH   1  27
ATOM     27  C   UNL     1      -3.446  -5.570  13.000  1.00  0.00     0.227 C 
ATOM     28  O   UNL     1      -2.430  -4.926  13.295  1.00  0.00    -0.274 OA
ATOM     29  N   UNL     1      -3.362  -6.919  13.154  1.00  0.00    -0.356 N 
ATOM     30  H   UNL     1      -2.501  -7.225  13.520  1.00  0.00     0.163 HD
BRANCH  29  31
ATOM     31  C   UNL     1      -4.298  -7.992  12.880  1.00  0.00     0.117 C 
BRANCH  31  32
ATOM     32  C   UNL     1      -4.017  -8.682  11.547  1.00  0.00     0.042 C 
BRANCH  32  33
ATOM     33  C   UNL     1      -2.921  -9.738  11.618  1.00  0.00     0.118 C 
BRANCH  33  34
ATOM     34  N   UNL     1      -3.338 -10.910  12.377  1.00  0.00    -0.352 N 
ATOM     35  C   UNL     1      -3.576 -12.200  11.967  1.00  0.00     0.251 C 
ATOM     36  H   UNL     1      -3.472 -10.752  13.339  1.00  0.00     0.163 HD
ATOM     37  O   UNL     1      -4.155 -12.967  12.733  1.00  0.00    -0.269 OA
BRANCH  35  38
ATOM     38  C   UNL     1      -3.162 -12.665  10.622  1.00  0.00     0.039 A 
ATOM     39  C   UNL     1      -3.997 -13.542   9.922  1.00  0.00     0.014 A 
ATOM     40  C   UNL     1      -1.944 -12.276  10.062  1.00  0.00     0.014 A 
ATOM     41  C   UNL     1      -3.645 -13.967   8.637  1.00  0.00     0.010 A 
ATOM     42  C   UNL     1      -1.633 -12.632   8.751  1.00  0.00     0.010 A 
ATOM     43  C   UNL     1      -2.480 -13.481   8.023  1.00  0.00    -0.014 A 
BRANCH  43  44
ATOM     44  C   UNL     1      -2.126 -13.842   6.625  1.00  0.00     0.031 A 
ATOM     45  C   UNL     1      -0.858 -14.601   6.338  1.00  0.00     0.074 A 
ATOM     46  C   UNL     1      -2.905 -13.418   5.609  1.00  0.00     0.049 A 
ATOM     47  N   UNL     1      -0.315 -14.905   5.188  1.00  0.00    -0.248 NA
ATOM     48  C   UNL     1      -0.086 -15.053   7.506  1.00  0.00     0.031 C 
ATOM     49  C   UNL     1      -4.142 -12.650   5.759  1.00  0.00     0.029 A 
ATOM     50  N   UNL     1      -2.765 -13.558   4.251  1.00  0.00    -0.354 N 
ATOM     51  C   UNL     1       0.869 -15.570   5.490  1.00  0.00     0.074 A 
ATOM     52  C   UNL     1       0.990 -15.569   6.933  1.00  0.00     0.031 C 
ATOM     53  C   UNL     1      -4.657 -12.404   4.544  1.00  0.00     0.029 A 
ATOM     54  C   UNL     1      -3.761 -12.944   3.526  1.00  0.00     0.049 A 
ATOM     55  H   UNL     1      -2.022 -14.051   3.833  1.00  0.00     0.167 HD
ATOM     56  C   UNL     1       1.761 -16.144   4.644  1.00  0.00     0.034 A 
ATOM     57  C   UNL     1      -3.923 -12.809   2.195  1.00  0.00     0.034 A 
ATOM     58  C   UNL     1       1.621 -16.136   3.208  1.00  0.00     0.049 A 
ATOM     59  C   UNL     1      -2.892 -13.409   1.273  1.00  0.00     0.074 A 
ATOM     60  C   UNL     1       2.436 -16.728   2.258  1.00  0.00     0.029 A 
ATOM     61  N   UNL     1       0.605 -15.493   2.510  1.00  0.00    -0.354 N 
ATOM     62  N   UNL     1      -1.799 -14.072   1.574  1.00  0.00    -0.248 NA
ATOM     63  C   UNL     1      -3.118 -13.246  -0.169  1.00  0.00     0.031 C 
ATOM     64  C   UNL     1       1.956 -16.384   0.990  1.00  0.00     0.029 A 
ATOM     65  C   UNL     1       0.794 -15.645   1.144  1.00  0.00     0.049 A 
ATOM     66  H   UNL     1      -0.140 -15.001   2.925  1.00  0.00     0.167 HD
ATOM     67  C   UNL     1      -1.224 -14.430   0.358  1.00  0.00     0.074 A 
ATOM     68  C   UNL     1      -2.098 -13.921  -0.679  1.00  0.00     0.031 C 
ATOM     69  C   UNL     1      -0.080 -15.121   0.120  1.00  0.00     0.034 A 
BRANCH  56  70
ATOM     70  C   UNL     1       2.977 -16.800   5.257  1.00  0.00     0.023 A 
ATOM     71  C   UNL     1       2.863 -17.895   6.132  1.00  0.00     0.031 A 
ATOM     72  C   UNL     1       4.267 -16.307   4.989  1.00  0.00     0.131 A 
ATOM     73  C   UNL     1       4.003 -18.406   6.770  1.00  0.00     0.055 A 
ATOM     74  C   UNL     1       5.407 -16.876   5.560  1.00  0.00     0.041 A 
ATOM     75  F   UNL     1       4.441 -15.252   4.177  1.00  0.00    -0.206 F 
ATOM     76  C   UNL     1       5.278 -17.921   6.470  1.00  0.00     0.022 A 
BRANCH  73  77
ATOM     77  S   UNL     1       3.779 -19.608   8.110  1.00  0.00     0.124 S 
ATOM     78  O   UNL     1       2.932 -18.861   9.037  1.00  0.00    -0.237 OA
ATOM     79  O   UNL     1       3.145 -20.729   7.426  1.00  0.00    -0.237 OA
ATOM     80  O   UNL     1       5.140 -19.853   8.582  1.00  0.00    -0.744 OA
ENDBRANCH  73  77
ENDBRANCH  56  70
BRANCH  57  81
ATOM     81  C   UNL     1      -5.093 -12.064   1.648  1.00  0.00     0.023 A 
ATOM     82  C   UNL     1      -6.063 -12.714   0.869  1.00  0.00     0.031 A 
ATOM     83  C   UNL     1      -5.241 -10.682   1.864  1.00  0.00     0.131 A 
ATOM     84  C   UNL     1      -7.112 -11.977   0.298  1.00  0.00     0.055 A 
ATOM     85  C   UNL     1      -6.317  -9.963   1.341  1.00  0.00     0.041 A 
ATOM     86  F   UNL     1      -4.343 -10.009   2.601  1.00  0.00    -0.206 F 
ATOM     87  C   UNL     1      -7.254 -10.609   0.541  1.00  0.00     0.022 A 
BRANCH  84  88
ATOM     88  S   UNL     1      -8.247 -12.819  -0.840  1.00  0.00     0.124 S 
ATOM     89  O   UNL     1      -7.331 -13.309  -1.863  1.00  0.00    -0.237 OA
ATOM     90  O   UNL     1      -8.847 -13.831   0.024  1.00  0.00    -0.237 OA
ATOM     91  O   UNL     1      -9.150 -11.754  -1.268  1.00  0.00    -0.744 OA
ENDBRANCH  84  88
ENDBRANCH  57  81
BRANCH  69  92
ATOM     92  C   UNL     1       0.263 -15.404  -1.322  1.00  0.00     0.023 A 
ATOM     93  C   UNL     1       0.621 -14.379  -2.215  1.00  0.00     0.031 A 
ATOM     94  C   UNL     1       0.230 -16.724  -1.808  1.00  0.00     0.131 A 
ATOM     95  C   UNL     1       0.883 -14.684  -3.560  1.00  0.00     0.055 A 
ATOM     96  C   UNL     1       0.551 -17.028  -3.132  1.00  0.00     0.041 A 
ATOM     97  F   UNL     1      -0.109 -17.741  -1.001  1.00  0.00    -0.206 F 
ATOM     98  C   UNL     1       0.869 -16.004  -4.019  1.00  0.00     0.022 A 
BRANCH  95  99
ATOM     99  S   UNL     1       1.167 -13.322  -4.724  1.00  0.00     0.124 S 
ATOM    100  O   UNL     1      -0.082 -12.574  -4.626  1.00  0.00    -0.237 OA
ATOM    101  O   UNL     1       2.346 -12.670  -4.164  1.00  0.00    -0.237 OA
ATOM    102  O   UNL     1       1.383 -14.002  -6.001  1.00  0.00    -0.744 OA
ENDBRANCH  95  99
ENDBRANCH  69  92
ENDBRANCH  43  44
ENDBRANCH  35  38
ENDBRANCH  33  34
ENDBRANCH  32  33
ENDBRANCH  31  32
ENDBRANCH  29  31
ENDBRANCH   1  27
TORSDOF 22
