REMARK SMILES C[C@]([NH3+])(C(=O)N[C@H]1CCCCC[C@@H]1C(=O)NCCCNC(=O)c1ccc(-c2c3nc(c(-c4cc(S(=O)(=O)[O-])ccc4F)c4ccc([nH]4)c(-c4cc(S(=O)(=O)[O-])ccc4F)c4nc(c(-c5cc(S(=O)(=O)[O-])ccc5F)c5ccc2[nH]5)C=C4)C=C3)cc1)C(F)(F)F
REMARK SMILES IDX 17 1 16 2 14 3 15 4 13 6 7 7 6 8 4 9 5 10 2 12 1 13 86 14
REMARK SMILES IDX 87 15 88 16 89 17 3 18 8 22 9 23 10 24 11 25 12 27 18 29
REMARK SMILES IDX 19 30 20 31 21 32 22 34 23 35 24 36 85 37 25 38 84 39 26 40
REMARK SMILES IDX 27 41 28 42 78 43 29 44 83 45 77 46 79 47 30 48 82 49 76 50
REMARK SMILES IDX 75 51 31 53 63 54 43 55 62 56 44 57 47 58 61 59 80 60 45 61
REMARK SMILES IDX 46 62 60 64 81 65 48 66 32 67 33 68 41 69 34 70 40 71 42 72
REMARK SMILES IDX 39 73 35 74 36 75 37 76 38 77 64 78 65 79 73 80 66 81 72 82
REMARK SMILES IDX 74 83 71 84 67 85 68 86 69 87 70 88 49 89 50 90 58 91 51 92
REMARK SMILES IDX 57 93 59 94 56 95 52 96 53 97 54 98 55 99
REMARK H PARENT 16 5 6 11 3 19 3 20 3 21 20 33 79 52 47 63
REMARK Flexibility Score: 90.00
ROOT
ATOM      1  C   UNL     1      -2.245   4.316   1.893  1.00  0.00     0.117 C 
ENDROOT
BRANCH   1   2
ATOM      2  N   UNL     1      -2.913   3.617   0.809  1.00  0.00    -0.356 N 
ATOM      3  C   UNL     1      -2.823   3.951  -0.508  1.00  0.00     0.225 C 
ATOM      4  O   UNL     1      -3.877   4.245  -1.076  1.00  0.00    -0.275 OA
ATOM      5  H   UNL     1      -3.474   2.843   1.044  1.00  0.00     0.163 HD
BRANCH   3   6
ATOM      6  C   UNL     1      -1.513   3.827  -1.291  1.00  0.00     0.101 C 
BRANCH   6   7
ATOM      7  C   UNL     1      -1.087   2.338  -1.345  1.00  0.00     0.094 C 
BRANCH   7   8
ATOM      8  N   UNL     1      -1.228   1.643  -2.661  1.00  0.00    -0.347 N 
ATOM      9  C   UNL     1      -2.162   1.364  -3.612  1.00  0.00     0.290 C 
ATOM     10  O   UNL     1      -1.792   0.497  -4.413  1.00  0.00    -0.267 OA
ATOM     11  H   UNL     1      -0.360   1.262  -2.927  1.00  0.00     0.164 HD
BRANCH   9  12
ATOM     12  C   UNL     1      -3.523   2.074  -3.758  1.00  0.00     0.266 C 
ATOM     13  C   UNL     1      -3.300   3.530  -4.218  1.00  0.00     0.100 C 
BRANCH  12  14
ATOM     14  C   UNL     1      -4.285   1.354  -4.915  1.00  0.00     0.453 C 
ATOM     15  F   UNL     1      -4.524   0.046  -4.663  1.00  0.00    -0.164 F 
ATOM     16  F   UNL     1      -5.501   1.936  -5.115  1.00  0.00    -0.164 F 
ATOM     17  F   UNL     1      -3.635   1.442  -6.101  1.00  0.00    -0.164 F 
ENDBRANCH  12  14
BRANCH  12  18
ATOM     18  N   UNL     1      -4.282   1.971  -2.471  1.00  0.00    -0.337 N 
ATOM     19  H   UNL     1      -4.396   0.988  -2.222  1.00  0.00     0.345 HD
ATOM     20  H   UNL     1      -5.199   2.403  -2.582  1.00  0.00     0.345 HD
ATOM     21  H   UNL     1      -3.767   2.451  -1.734  1.00  0.00     0.345 HD
ENDBRANCH  12  18
ENDBRANCH   9  12
ENDBRANCH   7   8
BRANCH   7  22
ATOM     22  C   UNL     1       0.368   2.094  -0.868  1.00  0.00     0.026 C 
BRANCH  22  23
ATOM     23  C   UNL     1       1.455   2.636  -1.810  1.00  0.00     0.002 C 
BRANCH  23  24
ATOM     24  C   UNL     1       1.812   4.101  -1.599  1.00  0.00     0.000 C 
BRANCH  24  25
ATOM     25  C   UNL     1       0.661   5.072  -1.822  1.00  0.00     0.001 CG0
ATOM     26  G   UNL     1      -0.488   4.873  -0.837  1.00  0.00     0.000 G0
ENDBRANCH  24  25
ENDBRANCH  23  24
ENDBRANCH  22  23
ENDBRANCH   7  22
ENDBRANCH   6   7
BRANCH   6  27
ATOM     27  C   UNL     1      -0.488   4.873  -0.837  1.00  0.00     0.015 CG0
ATOM     28  G   UNL     1       0.661   5.072  -1.822  1.00  0.00     0.000 G0
ENDBRANCH   6  27
ENDBRANCH   3   6
ENDBRANCH   1   2
BRANCH   1  29
ATOM     29  C   UNL     1      -2.663   5.788   1.962  1.00  0.00     0.042 C 
BRANCH  29  30
ATOM     30  C   UNL     1      -4.173   6.000   2.095  1.00  0.00     0.118 C 
BRANCH  30  31
ATOM     31  N   UNL     1      -4.681   5.486   3.356  1.00  0.00    -0.352 N 
ATOM     32  C   UNL     1      -5.040   6.166   4.492  1.00  0.00     0.251 C 
ATOM     33  H   UNL     1      -4.782   4.508   3.402  1.00  0.00     0.163 HD
ATOM     34  O   UNL     1      -5.146   5.547   5.551  1.00  0.00    -0.269 OA
BRANCH  32  35
ATOM     35  C   UNL     1      -5.284   7.624   4.452  1.00  0.00     0.039 A 
ATOM     36  C   UNL     1      -4.798   8.421   5.491  1.00  0.00     0.014 A 
ATOM     37  C   UNL     1      -6.033   8.200   3.421  1.00  0.00     0.014 A 
ATOM     38  C   UNL     1      -5.019   9.800   5.471  1.00  0.00     0.010 A 
ATOM     39  C   UNL     1      -6.197   9.584   3.368  1.00  0.00     0.010 A 
ATOM     40  C   UNL     1      -5.697  10.398   4.396  1.00  0.00    -0.014 A 
BRANCH  40  41
ATOM     41  C   UNL     1      -5.899  11.869   4.336  1.00  0.00     0.031 A 
ATOM     42  C   UNL     1      -7.288  12.445   4.404  1.00  0.00     0.074 A 
ATOM     43  C   UNL     1      -4.837  12.680   4.162  1.00  0.00     0.049 A 
ATOM     44  N   UNL     1      -7.675  13.691   4.291  1.00  0.00    -0.248 NA
ATOM     45  C   UNL     1      -8.389  11.489   4.596  1.00  0.00     0.031 C 
ATOM     46  C   UNL     1      -3.447  12.234   4.045  1.00  0.00     0.029 A 
ATOM     47  N   UNL     1      -4.759  14.044   4.040  1.00  0.00    -0.354 N 
ATOM     48  C   UNL     1      -9.063  13.668   4.386  1.00  0.00     0.074 A 
ATOM     49  C   UNL     1      -9.450  12.278   4.508  1.00  0.00     0.031 C 
ATOM     50  C   UNL     1      -2.654  13.306   3.883  1.00  0.00     0.029 A 
ATOM     51  C   UNL     1      -3.479  14.509   3.842  1.00  0.00     0.049 A 
ATOM     52  H   UNL     1      -5.544  14.635   4.090  1.00  0.00     0.167 HD
ATOM     53  C   UNL     1      -9.931  14.711   4.392  1.00  0.00     0.034 A 
ATOM     54  C   UNL     1      -3.023  15.760   3.635  1.00  0.00     0.034 A 
ATOM     55  C   UNL     1      -9.527  16.092   4.279  1.00  0.00     0.049 A 
ATOM     56  C   UNL     1      -4.008  16.901   3.626  1.00  0.00     0.074 A 
ATOM     57  C   UNL     1     -10.315  17.229   4.327  1.00  0.00     0.029 A 
ATOM     58  N   UNL     1      -8.221  16.525   4.086  1.00  0.00    -0.354 N 
ATOM     59  N   UNL     1      -5.313  16.866   3.767  1.00  0.00    -0.248 NA
ATOM     60  C   UNL     1      -3.456  18.249   3.443  1.00  0.00     0.031 C 
ATOM     61  C   UNL     1      -9.497  18.342   4.100  1.00  0.00     0.029 A 
ATOM     62  C   UNL     1      -8.186  17.908   3.984  1.00  0.00     0.049 A 
ATOM     63  H   UNL     1      -7.434  15.936   4.030  1.00  0.00     0.167 HD
ATOM     64  C   UNL     1      -5.734  18.192   3.715  1.00  0.00     0.074 A 
ATOM     65  C   UNL     1      -4.543  19.000   3.549  1.00  0.00     0.031 C 
ATOM     66  C   UNL     1      -6.991  18.698   3.801  1.00  0.00     0.034 A 
BRANCH  53  67
ATOM     67  C   UNL     1     -11.403  14.388   4.500  1.00  0.00     0.023 A 
ATOM     68  C   UNL     1     -11.939  13.754   5.636  1.00  0.00     0.031 A 
ATOM     69  C   UNL     1     -12.281  14.694   3.445  1.00  0.00     0.131 A 
ATOM     70  C   UNL     1     -13.290  13.378   5.658  1.00  0.00     0.055 A 
ATOM     71  C   UNL     1     -13.643  14.390   3.507  1.00  0.00     0.041 A 
ATOM     72  F   UNL     1     -11.827  15.283   2.327  1.00  0.00    -0.206 F 
ATOM     73  C   UNL     1     -14.152  13.713   4.612  1.00  0.00     0.022 A 
BRANCH  70  74
ATOM     74  S   UNL     1     -13.872  12.319   7.011  1.00  0.00     0.124 S 
ATOM     75  O   UNL     1     -13.008  11.149   6.861  1.00  0.00    -0.237 OA
ATOM     76  O   UNL     1     -13.629  13.146   8.186  1.00  0.00    -0.237 OA
ATOM     77  O   UNL     1     -15.279  12.091   6.687  1.00  0.00    -0.744 OA
ENDBRANCH  70  74
ENDBRANCH  53  67
BRANCH  54  78
ATOM     78  C   UNL     1      -1.571  16.004   3.403  1.00  0.00     0.023 A 
ATOM     79  C   UNL     1      -0.806  16.741   4.319  1.00  0.00     0.031 A 
ATOM     80  C   UNL     1      -0.935  15.531   2.241  1.00  0.00     0.131 A 
ATOM     81  C   UNL     1       0.540  17.024   4.039  1.00  0.00     0.055 A 
ATOM     82  C   UNL     1       0.417  15.772   1.990  1.00  0.00     0.041 A 
ATOM     83  F   UNL     1      -1.620  14.813   1.336  1.00  0.00    -0.206 F 
ATOM     84  C   UNL     1       1.159  16.534   2.886  1.00  0.00     0.022 A 
BRANCH  81  85
ATOM     85  S   UNL     1       1.453  18.110   5.168  1.00  0.00     0.124 S 
ATOM     86  O   UNL     1       0.634  19.317   5.147  1.00  0.00    -0.237 OA
ATOM     87  O   UNL     1       1.432  17.342   6.409  1.00  0.00    -0.237 OA
ATOM     88  O   UNL     1       2.764  18.233   4.536  1.00  0.00    -0.744 OA
ENDBRANCH  81  85
ENDBRANCH  54  78
BRANCH  66  89
ATOM     89  C   UNL     1      -7.126  20.200   3.754  1.00  0.00     0.023 A 
ATOM     90  C   UNL     1      -6.835  20.931   2.589  1.00  0.00     0.031 A 
ATOM     91  C   UNL     1      -7.533  20.909   4.898  1.00  0.00     0.131 A 
ATOM     92  C   UNL     1      -6.900  22.333   2.610  1.00  0.00     0.055 A 
ATOM     93  C   UNL     1      -7.653  22.299   4.895  1.00  0.00     0.041 A 
ATOM     94  F   UNL     1      -7.821  20.261   6.037  1.00  0.00    -0.206 F 
ATOM     95  C   UNL     1      -7.322  23.020   3.751  1.00  0.00     0.022 A 
BRANCH  92  96
ATOM     96  S   UNL     1      -6.336  23.253   1.152  1.00  0.00     0.124 S 
ATOM     97  O   UNL     1      -4.952  22.806   1.028  1.00  0.00    -0.237 OA
ATOM     98  O   UNL     1      -7.252  22.786   0.116  1.00  0.00    -0.237 OA
ATOM     99  O   UNL     1      -6.504  24.651   1.543  1.00  0.00    -0.744 OA
ENDBRANCH  92  96
ENDBRANCH  66  89
ENDBRANCH  40  41
ENDBRANCH  32  35
ENDBRANCH  30  31
ENDBRANCH  29  30
ENDBRANCH   1  29
TORSDOF 17
