REMARK SMILES Cc1[nH]c2ccccc2c1[C@H](C(=O)NCCCNC(=O)c1ccc(-c2c3nc(c(-c4cc(S(=O)(=O)[O-])ccc4F)c4ccc([nH]4)c(-c4cc(S(=O)(=O)[O-])ccc4F)c4nc(c(-c5cc(S(=O)(=O)[O-])ccc5F)c5ccc2[nH]5)C=C4)C=C3)cc1)[NH+]1CCN(C(=O)c2ccco2)CC1
REMARK SMILES IDX 16 1 15 2 14 3 12 4 13 5 11 7 10 8 1 9 2 10 3 11 4 12 9 14
REMARK SMILES IDX 5 15 8 16 6 17 7 18 84 19 85 20 96 21 86 23 95 24 87 25
REMARK SMILES IDX 88 26 89 27 90 28 91 29 94 30 92 31 93 32 17 33 18 34 19 35
REMARK SMILES IDX 20 37 21 38 22 39 83 40 23 41 82 42 24 43 25 44 26 45 76 46
REMARK SMILES IDX 27 47 81 48 75 49 77 50 28 51 80 52 74 53 73 54 29 56 61 57
REMARK SMILES IDX 41 58 60 59 42 60 45 61 59 62 78 63 43 64 44 65 58 67 79 68
REMARK SMILES IDX 46 69 30 70 31 71 39 72 32 73 38 74 40 75 37 76 33 77 34 78
REMARK SMILES IDX 35 79 36 80 62 81 63 82 71 83 64 84 70 85 72 86 69 87 65 88
REMARK SMILES IDX 66 89 67 90 68 91 47 92 48 93 56 94 49 95 55 96 57 97 54 98
REMARK SMILES IDX 50 99 51 100 52 101 53 102
REMARK H PARENT 14 6 3 13 84 22 18 36 77 55 45 66
REMARK Flexibility Score: inf
ROOT
ATOM      1  C   UNL     1       1.570  -2.879  -2.468  1.00  0.00     0.042 C 
ENDROOT
BRANCH   1   2
ATOM      2  C   UNL     1       1.186  -2.884  -0.999  1.00  0.00     0.118 C 
BRANCH   2   3
ATOM      3  N   UNL     1       0.591  -1.620  -0.590  1.00  0.00    -0.351 N 
ATOM      4  C   UNL     1      -0.664  -1.324  -0.143  1.00  0.00     0.283 C 
ATOM      5  O   UNL     1      -0.882  -0.135   0.129  1.00  0.00    -0.268 OA
ATOM      6  H   UNL     1       1.197  -0.847  -0.644  1.00  0.00     0.163 HD
BRANCH   4   7
ATOM      7  C   UNL     1      -1.767  -2.389   0.072  1.00  0.00     0.308 C 
BRANCH   7   8
ATOM      8  C   UNL     1      -1.962  -3.303  -1.137  1.00  0.00     0.047 A 
ATOM      9  C   UNL     1      -2.219  -1.444  -2.984  1.00  0.00     0.065 C 
ATOM     10  C   UNL     1      -2.132  -2.831  -2.442  1.00  0.00     0.022 A 
ATOM     11  N   UNL     1      -2.168  -3.906  -3.289  1.00  0.00    -0.358 N 
ATOM     12  C   UNL     1      -2.106  -5.077  -2.581  1.00  0.00     0.046 A 
ATOM     13  H   UNL     1      -2.231  -3.846  -4.270  1.00  0.00     0.166 HD
ATOM     14  C   UNL     1      -2.036  -4.742  -1.226  1.00  0.00     0.009 A 
ATOM     15  C   UNL     1      -2.113  -6.396  -3.051  1.00  0.00     0.027 A 
ATOM     16  C   UNL     1      -2.024  -5.809  -0.300  1.00  0.00     0.011 A 
ATOM     17  C   UNL     1      -2.071  -7.423  -2.108  1.00  0.00     0.002 A 
ATOM     18  C   UNL     1      -2.038  -7.136  -0.749  1.00  0.00     0.001 A 
ENDBRANCH   7   8
BRANCH   7  19
ATOM     19  N   UNL     1      -1.728  -3.069   1.397  1.00  0.00    -0.318 N 
ATOM     20  C   UNL     1      -0.444  -3.592   1.883  1.00  0.00     0.285 C 
ATOM     21  C   UNL     1      -2.349  -2.277   2.475  1.00  0.00     0.285 C 
ATOM     22  H   UNL     1      -2.283  -3.895   1.173  1.00  0.00     0.349 HD
ATOM     23  C   UNL     1       0.519  -2.592   2.549  1.00  0.00     0.181 C 
ATOM     24  C   UNL     1      -1.464  -1.202   3.136  1.00  0.00     0.181 C 
ATOM     25  N   UNL     1      -0.116  -1.668   3.483  1.00  0.00    -0.325 N 
ATOM     26  C   UNL     1       0.761  -0.910   4.283  1.00  0.00     0.289 C 
ATOM     27  O   UNL     1       1.982  -1.037   4.168  1.00  0.00    -0.265 OA
BRANCH  26  28
ATOM     28  C   UNL     1       0.186  -0.011   5.263  1.00  0.00     0.191 A 
ATOM     29  C   UNL     1      -0.775  -0.194   6.242  1.00  0.00     0.056 A 
ATOM     30  O   UNL     1       0.684   1.261   5.355  1.00  0.00    -0.459 OA
ATOM     31  C   UNL     1      -0.882   1.030   6.945  1.00  0.00     0.043 A 
ATOM     32  C   UNL     1       0.023   1.884   6.363  1.00  0.00     0.196 A 
ENDBRANCH  26  28
ENDBRANCH   7  19
ENDBRANCH   4   7
ENDBRANCH   2   3
ENDBRANCH   1   2
BRANCH   1  33
ATOM     33  C   UNL     1       2.766  -1.982  -2.743  1.00  0.00     0.118 C 
BRANCH  33  34
ATOM     34  N   UNL     1       4.021  -2.642  -2.414  1.00  0.00    -0.352 N 
ATOM     35  C   UNL     1       4.923  -3.260  -3.249  1.00  0.00     0.251 C 
ATOM     36  H   UNL     1       4.258  -2.647  -1.458  1.00  0.00     0.163 HD
ATOM     37  O   UNL     1       5.780  -3.998  -2.777  1.00  0.00    -0.269 OA
BRANCH  35  38
ATOM     38  C   UNL     1       4.843  -3.044  -4.711  1.00  0.00     0.039 A 
ATOM     39  C   UNL     1       5.035  -4.123  -5.579  1.00  0.00     0.014 A 
ATOM     40  C   UNL     1       4.615  -1.767  -5.228  1.00  0.00     0.014 A 
ATOM     41  C   UNL     1       4.950  -3.927  -6.962  1.00  0.00     0.010 A 
ATOM     42  C   UNL     1       4.436  -1.591  -6.594  1.00  0.00     0.010 A 
ATOM     43  C   UNL     1       4.631  -2.663  -7.479  1.00  0.00    -0.014 A 
BRANCH  43  44
ATOM     44  C   UNL     1       4.609  -2.381  -8.938  1.00  0.00     0.031 A 
ATOM     45  C   UNL     1       5.580  -1.369  -9.489  1.00  0.00     0.074 A 
ATOM     46  C   UNL     1       3.686  -2.944  -9.740  1.00  0.00     0.049 A 
ATOM     47  N   UNL     1       5.585  -0.763 -10.646  1.00  0.00    -0.248 NA
ATOM     48  C   UNL     1       6.653  -0.939  -8.578  1.00  0.00     0.031 C 
ATOM     49  C   UNL     1       2.676  -3.921  -9.326  1.00  0.00     0.029 A 
ATOM     50  N   UNL     1       3.440  -2.759 -11.076  1.00  0.00    -0.354 N 
ATOM     51  C   UNL     1       6.615   0.171 -10.576  1.00  0.00     0.074 A 
ATOM     52  C   UNL     1       7.185   0.069  -9.249  1.00  0.00     0.031 C 
ATOM     53  C   UNL     1       1.932  -4.261 -10.393  1.00  0.00     0.029 A 
ATOM     54  C   UNL     1       2.382  -3.497 -11.552  1.00  0.00     0.049 A 
ATOM     55  H   UNL     1       3.971  -2.153 -11.642  1.00  0.00     0.167 HD
ATOM     56  C   UNL     1       7.050   1.029 -11.533  1.00  0.00     0.034 A 
ATOM     57  C   UNL     1       1.835  -3.539 -12.783  1.00  0.00     0.034 A 
ATOM     58  C   UNL     1       6.518   1.062 -12.871  1.00  0.00     0.049 A 
ATOM     59  C   UNL     1       2.414  -2.666 -13.866  1.00  0.00     0.074 A 
ATOM     60  C   UNL     1       6.873   1.877 -13.931  1.00  0.00     0.029 A 
ATOM     61  N   UNL     1       5.531   0.205 -13.342  1.00  0.00    -0.354 N 
ATOM     62  N   UNL     1       3.354  -1.753 -13.773  1.00  0.00    -0.248 NA
ATOM     63  C   UNL     1       1.870  -2.836 -15.220  1.00  0.00     0.031 C 
ATOM     64  C   UNL     1       6.098   1.516 -15.042  1.00  0.00     0.029 A 
ATOM     65  C   UNL     1       5.287   0.453 -14.681  1.00  0.00     0.049 A 
ATOM     66  H   UNL     1       5.073  -0.478 -12.802  1.00  0.00     0.167 HD
ATOM     67  C   UNL     1       3.530  -1.261 -15.062  1.00  0.00     0.074 A 
ATOM     68  C   UNL     1       2.606  -1.981 -15.915  1.00  0.00     0.031 C 
ATOM     69  C   UNL     1       4.377  -0.299 -15.506  1.00  0.00     0.034 A 
BRANCH  56  70
ATOM     70  C   UNL     1       8.130   2.005 -11.139  1.00  0.00     0.023 A 
ATOM     71  C   UNL     1       9.413   1.570 -10.764  1.00  0.00     0.031 A 
ATOM     72  C   UNL     1       7.851   3.380 -11.062  1.00  0.00     0.131 A 
ATOM     73  C   UNL     1      10.333   2.486 -10.235  1.00  0.00     0.055 A 
ATOM     74  C   UNL     1       8.804   4.300 -10.618  1.00  0.00     0.041 A 
ATOM     75  F   UNL     1       6.637   3.851 -11.389  1.00  0.00    -0.206 F 
ATOM     76  C   UNL     1      10.048   3.852 -10.183  1.00  0.00     0.022 A 
BRANCH  73  77
ATOM     77  S   UNL     1      11.849   1.846  -9.473  1.00  0.00     0.124 S 
ATOM     78  O   UNL     1      11.312   1.130  -8.319  1.00  0.00    -0.237 OA
ATOM     79  O   UNL     1      12.413   1.017 -10.532  1.00  0.00    -0.237 OA
ATOM     80  O   UNL     1      12.608   3.053  -9.155  1.00  0.00    -0.744 OA
ENDBRANCH  73  77
ENDBRANCH  56  70
BRANCH  57  81
ATOM     81  C   UNL     1       0.684  -4.437 -13.070  1.00  0.00     0.023 A 
ATOM     82  C   UNL     1       0.842  -5.561 -13.896  1.00  0.00     0.031 A 
ATOM     83  C   UNL     1      -0.595  -4.165 -12.557  1.00  0.00     0.131 A 
ATOM     84  C   UNL     1      -0.272  -6.348 -14.225  1.00  0.00     0.055 A 
ATOM     85  C   UNL     1      -1.693  -4.972 -12.857  1.00  0.00     0.041 A 
ATOM     86  F   UNL     1      -0.792  -3.111 -11.749  1.00  0.00    -0.206 F 
ATOM     87  C   UNL     1      -1.537  -6.064 -13.707  1.00  0.00     0.022 A 
BRANCH  84  88
ATOM     88  S   UNL     1      -0.056  -7.704 -15.411  1.00  0.00     0.124 S 
ATOM     89  O   UNL     1       0.570  -7.021 -16.538  1.00  0.00    -0.237 OA
ATOM     90  O   UNL     1       0.797  -8.621 -14.662  1.00  0.00    -0.237 OA
ATOM     91  O   UNL     1      -1.420  -8.171 -15.643  1.00  0.00    -0.744 OA
ENDBRANCH  84  88
ENDBRANCH  57  81
BRANCH  69  92
ATOM     92  C   UNL     1       4.385  -0.036 -16.984  1.00  0.00     0.023 A 
ATOM     93  C   UNL     1       3.353   0.680 -17.610  1.00  0.00     0.031 A 
ATOM     94  C   UNL     1       5.443  -0.519 -17.773  1.00  0.00     0.131 A 
ATOM     95  C   UNL     1       3.380   0.861 -19.000  1.00  0.00     0.055 A 
ATOM     96  C   UNL     1       5.482  -0.307 -19.150  1.00  0.00     0.041 A 
ATOM     97  F   UNL     1       6.451  -1.208 -17.214  1.00  0.00    -0.206 F 
ATOM     98  C   UNL     1       4.442   0.380 -19.773  1.00  0.00     0.022 A 
BRANCH  95  99
ATOM     99  S   UNL     1       1.982   1.698 -19.797  1.00  0.00     0.124 S 
ATOM    100  O   UNL     1       0.872   0.807 -19.477  1.00  0.00    -0.237 OA
ATOM    101  O   UNL     1       1.971   2.995 -19.127  1.00  0.00    -0.237 OA
ATOM    102  O   UNL     1       2.363   1.734 -21.208  1.00  0.00    -0.744 OA
ENDBRANCH  95  99
ENDBRANCH  69  92
ENDBRANCH  43  44
ENDBRANCH  35  38
ENDBRANCH  33  34
ENDBRANCH   1  33
TORSDOF 16
