REMARK SMILES CC(C)[C@@H](CO)Nc1ccc(C(=O)NCCCNC(=O)c2ccc(-c3c4nc(c(-c5cc(S(=O)(=O)[O-])ccc5F)c5ccc([nH]5)c(-c5cc(S(=O)(=O)[O-])ccc5F)c5nc(c(-c6cc(S(=O)(=O)[O-])ccc6F)c6ccc3[nH]6)C=C5)C=C4)cc2)nn1
REMARK SMILES IDX 15 1 14 2 12 3 13 4 11 6 8 7 9 8 85 9 10 10 84 11 7 12 4 14
REMARK SMILES IDX 2 15 1 16 3 17 5 18 6 19 16 21 17 22 18 23 19 24 20 26 21 27
REMARK SMILES IDX 22 28 83 29 23 30 82 31 24 32 25 33 26 34 76 35 27 36 81 37
REMARK SMILES IDX 75 38 77 39 28 40 80 41 74 42 73 43 29 45 61 46 41 47 60 48
REMARK SMILES IDX 42 49 45 50 59 51 78 52 43 53 44 54 58 56 79 57 46 58 30 59
REMARK SMILES IDX 31 60 39 61 32 62 38 63 40 64 37 65 33 66 34 67 35 68 36 69
REMARK SMILES IDX 62 70 63 71 71 72 64 73 70 74 72 75 69 76 65 77 66 78 67 79
REMARK SMILES IDX 68 80 47 81 48 82 56 83 49 84 55 85 57 86 54 87 50 88 51 89
REMARK SMILES IDX 52 90 53 91
REMARK H PARENT 14 5 7 13 6 20 18 25 77 44 45 55
REMARK Flexibility Score: inf
ROOT
ATOM      1  C   UNL     1      -5.798  -5.057  -2.260  1.00  0.00     0.118 C 
ENDROOT
BRANCH   1   2
ATOM      2  N   UNL     1      -5.390  -5.140  -3.650  1.00  0.00    -0.351 N 
ATOM      3  C   UNL     1      -4.524  -4.393  -4.418  1.00  0.00     0.271 C 
ATOM      4  O   UNL     1      -4.342  -4.784  -5.572  1.00  0.00    -0.267 OA
ATOM      5  H   UNL     1      -5.817  -5.878  -4.143  1.00  0.00     0.163 HD
BRANCH   3   6
ATOM      6  C   UNL     1      -3.790  -3.189  -3.916  1.00  0.00     0.150 A 
ATOM      7  C   UNL     1      -2.191  -1.071  -3.159  1.00  0.00     0.148 A 
ATOM      8  C   UNL     1      -3.367  -1.324  -2.474  1.00  0.00     0.051 A 
ATOM      9  N   UNL     1      -1.865  -1.831  -4.219  1.00  0.00    -0.132 NA
ATOM     10  C   UNL     1      -4.195  -2.375  -2.876  1.00  0.00     0.040 A 
ATOM     11  N   UNL     1      -2.651  -2.908  -4.588  1.00  0.00    -0.143 NA
BRANCH   7  12
ATOM     12  N   UNL     1      -1.315  -0.070  -2.796  1.00  0.00    -0.363 N 
ATOM     13  H   UNL     1      -0.977   0.554  -3.479  1.00  0.00     0.162 HD
BRANCH  12  14
ATOM     14  C   UNL     1      -0.882   0.072  -1.404  1.00  0.00     0.108 C 
BRANCH  14  15
ATOM     15  C   UNL     1       0.671  -0.040  -1.343  1.00  0.00     0.007 C 
ATOM     16  C   UNL     1       1.203   0.127   0.085  1.00  0.00     0.009 C 
ATOM     17  C   UNL     1       1.165  -1.387  -1.893  1.00  0.00     0.009 C 
ENDBRANCH  14  15
BRANCH  14  18
ATOM     18  C   UNL     1      -1.438   1.403  -0.838  1.00  0.00     0.181 C 
BRANCH  18  19
ATOM     19  O   UNL     1      -0.908   2.561  -1.480  1.00  0.00    -0.394 OA
ATOM     20  H   UNL     1       0.051   2.596  -1.343  1.00  0.00     0.210 HD
ENDBRANCH  18  19
ENDBRANCH  14  18
ENDBRANCH  12  14
ENDBRANCH   7  12
ENDBRANCH   3   6
ENDBRANCH   1   2
BRANCH   1  21
ATOM     21  C   UNL     1      -7.159  -4.376  -2.117  1.00  0.00     0.042 C 
BRANCH  21  22
ATOM     22  C   UNL     1      -8.331  -5.266  -2.528  1.00  0.00     0.118 C 
BRANCH  22  23
ATOM     23  N   UNL     1      -8.517  -6.375  -1.603  1.00  0.00    -0.352 N 
ATOM     24  C   UNL     1      -9.588  -6.699  -0.808  1.00  0.00     0.251 C 
ATOM     25  H   UNL     1      -7.752  -6.992  -1.538  1.00  0.00     0.163 HD
ATOM     26  O   UNL     1      -9.430  -7.525   0.087  1.00  0.00    -0.269 OA
BRANCH  24  27
ATOM     27  C   UNL     1     -10.911  -6.065  -1.010  1.00  0.00     0.039 A 
ATOM     28  C   UNL     1     -11.687  -5.757   0.113  1.00  0.00     0.014 A 
ATOM     29  C   UNL     1     -11.420  -5.830  -2.290  1.00  0.00     0.014 A 
ATOM     30  C   UNL     1     -12.945  -5.168  -0.046  1.00  0.00     0.010 A 
ATOM     31  C   UNL     1     -12.645  -5.181  -2.446  1.00  0.00     0.010 A 
ATOM     32  C   UNL     1     -13.423  -4.848  -1.326  1.00  0.00    -0.014 A 
BRANCH  32  33
ATOM     33  C   UNL     1     -14.732  -4.164  -1.513  1.00  0.00     0.031 A 
ATOM     34  C   UNL     1     -15.851  -4.858  -2.244  1.00  0.00     0.074 A 
ATOM     35  C   UNL     1     -14.883  -2.894  -1.087  1.00  0.00     0.049 A 
ATOM     36  N   UNL     1     -17.027  -4.397  -2.585  1.00  0.00    -0.248 NA
ATOM     37  C   UNL     1     -15.605  -6.244  -2.672  1.00  0.00     0.031 C 
ATOM     38  C   UNL     1     -13.854  -2.104  -0.406  1.00  0.00     0.029 A 
ATOM     39  N   UNL     1     -15.949  -2.033  -1.179  1.00  0.00    -0.354 N 
ATOM     40  C   UNL     1     -17.649  -5.421  -3.292  1.00  0.00     0.074 A 
ATOM     41  C   UNL     1     -16.704  -6.515  -3.361  1.00  0.00     0.031 C 
ATOM     42  C   UNL     1     -14.341  -0.883  -0.135  1.00  0.00     0.029 A 
ATOM     43  C   UNL     1     -15.698  -0.782  -0.663  1.00  0.00     0.049 A 
ATOM     44  H   UNL     1     -16.813  -2.288  -1.577  1.00  0.00     0.167 HD
ATOM     45  C   UNL     1     -18.897  -5.448  -3.822  1.00  0.00     0.034 A 
ATOM     46  C   UNL     1     -16.464   0.328  -0.637  1.00  0.00     0.034 A 
ATOM     47  C   UNL     1     -19.837  -4.359  -3.713  1.00  0.00     0.049 A 
ATOM     48  C   UNL     1     -17.852   0.265  -1.226  1.00  0.00     0.074 A 
ATOM     49  C   UNL     1     -21.157  -4.318  -4.130  1.00  0.00     0.029 A 
ATOM     50  N   UNL     1     -19.558  -3.117  -3.158  1.00  0.00    -0.354 N 
ATOM     51  N   UNL     1     -18.452  -0.742  -1.819  1.00  0.00    -0.248 NA
ATOM     52  C   UNL     1     -18.671   1.480  -1.128  1.00  0.00     0.031 C 
ATOM     53  C   UNL     1     -21.652  -3.032  -3.893  1.00  0.00     0.029 A 
ATOM     54  C   UNL     1     -20.669  -2.292  -3.256  1.00  0.00     0.049 A 
ATOM     55  H   UNL     1     -18.698  -2.860  -2.754  1.00  0.00     0.167 HD
ATOM     56  C   UNL     1     -19.730  -0.288  -2.135  1.00  0.00     0.074 A 
ATOM     57  C   UNL     1     -19.819   1.073  -1.649  1.00  0.00     0.031 C 
ATOM     58  C   UNL     1     -20.740  -0.936  -2.768  1.00  0.00     0.034 A 
BRANCH  45  59
ATOM     59  C   UNL     1     -19.311  -6.677  -4.595  1.00  0.00     0.023 A 
ATOM     60  C   UNL     1     -19.449  -7.933  -3.981  1.00  0.00     0.031 A 
ATOM     61  C   UNL     1     -19.587  -6.584  -5.971  1.00  0.00     0.131 A 
ATOM     62  C   UNL     1     -19.798  -9.055  -4.750  1.00  0.00     0.055 A 
ATOM     63  C   UNL     1     -20.005  -7.688  -6.717  1.00  0.00     0.041 A 
ATOM     64  F   UNL     1     -19.454  -5.414  -6.617  1.00  0.00    -0.206 F 
ATOM     65  C   UNL     1     -20.102  -8.935  -6.108  1.00  0.00     0.022 A 
BRANCH  62  66
ATOM     66  S   UNL     1     -19.746 -10.692  -3.973  1.00  0.00     0.124 S 
ATOM     67  O   UNL     1     -18.341 -10.788  -3.581  1.00  0.00    -0.237 OA
ATOM     68  O   UNL     1     -20.705 -10.556  -2.883  1.00  0.00    -0.237 OA
ATOM     69  O   UNL     1     -20.148 -11.596  -5.049  1.00  0.00    -0.744 OA
ENDBRANCH  62  66
ENDBRANCH  45  59
BRANCH  46  70
ATOM     70  C   UNL     1     -15.941   1.602  -0.061  1.00  0.00     0.023 A 
ATOM     71  C   UNL     1     -16.549   2.197   1.056  1.00  0.00     0.031 A 
ATOM     72  C   UNL     1     -14.865   2.280  -0.662  1.00  0.00     0.131 A 
ATOM     73  C   UNL     1     -16.121   3.459   1.497  1.00  0.00     0.055 A 
ATOM     74  C   UNL     1     -14.402   3.506  -0.181  1.00  0.00     0.041 A 
ATOM     75  F   UNL     1     -14.242   1.754  -1.730  1.00  0.00    -0.206 F 
ATOM     76  C   UNL     1     -15.044   4.111   0.894  1.00  0.00     0.022 A 
BRANCH  73  77
ATOM     77  S   UNL     1     -17.071   4.289   2.801  1.00  0.00     0.124 S 
ATOM     78  O   UNL     1     -18.416   4.282   2.239  1.00  0.00    -0.237 OA
ATOM     79  O   UNL     1     -16.847   3.408   3.943  1.00  0.00    -0.237 OA
ATOM     80  O   UNL     1     -16.439   5.603   2.896  1.00  0.00    -0.744 OA
ENDBRANCH  73  77
ENDBRANCH  46  70
BRANCH  58  81
ATOM     81  C   UNL     1     -22.044  -0.191  -2.921  1.00  0.00     0.023 A 
ATOM     82  C   UNL     1     -22.155   0.947  -3.739  1.00  0.00     0.031 A 
ATOM     83  C   UNL     1     -23.188  -0.621  -2.225  1.00  0.00     0.131 A 
ATOM     84  C   UNL     1     -23.368   1.649  -3.796  1.00  0.00     0.055 A 
ATOM     85  C   UNL     1     -24.408   0.046  -2.336  1.00  0.00     0.041 A 
ATOM     86  F   UNL     1     -23.137  -1.700  -1.428  1.00  0.00    -0.206 F 
ATOM     87  C   UNL     1     -24.500   1.196  -3.114  1.00  0.00     0.022 A 
BRANCH  84  88
ATOM     88  S   UNL     1     -23.423   3.220  -4.703  1.00  0.00     0.124 S 
ATOM     89  O   UNL     1     -22.404   4.004  -4.012  1.00  0.00    -0.237 OA
ATOM     90  O   UNL     1     -23.096   2.806  -6.064  1.00  0.00    -0.237 OA
ATOM     91  O   UNL     1     -24.797   3.680  -4.509  1.00  0.00    -0.744 OA
ENDBRANCH  84  88
ENDBRANCH  58  81
ENDBRANCH  32  33
ENDBRANCH  24  27
ENDBRANCH  22  23
ENDBRANCH  21  22
ENDBRANCH   1  21
TORSDOF 18
