REMARK SMILES CC1(C)CCN(c2ncccc2C(=O)NCCCNC(=O)c2ccc(-c3c4nc(c(-c5cc(S(=O)(=O)[O-])ccc5F)c5ccc([nH]5)c(-c5cc(S(=O)(=O)[O-])ccc5F)c5nc(c(-c6cc(S(=O)(=O)[O-])ccc6F)c6ccc3[nH]6)C=C5)C=C4)cc2)C1
REMARK SMILES IDX 18 1 17 2 16 3 15 4 13 5 14 6 12 8 7 9 8 10 9 11 11 12 10 13
REMARK SMILES IDX 6 14 1 15 2 16 3 17 4 18 85 19 5 20 19 21 20 22 21 24 22 25
REMARK SMILES IDX 23 26 84 27 24 28 83 29 25 30 26 31 27 32 77 33 28 34 82 35
REMARK SMILES IDX 76 36 78 37 29 38 81 39 75 40 74 41 30 43 62 44 42 45 61 46
REMARK SMILES IDX 43 47 46 48 60 49 79 50 44 51 45 52 59 54 80 55 47 56 31 57
REMARK SMILES IDX 32 58 40 59 33 60 39 61 41 62 38 63 34 64 35 65 36 66 37 67
REMARK SMILES IDX 63 68 64 69 72 70 65 71 71 72 73 73 70 74 66 75 67 76 68 77
REMARK SMILES IDX 69 78 48 79 49 80 57 81 50 82 56 83 58 84 55 85 51 86 52 87
REMARK SMILES IDX 53 88 54 89
REMARK H PARENT 15 7 19 23 78 42 46 53
REMARK Flexibility Score: inf
ROOT
ATOM      1  C   UNL     1       3.349   6.287   3.868  1.00  0.00     0.118 C 
ENDROOT
BRANCH   1   2
ATOM      2  C   UNL     1       4.082   5.815   2.609  1.00  0.00     0.042 C 
BRANCH   2   3
ATOM      3  C   UNL     1       4.541   4.359   2.682  1.00  0.00     0.118 C 
BRANCH   3   4
ATOM      4  N   UNL     1       3.403   3.465   2.755  1.00  0.00    -0.352 N 
ATOM      5  C   UNL     1       2.697   2.682   1.878  1.00  0.00     0.255 C 
ATOM      6  O   UNL     1       1.762   2.093   2.420  1.00  0.00    -0.269 OA
ATOM      7  H   UNL     1       3.044   3.405   3.669  1.00  0.00     0.163 HD
BRANCH   5   8
ATOM      8  C   UNL     1       3.038   2.498   0.424  1.00  0.00     0.082 A 
ATOM      9  C   UNL     1       2.579   1.368  -0.292  1.00  0.00     0.141 A 
ATOM     10  N   UNL     1       3.062   1.067  -1.532  1.00  0.00    -0.238 NA
ATOM     11  C   UNL     1       3.922   1.917  -2.122  1.00  0.00     0.113 A 
ATOM     12  C   UNL     1       3.862   3.395  -0.269  1.00  0.00     0.019 A 
ATOM     13  C   UNL     1       4.324   3.101  -1.549  1.00  0.00     0.021 A 
BRANCH   9  14
ATOM     14  N   UNL     1       1.558   0.553   0.145  1.00  0.00    -0.355 N 
ATOM     15  C   UNL     1      -1.079  -0.175  -1.623  1.00  0.00     0.013 C 
ATOM     16  C   UNL     1      -0.722  -0.103  -0.129  1.00  0.00    -0.016 C 
ATOM     17  C   UNL     1      -2.010  -0.035   0.695  1.00  0.00     0.013 C 
ATOM     18  C   UNL     1       0.155  -1.294   0.292  1.00  0.00     0.030 C 
ATOM     19  C   UNL     1       0.198   1.106   0.157  1.00  0.00     0.124 C 
ATOM     20  C   UNL     1       1.558  -0.870  -0.137  1.00  0.00     0.119 C 
ENDBRANCH   9  14
ENDBRANCH   5   8
ENDBRANCH   3   4
ENDBRANCH   2   3
ENDBRANCH   1   2
BRANCH   1  21
ATOM     21  N   UNL     1       4.205   6.250   5.046  1.00  0.00    -0.352 N 
ATOM     22  C   UNL     1       4.661   7.271   5.841  1.00  0.00     0.251 C 
ATOM     23  H   UNL     1       4.502   5.351   5.314  1.00  0.00     0.163 HD
ATOM     24  O   UNL     1       5.588   7.056   6.617  1.00  0.00    -0.269 OA
BRANCH  22  25
ATOM     25  C   UNL     1       4.053   8.617   5.762  1.00  0.00     0.039 A 
ATOM     26  C   UNL     1       4.882   9.739   5.834  1.00  0.00     0.014 A 
ATOM     27  C   UNL     1       2.667   8.777   5.671  1.00  0.00     0.014 A 
ATOM     28  C   UNL     1       4.328  11.019   5.757  1.00  0.00     0.010 A 
ATOM     29  C   UNL     1       2.122  10.050   5.525  1.00  0.00     0.010 A 
ATOM     30  C   UNL     1       2.946  11.185   5.571  1.00  0.00    -0.014 A 
BRANCH  30  31
ATOM     31  C   UNL     1       2.344  12.536   5.423  1.00  0.00     0.031 A 
ATOM     32  C   UNL     1       1.365  13.044   6.448  1.00  0.00     0.074 A 
ATOM     33  C   UNL     1       2.627  13.274   4.332  1.00  0.00     0.049 A 
ATOM     34  N   UNL     1       0.666  14.150   6.450  1.00  0.00    -0.248 NA
ATOM     35  C   UNL     1       1.119  12.175   7.608  1.00  0.00     0.031 C 
ATOM     36  C   UNL     1       3.531  12.870   3.252  1.00  0.00     0.029 A 
ATOM     37  N   UNL     1       2.177  14.510   3.941  1.00  0.00    -0.354 N 
ATOM     38  C   UNL     1      -0.115  14.103   7.601  1.00  0.00     0.074 A 
ATOM     39  C   UNL     1       0.156  12.831   8.237  1.00  0.00     0.031 C 
ATOM     40  C   UNL     1       3.584  13.848   2.334  1.00  0.00     0.029 A 
ATOM     41  C   UNL     1       2.684  14.926   2.732  1.00  0.00     0.049 A 
ATOM     42  H   UNL     1       1.551  15.049   4.476  1.00  0.00     0.167 HD
ATOM     43  C   UNL     1      -0.963  15.043   8.090  1.00  0.00     0.034 A 
ATOM     44  C   UNL     1       2.441  16.041   2.016  1.00  0.00     0.034 A 
ATOM     45  C   UNL     1      -1.210  16.311   7.445  1.00  0.00     0.049 A 
ATOM     46  C   UNL     1       1.481  17.064   2.569  1.00  0.00     0.074 A 
ATOM     47  C   UNL     1      -2.005  17.359   7.877  1.00  0.00     0.029 A 
ATOM     48  N   UNL     1      -0.673  16.701   6.223  1.00  0.00    -0.354 N 
ATOM     49  N   UNL     1       0.786  17.026   3.683  1.00  0.00    -0.248 NA
ATOM     50  C   UNL     1       1.283  18.283   1.775  1.00  0.00     0.031 C 
ATOM     51  C   UNL     1      -2.001  18.350   6.889  1.00  0.00     0.029 A 
ATOM     52  C   UNL     1      -1.143  17.958   5.875  1.00  0.00     0.049 A 
ATOM     53  H   UNL     1      -0.050  16.162   5.684  1.00  0.00     0.167 HD
ATOM     54  C   UNL     1       0.091  18.232   3.736  1.00  0.00     0.074 A 
ATOM     55  C   UNL     1       0.463  18.977   2.551  1.00  0.00     0.031 C 
ATOM     56  C   UNL     1      -0.772  18.684   4.682  1.00  0.00     0.034 A 
BRANCH  43  57
ATOM     57  C   UNL     1      -1.700  14.716   9.368  1.00  0.00     0.023 A 
ATOM     58  C   UNL     1      -1.018  14.479  10.575  1.00  0.00     0.031 A 
ATOM     59  C   UNL     1      -3.102  14.608   9.376  1.00  0.00     0.131 A 
ATOM     60  C   UNL     1      -1.728  14.065  11.713  1.00  0.00     0.055 A 
ATOM     61  C   UNL     1      -3.811  14.279  10.534  1.00  0.00     0.041 A 
ATOM     62  F   UNL     1      -3.810  14.803   8.252  1.00  0.00    -0.206 F 
ATOM     63  C   UNL     1      -3.122  13.989  11.708  1.00  0.00     0.022 A 
BRANCH  60  64
ATOM     64  S   UNL     1      -0.790  13.480  13.152  1.00  0.00     0.124 S 
ATOM     65  O   UNL     1      -0.020  12.382  12.574  1.00  0.00    -0.237 OA
ATOM     66  O   UNL     1      -0.028  14.664  13.534  1.00  0.00    -0.237 OA
ATOM     67  O   UNL     1      -1.829  13.074  14.096  1.00  0.00    -0.744 OA
ENDBRANCH  60  64
ENDBRANCH  43  57
BRANCH  44  68
ATOM     68  C   UNL     1       3.105  16.251   0.698  1.00  0.00     0.023 A 
ATOM     69  C   UNL     1       4.021  17.298   0.509  1.00  0.00     0.031 A 
ATOM     70  C   UNL     1       2.811  15.425  -0.401  1.00  0.00     0.131 A 
ATOM     71  C   UNL     1       4.577  17.519  -0.761  1.00  0.00     0.055 A 
ATOM     72  C   UNL     1       3.406  15.617  -1.649  1.00  0.00     0.041 A 
ATOM     73  F   UNL     1       1.948  14.404  -0.272  1.00  0.00    -0.206 F 
ATOM     74  C   UNL     1       4.287  16.678  -1.837  1.00  0.00     0.022 A 
BRANCH  71  75
ATOM     75  S   UNL     1       5.633  18.974  -1.004  1.00  0.00     0.124 S 
ATOM     76  O   UNL     1       4.734  20.059  -0.629  1.00  0.00    -0.237 OA
ATOM     77  O   UNL     1       6.734  18.705  -0.086  1.00  0.00    -0.237 OA
ATOM     78  O   UNL     1       5.977  18.910  -2.423  1.00  0.00    -0.744 OA
ENDBRANCH  71  75
ENDBRANCH  44  68
BRANCH  56  79
ATOM     79  C   UNL     1      -1.333  20.071   4.487  1.00  0.00     0.023 A 
ATOM     80  C   UNL     1      -2.212  20.374   3.433  1.00  0.00     0.031 A 
ATOM     81  C   UNL     1      -0.971  21.108   5.365  1.00  0.00     0.131 A 
ATOM     82  C   UNL     1      -2.655  21.693   3.250  1.00  0.00     0.055 A 
ATOM     83  C   UNL     1      -1.463  22.405   5.214  1.00  0.00     0.041 A 
ATOM     84  F   UNL     1      -0.132  20.876   6.387  1.00  0.00    -0.206 F 
ATOM     85  C   UNL     1      -2.300  22.707   4.144  1.00  0.00     0.022 A 
BRANCH  82  86
ATOM     86  S   UNL     1      -3.630  22.088   1.772  1.00  0.00     0.124 S 
ATOM     87  O   UNL     1      -2.725  21.693   0.697  1.00  0.00    -0.237 OA
ATOM     88  O   UNL     1      -4.814  21.253   1.947  1.00  0.00    -0.237 OA
ATOM     89  O   UNL     1      -3.864  23.526   1.889  1.00  0.00    -0.744 OA
ENDBRANCH  82  86
ENDBRANCH  56  79
ENDBRANCH  30  31
ENDBRANCH  22  25
ENDBRANCH   1  21
TORSDOF 14
