REMARK SMILES CC[C@H](C)N(C)C(=O)N1[C@@H](C(=O)NCCCNC(=O)c2ccc(-c3c4nc(c(-c5cc(S(=O)(=O)[O-])ccc5F)c5ccc([nH]5)c(-c5cc(S(=O)(=O)[O-])ccc5F)c5nc(c(-c6cc(S(=O)(=O)[O-])ccc6F)c6ccc3[nH]6)C=C5)C=C4)cc2)CC[C@H]2CCCC[C@@H]21
REMARK SMILES IDX 14 1 13 2 11 3 12 4 10 6 9 7 90 8 83 9 85 10 89 11 84 12
REMARK SMILES IDX 86 13 88 14 87 15 7 16 8 17 5 18 6 19 3 20 4 21 2 22 1 23
REMARK SMILES IDX 15 24 16 25 17 26 18 27 19 29 20 30 21 31 82 32 22 33 81 34
REMARK SMILES IDX 23 35 24 36 25 37 75 38 26 39 80 40 74 41 76 42 27 43 79 44
REMARK SMILES IDX 73 45 72 46 28 48 60 49 40 50 59 51 41 52 44 53 58 54 77 55
REMARK SMILES IDX 42 56 43 57 57 59 78 60 45 61 29 62 30 63 38 64 31 65 37 66
REMARK SMILES IDX 39 67 36 68 32 69 33 70 34 71 35 72 61 73 62 74 70 75 63 76
REMARK SMILES IDX 69 77 71 78 68 79 64 80 65 81 66 82 67 83 46 84 47 85 55 86
REMARK SMILES IDX 48 87 54 88 56 89 53 90 49 91 50 92 51 93 52 94
REMARK H PARENT 13 5 17 28 76 47 44 58
REMARK Flexibility Score: inf
ROOT
ATOM      1  C   UNL     1      -4.786   0.302   4.114  1.00  0.00     0.117 C 
ENDROOT
BRANCH   1   2
ATOM      2  N   UNL     1      -4.123  -0.956   3.808  1.00  0.00    -0.354 N 
ATOM      3  C   UNL     1      -3.032  -1.555   4.382  1.00  0.00     0.242 C 
ATOM      4  O   UNL     1      -2.638  -2.622   3.903  1.00  0.00    -0.273 OA
ATOM      5  H   UNL     1      -4.525  -1.462   3.065  1.00  0.00     0.163 HD
BRANCH   3   6
ATOM      6  C   UNL     1      -2.324  -0.880   5.588  1.00  0.00     0.176 C 
ATOM      7  N   UNL     1      -1.145  -0.020   5.355  1.00  0.00    -0.309 N 
ATOM      8  C   UNL     1      -0.649   0.688   6.553  1.00  0.00     0.091 C 
ATOM      9  C   UNL     1      -1.890  -1.997   6.576  1.00  0.00     0.036 C 
ATOM     10  C   UNL     1      -1.161   0.040   7.863  1.00  0.00     0.012 C 
ATOM     11  C   UNL     1      -1.020   2.177   6.577  1.00  0.00     0.025 C 
ATOM     12  C   UNL     1      -1.049  -1.478   7.756  1.00  0.00     0.008 C 
ATOM     13  C   UNL     1      -0.421   0.642   9.056  1.00  0.00     0.006 C 
ATOM     14  C   UNL     1      -0.388   2.863   7.796  1.00  0.00     0.002 C 
ATOM     15  C   UNL     1      -0.686   2.149   9.118  1.00  0.00     0.000 C 
BRANCH   7  16
ATOM     16  C   UNL     1      -0.725   0.219   4.059  1.00  0.00     0.320 C 
ATOM     17  O   UNL     1      -1.537   0.235   3.135  1.00  0.00    -0.248 OA
BRANCH  16  18
ATOM     18  N   UNL     1       0.623   0.421   3.804  1.00  0.00    -0.325 N 
ATOM     19  C   UNL     1       1.705  -0.025   4.669  1.00  0.00     0.149 C 
BRANCH  18  20
ATOM     20  C   UNL     1       1.032   0.782   2.422  1.00  0.00     0.083 C 
ATOM     21  C   UNL     1       0.899  -0.426   1.484  1.00  0.00     0.031 C 
BRANCH  20  22
ATOM     22  C   UNL     1       0.393   2.105   1.927  1.00  0.00     0.021 C 
ATOM     23  C   UNL     1      -0.341   2.044   0.594  1.00  0.00     0.006 C 
ENDBRANCH  20  22
ENDBRANCH  18  20
ENDBRANCH  16  18
ENDBRANCH   7  16
ENDBRANCH   3   6
ENDBRANCH   1   2
BRANCH   1  24
ATOM     24  C   UNL     1      -4.450   1.444   3.157  1.00  0.00     0.042 C 
BRANCH  24  25
ATOM     25  C   UNL     1      -4.713   1.143   1.684  1.00  0.00     0.118 C 
BRANCH  25  26
ATOM     26  N   UNL     1      -6.132   0.945   1.409  1.00  0.00    -0.352 N 
ATOM     27  C   UNL     1      -6.992   1.658   0.613  1.00  0.00     0.251 C 
ATOM     28  H   UNL     1      -6.537   0.174   1.868  1.00  0.00     0.163 HD
ATOM     29  O   UNL     1      -8.204   1.445   0.710  1.00  0.00    -0.269 OA
BRANCH  27  30
ATOM     30  C   UNL     1      -6.497   2.682  -0.335  1.00  0.00     0.039 A 
ATOM     31  C   UNL     1      -7.226   3.865  -0.491  1.00  0.00     0.014 A 
ATOM     32  C   UNL     1      -5.353   2.469  -1.109  1.00  0.00     0.014 A 
ATOM     33  C   UNL     1      -6.775   4.856  -1.369  1.00  0.00     0.010 A 
ATOM     34  C   UNL     1      -4.868   3.484  -1.934  1.00  0.00     0.010 A 
ATOM     35  C   UNL     1      -5.572   4.690  -2.074  1.00  0.00    -0.014 A 
BRANCH  35  36
ATOM     36  C   UNL     1      -5.037   5.765  -2.954  1.00  0.00     0.031 A 
ATOM     37  C   UNL     1      -4.901   5.538  -4.436  1.00  0.00     0.074 A 
ATOM     38  C   UNL     1      -4.619   6.926  -2.411  1.00  0.00     0.049 A 
ATOM     39  N   UNL     1      -4.383   6.319  -5.351  1.00  0.00    -0.248 NA
ATOM     40  C   UNL     1      -5.389   4.251  -4.952  1.00  0.00     0.031 C 
ATOM     41  C   UNL     1      -4.670   7.258  -0.986  1.00  0.00     0.029 A 
ATOM     42  N   UNL     1      -4.060   8.039  -2.989  1.00  0.00    -0.354 N 
ATOM     43  C   UNL     1      -4.472   5.615  -6.548  1.00  0.00     0.074 A 
ATOM     44  C   UNL     1      -5.040   4.322  -6.228  1.00  0.00     0.031 C 
ATOM     45  C   UNL     1      -4.183   8.495  -0.804  1.00  0.00     0.029 A 
ATOM     46  C   UNL     1      -3.739   9.029  -2.088  1.00  0.00     0.049 A 
ATOM     47  H   UNL     1      -3.903   8.122  -3.957  1.00  0.00     0.167 HD
ATOM     48  C   UNL     1      -4.130   6.017  -7.798  1.00  0.00     0.034 A 
ATOM     49  C   UNL     1      -3.140  10.223  -2.270  1.00  0.00     0.034 A 
ATOM     50  C   UNL     1      -3.569   7.312  -8.103  1.00  0.00     0.049 A 
ATOM     51  C   UNL     1      -2.732  10.631  -3.663  1.00  0.00     0.074 A 
ATOM     52  C   UNL     1      -3.234   7.838  -9.339  1.00  0.00     0.029 A 
ATOM     53  N   UNL     1      -3.248   8.284  -7.162  1.00  0.00    -0.354 N 
ATOM     54  N   UNL     1      -2.862   9.971  -4.790  1.00  0.00    -0.248 NA
ATOM     55  C   UNL     1      -2.103  11.951  -3.807  1.00  0.00     0.031 C 
ATOM     56  C   UNL     1      -2.649   9.094  -9.141  1.00  0.00     0.029 A 
ATOM     57  C   UNL     1      -2.690   9.389  -7.788  1.00  0.00     0.049 A 
ATOM     58  H   UNL     1      -3.396   8.200  -6.193  1.00  0.00     0.167 HD
ATOM     59  C   UNL     1      -2.359  10.809  -5.781  1.00  0.00     0.074 A 
ATOM     60  C   UNL     1      -1.938  12.027  -5.120  1.00  0.00     0.031 C 
ATOM     61  C   UNL     1      -2.258  10.594  -7.117  1.00  0.00     0.034 A 
BRANCH  48  62
ATOM     62  C   UNL     1      -4.330   5.027  -8.924  1.00  0.00     0.023 A 
ATOM     63  C   UNL     1      -5.606   4.546  -9.267  1.00  0.00     0.031 A 
ATOM     64  C   UNL     1      -3.228   4.537  -9.647  1.00  0.00     0.131 A 
ATOM     65  C   UNL     1      -5.740   3.549 -10.245  1.00  0.00     0.055 A 
ATOM     66  C   UNL     1      -3.377   3.607 -10.678  1.00  0.00     0.041 A 
ATOM     67  F   UNL     1      -1.982   4.945  -9.356  1.00  0.00    -0.206 F 
ATOM     68  C   UNL     1      -4.638   3.094 -10.971  1.00  0.00     0.022 A 
BRANCH  65  69
ATOM     69  S   UNL     1      -7.356   2.749 -10.449  1.00  0.00     0.124 S 
ATOM     70  O   UNL     1      -7.594   2.220  -9.109  1.00  0.00    -0.237 OA
ATOM     71  O   UNL     1      -8.208   3.859 -10.859  1.00  0.00    -0.237 OA
ATOM     72  O   UNL     1      -7.110   1.738 -11.476  1.00  0.00    -0.744 OA
ENDBRANCH  65  69
ENDBRANCH  48  62
BRANCH  49  73
ATOM     73  C   UNL     1      -2.869  11.117  -1.107  1.00  0.00     0.023 A 
ATOM     74  C   UNL     1      -3.494  12.370  -0.998  1.00  0.00     0.031 A 
ATOM     75  C   UNL     1      -1.949  10.750  -0.109  1.00  0.00     0.131 A 
ATOM     76  C   UNL     1      -3.156  13.230   0.058  1.00  0.00     0.055 A 
ATOM     77  C   UNL     1      -1.657  11.587   0.969  1.00  0.00     0.041 A 
ATOM     78  F   UNL     1      -1.326   9.562  -0.163  1.00  0.00    -0.206 F 
ATOM     79  C   UNL     1      -2.252  12.842   1.050  1.00  0.00     0.022 A 
BRANCH  76  80
ATOM     80  S   UNL     1      -3.854  14.904   0.071  1.00  0.00     0.124 S 
ATOM     81  O   UNL     1      -3.384  15.432  -1.205  1.00  0.00    -0.237 OA
ATOM     82  O   UNL     1      -5.285  14.635   0.167  1.00  0.00    -0.237 OA
ATOM     83  O   UNL     1      -3.255  15.513   1.257  1.00  0.00    -0.744 OA
ENDBRANCH  76  80
ENDBRANCH  49  73
BRANCH  61  84
ATOM     84  C   UNL     1      -1.708  11.724  -7.955  1.00  0.00     0.023 A 
ATOM     85  C   UNL     1      -0.372  12.149  -7.841  1.00  0.00     0.031 A 
ATOM     86  C   UNL     1      -2.540  12.396  -8.868  1.00  0.00     0.131 A 
ATOM     87  C   UNL     1       0.076  13.251  -8.586  1.00  0.00     0.055 A 
ATOM     88  C   UNL     1      -2.071  13.452  -9.651  1.00  0.00     0.041 A 
ATOM     89  F   UNL     1      -3.825  12.036  -9.016  1.00  0.00    -0.206 F 
ATOM     90  C   UNL     1      -0.760  13.894  -9.502  1.00  0.00     0.022 A 
BRANCH  87  91
ATOM     91  S   UNL     1       1.744  13.894  -8.273  1.00  0.00     0.124 S 
ATOM     92  O   UNL     1       1.681  14.222  -6.853  1.00  0.00    -0.237 OA
ATOM     93  O   UNL     1       2.589  12.759  -8.628  1.00  0.00    -0.237 OA
ATOM     94  O   UNL     1       1.842  15.043  -9.171  1.00  0.00    -0.744 OA
ENDBRANCH  87  91
ENDBRANCH  61  84
ENDBRANCH  35  36
ENDBRANCH  27  30
ENDBRANCH  25  26
ENDBRANCH  24  25
ENDBRANCH   1  24
TORSDOF 17
