REMARK SMILES O=C(CCCc1ccc2c(c1Br)C=CC2)NCCCNC(=O)c1ccc(-c2c3nc(c(-c4cc(S(=O)(=O)[O-])ccc4F)c4ccc([nH]4)c(-c4cc(S(=O)(=O)[O-])ccc4F)c4nc(c(-c5cc(S(=O)(=O)[O-])ccc5F)c5ccc2[nH]5)C=C4)C=C3)cc1
REMARK SMILES IDX 18 1 17 2 16 3 1 4 2 5 3 7 4 8 5 9 6 10 7 11 11 12 8 13
REMARK SMILES IDX 10 14 12 15 9 16 13 17 15 18 14 19 19 20 20 21 21 22 22 24
REMARK SMILES IDX 23 25 24 26 85 27 25 28 84 29 26 30 27 31 28 32 78 33 29 34
REMARK SMILES IDX 83 35 77 36 79 37 30 38 82 39 76 40 75 41 31 43 63 44 43 45
REMARK SMILES IDX 62 46 44 47 47 48 61 49 80 50 45 51 46 52 60 54 81 55 48 56
REMARK SMILES IDX 32 57 33 58 41 59 34 60 40 61 42 62 39 63 35 64 36 65 37 66
REMARK SMILES IDX 38 67 64 68 65 69 73 70 66 71 72 72 74 73 71 74 67 75 68 76
REMARK SMILES IDX 69 77 70 78 49 79 50 80 58 81 51 82 57 83 59 84 56 85 52 86
REMARK SMILES IDX 53 87 54 88 55 89
REMARK H PARENT 16 6 20 23 79 42 47 53
REMARK Flexibility Score: inf
ROOT
ATOM      1  C   UNL     1       2.357   1.582   3.316  1.00  0.00     0.042 C 
ENDROOT
BRANCH   1   2
ATOM      2  C   UNL     1       2.002   1.910   1.872  1.00  0.00     0.117 C 
BRANCH   2   3
ATOM      3  N   UNL     1       2.532   0.934   0.942  1.00  0.00    -0.356 N 
ATOM      4  O   UNL     1       0.803   1.069  -0.566  1.00  0.00    -0.275 OA
ATOM      5  C   UNL     1       1.869   0.582  -0.207  1.00  0.00     0.220 C 
ATOM      6  H   UNL     1       3.397   0.509   1.141  1.00  0.00     0.163 HD
BRANCH   5   7
ATOM      7  C   UNL     1       2.597  -0.459  -1.022  1.00  0.00     0.100 C 
BRANCH   7   8
ATOM      8  C   UNL     1       3.619   0.169  -1.968  1.00  0.00     0.015 C 
BRANCH   8   9
ATOM      9  C   UNL     1       5.002   0.500  -1.378  1.00  0.00     0.037 C 
BRANCH   9  10
ATOM     10  C   UNL     1       5.728  -0.476  -0.467  1.00  0.00    -0.033 A 
ATOM     11  C   UNL     1       6.451   0.112   0.610  1.00  0.00     0.005 A 
ATOM     12  C   UNL     1       5.804  -1.877  -0.629  1.00  0.00     0.028 A 
ATOM     13  C   UNL     1       7.166  -0.649   1.539  1.00  0.00     0.005 A 
ATOM     14  C   UNL     1       6.464  -2.636   0.341  1.00  0.00    -0.008 A 
ATOM     15  Br  UNL     1       5.128  -2.789  -2.155  1.00  0.00    -0.050 Br
ATOM     16  C   UNL     1       7.140  -2.021   1.404  1.00  0.00    -0.036 A 
ATOM     17  C   UNL     1       6.607  -4.082   0.496  1.00  0.00     0.005 C 
ATOM     18  C   UNL     1       7.790  -3.054   2.275  1.00  0.00     0.063 C 
ATOM     19  C   UNL     1       7.345  -4.320   1.592  1.00  0.00    -0.022 C 
ENDBRANCH   9  10
ENDBRANCH   8   9
ENDBRANCH   7   8
ENDBRANCH   5   7
ENDBRANCH   2   3
ENDBRANCH   1   2
BRANCH   1  20
ATOM     20  C   UNL     1       3.854   1.564   3.603  1.00  0.00     0.118 C 
BRANCH  20  21
ATOM     21  N   UNL     1       4.477   2.871   3.452  1.00  0.00    -0.352 N 
ATOM     22  C   UNL     1       5.100   3.644   4.404  1.00  0.00     0.251 C 
ATOM     23  H   UNL     1       4.448   3.254   2.545  1.00  0.00     0.163 HD
ATOM     24  O   UNL     1       5.442   4.791   4.147  1.00  0.00    -0.269 OA
BRANCH  22  25
ATOM     25  C   UNL     1       5.330   3.077   5.748  1.00  0.00     0.039 A 
ATOM     26  C   UNL     1       4.837   3.757   6.862  1.00  0.00     0.014 A 
ATOM     27  C   UNL     1       5.993   1.854   5.893  1.00  0.00     0.014 A 
ATOM     28  C   UNL     1       4.950   3.174   8.125  1.00  0.00     0.010 A 
ATOM     29  C   UNL     1       6.054   1.250   7.145  1.00  0.00     0.010 A 
ATOM     30  C   UNL     1       5.532   1.903   8.271  1.00  0.00    -0.014 A 
BRANCH  30  31
ATOM     31  C   UNL     1       5.584   1.241   9.597  1.00  0.00     0.031 A 
ATOM     32  C   UNL     1       6.899   1.043  10.293  1.00  0.00     0.074 A 
ATOM     33  C   UNL     1       4.448   0.775  10.151  1.00  0.00     0.049 A 
ATOM     34  N   UNL     1       7.137   0.503  11.459  1.00  0.00    -0.248 NA
ATOM     35  C   UNL     1       8.105   1.493   9.579  1.00  0.00     0.031 C 
ATOM     36  C   UNL     1       3.120   0.855   9.540  1.00  0.00     0.029 A 
ATOM     37  N   UNL     1       4.227   0.137  11.346  1.00  0.00    -0.354 N 
ATOM     38  C   UNL     1       8.515   0.552  11.623  1.00  0.00     0.074 A 
ATOM     39  C   UNL     1       9.066   1.119  10.412  1.00  0.00     0.031 C 
ATOM     40  C   UNL     1       2.221   0.306  10.373  1.00  0.00     0.029 A 
ATOM     41  C   UNL     1       2.908  -0.184  11.566  1.00  0.00     0.049 A 
ATOM     42  H   UNL     1       4.946  -0.072  11.985  1.00  0.00     0.167 HD
ATOM     43  C   UNL     1       9.251   0.187  12.699  1.00  0.00     0.034 A 
ATOM     44  C   UNL     1       2.317  -0.794  12.613  1.00  0.00     0.034 A 
ATOM     45  C   UNL     1       8.693  -0.362  13.905  1.00  0.00     0.049 A 
ATOM     46  C   UNL     1       3.155  -1.188  13.802  1.00  0.00     0.074 A 
ATOM     47  C   UNL     1       9.352  -0.703  15.073  1.00  0.00     0.029 A 
ATOM     48  N   UNL     1       7.351  -0.651  14.104  1.00  0.00    -0.354 N 
ATOM     49  N   UNL     1       4.444  -1.031  13.988  1.00  0.00    -0.248 NA
ATOM     50  C   UNL     1       2.461  -1.827  14.930  1.00  0.00     0.031 C 
ATOM     51  C   UNL     1       8.416  -1.236  15.962  1.00  0.00     0.029 A 
ATOM     52  C   UNL     1       7.165  -1.185  15.367  1.00  0.00     0.049 A 
ATOM     53  H   UNL     1       6.637  -0.498  13.444  1.00  0.00     0.167 HD
ATOM     54  C   UNL     1       4.712  -1.529  15.260  1.00  0.00     0.074 A 
ATOM     55  C   UNL     1       3.447  -1.975  15.806  1.00  0.00     0.031 C 
ATOM     56  C   UNL     1       5.899  -1.612  15.911  1.00  0.00     0.034 A 
BRANCH  43  57
ATOM     57  C   UNL     1      10.739   0.402  12.647  1.00  0.00     0.023 A 
ATOM     58  C   UNL     1      11.616  -0.696  12.656  1.00  0.00     0.031 A 
ATOM     59  C   UNL     1      11.285   1.698  12.691  1.00  0.00     0.131 A 
ATOM     60  C   UNL     1      12.997  -0.477  12.731  1.00  0.00     0.055 A 
ATOM     61  C   UNL     1      12.662   1.910  12.735  1.00  0.00     0.041 A 
ATOM     62  F   UNL     1      10.483   2.775  12.679  1.00  0.00    -0.206 F 
ATOM     63  C   UNL     1      13.525   0.819  12.763  1.00  0.00     0.022 A 
BRANCH  60  64
ATOM     64  S   UNL     1      14.162  -1.864  12.812  1.00  0.00     0.124 S 
ATOM     65  O   UNL     1      15.076  -1.555  11.713  1.00  0.00    -0.237 OA
ATOM     66  O   UNL     1      14.723  -1.712  14.151  1.00  0.00    -0.237 OA
ATOM     67  O   UNL     1      13.323  -3.038  12.604  1.00  0.00    -0.744 OA
ENDBRANCH  60  64
ENDBRANCH  43  57
BRANCH  44  68
ATOM     68  C   UNL     1       0.840  -0.990  12.601  1.00  0.00     0.023 A 
ATOM     69  C   UNL     1       0.229  -1.855  11.676  1.00  0.00     0.031 A 
ATOM     70  C   UNL     1       0.014  -0.242  13.457  1.00  0.00     0.131 A 
ATOM     71  C   UNL     1      -1.169  -1.914  11.598  1.00  0.00     0.055 A 
ATOM     72  C   UNL     1      -1.377  -0.345  13.413  1.00  0.00     0.041 A 
ATOM     73  F   UNL     1       0.556   0.605  14.345  1.00  0.00    -0.206 F 
ATOM     74  C   UNL     1      -1.975  -1.177  12.472  1.00  0.00     0.022 A 
BRANCH  71  75
ATOM     75  S   UNL     1      -1.989  -2.882  10.302  1.00  0.00     0.124 S 
ATOM     76  O   UNL     1      -2.889  -3.731  11.076  1.00  0.00    -0.237 OA
ATOM     77  O   UNL     1      -2.631  -1.833   9.514  1.00  0.00    -0.237 OA
ATOM     78  O   UNL     1      -0.887  -3.573   9.640  1.00  0.00    -0.744 OA
ENDBRANCH  71  75
ENDBRANCH  44  68
BRANCH  56  79
ATOM     79  C   UNL     1       5.919  -2.204  17.297  1.00  0.00     0.023 A 
ATOM     80  C   UNL     1       6.272  -1.404  18.400  1.00  0.00     0.031 A 
ATOM     81  C   UNL     1       5.736  -3.582  17.502  1.00  0.00     0.131 A 
ATOM     82  C   UNL     1       6.468  -1.996  19.654  1.00  0.00     0.055 A 
ATOM     83  C   UNL     1       5.894  -4.161  18.762  1.00  0.00     0.041 A 
ATOM     84  F   UNL     1       5.408  -4.385  16.477  1.00  0.00    -0.206 F 
ATOM     85  C   UNL     1       6.274  -3.369  19.842  1.00  0.00     0.022 A 
BRANCH  82  86
ATOM     86  S   UNL     1       7.046  -1.021  21.070  1.00  0.00     0.124 S 
ATOM     87  O   UNL     1       5.991  -1.257  22.052  1.00  0.00    -0.237 OA
ATOM     88  O   UNL     1       8.330  -1.650  21.370  1.00  0.00    -0.237 OA
ATOM     89  O   UNL     1       7.120   0.341  20.553  1.00  0.00    -0.744 OA
ENDBRANCH  82  86
ENDBRANCH  56  79
ENDBRANCH  30  31
ENDBRANCH  22  25
ENDBRANCH  20  21
ENDBRANCH   1  20
TORSDOF 16
