REMARK SMILES CC(C)(C)OC(=O)N1CC[C@@]2(CCC[C@@H](C(=O)NCCCNC(=O)c3ccc(-c4c5nc(c(-c6cc(S(=O)(=O)[O-])ccc6F)c6ccc([nH]6)c(-c6cc(S(=O)(=O)[O-])ccc6F)c6nc(c(-c7cc(S(=O)(=O)[O-])ccc7F)c7ccc4[nH]7)C=C6)C=C5)cc3)O2)C1
REMARK SMILES IDX 20 1 19 2 18 3 16 4 17 5 15 7 8 8 9 9 89 10 10 11 11 12
REMARK SMILES IDX 12 13 88 14 13 15 14 16 6 17 7 18 5 19 2 20 1 21 3 22 4 23
REMARK SMILES IDX 21 24 22 25 23 26 24 28 25 29 26 30 87 31 27 32 86 33 28 34
REMARK SMILES IDX 29 35 30 36 80 37 31 38 85 39 79 40 81 41 32 42 84 43 78 44
REMARK SMILES IDX 77 45 33 47 65 48 45 49 64 50 46 51 49 52 63 53 82 54 47 55
REMARK SMILES IDX 48 56 62 58 83 59 50 60 34 61 35 62 43 63 36 64 42 65 44 66
REMARK SMILES IDX 41 67 37 68 38 69 39 70 40 71 66 72 67 73 75 74 68 75 74 76
REMARK SMILES IDX 76 77 73 78 69 79 70 80 71 81 72 82 51 83 52 84 60 85 53 86
REMARK SMILES IDX 59 87 61 88 58 89 54 90 55 91 56 92 57 93
REMARK H PARENT 18 6 22 27 81 46 49 57
REMARK Flexibility Score: inf
ROOT
ATOM      1  C   UNL     1      -1.135  -2.999  -8.560  1.00  0.00     0.042 C 
ENDROOT
BRANCH   1   2
ATOM      2  C   UNL     1      -0.761  -4.475  -8.695  1.00  0.00     0.117 C 
BRANCH   2   3
ATOM      3  N   UNL     1       0.363  -4.662  -9.598  1.00  0.00    -0.354 N 
ATOM      4  C   UNL     1       1.696  -4.767  -9.320  1.00  0.00     0.249 C 
ATOM      5  O   UNL     1       2.480  -4.837 -10.272  1.00  0.00    -0.272 OA
ATOM      6  H   UNL     1       0.128  -4.721 -10.552  1.00  0.00     0.163 HD
BRANCH   4   7
ATOM      7  C   UNL     1       2.206  -4.923  -7.870  1.00  0.00     0.207 C 
ATOM      8  N   UNL     1       1.217  -3.158  -3.601  1.00  0.00    -0.305 N 
ATOM      9  C   UNL     1       2.574  -2.776  -3.902  1.00  0.00     0.126 C 
ATOM     10  C   UNL     1       0.589  -3.812  -4.716  1.00  0.00     0.158 C 
ATOM     11  C   UNL     1       2.961  -3.567  -5.154  1.00  0.00     0.059 C 
ATOM     12  C   UNL     1       1.733  -4.422  -5.538  1.00  0.00     0.089 C 
ATOM     13  C   UNL     1       1.872  -5.912  -5.178  1.00  0.00     0.037 C 
ATOM     14  O   UNL     1       1.409  -4.236  -6.917  1.00  0.00    -0.360 OA
ATOM     15  C   UNL     1       2.762  -6.665  -6.153  1.00  0.00     0.006 C 
ATOM     16  C   UNL     1       2.283  -6.421  -7.574  1.00  0.00     0.042 C 
BRANCH   8  17
ATOM     17  C   UNL     1       0.526  -2.879  -2.453  1.00  0.00     0.410 C 
ATOM     18  O   UNL     1      -0.523  -3.440  -2.161  1.00  0.00    -0.224 OA
BRANCH  17  19
ATOM     19  O   UNL     1       1.131  -1.915  -1.719  1.00  0.00    -0.444 OA
BRANCH  19  20
ATOM     20  C   UNL     1       0.577  -1.472  -0.451  1.00  0.00     0.106 C 
ATOM     21  C   UNL     1       1.222  -0.103  -0.191  1.00  0.00     0.056 C 
ATOM     22  C   UNL     1       1.016  -2.458   0.633  1.00  0.00     0.056 C 
ATOM     23  C   UNL     1      -0.947  -1.277  -0.446  1.00  0.00     0.056 C 
ENDBRANCH  19  20
ENDBRANCH  17  19
ENDBRANCH   8  17
ENDBRANCH   4   7
ENDBRANCH   2   3
ENDBRANCH   1   2
BRANCH   1  24
ATOM     24  C   UNL     1      -1.809  -2.431  -9.810  1.00  0.00     0.118 C 
BRANCH  24  25
ATOM     25  N   UNL     1      -3.075  -3.094 -10.098  1.00  0.00    -0.352 N 
ATOM     26  C   UNL     1      -4.345  -2.586 -10.199  1.00  0.00     0.251 C 
ATOM     27  H   UNL     1      -3.008  -4.065 -10.244  1.00  0.00     0.163 HD
ATOM     28  O   UNL     1      -5.297  -3.362 -10.203  1.00  0.00    -0.269 OA
BRANCH  26  29
ATOM     29  C   UNL     1      -4.572  -1.128 -10.295  1.00  0.00     0.039 A 
ATOM     30  C   UNL     1      -5.663  -0.571  -9.622  1.00  0.00     0.014 A 
ATOM     31  C   UNL     1      -3.747  -0.317 -11.078  1.00  0.00     0.014 A 
ATOM     32  C   UNL     1      -5.890   0.805  -9.687  1.00  0.00     0.010 A 
ATOM     33  C   UNL     1      -3.930   1.065 -11.081  1.00  0.00     0.010 A 
ATOM     34  C   UNL     1      -5.003   1.641 -10.386  1.00  0.00    -0.014 A 
BRANCH  34  35
ATOM     35  C   UNL     1      -5.180   3.117 -10.386  1.00  0.00     0.031 A 
ATOM     36  C   UNL     1      -5.451   3.852 -11.671  1.00  0.00     0.074 A 
ATOM     37  C   UNL     1      -5.041   3.799  -9.231  1.00  0.00     0.049 A 
ATOM     38  N   UNL     1      -5.571   5.138 -11.878  1.00  0.00    -0.248 NA
ATOM     39  C   UNL     1      -5.578   3.034 -12.886  1.00  0.00     0.031 C 
ATOM     40  C   UNL     1      -4.743   3.198  -7.929  1.00  0.00     0.029 A 
ATOM     41  N   UNL     1      -5.126   5.142  -8.963  1.00  0.00    -0.354 N 
ATOM     42  C   UNL     1      -5.778   5.286 -13.246  1.00  0.00     0.074 A 
ATOM     43  C   UNL     1      -5.704   3.961 -13.824  1.00  0.00     0.031 C 
ATOM     44  C   UNL     1      -4.700   4.164  -6.998  1.00  0.00     0.029 A 
ATOM     45  C   UNL     1      -4.909   5.457  -7.641  1.00  0.00     0.049 A 
ATOM     46  H   UNL     1      -5.323   5.817  -9.652  1.00  0.00     0.167 HD
ATOM     47  C   UNL     1      -6.028   6.419 -13.949  1.00  0.00     0.034 A 
ATOM     48  C   UNL     1      -4.866   6.652  -7.019  1.00  0.00     0.034 A 
ATOM     49  C   UNL     1      -6.099   7.732 -13.353  1.00  0.00     0.049 A 
ATOM     50  C   UNL     1      -5.104   7.901  -7.830  1.00  0.00     0.074 A 
ATOM     51  C   UNL     1      -6.396   8.939 -13.962  1.00  0.00     0.029 A 
ATOM     52  N   UNL     1      -5.859   8.015 -12.013  1.00  0.00    -0.354 N 
ATOM     53  N   UNL     1      -5.350   8.018  -9.114  1.00  0.00    -0.248 NA
ATOM     54  C   UNL     1      -5.068   9.177  -7.105  1.00  0.00     0.031 C 
ATOM     55  C   UNL     1      -6.254   9.957 -13.013  1.00  0.00     0.029 A 
ATOM     56  C   UNL     1      -5.962   9.380 -11.788  1.00  0.00     0.049 A 
ATOM     57  H   UNL     1      -5.648   7.344 -11.325  1.00  0.00     0.167 HD
ATOM     58  C   UNL     1      -5.531   9.380  -9.343  1.00  0.00     0.074 A 
ATOM     59  C   UNL     1      -5.384  10.037  -8.061  1.00  0.00     0.031 C 
ATOM     60  C   UNL     1      -5.799  10.027 -10.506  1.00  0.00     0.034 A 
BRANCH  47  61
ATOM     61  C   UNL     1      -6.210   6.288 -15.444  1.00  0.00     0.023 A 
ATOM     62  C   UNL     1      -7.257   5.530 -15.999  1.00  0.00     0.031 A 
ATOM     63  C   UNL     1      -5.316   6.916 -16.329  1.00  0.00     0.131 A 
ATOM     64  C   UNL     1      -7.338   5.358 -17.389  1.00  0.00     0.055 A 
ATOM     65  C   UNL     1      -5.454   6.812 -17.715  1.00  0.00     0.041 A 
ATOM     66  F   UNL     1      -4.282   7.635 -15.862  1.00  0.00    -0.206 F 
ATOM     67  C   UNL     1      -6.461   6.016 -18.253  1.00  0.00     0.022 A 
BRANCH  64  68
ATOM     68  S   UNL     1      -8.513   4.141 -18.043  1.00  0.00     0.124 S 
ATOM     69  O   UNL     1      -8.078   2.919 -17.370  1.00  0.00    -0.237 OA
ATOM     70  O   UNL     1      -9.799   4.682 -17.617  1.00  0.00    -0.237 OA
ATOM     71  O   UNL     1      -8.270   4.169 -19.484  1.00  0.00    -0.744 OA
ENDBRANCH  64  68
ENDBRANCH  47  61
BRANCH  48  72
ATOM     72  C   UNL     1      -4.571   6.734  -5.558  1.00  0.00     0.023 A 
ATOM     73  C   UNL     1      -5.512   7.255  -4.657  1.00  0.00     0.031 A 
ATOM     74  C   UNL     1      -3.322   6.335  -5.048  1.00  0.00     0.131 A 
ATOM     75  C   UNL     1      -5.173   7.413  -3.304  1.00  0.00     0.055 A 
ATOM     76  C   UNL     1      -3.013   6.435  -3.691  1.00  0.00     0.041 A 
ATOM     77  F   UNL     1      -2.384   5.829  -5.864  1.00  0.00    -0.206 F 
ATOM     78  C   UNL     1      -3.936   6.991  -2.812  1.00  0.00     0.022 A 
BRANCH  75  79
ATOM     79  S   UNL     1      -6.338   8.274  -2.211  1.00  0.00     0.124 S 
ATOM     80  O   UNL     1      -6.482   9.558  -2.886  1.00  0.00    -0.237 OA
ATOM     81  O   UNL     1      -7.500   7.392  -2.252  1.00  0.00    -0.237 OA
ATOM     82  O   UNL     1      -5.634   8.316  -0.931  1.00  0.00    -0.744 OA
ENDBRANCH  75  79
ENDBRANCH  48  72
BRANCH  60  83
ATOM     83  C   UNL     1      -5.995  11.524 -10.430  1.00  0.00     0.023 A 
ATOM     84  C   UNL     1      -4.953  12.393 -10.063  1.00  0.00     0.031 A 
ATOM     85  C   UNL     1      -7.253  12.086 -10.717  1.00  0.00     0.131 A 
ATOM     86  C   UNL     1      -5.202  13.767  -9.931  1.00  0.00     0.055 A 
ATOM     87  C   UNL     1      -7.475  13.462 -10.654  1.00  0.00     0.041 A 
ATOM     88  F   UNL     1      -8.287  11.306 -11.068  1.00  0.00    -0.206 F 
ATOM     89  C   UNL     1      -6.451  14.310 -10.244  1.00  0.00     0.022 A 
BRANCH  86  90
ATOM     90  S   UNL     1      -3.901  14.825  -9.240  1.00  0.00     0.124 S 
ATOM     91  O   UNL     1      -3.660  14.201  -7.943  1.00  0.00    -0.237 OA
ATOM     92  O   UNL     1      -2.831  14.687 -10.222  1.00  0.00    -0.237 OA
ATOM     93  O   UNL     1      -4.525  16.146  -9.186  1.00  0.00    -0.744 OA
ENDBRANCH  86  90
ENDBRANCH  60  83
ENDBRANCH  34  35
ENDBRANCH  26  29
ENDBRANCH  24  25
ENDBRANCH   1  24
TORSDOF 16
