REMARK SMILES CC[C@@](C)(NS(=O)(=O)c1ccc(F)c(F)c1)C(=O)NCCCNC(=O)c1ccc(-c2c3nc(c(-c4cc(S(=O)(=O)[O-])ccc4F)c4ccc([nH]4)c(-c4cc(S(=O)(=O)[O-])ccc4F)c4nc(c(-c5cc(S(=O)(=O)[O-])ccc5F)c5ccc2[nH]5)C=C4)C=C3)cc1
REMARK SMILES IDX 21 1 20 2 19 3 17 4 18 5 3 7 4 8 2 9 1 10 5 11 6 13 7 14
REMARK SMILES IDX 8 15 9 16 10 17 16 18 11 19 14 20 12 21 15 22 13 23 22 24
REMARK SMILES IDX 23 25 24 26 25 28 26 29 27 30 88 31 28 32 87 33 29 34 30 35
REMARK SMILES IDX 31 36 81 37 32 38 86 39 80 40 82 41 33 42 85 43 79 44 78 45
REMARK SMILES IDX 34 47 66 48 46 49 65 50 47 51 50 52 64 53 83 54 48 55 49 56
REMARK SMILES IDX 63 58 84 59 51 60 35 61 36 62 44 63 37 64 43 65 45 66 42 67
REMARK SMILES IDX 38 68 39 69 40 70 41 71 67 72 68 73 76 74 69 75 75 76 77 77
REMARK SMILES IDX 74 78 70 79 71 80 72 81 73 82 52 83 53 84 61 85 54 86 60 87
REMARK SMILES IDX 62 88 59 89 55 90 56 91 57 92 58 93
REMARK H PARENT 19 6 5 12 23 27 82 46 50 57
REMARK Flexibility Score: inf
ROOT
ATOM      1  C   UNL     1       2.158   2.568   6.217  1.00  0.00     0.042 C 
ENDROOT
BRANCH   1   2
ATOM      2  C   UNL     1       1.920   2.804   4.697  1.00  0.00     0.117 C 
BRANCH   2   3
ATOM      3  N   UNL     1       2.625   2.054   3.657  1.00  0.00    -0.354 N 
ATOM      4  C   UNL     1       2.351   1.119   2.696  1.00  0.00     0.241 C 
ATOM      5  O   UNL     1       3.298   0.926   1.916  1.00  0.00    -0.273 OA
ATOM      6  H   UNL     1       3.580   2.292   3.646  1.00  0.00     0.163 HD
BRANCH   4   7
ATOM      7  C   UNL     1       1.076   0.244   2.554  1.00  0.00     0.108 C 
ATOM      8  C   UNL     1      -0.210   1.054   2.742  1.00  0.00     0.040 C 
BRANCH   7   9
ATOM      9  C   UNL     1       1.011  -0.415   1.112  1.00  0.00     0.030 C 
ATOM     10  C   UNL     1       1.101   0.469  -0.122  1.00  0.00     0.006 C 
ENDBRANCH   7   9
BRANCH   7  11
ATOM     11  N   UNL     1       1.035  -0.978   3.396  1.00  0.00    -0.196 NA
ATOM     12  H   UNL     1       1.341  -1.718   2.764  1.00  0.00     0.142 HD
BRANCH  11  13
ATOM     13  S   UNL     1       1.783  -1.341   4.822  1.00  0.00     0.241 S 
ATOM     14  O   UNL     1       1.584  -0.222   5.719  1.00  0.00    -0.207 OA
ATOM     15  O   UNL     1       1.263  -2.641   5.160  1.00  0.00    -0.207 OA
BRANCH  13  16
ATOM     16  C   UNL     1       3.532  -1.536   4.545  1.00  0.00     0.085 A 
ATOM     17  C   UNL     1       4.130  -2.798   4.607  1.00  0.00     0.025 A 
ATOM     18  C   UNL     1       4.359  -0.417   4.523  1.00  0.00     0.064 A 
ATOM     19  C   UNL     1       5.533  -2.906   4.613  1.00  0.00     0.044 A 
ATOM     20  C   UNL     1       5.739  -0.520   4.498  1.00  0.00     0.160 A 
ATOM     21  C   UNL     1       6.329  -1.764   4.550  1.00  0.00     0.158 A 
ATOM     22  F   UNL     1       6.474   0.600   4.487  1.00  0.00    -0.204 F 
ATOM     23  F   UNL     1       7.663  -1.873   4.585  1.00  0.00    -0.204 F 
ENDBRANCH  13  16
ENDBRANCH  11  13
ENDBRANCH   7  11
ENDBRANCH   4   7
ENDBRANCH   2   3
ENDBRANCH   1   2
BRANCH   1  24
ATOM     24  C   UNL     1       3.470   2.084   6.867  1.00  0.00     0.118 C 
BRANCH  24  25
ATOM     25  N   UNL     1       4.591   2.996   6.775  1.00  0.00    -0.352 N 
ATOM     26  C   UNL     1       5.678   3.111   7.621  1.00  0.00     0.251 C 
ATOM     27  H   UNL     1       4.577   3.615   6.010  1.00  0.00     0.163 HD
ATOM     28  O   UNL     1       6.434   4.071   7.481  1.00  0.00    -0.269 OA
BRANCH  26  29
ATOM     29  C   UNL     1       5.945   2.135   8.715  1.00  0.00     0.039 A 
ATOM     30  C   UNL     1       6.071   2.616  10.024  1.00  0.00     0.014 A 
ATOM     31  C   UNL     1       6.227   0.789   8.460  1.00  0.00     0.014 A 
ATOM     32  C   UNL     1       6.444   1.755  11.068  1.00  0.00     0.010 A 
ATOM     33  C   UNL     1       6.584  -0.079   9.515  1.00  0.00     0.010 A 
ATOM     34  C   UNL     1       6.699   0.392  10.835  1.00  0.00    -0.014 A 
BRANCH  34  35
ATOM     35  C   UNL     1       7.050  -0.501  11.989  1.00  0.00     0.031 A 
ATOM     36  C   UNL     1       8.440  -1.066  12.168  1.00  0.00     0.074 A 
ATOM     37  C   UNL     1       6.114  -0.775  12.923  1.00  0.00     0.049 A 
ATOM     38  N   UNL     1       8.941  -1.732  13.183  1.00  0.00    -0.248 NA
ATOM     39  C   UNL     1       9.382  -0.870  11.060  1.00  0.00     0.031 C 
ATOM     40  C   UNL     1       4.719  -0.337  12.861  1.00  0.00     0.029 A 
ATOM     41  N   UNL     1       6.191  -1.464  14.112  1.00  0.00    -0.354 N 
ATOM     42  C   UNL     1      10.260  -2.023  12.844  1.00  0.00     0.074 A 
ATOM     43  C   UNL     1      10.457  -1.511  11.502  1.00  0.00     0.031 C 
ATOM     44  C   UNL     1       4.085  -0.727  13.978  1.00  0.00     0.029 A 
ATOM     45  C   UNL     1       5.014  -1.466  14.829  1.00  0.00     0.049 A 
ATOM     46  H   UNL     1       7.010  -1.913  14.422  1.00  0.00     0.167 HD
ATOM     47  C   UNL     1      11.222  -2.639  13.584  1.00  0.00     0.034 A 
ATOM     48  C   UNL     1       4.712  -1.986  16.037  1.00  0.00     0.034 A 
ATOM     49  C   UNL     1      11.015  -3.163  14.917  1.00  0.00     0.049 A 
ATOM     50  C   UNL     1       5.792  -2.672  16.837  1.00  0.00     0.074 A 
ATOM     51  C   UNL     1      11.935  -3.765  15.762  1.00  0.00     0.029 A 
ATOM     52  N   UNL     1       9.803  -3.167  15.598  1.00  0.00    -0.354 N 
ATOM     53  N   UNL     1       7.054  -2.867  16.529  1.00  0.00    -0.248 NA
ATOM     54  C   UNL     1       5.410  -3.186  18.159  1.00  0.00     0.031 C 
ATOM     55  C   UNL     1      11.267  -4.196  16.915  1.00  0.00     0.029 A 
ATOM     56  C   UNL     1       9.946  -3.788  16.833  1.00  0.00     0.049 A 
ATOM     57  H   UNL     1       8.964  -2.784  15.255  1.00  0.00     0.167 HD
ATOM     58  C   UNL     1       7.620  -3.500  17.634  1.00  0.00     0.074 A 
ATOM     59  C   UNL     1       6.570  -3.624  18.623  1.00  0.00     0.031 C 
ATOM     60  C   UNL     1       8.894  -3.936  17.813  1.00  0.00     0.034 A 
BRANCH  47  61
ATOM     61  C   UNL     1      12.591  -2.803  12.954  1.00  0.00     0.023 A 
ATOM     62  C   UNL     1      13.377  -1.694  12.593  1.00  0.00     0.031 A 
ATOM     63  C   UNL     1      13.118  -4.084  12.707  1.00  0.00     0.131 A 
ATOM     64  C   UNL     1      14.607  -1.883  11.942  1.00  0.00     0.055 A 
ATOM     65  C   UNL     1      14.379  -4.267  12.132  1.00  0.00     0.041 A 
ATOM     66  F   UNL     1      12.415  -5.185  13.016  1.00  0.00    -0.206 F 
ATOM     67  C   UNL     1      15.124  -3.163  11.731  1.00  0.00     0.022 A 
BRANCH  64  68
ATOM     68  S   UNL     1      15.456  -0.437  11.250  1.00  0.00     0.124 S 
ATOM     69  O   UNL     1      14.440   0.098  10.348  1.00  0.00    -0.237 OA
ATOM     70  O   UNL     1      15.741   0.359  12.438  1.00  0.00    -0.237 OA
ATOM     71  O   UNL     1      16.627  -1.011  10.588  1.00  0.00    -0.744 OA
ENDBRANCH  64  68
ENDBRANCH  47  61
BRANCH  48  72
ATOM     72  C   UNL     1       3.325  -1.878  16.582  1.00  0.00     0.023 A 
ATOM     73  C   UNL     1       3.055  -1.158  17.759  1.00  0.00     0.031 A 
ATOM     74  C   UNL     1       2.253  -2.541  15.958  1.00  0.00     0.131 A 
ATOM     75  C   UNL     1       1.759  -1.158  18.299  1.00  0.00     0.055 A 
ATOM     76  C   UNL     1       0.955  -2.490  16.468  1.00  0.00     0.041 A 
ATOM     77  F   UNL     1       2.453  -3.244  14.832  1.00  0.00    -0.206 F 
ATOM     78  C   UNL     1       0.704  -1.807  17.654  1.00  0.00     0.022 A 
BRANCH  75  79
ATOM     79  S   UNL     1       1.485  -0.370  19.911  1.00  0.00     0.124 S 
ATOM     80  O   UNL     1       2.417  -1.101  20.762  1.00  0.00    -0.237 OA
ATOM     81  O   UNL     1       1.826   1.020  19.630  1.00  0.00    -0.237 OA
ATOM     82  O   UNL     1       0.070  -0.621  20.176  1.00  0.00    -0.744 OA
ENDBRANCH  75  79
ENDBRANCH  48  72
BRANCH  60  83
ATOM     83  C   UNL     1       9.221  -4.561  19.153  1.00  0.00     0.023 A 
ATOM     84  C   UNL     1       8.596  -5.744  19.593  1.00  0.00     0.031 A 
ATOM     85  C   UNL     1      10.129  -3.937  20.027  1.00  0.00     0.131 A 
ATOM     86  C   UNL     1       8.819  -6.214  20.896  1.00  0.00     0.055 A 
ATOM     87  C   UNL     1      10.404  -4.451  21.296  1.00  0.00     0.041 A 
ATOM     88  F   UNL     1      10.756  -2.805  19.669  1.00  0.00    -0.206 F 
ATOM     89  C   UNL     1       9.732  -5.584  21.745  1.00  0.00     0.022 A 
BRANCH  86  90
ATOM     90  S   UNL     1       7.795  -7.578  21.518  1.00  0.00     0.124 S 
ATOM     91  O   UNL     1       6.445  -7.067  21.302  1.00  0.00    -0.237 OA
ATOM     92  O   UNL     1       8.202  -8.687  20.662  1.00  0.00    -0.237 OA
ATOM     93  O   UNL     1       8.196  -7.697  22.919  1.00  0.00    -0.744 OA
ENDBRANCH  86  90
ENDBRANCH  60  83
ENDBRANCH  34  35
ENDBRANCH  26  29
ENDBRANCH  24  25
ENDBRANCH   1  24
TORSDOF 17
