REMARK SMILES C[C@H](C(=O)NCCCNC(=O)c1ccc(-c2c3nc(c(-c4cc(S(=O)(=O)[O-])ccc4F)c4ccc([nH]4)c(-c4cc(S(=O)(=O)[O-])ccc4F)c4nc(c(-c5cc(S(=O)(=O)[O-])ccc5F)c5ccc2[nH]5)C=C4)C=C3)cc1)c1ccc(C[C@H]2CCC[C@@H]2O)cc1
REMARK SMILES IDX 6 1 5 2 3 3 4 4 2 6 1 7 75 8 76 9 87 10 77 11 86 12 78 13
REMARK SMILES IDX 79 14 80 15 81 16 84 17 82 18 83 19 85 20 7 22 8 23 9 24
REMARK SMILES IDX 10 25 11 27 12 28 13 29 74 30 14 31 73 32 15 33 16 34 17 35
REMARK SMILES IDX 67 36 18 37 72 38 66 39 68 40 19 41 71 42 65 43 64 44 20 46
REMARK SMILES IDX 52 47 32 48 51 49 33 50 36 51 50 52 69 53 34 54 35 55 49 57
REMARK SMILES IDX 70 58 37 59 21 60 22 61 30 62 23 63 29 64 31 65 28 66 24 67
REMARK SMILES IDX 25 68 26 69 27 70 53 71 54 72 62 73 55 74 61 75 63 76 60 77
REMARK SMILES IDX 56 78 57 79 58 80 59 81 38 82 39 83 47 84 40 85 46 86 48 87
REMARK SMILES IDX 45 88 41 89 42 90 43 91 44 92
REMARK H PARENT 5 5 85 21 9 26 68 45 36 56
REMARK Flexibility Score: inf
ROOT
ATOM      1  C   UNL     1       0.517  -1.351  -2.134  1.00  0.00     0.117 C 
ENDROOT
BRANCH   1   2
ATOM      2  N   UNL     1       1.189  -1.141  -0.864  1.00  0.00    -0.356 N 
ATOM      3  C   UNL     1       1.222  -0.046  -0.053  1.00  0.00     0.227 C 
ATOM      4  O   UNL     1       1.816  -0.157   1.023  1.00  0.00    -0.274 OA
ATOM      5  H   UNL     1       1.704  -1.914  -0.535  1.00  0.00     0.163 HD
BRANCH   3   6
ATOM      6  C   UNL     1       0.546   1.269  -0.444  1.00  0.00     0.105 C 
ATOM      7  C   UNL     1       1.147   1.844  -1.730  1.00  0.00     0.023 C 
BRANCH   6   8
ATOM      8  C   UNL     1      -0.979   1.261  -0.436  1.00  0.00    -0.036 A 
ATOM      9  C   UNL     1      -1.672   2.439  -0.755  1.00  0.00     0.005 A 
ATOM     10  C   UNL     1      -1.734   0.131  -0.090  1.00  0.00     0.005 A 
ATOM     11  C   UNL     1      -3.066   2.482  -0.736  1.00  0.00     0.004 A 
ATOM     12  C   UNL     1      -3.128   0.171  -0.078  1.00  0.00     0.004 A 
ATOM     13  C   UNL     1      -3.807   1.358  -0.364  1.00  0.00    -0.048 A 
BRANCH  13  14
ATOM     14  C   UNL     1      -5.303   1.434  -0.193  1.00  0.00     0.041 C 
BRANCH  14  15
ATOM     15  C   UNL     1      -5.772   2.001   1.159  1.00  0.00     0.022 C 
ATOM     16  C   UNL     1      -5.278   1.253   2.411  1.00  0.00     0.007 C 
ATOM     17  C   UNL     1      -5.410   3.465   1.426  1.00  0.00     0.117 C 
ATOM     18  C   UNL     1      -5.026   2.325   3.475  1.00  0.00     0.003 C 
ATOM     19  C   UNL     1      -5.644   3.599   2.922  1.00  0.00     0.032 C 
BRANCH  17  20
ATOM     20  O   UNL     1      -6.241   4.357   0.707  1.00  0.00    -0.393 OA
ATOM     21  H   UNL     1      -7.169   4.193   0.938  1.00  0.00     0.210 HD
ENDBRANCH  17  20
ENDBRANCH  14  15
ENDBRANCH  13  14
ENDBRANCH   6   8
ENDBRANCH   3   6
ENDBRANCH   1   2
BRANCH   1  22
ATOM     22  C   UNL     1       1.479  -1.326  -3.312  1.00  0.00     0.042 C 
BRANCH  22  23
ATOM     23  C   UNL     1       2.567  -2.388  -3.241  1.00  0.00     0.118 C 
BRANCH  23  24
ATOM     24  N   UNL     1       2.035  -3.741  -3.319  1.00  0.00    -0.352 N 
ATOM     25  C   UNL     1       2.256  -4.719  -4.257  1.00  0.00     0.251 C 
ATOM     26  H   UNL     1       1.425  -3.992  -2.589  1.00  0.00     0.163 HD
ATOM     27  O   UNL     1       1.553  -5.729  -4.248  1.00  0.00    -0.269 OA
BRANCH  25  28
ATOM     28  C   UNL     1       3.305  -4.547  -5.287  1.00  0.00     0.039 A 
ATOM     29  C   UNL     1       3.026  -4.926  -6.602  1.00  0.00     0.014 A 
ATOM     30  C   UNL     1       4.557  -4.016  -4.965  1.00  0.00     0.014 A 
ATOM     31  C   UNL     1       3.973  -4.697  -7.604  1.00  0.00     0.010 A 
ATOM     32  C   UNL     1       5.462  -3.706  -5.977  1.00  0.00     0.010 A 
ATOM     33  C   UNL     1       5.180  -4.041  -7.309  1.00  0.00    -0.014 A 
BRANCH  33  34
ATOM     34  C   UNL     1       6.146  -3.686  -8.383  1.00  0.00     0.031 A 
ATOM     35  C   UNL     1       7.535  -4.266  -8.378  1.00  0.00     0.074 A 
ATOM     36  C   UNL     1       5.787  -2.797  -9.332  1.00  0.00     0.049 A 
ATOM     37  N   UNL     1       8.533  -4.027  -9.189  1.00  0.00    -0.248 NA
ATOM     38  C   UNL     1       7.851  -5.223  -7.306  1.00  0.00     0.031 C 
ATOM     39  C   UNL     1       4.480  -2.139  -9.421  1.00  0.00     0.029 A 
ATOM     40  N   UNL     1       6.484  -2.286 -10.399  1.00  0.00    -0.354 N 
ATOM     41  C   UNL     1       9.597  -4.792  -8.722  1.00  0.00     0.074 A 
ATOM     42  C   UNL     1       9.137  -5.460  -7.523  1.00  0.00     0.031 C 
ATOM     43  C   UNL     1       4.462  -1.338 -10.498  1.00  0.00     0.029 A 
ATOM     44  C   UNL     1       5.768  -1.377 -11.146  1.00  0.00     0.049 A 
ATOM     45  H   UNL     1       7.409  -2.546 -10.611  1.00  0.00     0.167 HD
ATOM     46  C   UNL     1      10.834  -4.940  -9.256  1.00  0.00     0.034 A 
ATOM     47  C   UNL     1       6.128  -0.644 -12.220  1.00  0.00     0.034 A 
ATOM     48  C   UNL     1      11.273  -4.276 -10.459  1.00  0.00     0.049 A 
ATOM     49  C   UNL     1       7.525  -0.799 -12.769  1.00  0.00     0.074 A 
ATOM     50  C   UNL     1      12.485  -4.402 -11.117  1.00  0.00     0.029 A 
ATOM     51  N   UNL     1      10.526  -3.354 -11.181  1.00  0.00    -0.354 N 
ATOM     52  N   UNL     1       8.498  -1.573 -12.346  1.00  0.00    -0.248 NA
ATOM     53  C   UNL     1       7.869   0.010 -13.944  1.00  0.00     0.031 C 
ATOM     54  C   UNL     1      12.502  -3.498 -12.184  1.00  0.00     0.029 A 
ATOM     55  C   UNL     1      11.267  -2.875 -12.251  1.00  0.00     0.049 A 
ATOM     56  H   UNL     1       9.605  -3.081 -10.965  1.00  0.00     0.167 HD
ATOM     57  C   UNL     1       9.556  -1.368 -13.228  1.00  0.00     0.074 A 
ATOM     58  C   UNL     1       9.094  -0.415 -14.215  1.00  0.00     0.031 C 
ATOM     59  C   UNL     1      10.797  -1.918 -13.226  1.00  0.00     0.034 A 
BRANCH  46  60
ATOM     60  C   UNL     1      11.812  -5.834  -8.531  1.00  0.00     0.023 A 
ATOM     61  C   UNL     1      11.586  -7.213  -8.381  1.00  0.00     0.031 A 
ATOM     62  C   UNL     1      12.995  -5.299  -7.990  1.00  0.00     0.131 A 
ATOM     63  C   UNL     1      12.499  -7.999  -7.662  1.00  0.00     0.055 A 
ATOM     64  C   UNL     1      13.938  -6.100  -7.344  1.00  0.00     0.041 A 
ATOM     65  F   UNL     1      13.255  -3.985  -8.081  1.00  0.00    -0.206 F 
ATOM     66  C   UNL     1      13.688  -7.457  -7.167  1.00  0.00     0.022 A 
BRANCH  63  67
ATOM     67  S   UNL     1      12.054  -9.714  -7.276  1.00  0.00     0.124 S 
ATOM     68  O   UNL     1      10.820  -9.534  -6.515  1.00  0.00    -0.237 OA
ATOM     69  O   UNL     1      11.907 -10.307  -8.600  1.00  0.00    -0.237 OA
ATOM     70  O   UNL     1      13.192 -10.197  -6.498  1.00  0.00    -0.744 OA
ENDBRANCH  63  67
ENDBRANCH  46  60
BRANCH  47  71
ATOM     71  C   UNL     1       5.173   0.321 -12.841  1.00  0.00     0.023 A 
ATOM     72  C   UNL     1       4.768   0.179 -14.178  1.00  0.00     0.031 A 
ATOM     73  C   UNL     1       4.707   1.442 -12.130  1.00  0.00     0.131 A 
ATOM     74  C   UNL     1       3.981   1.173 -14.781  1.00  0.00     0.055 A 
ATOM     75  C   UNL     1       3.867   2.392 -12.714  1.00  0.00     0.041 A 
ATOM     76  F   UNL     1       5.060   1.630 -10.848  1.00  0.00    -0.206 F 
ATOM     77  C   UNL     1       3.515   2.270 -14.054  1.00  0.00     0.022 A 
BRANCH  74  78
ATOM     78  S   UNL     1       3.680   1.074 -16.568  1.00  0.00     0.124 S 
ATOM     79  O   UNL     1       5.039   1.025 -17.094  1.00  0.00    -0.237 OA
ATOM     80  O   UNL     1       2.904  -0.157 -16.675  1.00  0.00    -0.237 OA
ATOM     81  O   UNL     1       2.942   2.302 -16.856  1.00  0.00    -0.744 OA
ENDBRANCH  74  78
ENDBRANCH  47  71
BRANCH  59  82
ATOM     82  C   UNL     1      11.721  -1.538 -14.358  1.00  0.00     0.023 A 
ATOM     83  C   UNL     1      12.193  -0.224 -14.521  1.00  0.00     0.031 A 
ATOM     84  C   UNL     1      12.126  -2.506 -15.295  1.00  0.00     0.131 A 
ATOM     85  C   UNL     1      12.990   0.100 -15.630  1.00  0.00     0.055 A 
ATOM     86  C   UNL     1      12.975  -2.192 -16.356  1.00  0.00     0.041 A 
ATOM     87  F   UNL     1      11.703  -3.776 -15.192  1.00  0.00    -0.206 F 
ATOM     88  C   UNL     1      13.400  -0.880 -16.537  1.00  0.00     0.022 A 
BRANCH  85  89
ATOM     89  S   UNL     1      13.397   1.842 -15.930  1.00  0.00     0.124 S 
ATOM     90  O   UNL     1      12.073   2.449 -16.035  1.00  0.00    -0.237 OA
ATOM     91  O   UNL     1      14.165   2.193 -14.740  1.00  0.00    -0.237 OA
ATOM     92  O   UNL     1      14.163   1.806 -17.174  1.00  0.00    -0.744 OA
ENDBRANCH  85  89
ENDBRANCH  59  82
ENDBRANCH  33  34
ENDBRANCH  25  28
ENDBRANCH  23  24
ENDBRANCH  22  23
ENDBRANCH   1  22
TORSDOF 17
