REMARK SMILES C[NH2+][C@]1(C(=O)NCCCNC(=O)c2ccc(-c3c4nc(c(-c5cc(S(=O)(=O)[O-])ccc5F)c5ccc([nH]5)c(-c5cc(S(=O)(=O)[O-])ccc5F)c5nc(c(-c6cc(S(=O)(=O)[O-])ccc6F)c6ccc3[nH]6)C=C5)C=C4)cc2)CCC[C@H]1CCOC1C[C@@H](C)C[C@H](C)C1
REMARK SMILES IDX 7 1 6 2 4 3 5 4 3 6 76 7 79 8 77 9 78 10 2 11 1 12 80 15
REMARK SMILES IDX 81 16 82 17 83 18 84 19 90 20 85 21 88 22 86 23 87 24 89 25
REMARK SMILES IDX 8 26 9 27 10 28 11 29 12 31 13 32 14 33 75 34 15 35 74 36
REMARK SMILES IDX 16 37 17 38 18 39 68 40 19 41 73 42 67 43 69 44 20 45 72 46
REMARK SMILES IDX 66 47 65 48 21 50 53 51 33 52 52 53 34 54 37 55 51 56 70 57
REMARK SMILES IDX 35 58 36 59 50 61 71 62 38 63 22 64 23 65 31 66 24 67 30 68
REMARK SMILES IDX 32 69 29 70 25 71 26 72 27 73 28 74 54 75 55 76 63 77 56 78
REMARK SMILES IDX 62 79 64 80 61 81 57 82 58 83 59 84 60 85 39 86 40 87 48 88
REMARK SMILES IDX 41 89 47 90 49 91 46 92 42 93 43 94 44 95 45 96
REMARK H PARENT 6 5 2 13 2 14 10 30 69 49 37 60
REMARK Flexibility Score: inf
ROOT
ATOM      1  C   UNL     1       0.386   1.404  -4.587  1.00  0.00     0.118 C 
ENDROOT
BRANCH   1   2
ATOM      2  N   UNL     1       0.695   1.854  -3.259  1.00  0.00    -0.351 N 
ATOM      3  C   UNL     1       0.032   1.753  -2.097  1.00  0.00     0.281 C 
ATOM      4  O   UNL     1       0.670   2.242  -1.157  1.00  0.00    -0.268 OA
ATOM      5  H   UNL     1       1.556   2.325  -3.187  1.00  0.00     0.163 HD
BRANCH   3   6
ATOM      6  C   UNL     1      -1.431   1.218  -2.003  1.00  0.00     0.178 C 
ATOM      7  C   UNL     1      -2.308   2.337  -2.646  1.00  0.00     0.079 C 
ATOM      8  C   UNL     1      -1.942  -0.169  -2.731  1.00  0.00     0.063 C 
ATOM      9  C   UNL     1      -3.561   1.642  -3.132  1.00  0.00     0.008 C 
ATOM     10  C   UNL     1      -3.029   0.352  -3.722  1.00  0.00     0.011 C 
BRANCH   6  11
ATOM     11  N   UNL     1      -1.947   1.155  -0.587  1.00  0.00    -0.336 N 
ATOM     12  C   UNL     1      -1.264   1.824   0.507  1.00  0.00     0.331 C 
ATOM     13  H   UNL     1      -2.893   1.536  -0.610  1.00  0.00     0.346 HD
ATOM     14  H   UNL     1      -1.817   0.171  -0.353  1.00  0.00     0.346 HD
ENDBRANCH   6  11
BRANCH   8  15
ATOM     15  C   UNL     1      -1.207  -1.400  -3.486  1.00  0.00     0.039 C 
BRANCH  15  16
ATOM     16  C   UNL     1      -0.109  -2.494  -3.076  1.00  0.00     0.161 C 
BRANCH  16  17
ATOM     17  O   UNL     1      -0.420  -3.712  -2.391  1.00  0.00    -0.378 OA
BRANCH  17  18
ATOM     18  C   UNL     1      -0.257  -4.059  -1.004  1.00  0.00     0.118 C 
ATOM     19  C   UNL     1       0.539  -3.220   0.000  1.00  0.00     0.035 C 
ATOM     20  C   UNL     1      -1.670  -4.237  -0.440  1.00  0.00     0.035 C 
ATOM     21  C   UNL     1      -0.015  -1.820   0.196  1.00  0.00    -0.011 C 
ATOM     22  C   UNL     1      -2.340  -2.889  -0.608  1.00  0.00    -0.011 C 
ATOM     23  C   UNL     1       0.771  -0.904  -0.741  1.00  0.00     0.008 C 
ATOM     24  C   UNL     1      -1.585  -1.854   0.258  1.00  0.00     0.006 C 
ATOM     25  C   UNL     1      -3.857  -2.925  -0.440  1.00  0.00     0.008 C 
ENDBRANCH  17  18
ENDBRANCH  16  17
ENDBRANCH  15  16
ENDBRANCH   8  15
ENDBRANCH   3   6
ENDBRANCH   1   2
BRANCH   1  26
ATOM     26  C   UNL     1       1.246   2.132  -5.590  1.00  0.00     0.042 C 
BRANCH  26  27
ATOM     27  C   UNL     1       2.711   1.780  -5.373  1.00  0.00     0.118 C 
BRANCH  27  28
ATOM     28  N   UNL     1       3.041   0.449  -5.868  1.00  0.00    -0.352 N 
ATOM     29  C   UNL     1       3.592   0.084  -7.082  1.00  0.00     0.251 C 
ATOM     30  H   UNL     1       2.844  -0.293  -5.252  1.00  0.00     0.163 HD
ATOM     31  O   UNL     1       3.615  -1.073  -7.436  1.00  0.00    -0.269 OA
BRANCH  29  32
ATOM     32  C   UNL     1       4.095   1.173  -7.948  1.00  0.00     0.039 A 
ATOM     33  C   UNL     1       3.655   1.265  -9.266  1.00  0.00     0.014 A 
ATOM     34  C   UNL     1       4.873   2.181  -7.385  1.00  0.00     0.014 A 
ATOM     35  C   UNL     1       3.909   2.436  -9.983  1.00  0.00     0.010 A 
ATOM     36  C   UNL     1       4.955   3.403  -8.030  1.00  0.00     0.010 A 
ATOM     37  C   UNL     1       4.500   3.543  -9.348  1.00  0.00    -0.014 A 
BRANCH  37  38
ATOM     38  C   UNL     1       4.696   4.845 -10.040  1.00  0.00     0.031 A 
ATOM     39  C   UNL     1       6.077   5.454 -10.084  1.00  0.00     0.074 A 
ATOM     40  C   UNL     1       3.641   5.515 -10.549  1.00  0.00     0.049 A 
ATOM     41  N   UNL     1       6.453   6.628 -10.518  1.00  0.00    -0.248 NA
ATOM     42  C   UNL     1       7.171   4.658  -9.503  1.00  0.00     0.031 C 
ATOM     43  C   UNL     1       2.246   5.067 -10.508  1.00  0.00     0.029 A 
ATOM     44  N   UNL     1       3.576   6.719 -11.205  1.00  0.00    -0.354 N 
ATOM     45  C   UNL     1       7.810   6.719 -10.225  1.00  0.00     0.074 A 
ATOM     46  C   UNL     1       8.163   5.531  -9.485  1.00  0.00     0.031 C 
ATOM     47  C   UNL     1       1.476   5.953 -11.160  1.00  0.00     0.029 A 
ATOM     48  C   UNL     1       2.307   7.062 -11.615  1.00  0.00     0.049 A 
ATOM     49  H   UNL     1       4.364   7.286 -11.366  1.00  0.00     0.167 HD
ATOM     50  C   UNL     1       8.696   7.681 -10.582  1.00  0.00     0.034 A 
ATOM     51  C   UNL     1       1.865   8.150 -12.279  1.00  0.00     0.034 A 
ATOM     52  C   UNL     1       8.335   8.832 -11.367  1.00  0.00     0.049 A 
ATOM     53  C   UNL     1       2.868   9.206 -12.676  1.00  0.00     0.074 A 
ATOM     54  C   UNL     1       9.153   9.834 -11.854  1.00  0.00     0.029 A 
ATOM     55  N   UNL     1       7.044   9.132 -11.785  1.00  0.00    -0.354 N 
ATOM     56  N   UNL     1       4.161   9.247 -12.444  1.00  0.00    -0.248 NA
ATOM     57  C   UNL     1       2.356  10.355 -13.432  1.00  0.00     0.031 C 
ATOM     58  C   UNL     1       8.349  10.776 -12.504  1.00  0.00     0.029 A 
ATOM     59  C   UNL     1       7.040  10.318 -12.499  1.00  0.00     0.049 A 
ATOM     60  H   UNL     1       6.248   8.581 -11.601  1.00  0.00     0.167 HD
ATOM     61  C   UNL     1       4.620  10.408 -13.061  1.00  0.00     0.074 A 
ATOM     62  C   UNL     1       3.469  11.027 -13.685  1.00  0.00     0.031 C 
ATOM     63  C   UNL     1       5.878  10.917 -13.113  1.00  0.00     0.034 A 
BRANCH  50  64
ATOM     64  C   UNL     1      10.124   7.520 -10.115  1.00  0.00     0.023 A 
ATOM     65  C   UNL     1      10.901   6.404 -10.477  1.00  0.00     0.031 A 
ATOM     66  C   UNL     1      10.704   8.468  -9.254  1.00  0.00     0.131 A 
ATOM     67  C   UNL     1      12.168   6.214  -9.905  1.00  0.00     0.055 A 
ATOM     68  C   UNL     1      12.004   8.322  -8.766  1.00  0.00     0.041 A 
ATOM     69  F   UNL     1      10.007   9.543  -8.852  1.00  0.00    -0.206 F 
ATOM     70  C   UNL     1      12.737   7.180  -9.075  1.00  0.00     0.022 A 
BRANCH  67  71
ATOM     71  S   UNL     1      12.981   4.607 -10.124  1.00  0.00     0.124 S 
ATOM     72  O   UNL     1      11.999   3.698  -9.538  1.00  0.00    -0.237 OA
ATOM     73  O   UNL     1      13.140   4.528 -11.572  1.00  0.00    -0.237 OA
ATOM     74  O   UNL     1      14.223   4.745  -9.366  1.00  0.00    -0.744 OA
ENDBRANCH  67  71
ENDBRANCH  50  64
BRANCH  51  75
ATOM     75  C   UNL     1       0.420   8.302 -12.623  1.00  0.00     0.023 A 
ATOM     76  C   UNL     1      -0.003   8.351 -13.962  1.00  0.00     0.031 A 
ATOM     77  C   UNL     1      -0.556   8.451 -11.622  1.00  0.00     0.131 A 
ATOM     78  C   UNL     1      -1.352   8.598 -14.264  1.00  0.00     0.055 A 
ATOM     79  C   UNL     1      -1.906   8.638 -11.927  1.00  0.00     0.041 A 
ATOM     80  F   UNL     1      -0.211   8.409 -10.325  1.00  0.00    -0.206 F 
ATOM     81  C   UNL     1      -2.309   8.727 -13.255  1.00  0.00     0.022 A 
BRANCH  78  82
ATOM     82  S   UNL     1      -1.824   8.845 -15.999  1.00  0.00     0.124 S 
ATOM     83  O   UNL     1      -0.971   9.964 -16.381  1.00  0.00    -0.237 OA
ATOM     84  O   UNL     1      -1.492   7.553 -16.590  1.00  0.00    -0.237 OA
ATOM     85  O   UNL     1      -3.252   9.145 -15.923  1.00  0.00    -0.744 OA
ENDBRANCH  78  82
ENDBRANCH  51  75
BRANCH  63  86
ATOM     86  C   UNL     1       6.080  12.175 -13.921  1.00  0.00     0.023 A 
ATOM     87  C   UNL     1       5.506  13.400 -13.542  1.00  0.00     0.031 A 
ATOM     88  C   UNL     1       6.862  12.143 -15.089  1.00  0.00     0.131 A 
ATOM     89  C   UNL     1       5.675  14.530 -14.355  1.00  0.00     0.055 A 
ATOM     90  C   UNL     1       7.085  13.286 -15.857  1.00  0.00     0.041 A 
ATOM     91  F   UNL     1       7.432  10.998 -15.499  1.00  0.00    -0.206 F 
ATOM     92  C   UNL     1       6.477  14.486 -15.499  1.00  0.00     0.022 A 
BRANCH  89  93
ATOM     93  S   UNL     1       4.748  16.036 -13.954  1.00  0.00     0.124 S 
ATOM     94  O   UNL     1       3.369  15.559 -13.982  1.00  0.00    -0.237 OA
ATOM     95  O   UNL     1       5.274  16.386 -12.639  1.00  0.00    -0.237 OA
ATOM     96  O   UNL     1       5.108  16.957 -15.031  1.00  0.00    -0.744 OA
ENDBRANCH  89  93
ENDBRANCH  63  86
ENDBRANCH  37  38
ENDBRANCH  29  32
ENDBRANCH  27  28
ENDBRANCH  26  27
ENDBRANCH   1  26
TORSDOF 18
