REMARK SMILES O=C(NCCCNC(=O)c1cc(Cl)cn(Cc2ccc(Cl)cc2)c1=O)c1ccc(-c2c3nc(c(-c4cc(S(=O)(=O)[O-])ccc4F)c4ccc([nH]4)c(-c4cc(S(=O)(=O)[O-])ccc4F)c4nc(c(-c5cc(S(=O)(=O)[O-])ccc5F)c5ccc2[nH]5)C=C4)C=C3)cc1
REMARK SMILES IDX 4 1 3 2 1 3 2 4 26 6 27 7 88 8 28 9 87 10 29 11 30 12 31 13
REMARK SMILES IDX 81 14 32 15 86 16 80 17 82 18 33 19 85 20 79 21 78 22 34 24
REMARK SMILES IDX 66 25 46 26 65 27 47 28 50 29 64 30 83 31 48 32 49 33 63 35
REMARK SMILES IDX 84 36 51 37 35 38 36 39 44 40 37 41 43 42 45 43 42 44 38 45
REMARK SMILES IDX 39 46 40 47 41 48 67 49 68 50 76 51 69 52 75 53 77 54 74 55
REMARK SMILES IDX 70 56 71 57 72 58 73 59 52 60 53 61 61 62 54 63 60 64 62 65
REMARK SMILES IDX 59 66 55 67 56 68 57 69 58 70 5 71 6 72 7 73 8 74 9 76 10 77
REMARK SMILES IDX 11 78 24 79 12 80 15 81 25 82 13 83 14 84 16 85 17 86 18 87
REMARK SMILES IDX 23 88 19 89 22 90 20 91 21 92
REMARK H PARENT 3 5 82 23 50 34 7 75
REMARK Flexibility Score: inf
ROOT
ATOM      1  C   UNL     1       4.684  -0.922   0.918  1.00  0.00     0.118 C 
ENDROOT
BRANCH   1   2
ATOM      2  N   UNL     1       3.243  -0.867   0.725  1.00  0.00    -0.352 N 
ATOM      3  O   UNL     1       1.248  -0.036   0.156  1.00  0.00    -0.269 OA
ATOM      4  C   UNL     1       2.464  -0.030  -0.032  1.00  0.00     0.251 C 
ATOM      5  H   UNL     1       2.740  -1.550   1.224  1.00  0.00     0.163 HD
BRANCH   4   6
ATOM      6  C   UNL     1       3.039   0.859  -1.069  1.00  0.00     0.039 A 
ATOM      7  C   UNL     1       2.414   2.089  -1.311  1.00  0.00     0.014 A 
ATOM      8  C   UNL     1       4.098   0.453  -1.885  1.00  0.00     0.014 A 
ATOM      9  C   UNL     1       2.849   2.908  -2.358  1.00  0.00     0.010 A 
ATOM     10  C   UNL     1       4.575   1.299  -2.886  1.00  0.00     0.010 A 
ATOM     11  C   UNL     1       3.934   2.517  -3.156  1.00  0.00    -0.014 A 
BRANCH  11  12
ATOM     12  C   UNL     1       4.360   3.311  -4.337  1.00  0.00     0.031 A 
ATOM     13  C   UNL     1       4.191   2.727  -5.715  1.00  0.00     0.074 A 
ATOM     14  C   UNL     1       4.947   4.512  -4.180  1.00  0.00     0.049 A 
ATOM     15  N   UNL     1       4.631   3.173  -6.861  1.00  0.00    -0.248 NA
ATOM     16  C   UNL     1       3.445   1.460  -5.811  1.00  0.00     0.031 C 
ATOM     17  C   UNL     1       5.168   5.177  -2.897  1.00  0.00     0.029 A 
ATOM     18  N   UNL     1       5.488   5.376  -5.102  1.00  0.00    -0.354 N 
ATOM     19  C   UNL     1       4.245   2.231  -7.807  1.00  0.00     0.074 A 
ATOM     20  C   UNL     1       3.564   1.171  -7.100  1.00  0.00     0.031 C 
ATOM     21  C   UNL     1       5.804   6.340  -3.111  1.00  0.00     0.029 A 
ATOM     22  C   UNL     1       6.080   6.483  -4.540  1.00  0.00     0.049 A 
ATOM     23  H   UNL     1       5.454   5.217  -6.073  1.00  0.00     0.167 HD
ATOM     24  C   UNL     1       4.428   2.260  -9.148  1.00  0.00     0.034 A 
ATOM     25  C   UNL     1       6.789   7.485  -5.104  1.00  0.00     0.034 A 
ATOM     26  C   UNL     1       5.062   3.345  -9.846  1.00  0.00     0.049 A 
ATOM     27  C   UNL     1       6.974   7.498  -6.603  1.00  0.00     0.074 A 
ATOM     28  C   UNL     1       5.240   3.490 -11.210  1.00  0.00     0.029 A 
ATOM     29  N   UNL     1       5.603   4.472  -9.246  1.00  0.00    -0.354 N 
ATOM     30  N   UNL     1       6.550   6.630  -7.491  1.00  0.00    -0.248 NA
ATOM     31  C   UNL     1       7.724   8.623  -7.183  1.00  0.00     0.031 C 
ATOM     32  C   UNL     1       5.931   4.680 -11.433  1.00  0.00     0.029 A 
ATOM     33  C   UNL     1       6.132   5.308 -10.213  1.00  0.00     0.049 A 
ATOM     34  H   UNL     1       5.611   4.649  -8.278  1.00  0.00     0.167 HD
ATOM     35  C   UNL     1       6.956   7.116  -8.731  1.00  0.00     0.074 A 
ATOM     36  C   UNL     1       7.645   8.364  -8.483  1.00  0.00     0.031 C 
ATOM     37  C   UNL     1       6.780   6.572  -9.961  1.00  0.00     0.034 A 
BRANCH  24  38
ATOM     38  C   UNL     1       3.918   1.110  -9.977  1.00  0.00     0.023 A 
ATOM     39  C   UNL     1       4.824   0.308 -10.695  1.00  0.00     0.031 A 
ATOM     40  C   UNL     1       2.542   0.906 -10.175  1.00  0.00     0.131 A 
ATOM     41  C   UNL     1       4.342  -0.634 -11.611  1.00  0.00     0.055 A 
ATOM     42  C   UNL     1       2.066  -0.062 -11.060  1.00  0.00     0.041 A 
ATOM     43  F   UNL     1       1.640   1.648  -9.511  1.00  0.00    -0.206 F 
ATOM     44  C   UNL     1       2.969  -0.828 -11.793  1.00  0.00     0.022 A 
BRANCH  41  45
ATOM     45  S   UNL     1       5.477  -1.604 -12.640  1.00  0.00     0.124 S 
ATOM     46  O   UNL     1       5.055  -2.973 -12.347  1.00  0.00    -0.237 OA
ATOM     47  O   UNL     1       5.154  -1.126 -13.981  1.00  0.00    -0.237 OA
ATOM     48  O   UNL     1       6.799  -1.245 -12.140  1.00  0.00    -0.744 OA
ENDBRANCH  41  45
ENDBRANCH  24  38
BRANCH  25  49
ATOM     49  C   UNL     1       7.341   8.566  -4.235  1.00  0.00     0.023 A 
ATOM     50  C   UNL     1       8.288   8.278  -3.235  1.00  0.00     0.031 A 
ATOM     51  C   UNL     1       6.860   9.883  -4.328  1.00  0.00     0.131 A 
ATOM     52  C   UNL     1       8.677   9.277  -2.332  1.00  0.00     0.055 A 
ATOM     53  C   UNL     1       7.301  10.891  -3.469  1.00  0.00     0.041 A 
ATOM     54  F   UNL     1       5.947  10.205  -5.257  1.00  0.00    -0.206 F 
ATOM     55  C   UNL     1       8.202  10.586  -2.453  1.00  0.00     0.022 A 
BRANCH  52  56
ATOM     56  S   UNL     1       9.704   8.876  -0.889  1.00  0.00     0.124 S 
ATOM     57  O   UNL     1      10.920   9.634  -1.162  1.00  0.00    -0.237 OA
ATOM     58  O   UNL     1       8.883   9.375   0.212  1.00  0.00    -0.237 OA
ATOM     59  O   UNL     1       9.834   7.424  -0.952  1.00  0.00    -0.744 OA
ENDBRANCH  52  56
ENDBRANCH  25  49
BRANCH  37  60
ATOM     60  C   UNL     1       7.307   7.302 -11.171  1.00  0.00     0.023 A 
ATOM     61  C   UNL     1       6.408   7.765 -12.152  1.00  0.00     0.031 A 
ATOM     62  C   UNL     1       8.682   7.346 -11.450  1.00  0.00     0.131 A 
ATOM     63  C   UNL     1       6.894   8.197 -13.392  1.00  0.00     0.055 A 
ATOM     64  C   UNL     1       9.164   7.821 -12.671  1.00  0.00     0.041 A 
ATOM     65  F   UNL     1       9.575   6.903 -10.550  1.00  0.00    -0.206 F 
ATOM     66  C   UNL     1       8.268   8.232 -13.655  1.00  0.00     0.022 A 
BRANCH  63  67
ATOM     67  S   UNL     1       5.761   8.634 -14.740  1.00  0.00     0.124 S 
ATOM     68  O   UNL     1       6.168  10.004 -15.045  1.00  0.00    -0.237 OA
ATOM     69  O   UNL     1       6.099   7.643 -15.758  1.00  0.00    -0.237 OA
ATOM     70  O   UNL     1       4.436   8.499 -14.146  1.00  0.00    -0.744 OA
ENDBRANCH  63  67
ENDBRANCH  37  60
ENDBRANCH  11  12
ENDBRANCH   4   6
ENDBRANCH   1   2
BRANCH   1  71
ATOM     71  C   UNL     1       5.087  -0.605   2.354  1.00  0.00     0.042 C 
BRANCH  71  72
ATOM     72  C   UNL     1       4.480  -1.527   3.405  1.00  0.00     0.118 C 
BRANCH  72  73
ATOM     73  N   UNL     1       4.945  -2.903   3.296  1.00  0.00    -0.352 N 
ATOM     74  C   UNL     1       5.719  -3.630   4.157  1.00  0.00     0.256 C 
ATOM     75  H   UNL     1       4.660  -3.379   2.483  1.00  0.00     0.163 HD
ATOM     76  O   UNL     1       6.049  -4.776   3.871  1.00  0.00    -0.269 OA
BRANCH  74  77
ATOM     77  C   UNL     1       6.239  -2.969   5.371  1.00  0.00     0.106 A 
ATOM     78  C   UNL     1       7.575  -2.856   5.466  1.00  0.00     0.041 A 
ATOM     79  C   UNL     1       5.356  -2.387   6.426  1.00  0.00     0.263 A 
ATOM     80  C   UNL     1       8.166  -2.099   6.538  1.00  0.00     0.058 A 
ATOM     81  N   UNL     1       5.997  -1.571   7.365  1.00  0.00    -0.309 N 
ATOM     82  O   UNL     1       4.142  -2.586   6.416  1.00  0.00    -0.268 OA
ATOM     83  Cl  UNL     1       9.878  -1.972   6.618  1.00  0.00    -0.083 Cl
ATOM     84  C   UNL     1       7.381  -1.455   7.410  1.00  0.00     0.110 A 
BRANCH  81  85
ATOM     85  C   UNL     1       5.177  -0.824   8.316  1.00  0.00     0.161 C 
BRANCH  85  86
ATOM     86  C   UNL     1       5.036  -1.515   9.654  1.00  0.00    -0.028 A 
ATOM     87  C   UNL     1       6.069  -1.460  10.602  1.00  0.00     0.007 A 
ATOM     88  C   UNL     1       3.867  -2.226   9.966  1.00  0.00     0.007 A 
ATOM     89  C   UNL     1       5.940  -2.104  11.834  1.00  0.00     0.021 A 
ATOM     90  C   UNL     1       3.731  -2.857  11.206  1.00  0.00     0.021 A 
ATOM     91  C   UNL     1       4.769  -2.796  12.132  1.00  0.00     0.041 A 
ATOM     92  Cl  UNL     1       4.607  -3.578  13.656  1.00  0.00    -0.084 Cl
ENDBRANCH  85  86
ENDBRANCH  81  85
ENDBRANCH  74  77
ENDBRANCH  72  73
ENDBRANCH  71  72
ENDBRANCH   1  71
TORSDOF 15
