REMARK SMILES O=C(CC[C@H]1CC[C@@H](O)CC1)NCCCNC(=O)c1ccc(-c2c3nc(c(-c4cc(S(=O)(=O)[O-])ccc4F)c4ccc([nH]4)c(-c4cc(S(=O)(=O)[O-])ccc4F)c4nc(c(-c5cc(S(=O)(=O)[O-])ccc5F)c5ccc2[nH]5)C=C4)C=C3)cc1
REMARK SMILES IDX 14 1 13 2 12 3 1 4 2 5 3 7 4 8 5 9 6 10 11 11 7 12 10 13
REMARK SMILES IDX 8 14 9 15 15 17 16 18 17 19 18 21 19 22 20 23 81 24 21 25
REMARK SMILES IDX 80 26 22 27 23 28 24 29 74 30 25 31 79 32 73 33 75 34 26 35
REMARK SMILES IDX 78 36 72 37 71 38 27 40 59 41 39 42 58 43 40 44 43 45 57 46
REMARK SMILES IDX 76 47 41 48 42 49 56 51 77 52 44 53 28 54 29 55 37 56 30 57
REMARK SMILES IDX 36 58 38 59 35 60 31 61 32 62 33 63 34 64 60 65 61 66 69 67
REMARK SMILES IDX 62 68 68 69 70 70 67 71 63 72 64 73 65 74 66 75 45 76 46 77
REMARK SMILES IDX 54 78 47 79 53 80 55 81 52 82 48 83 49 84 50 85 51 86
REMARK H PARENT 12 6 9 16 16 20 75 39 43 50
REMARK Flexibility Score: inf
ROOT
ATOM      1  C   UNL     1       2.242   3.611   0.292  1.00  0.00     0.042 C 
ENDROOT
BRANCH   1   2
ATOM      2  C   UNL     1       1.832   2.595  -0.770  1.00  0.00     0.117 C 
BRANCH   2   3
ATOM      3  N   UNL     1       2.396   1.289  -0.500  1.00  0.00    -0.356 N 
ATOM      4  O   UNL     1       0.407   0.223  -0.106  1.00  0.00    -0.275 OA
ATOM      5  C   UNL     1       1.633   0.203  -0.156  1.00  0.00     0.220 C 
ATOM      6  H   UNL     1       3.372   1.175  -0.567  1.00  0.00     0.163 HD
BRANCH   5   7
ATOM      7  C   UNL     1       2.421  -1.019   0.264  1.00  0.00     0.100 C 
BRANCH   7   8
ATOM      8  C   UNL     1       3.375  -1.596  -0.784  1.00  0.00     0.013 C 
BRANCH   8   9
ATOM      9  C   UNL     1       4.793  -0.979  -0.914  1.00  0.00    -0.010 C 
ATOM     10  C   UNL     1       5.749  -1.965  -1.620  1.00  0.00     0.006 C 
ATOM     11  C   UNL     1       5.449  -0.530   0.400  1.00  0.00     0.006 C 
ATOM     12  C   UNL     1       6.118  -3.164  -0.743  1.00  0.00     0.032 C 
ATOM     13  C   UNL     1       5.745  -1.705   1.323  1.00  0.00     0.032 C 
ATOM     14  C   UNL     1       6.620  -2.758   0.644  1.00  0.00     0.114 C 
BRANCH  14  15
ATOM     15  O   UNL     1       6.684  -3.917   1.472  1.00  0.00    -0.393 OA
ATOM     16  H   UNL     1       5.795  -4.291   1.574  1.00  0.00     0.210 HD
ENDBRANCH  14  15
ENDBRANCH   8   9
ENDBRANCH   7   8
ENDBRANCH   5   7
ENDBRANCH   2   3
ENDBRANCH   1   2
BRANCH   1  17
ATOM     17  C   UNL     1       3.750   3.820   0.419  1.00  0.00     0.118 C 
BRANCH  17  18
ATOM     18  N   UNL     1       4.358   4.298  -0.812  1.00  0.00    -0.352 N 
ATOM     19  C   UNL     1       5.047   5.455  -1.080  1.00  0.00     0.251 C 
ATOM     20  H   UNL     1       4.260   3.691  -1.581  1.00  0.00     0.163 HD
ATOM     21  O   UNL     1       5.296   5.731  -2.251  1.00  0.00    -0.269 OA
BRANCH  19  22
ATOM     22  C   UNL     1       5.473   6.371   0.005  1.00  0.00     0.039 A 
ATOM     23  C   UNL     1       5.430   7.748  -0.234  1.00  0.00     0.014 A 
ATOM     24  C   UNL     1       5.968   5.899   1.223  1.00  0.00     0.014 A 
ATOM     25  C   UNL     1       5.846   8.644   0.754  1.00  0.00     0.010 A 
ATOM     26  C   UNL     1       6.303   6.795   2.240  1.00  0.00     0.010 A 
ATOM     27  C   UNL     1       6.266   8.179   2.011  1.00  0.00    -0.014 A 
BRANCH  27  28
ATOM     28  C   UNL     1       6.698   9.134   3.069  1.00  0.00     0.031 A 
ATOM     29  C   UNL     1       8.120   9.123   3.571  1.00  0.00     0.074 A 
ATOM     30  C   UNL     1       5.810  10.006   3.588  1.00  0.00     0.049 A 
ATOM     31  N   UNL     1       8.684   9.878   4.480  1.00  0.00    -0.248 NA
ATOM     32  C   UNL     1       9.016   8.109   2.996  1.00  0.00     0.031 C 
ATOM     33  C   UNL     1       4.395  10.089   3.218  1.00  0.00     0.029 A 
ATOM     34  N   UNL     1       5.963  10.991   4.531  1.00  0.00    -0.354 N 
ATOM     35  C   UNL     1       9.997   9.428   4.589  1.00  0.00     0.074 A 
ATOM     36  C   UNL     1      10.119   8.287   3.707  1.00  0.00     0.031 C 
ATOM     37  C   UNL     1       3.821  11.095   3.897  1.00  0.00     0.029 A 
ATOM     38  C   UNL     1       4.811  11.703   4.780  1.00  0.00     0.049 A 
ATOM     39  H   UNL     1       6.816  11.172   4.987  1.00  0.00     0.167 HD
ATOM     40  C   UNL     1      11.014   9.934   5.332  1.00  0.00     0.034 A 
ATOM     41  C   UNL     1       4.578  12.729   5.623  1.00  0.00     0.034 A 
ATOM     42  C   UNL     1      10.879  11.078   6.203  1.00  0.00     0.049 A 
ATOM     43  C   UNL     1       5.721  13.269   6.446  1.00  0.00     0.074 A 
ATOM     44  C   UNL     1      11.850  11.697   6.973  1.00  0.00     0.029 A 
ATOM     45  N   UNL     1       9.697  11.775   6.427  1.00  0.00    -0.354 N 
ATOM     46  N   UNL     1       6.969  12.864   6.499  1.00  0.00    -0.248 NA
ATOM     47  C   UNL     1       5.426  14.422   7.305  1.00  0.00     0.031 C 
ATOM     48  C   UNL     1      11.243  12.717   7.713  1.00  0.00     0.029 A 
ATOM     49  C   UNL     1       9.911  12.799   7.340  1.00  0.00     0.049 A 
ATOM     50  H   UNL     1       8.834  11.572   6.001  1.00  0.00     0.167 HD
ATOM     51  C   UNL     1       7.616  13.741   7.366  1.00  0.00     0.074 A 
ATOM     52  C   UNL     1       6.623  14.705   7.794  1.00  0.00     0.031 C 
ATOM     53  C   UNL     1       8.914  13.753   7.768  1.00  0.00     0.034 A 
BRANCH  40  54
ATOM     54  C   UNL     1      12.351   9.233   5.249  1.00  0.00     0.023 A 
ATOM     55  C   UNL     1      13.064   9.138   4.040  1.00  0.00     0.031 A 
ATOM     56  C   UNL     1      12.911   8.624   6.387  1.00  0.00     0.131 A 
ATOM     57  C   UNL     1      14.245   8.383   3.977  1.00  0.00     0.055 A 
ATOM     58  C   UNL     1      14.134   7.951   6.338  1.00  0.00     0.041 A 
ATOM     59  F   UNL     1      12.271   8.659   7.566  1.00  0.00    -0.206 F 
ATOM     60  C   UNL     1      14.800   7.812   5.124  1.00  0.00     0.022 A 
BRANCH  57  61
ATOM     61  S   UNL     1      14.959   8.025   2.348  1.00  0.00     0.124 S 
ATOM     62  O   UNL     1      13.851   7.340   1.686  1.00  0.00    -0.237 OA
ATOM     63  O   UNL     1      15.281   9.355   1.845  1.00  0.00    -0.237 OA
ATOM     64  O   UNL     1      16.110   7.178   2.657  1.00  0.00    -0.744 OA
ENDBRANCH  57  61
ENDBRANCH  40  54
BRANCH  41  65
ATOM     65  C   UNL     1       3.214  13.324   5.733  1.00  0.00     0.023 A 
ATOM     66  C   UNL     1       2.972  14.660   5.373  1.00  0.00     0.031 A 
ATOM     67  C   UNL     1       2.140  12.578   6.251  1.00  0.00     0.131 A 
ATOM     68  C   UNL     1       1.706  15.226   5.588  1.00  0.00     0.055 A 
ATOM     69  C   UNL     1       0.866  13.128   6.407  1.00  0.00     0.041 A 
ATOM     70  F   UNL     1       2.313  11.295   6.607  1.00  0.00    -0.206 F 
ATOM     71  C   UNL     1       0.647  14.464   6.090  1.00  0.00     0.022 A 
BRANCH  68  72
ATOM     72  S   UNL     1       1.485  17.002   5.293  1.00  0.00     0.124 S 
ATOM     73  O   UNL     1       2.487  17.577   6.183  1.00  0.00    -0.237 OA
ATOM     74  O   UNL     1       1.760  17.107   3.864  1.00  0.00    -0.237 OA
ATOM     75  O   UNL     1       0.096  17.241   5.677  1.00  0.00    -0.744 OA
ENDBRANCH  68  72
ENDBRANCH  41  65
BRANCH  53  76
ATOM     76  C   UNL     1       9.341  14.887   8.672  1.00  0.00     0.023 A 
ATOM     77  C   UNL     1       8.799  15.062   9.958  1.00  0.00     0.031 A 
ATOM     78  C   UNL     1      10.276  15.836   8.219  1.00  0.00     0.131 A 
ATOM     79  C   UNL     1       9.129  16.201  10.709  1.00  0.00     0.055 A 
ATOM     80  C   UNL     1      10.659  16.926   9.002  1.00  0.00     0.041 A 
ATOM     81  F   UNL     1      10.828  15.725   7.000  1.00  0.00    -0.206 F 
ATOM     82  C   UNL     1      10.069  17.124  10.246  1.00  0.00     0.022 A 
BRANCH  79  83
ATOM     83  S   UNL     1       8.206  16.533  12.235  1.00  0.00     0.124 S 
ATOM     84  O   UNL     1       6.825  16.508  11.767  1.00  0.00    -0.237 OA
ATOM     85  O   UNL     1       8.610  15.422  13.090  1.00  0.00    -0.237 OA
ATOM     86  O   UNL     1       8.695  17.846  12.652  1.00  0.00    -0.744 OA
ENDBRANCH  79  83
ENDBRANCH  53  76
ENDBRANCH  27  28
ENDBRANCH  19  22
ENDBRANCH  17  18
ENDBRANCH   1  17
TORSDOF 16
