REMARK SMILES CCOc1cccc(-c2ccc([C@@H](C)C(=O)NCCCNC(=O)c3ccc(-c4c5nc(c(-c6cc(S(=O)(=O)[O-])ccc6F)c6ccc([nH]6)c(-c6cc(S(=O)(=O)[O-])ccc6F)c6nc(c(-c7cc(S(=O)(=O)[O-])ccc7F)c7ccc4[nH]7)C=C6)C=C5)cc3)cc2F)c1
REMARK SMILES IDX 18 1 17 2 15 3 16 4 13 6 14 7 12 8 9 9 10 10 88 11 11 12
REMARK SMILES IDX 87 13 89 14 8 15 4 16 5 17 90 18 6 19 7 20 3 21 2 22 1 23
REMARK SMILES IDX 19 24 20 25 21 26 22 27 23 29 24 30 25 31 86 32 26 33 85 34
REMARK SMILES IDX 27 35 28 36 29 37 79 38 30 39 84 40 78 41 80 42 31 43 83 44
REMARK SMILES IDX 77 45 76 46 32 48 64 49 44 50 63 51 45 52 48 53 62 54 81 55
REMARK SMILES IDX 46 56 47 57 61 59 82 60 49 61 33 62 34 63 42 64 35 65 41 66
REMARK SMILES IDX 43 67 40 68 36 69 37 70 38 71 39 72 65 73 66 74 74 75 67 76
REMARK SMILES IDX 73 77 75 78 72 79 68 80 69 81 70 82 71 83 50 84 51 85 59 86
REMARK SMILES IDX 52 87 58 88 60 89 57 90 53 91 54 92 55 93 56 94
REMARK H PARENT 17 5 21 28 80 47 48 58
REMARK Flexibility Score: inf
ROOT
ATOM      1  C   UNL     1       9.773  -0.483   2.071  1.00  0.00     0.117 C 
ENDROOT
BRANCH   1   2
ATOM      2  N   UNL     1       9.019  -1.269   3.028  1.00  0.00    -0.356 N 
ATOM      3  C   UNL     1       8.305  -2.419   2.901  1.00  0.00     0.227 C 
ATOM      4  O   UNL     1       7.722  -2.815   3.918  1.00  0.00    -0.274 OA
ATOM      5  H   UNL     1       9.026  -0.901   3.941  1.00  0.00     0.163 HD
BRANCH   3   6
ATOM      6  C   UNL     1       8.205  -3.234   1.602  1.00  0.00     0.105 C 
ATOM      7  C   UNL     1       9.542  -3.737   1.062  1.00  0.00     0.023 C 
BRANCH   6   8
ATOM      8  C   UNL     1       7.267  -2.634   0.568  1.00  0.00    -0.033 A 
ATOM      9  C   UNL     1       5.386  -1.430  -1.241  1.00  0.00     0.018 A 
ATOM     10  C   UNL     1       6.745  -1.071  -1.230  1.00  0.00     0.012 A 
ATOM     11  C   UNL     1       5.017  -2.450  -0.348  1.00  0.00     0.131 A 
ATOM     12  C   UNL     1       7.670  -1.685  -0.373  1.00  0.00     0.005 A 
ATOM     13  C   UNL     1       5.921  -3.020   0.554  1.00  0.00     0.044 A 
ATOM     14  F   UNL     1       3.762  -2.927  -0.324  1.00  0.00    -0.206 F 
BRANCH   9  15
ATOM     15  C   UNL     1       4.415  -0.731  -2.123  1.00  0.00    -0.012 A 
ATOM     16  C   UNL     1       2.156   0.110  -2.552  1.00  0.00     0.119 A 
ATOM     17  C   UNL     1       2.560   0.673  -3.755  1.00  0.00     0.046 A 
ATOM     18  C   UNL     1       3.065  -0.592  -1.758  1.00  0.00     0.055 A 
ATOM     19  C   UNL     1       3.889   0.550  -4.150  1.00  0.00     0.004 A 
ATOM     20  C   UNL     1       4.800  -0.147  -3.346  1.00  0.00     0.009 A 
BRANCH  16  21
ATOM     21  O   UNL     1       0.830   0.153  -2.219  1.00  0.00    -0.494 OA
BRANCH  21  22
ATOM     22  C   UNL     1       0.555   1.060  -1.143  1.00  0.00     0.226 C 
ATOM     23  C   UNL     1       0.560   0.347   0.200  1.00  0.00     0.049 C 
ENDBRANCH  21  22
ENDBRANCH  16  21
ENDBRANCH   9  15
ENDBRANCH   6   8
ENDBRANCH   3   6
ENDBRANCH   1   2
BRANCH   1  24
ATOM     24  C   UNL     1       8.984   0.718   1.556  1.00  0.00     0.042 C 
BRANCH  24  25
ATOM     25  C   UNL     1       9.023   1.927   2.482  1.00  0.00     0.118 C 
BRANCH  25  26
ATOM     26  N   UNL     1      10.346   2.534   2.533  1.00  0.00    -0.352 N 
ATOM     27  C   UNL     1      10.780   3.776   2.138  1.00  0.00     0.251 C 
ATOM     28  H   UNL     1      11.047   1.957   2.914  1.00  0.00     0.163 HD
ATOM     29  O   UNL     1      11.989   3.976   2.055  1.00  0.00    -0.269 OA
BRANCH  27  30
ATOM     30  C   UNL     1       9.823   4.858   1.800  1.00  0.00     0.039 A 
ATOM     31  C   UNL     1      10.155   5.752   0.776  1.00  0.00     0.014 A 
ATOM     32  C   UNL     1       8.636   5.038   2.513  1.00  0.00     0.014 A 
ATOM     33  C   UNL     1       9.275   6.782   0.432  1.00  0.00     0.010 A 
ATOM     34  C   UNL     1       7.721   6.012   2.115  1.00  0.00     0.010 A 
ATOM     35  C   UNL     1       8.033   6.900   1.075  1.00  0.00    -0.014 A 
BRANCH  35  36
ATOM     36  C   UNL     1       7.056   7.951   0.683  1.00  0.00     0.031 A 
ATOM     37  C   UNL     1       6.646   9.012   1.668  1.00  0.00     0.074 A 
ATOM     38  C   UNL     1       6.491   7.911  -0.540  1.00  0.00     0.049 A 
ATOM     39  N   UNL     1       5.752   9.960   1.543  1.00  0.00    -0.248 NA
ATOM     40  C   UNL     1       7.306   8.978   2.981  1.00  0.00     0.031 C 
ATOM     41  C   UNL     1       6.772   6.904  -1.566  1.00  0.00     0.029 A 
ATOM     42  N   UNL     1       5.554   8.726  -1.124  1.00  0.00    -0.354 N 
ATOM     43  C   UNL     1       5.734  10.629   2.764  1.00  0.00     0.074 A 
ATOM     44  C   UNL     1       6.655   9.928   3.634  1.00  0.00     0.031 C 
ATOM     45  C   UNL     1       6.039   7.172  -2.657  1.00  0.00     0.029 A 
ATOM     46  C   UNL     1       5.202   8.339  -2.395  1.00  0.00     0.049 A 
ATOM     47  H   UNL     1       5.171   9.514  -0.675  1.00  0.00     0.167 HD
ATOM     48  C   UNL     1       5.036  11.738   3.116  1.00  0.00     0.034 A 
ATOM     49  C   UNL     1       4.294   8.852  -3.249  1.00  0.00     0.034 A 
ATOM     50  C   UNL     1       4.123  12.424   2.232  1.00  0.00     0.049 A 
ATOM     51  C   UNL     1       3.510  10.068  -2.833  1.00  0.00     0.074 A 
ATOM     52  C   UNL     1       3.403  13.583   2.462  1.00  0.00     0.029 A 
ATOM     53  N   UNL     1       3.794  12.005   0.948  1.00  0.00    -0.354 N 
ATOM     54  N   UNL     1       3.543  10.722  -1.694  1.00  0.00    -0.248 NA
ATOM     55  C   UNL     1       2.575  10.622  -3.820  1.00  0.00     0.031 C 
ATOM     56  C   UNL     1       2.589  13.825   1.349  1.00  0.00     0.029 A 
ATOM     57  C   UNL     1       2.857  12.862   0.389  1.00  0.00     0.049 A 
ATOM     58  H   UNL     1       4.171  11.213   0.499  1.00  0.00     0.167 HD
ATOM     59  C   UNL     1       2.647  11.778  -1.837  1.00  0.00     0.074 A 
ATOM     60  C   UNL     1       2.106  11.682  -3.178  1.00  0.00     0.031 C 
ATOM     61  C   UNL     1       2.306  12.741  -0.942  1.00  0.00     0.034 A 
BRANCH  48  62
ATOM     62  C   UNL     1       5.221  12.251   4.528  1.00  0.00     0.023 A 
ATOM     63  C   UNL     1       6.479  12.662   5.004  1.00  0.00     0.031 A 
ATOM     64  C   UNL     1       4.141  12.279   5.428  1.00  0.00     0.131 A 
ATOM     65  C   UNL     1       6.648  12.986   6.359  1.00  0.00     0.055 A 
ATOM     66  C   UNL     1       4.297  12.693   6.754  1.00  0.00     0.041 A 
ATOM     67  F   UNL     1       2.918  11.882   5.043  1.00  0.00    -0.206 F 
ATOM     68  C   UNL     1       5.560  13.029   7.232  1.00  0.00     0.022 A 
BRANCH  65  69
ATOM     69  S   UNL     1       8.336  13.170   6.998  1.00  0.00     0.124 S 
ATOM     70  O   UNL     1       8.926  11.880   6.649  1.00  0.00    -0.237 OA
ATOM     71  O   UNL     1       8.831  14.322   6.253  1.00  0.00    -0.237 OA
ATOM     72  O   UNL     1       8.138  13.389   8.429  1.00  0.00    -0.744 OA
ENDBRANCH  65  69
ENDBRANCH  48  62
BRANCH  49  73
ATOM     73  C   UNL     1       4.070   8.208  -4.574  1.00  0.00     0.023 A 
ATOM     74  C   UNL     1       4.409   8.864  -5.768  1.00  0.00     0.031 A 
ATOM     75  C   UNL     1       3.502   6.924  -4.664  1.00  0.00     0.131 A 
ATOM     76  C   UNL     1       4.149   8.247  -7.002  1.00  0.00     0.055 A 
ATOM     77  C   UNL     1       3.288   6.296  -5.891  1.00  0.00     0.041 A 
ATOM     78  F   UNL     1       3.168   6.251  -3.551  1.00  0.00    -0.206 F 
ATOM     79  C   UNL     1       3.604   6.962  -7.071  1.00  0.00     0.022 A 
BRANCH  76  80
ATOM     80  S   UNL     1       4.481   9.174  -8.525  1.00  0.00     0.124 S 
ATOM     81  O   UNL     1       3.617  10.337  -8.360  1.00  0.00    -0.237 OA
ATOM     82  O   UNL     1       5.916   9.420  -8.422  1.00  0.00    -0.237 OA
ATOM     83  O   UNL     1       4.085   8.245  -9.581  1.00  0.00    -0.744 OA
ENDBRANCH  76  80
ENDBRANCH  49  73
BRANCH  61  84
ATOM     84  C   UNL     1       1.317  13.783  -1.405  1.00  0.00     0.023 A 
ATOM     85  C   UNL     1      -0.021  13.457  -1.692  1.00  0.00     0.031 A 
ATOM     86  C   UNL     1       1.723  15.119  -1.575  1.00  0.00     0.131 A 
ATOM     87  C   UNL     1      -0.889  14.442  -2.188  1.00  0.00     0.055 A 
ATOM     88  C   UNL     1       0.838  16.107  -2.009  1.00  0.00     0.041 A 
ATOM     89  F   UNL     1       2.989  15.486  -1.319  1.00  0.00    -0.206 F 
ATOM     90  C   UNL     1      -0.473  15.768  -2.331  1.00  0.00     0.022 A 
BRANCH  87  91
ATOM     91  S   UNL     1      -2.546  13.947  -2.734  1.00  0.00     0.124 S 
ATOM     92  O   UNL     1      -2.243  12.960  -3.765  1.00  0.00    -0.237 OA
ATOM     93  O   UNL     1      -3.137  13.424  -1.506  1.00  0.00    -0.237 OA
ATOM     94  O   UNL     1      -3.134  15.193  -3.221  1.00  0.00    -0.744 OA
ENDBRANCH  87  91
ENDBRANCH  61  84
ENDBRANCH  35  36
ENDBRANCH  27  30
ENDBRANCH  25  26
ENDBRANCH  24  25
ENDBRANCH   1  24
TORSDOF 17
