REMARK SMILES N#CCC(=O)N/N=C/c1ccc(OCc2ccc(C(=O)NCCCNC(=O)c3ccc(-c4c5nc(c(-c6cc(S(=O)(=O)[O-])ccc6F)c6ccc([nH]6)c(-c6cc(S(=O)(=O)[O-])ccc6F)c6nc(c(-c7cc(S(=O)(=O)[O-])ccc7F)c7ccc4[nH]7)C=C6)C=C5)cc3)cc2)c(Br)c1
REMARK SMILES IDX 19 1 20 2 21 3 18 5 15 6 16 7 92 8 17 9 91 10 14 11 13 12
REMARK SMILES IDX 12 13 9 14 10 15 95 16 11 17 93 18 94 19 8 20 7 21 6 22 4 23
REMARK SMILES IDX 5 24 3 26 2 27 1 28 22 29 23 30 24 31 25 32 26 33 27 35
REMARK SMILES IDX 28 36 29 37 90 38 30 39 89 40 31 41 32 42 33 43 83 44 34 45
REMARK SMILES IDX 88 46 82 47 84 48 35 49 87 50 81 51 80 52 36 54 68 55 48 56
REMARK SMILES IDX 67 57 49 58 52 59 66 60 85 61 50 62 51 63 65 65 86 66 53 67
REMARK SMILES IDX 37 68 38 69 46 70 39 71 45 72 47 73 44 74 40 75 41 76 42 77
REMARK SMILES IDX 43 78 69 79 70 80 78 81 71 82 77 83 79 84 76 85 72 86 73 87
REMARK SMILES IDX 74 88 75 89 54 90 55 91 63 92 56 93 62 94 64 95 61 96 57 97
REMARK SMILES IDX 58 98 59 99 60 100
REMARK H PARENT 21 4 6 25 25 34 84 53 52 64
REMARK Flexibility Score: inf
ROOT
ATOM      1  C   UNL     1      -0.585   0.589   7.667  1.00  0.00     0.251 C 
ATOM      2  O   UNL     1      -1.019   0.706   8.814  1.00  0.00    -0.269 OA
ATOM      3  N   UNL     1       0.118   1.644   7.136  1.00  0.00    -0.352 N 
ATOM      4  H   UNL     1       0.103   2.458   7.689  1.00  0.00     0.163 HD
ENDROOT
BRANCH   1   5
ATOM      5  C   UNL     1      -0.820  -0.687   6.933  1.00  0.00     0.039 A 
ATOM      6  C   UNL     1      -1.373  -3.163   5.648  1.00  0.00    -0.011 A 
ATOM      7  C   UNL     1      -1.315  -3.077   7.047  1.00  0.00     0.008 A 
ATOM      8  C   UNL     1      -1.167  -1.991   4.916  1.00  0.00     0.008 A 
ATOM      9  C   UNL     1      -1.046  -1.852   7.681  1.00  0.00     0.014 A 
ATOM     10  C   UNL     1      -0.915  -0.772   5.547  1.00  0.00     0.014 A 
BRANCH   6  11
ATOM     11  C   UNL     1      -1.793  -4.444   4.949  1.00  0.00     0.265 C 
BRANCH  11  12
ATOM     12  O   UNL     1      -0.788  -5.223   4.290  1.00  0.00    -0.488 OA
BRANCH  12  13
ATOM     13  C   UNL     1      -0.006  -4.679   3.312  1.00  0.00     0.134 A 
ATOM     14  C   UNL     1       1.937  -3.692   1.535  1.00  0.00    -0.004 A 
ATOM     15  C   UNL     1       2.319  -4.508   2.596  1.00  0.00     0.013 A 
ATOM     16  C   UNL     1       0.584  -3.427   1.309  1.00  0.00     0.029 A 
ATOM     17  C   UNL     1       1.350  -5.000   3.471  1.00  0.00     0.048 A 
ATOM     18  C   UNL     1      -0.392  -3.953   2.177  1.00  0.00     0.060 A 
ATOM     19  Br  UNL     1      -2.201  -3.715   1.642  1.00  0.00    -0.047 Br
BRANCH  14  20
ATOM     20  C   UNL     1       3.010  -3.144   0.682  1.00  0.00     0.141 C 
ATOM     21  N   UNL     1       2.813  -2.778  -0.545  1.00  0.00    -0.181 NA
BRANCH  21  22
ATOM     22  N   UNL     1       3.913  -2.287  -1.184  1.00  0.00    -0.246 N 
ATOM     23  C   UNL     1       4.400  -1.001  -1.088  1.00  0.00     0.254 C 
ATOM     24  O   UNL     1       5.353  -0.671  -1.800  1.00  0.00    -0.272 OA
ATOM     25  H   UNL     1       4.405  -2.908  -1.768  1.00  0.00     0.193 HD
BRANCH  23  26
ATOM     26  C   UNL     1       3.853  -0.053  -0.045  1.00  0.00     0.221 C 
BRANCH  26  27
ATOM     27  C   UNL     1       2.333  -0.053  -0.045  1.00  0.00     0.072 C 
ATOM     28  N   UNL     1       1.071  -0.053  -0.045  1.00  0.00    -0.198 NA
ENDBRANCH  26  27
ENDBRANCH  23  26
ENDBRANCH  21  22
ENDBRANCH  14  20
ENDBRANCH  12  13
ENDBRANCH  11  12
ENDBRANCH   6  11
ENDBRANCH   1   5
BRANCH   3  29
ATOM     29  C   UNL     1       0.879   1.774   5.905  1.00  0.00     0.118 C 
BRANCH  29  30
ATOM     30  C   UNL     1       0.112   2.557   4.837  1.00  0.00     0.042 C 
BRANCH  30  31
ATOM     31  C   UNL     1       0.188   4.071   5.008  1.00  0.00     0.118 C 
BRANCH  31  32
ATOM     32  N   UNL     1       1.532   4.571   4.774  1.00  0.00    -0.352 N 
ATOM     33  C   UNL     1       1.980   5.576   3.954  1.00  0.00     0.251 C 
ATOM     34  H   UNL     1       2.237   4.114   5.287  1.00  0.00     0.163 HD
ATOM     35  O   UNL     1       3.186   5.652   3.736  1.00  0.00    -0.269 OA
BRANCH  33  36
ATOM     36  C   UNL     1       1.046   6.545   3.332  1.00  0.00     0.039 A 
ATOM     37  C   UNL     1       1.361   7.041   2.062  1.00  0.00     0.014 A 
ATOM     38  C   UNL     1      -0.085   7.025   3.999  1.00  0.00     0.014 A 
ATOM     39  C   UNL     1       0.530   7.984   1.453  1.00  0.00     0.010 A 
ATOM     40  C   UNL     1      -0.953   7.914   3.360  1.00  0.00     0.010 A 
ATOM     41  C   UNL     1      -0.648   8.411   2.085  1.00  0.00    -0.014 A 
BRANCH  41  42
ATOM     42  C   UNL     1      -1.558   9.373   1.409  1.00  0.00     0.031 A 
ATOM     43  C   UNL     1      -1.774  10.752   1.973  1.00  0.00     0.074 A 
ATOM     44  C   UNL     1      -2.206   8.989   0.292  1.00  0.00     0.049 A 
ATOM     45  N   UNL     1      -2.517  11.727   1.513  1.00  0.00    -0.248 NA
ATOM     46  C   UNL     1      -1.087  11.066   3.233  1.00  0.00     0.031 C 
ATOM     47  C   UNL     1      -2.115   7.660  -0.318  1.00  0.00     0.029 A 
ATOM     48  N   UNL     1      -3.062   9.673  -0.532  1.00  0.00    -0.354 N 
ATOM     49  C   UNL     1      -2.390  12.769   2.427  1.00  0.00     0.074 A 
ATOM     50  C   UNL     1      -1.550  12.278   3.500  1.00  0.00     0.031 C 
ATOM     51  C   UNL     1      -2.854   7.639  -1.438  1.00  0.00     0.029 A 
ATOM     52  C   UNL     1      -3.501   8.935  -1.607  1.00  0.00     0.049 A 
ATOM     53  H   UNL     1      -3.337  10.604  -0.369  1.00  0.00     0.167 HD
ATOM     54  C   UNL     1      -2.906  14.023   2.365  1.00  0.00     0.034 A 
ATOM     55  C   UNL     1      -4.329   9.266  -2.616  1.00  0.00     0.034 A 
ATOM     56  C   UNL     1      -3.741  14.493   1.284  1.00  0.00     0.049 A 
ATOM     57  C   UNL     1      -4.890  10.664  -2.663  1.00  0.00     0.074 A 
ATOM     58  C   UNL     1      -4.280  15.755   1.094  1.00  0.00     0.029 A 
ATOM     59  N   UNL     1      -4.168  13.719   0.211  1.00  0.00    -0.354 N 
ATOM     60  N   UNL     1      -4.711  11.656  -1.822  1.00  0.00    -0.248 NA
ATOM     61  C   UNL     1      -5.747  10.989  -3.809  1.00  0.00     0.031 C 
ATOM     62  C   UNL     1      -5.083  15.723  -0.053  1.00  0.00     0.029 A 
ATOM     63  C   UNL     1      -4.985  14.466  -0.625  1.00  0.00     0.049 A 
ATOM     64  H   UNL     1      -3.925  12.775   0.066  1.00  0.00     0.167 HD
ATOM     65  C   UNL     1      -5.418  12.732  -2.351  1.00  0.00     0.074 A 
ATOM     66  C   UNL     1      -5.996  12.272  -3.598  1.00  0.00     0.031 C 
ATOM     67  C   UNL     1      -5.579  13.986  -1.853  1.00  0.00     0.034 A 
BRANCH  54  68
ATOM     68  C   UNL     1      -2.599  14.957   3.515  1.00  0.00     0.023 A 
ATOM     69  C   UNL     1      -1.282  15.345   3.822  1.00  0.00     0.031 A 
ATOM     70  C   UNL     1      -3.633  15.444   4.335  1.00  0.00     0.131 A 
ATOM     71  C   UNL     1      -1.026  16.122   4.963  1.00  0.00     0.055 A 
ATOM     72  C   UNL     1      -3.379  16.288   5.420  1.00  0.00     0.041 A 
ATOM     73  F   UNL     1      -4.909  15.096   4.107  1.00  0.00    -0.206 F 
ATOM     74  C   UNL     1      -2.067  16.618   5.749  1.00  0.00     0.022 A 
BRANCH  71  75
ATOM     75  S   UNL     1       0.696  16.349   5.487  1.00  0.00     0.124 S 
ATOM     76  O   UNL     1       1.131  14.967   5.678  1.00  0.00    -0.237 OA
ATOM     77  O   UNL     1       1.282  17.053   4.354  1.00  0.00    -0.237 OA
ATOM     78  O   UNL     1       0.579  17.131   6.717  1.00  0.00    -0.744 OA
ENDBRANCH  71  75
ENDBRANCH  54  68
BRANCH  55  79
ATOM     79  C   UNL     1      -4.675   8.267  -3.667  1.00  0.00     0.023 A 
ATOM     80  C   UNL     1      -4.288   8.457  -5.003  1.00  0.00     0.031 A 
ATOM     81  C   UNL     1      -5.431   7.123  -3.356  1.00  0.00     0.131 A 
ATOM     82  C   UNL     1      -4.696   7.543  -5.987  1.00  0.00     0.055 A 
ATOM     83  C   UNL     1      -5.789   6.189  -4.329  1.00  0.00     0.041 A 
ATOM     84  F   UNL     1      -5.821   6.890  -2.092  1.00  0.00    -0.206 F 
ATOM     85  C   UNL     1      -5.433   6.404  -5.657  1.00  0.00     0.022 A 
BRANCH  82  86
ATOM     86  S   UNL     1      -4.318   7.910  -7.722  1.00  0.00     0.124 S 
ATOM     87  O   UNL     1      -4.963   9.206  -7.901  1.00  0.00    -0.237 OA
ATOM     88  O   UNL     1      -2.859   7.915  -7.720  1.00  0.00    -0.237 OA
ATOM     89  O   UNL     1      -4.934   6.800  -8.447  1.00  0.00    -0.744 OA
ENDBRANCH  82  86
ENDBRANCH  55  79
BRANCH  67  90
ATOM     90  C   UNL     1      -6.396  14.944  -2.687  1.00  0.00     0.023 A 
ATOM     91  C   UNL     1      -7.761  14.720  -2.941  1.00  0.00     0.031 A 
ATOM     92  C   UNL     1      -5.790  16.064  -3.283  1.00  0.00     0.131 A 
ATOM     93  C   UNL     1      -8.454  15.553  -3.833  1.00  0.00     0.055 A 
ATOM     94  C   UNL     1      -6.503  16.932  -4.112  1.00  0.00     0.041 A 
ATOM     95  F   UNL     1      -4.490  16.328  -3.079  1.00  0.00    -0.206 F 
ATOM     96  C   UNL     1      -7.837  16.667  -4.408  1.00  0.00     0.022 A 
BRANCH  93  97
ATOM     97  S   UNL     1     -10.130  15.079  -4.339  1.00  0.00     0.124 S 
ATOM     98  O   UNL     1      -9.923  13.728  -4.850  1.00  0.00    -0.237 OA
ATOM     99  O   UNL     1     -10.873  15.181  -3.088  1.00  0.00    -0.237 OA
ATOM    100  O   UNL     1     -10.478  16.077  -5.349  1.00  0.00    -0.744 OA
ENDBRANCH  93  97
ENDBRANCH  67  90
ENDBRANCH  41  42
ENDBRANCH  33  36
ENDBRANCH  31  32
ENDBRANCH  30  31
ENDBRANCH  29  30
ENDBRANCH   3  29
TORSDOF 20
