REMARK SMILES CS(=O)(=O)[C@@H]1CCC[C@@H](Sc2ccc(C(=O)NCCCNC(=O)c3ccc(-c4c5nc(c(-c6cc(S(=O)(=O)[O-])ccc6F)c6ccc([nH]6)c(-c6cc(S(=O)(=O)[O-])ccc6F)c6nc(c(-c7cc(S(=O)(=O)[O-])ccc7F)c7ccc4[nH]7)C=C6)C=C5)cc3)cn2)C1
REMARK SMILES IDX 19 1 18 2 17 3 15 4 16 5 14 7 11 8 12 9 88 10 13 11 87 12
REMARK SMILES IDX 10 13 9 14 5 15 6 16 89 17 7 18 8 19 2 20 1 21 3 22 4 23
REMARK SMILES IDX 20 24 21 25 22 26 23 28 24 29 25 30 86 31 26 32 85 33 27 34
REMARK SMILES IDX 28 35 29 36 79 37 30 38 84 39 78 40 80 41 31 42 83 43 77 44
REMARK SMILES IDX 76 45 32 47 64 48 44 49 63 50 45 51 48 52 62 53 81 54 46 55
REMARK SMILES IDX 47 56 61 58 82 59 49 60 33 61 34 62 42 63 35 64 41 65 43 66
REMARK SMILES IDX 40 67 36 68 37 69 38 70 39 71 65 72 66 73 74 74 67 75 73 76
REMARK SMILES IDX 75 77 72 78 68 79 69 80 70 81 71 82 50 83 51 84 59 85 52 86
REMARK SMILES IDX 58 87 60 88 57 89 53 90 54 91 55 92 56 93
REMARK H PARENT 17 6 21 27 80 46 48 57
REMARK Flexibility Score: inf
ROOT
ATOM      1  C   UNL     1       2.367  -1.568  -3.015  1.00  0.00     0.042 C 
ENDROOT
BRANCH   1   2
ATOM      2  C   UNL     1       3.255  -2.820  -2.969  1.00  0.00     0.118 C 
BRANCH   2   3
ATOM      3  N   UNL     1       4.649  -2.502  -2.658  1.00  0.00    -0.352 N 
ATOM      4  C   UNL     1       5.415  -2.532  -1.509  1.00  0.00     0.252 C 
ATOM      5  O   UNL     1       6.619  -2.307  -1.610  1.00  0.00    -0.269 OA
ATOM      6  H   UNL     1       5.155  -2.199  -3.446  1.00  0.00     0.163 HD
BRANCH   4   7
ATOM      7  C   UNL     1       4.868  -2.842  -0.169  1.00  0.00     0.058 A 
ATOM      8  C   UNL     1       3.896  -3.533   2.364  1.00  0.00     0.096 A 
ATOM      9  C   UNL     1       3.079  -3.379   1.287  1.00  0.00     0.036 A 
ATOM     10  N   UNL     1       5.228  -3.404   2.200  1.00  0.00    -0.249 NA
ATOM     11  C   UNL     1       3.524  -2.905   0.075  1.00  0.00     0.018 A 
ATOM     12  C   UNL     1       5.686  -3.103   0.932  1.00  0.00     0.126 A 
BRANCH   8  13
ATOM     13  S   UNL     1       3.183  -3.825   3.972  1.00  0.00    -0.103 SA
BRANCH  13  14
ATOM     14  C   UNL     1       1.285  -3.609   3.886  1.00  0.00     0.054 C 
ATOM     15  C   UNL     1       0.466  -1.864   2.175  1.00  0.00     0.109 C 
ATOM     16  C   UNL     1      -0.362  -2.937   1.444  1.00  0.00     0.020 C 
ATOM     17  C   UNL     1       0.699  -2.203   3.644  1.00  0.00     0.034 C 
ATOM     18  C   UNL     1      -0.039  -4.409   1.754  1.00  0.00     0.002 C 
ATOM     19  C   UNL     1       0.490  -4.712   3.161  1.00  0.00     0.015 C 
BRANCH  15  20
ATOM     20  S   UNL     1      -0.199  -0.211   1.909  1.00  0.00     0.150 S 
ATOM     21  C   UNL     1       0.468   0.212   0.305  1.00  0.00     0.158 C 
ATOM     22  O   UNL     1       0.420   0.682   2.872  1.00  0.00    -0.229 OA
ATOM     23  O   UNL     1      -1.637  -0.299   1.793  1.00  0.00    -0.229 OA
ENDBRANCH  15  20
ENDBRANCH  13  14
ENDBRANCH   8  13
ENDBRANCH   4   7
ENDBRANCH   2   3
ENDBRANCH   1   2
BRANCH   1  24
ATOM     24  C   UNL     1       2.395  -0.879  -4.378  1.00  0.00     0.118 C 
BRANCH  24  25
ATOM     25  N   UNL     1       1.776  -1.709  -5.402  1.00  0.00    -0.352 N 
ATOM     26  C   UNL     1       0.820  -1.417  -6.338  1.00  0.00     0.251 C 
ATOM     27  H   UNL     1       2.100  -2.639  -5.425  1.00  0.00     0.163 HD
ATOM     28  O   UNL     1       0.288  -2.350  -6.935  1.00  0.00    -0.269 OA
BRANCH  26  29
ATOM     29  C   UNL     1       0.421  -0.021  -6.628  1.00  0.00     0.039 A 
ATOM     30  C   UNL     1      -0.899   0.225  -7.020  1.00  0.00     0.014 A 
ATOM     31  C   UNL     1       1.341   1.030  -6.598  1.00  0.00     0.014 A 
ATOM     32  C   UNL     1      -1.296   1.519  -7.361  1.00  0.00     0.010 A 
ATOM     33  C   UNL     1       0.922   2.334  -6.855  1.00  0.00     0.010 A 
ATOM     34  C   UNL     1      -0.393   2.589  -7.267  1.00  0.00    -0.014 A 
BRANCH  34  35
ATOM     35  C   UNL     1      -0.796   3.967  -7.654  1.00  0.00     0.031 A 
ATOM     36  C   UNL     1      -0.117   4.650  -8.814  1.00  0.00     0.074 A 
ATOM     37  C   UNL     1      -1.747   4.611  -6.950  1.00  0.00     0.049 A 
ATOM     38  N   UNL     1      -0.289   5.861  -9.278  1.00  0.00    -0.248 NA
ATOM     39  C   UNL     1       0.913   3.877  -9.524  1.00  0.00     0.031 C 
ATOM     40  C   UNL     1      -2.454   4.062  -5.790  1.00  0.00     0.029 A 
ATOM     41  N   UNL     1      -2.285   5.864  -7.102  1.00  0.00    -0.354 N 
ATOM     42  C   UNL     1       0.619   5.999 -10.324  1.00  0.00     0.074 A 
ATOM     43  C   UNL     1       1.387   4.774 -10.375  1.00  0.00     0.031 C 
ATOM     44  C   UNL     1      -3.355   4.960  -5.359  1.00  0.00     0.029 A 
ATOM     45  C   UNL     1      -3.256   6.166  -6.176  1.00  0.00     0.049 A 
ATOM     46  H   UNL     1      -2.002   6.488  -7.809  1.00  0.00     0.167 HD
ATOM     47  C   UNL     1       0.777   7.038 -11.181  1.00  0.00     0.034 A 
ATOM     48  C   UNL     1      -3.978   7.290  -5.999  1.00  0.00     0.034 A 
ATOM     49  C   UNL     1      -0.008   8.247 -11.122  1.00  0.00     0.049 A 
ATOM     50  C   UNL     1      -3.763   8.446  -6.945  1.00  0.00     0.074 A 
ATOM     51  C   UNL     1       0.037   9.347 -11.961  1.00  0.00     0.029 A 
ATOM     52  N   UNL     1      -0.979   8.520 -10.165  1.00  0.00    -0.354 N 
ATOM     53  N   UNL     1      -2.929   8.545  -7.955  1.00  0.00    -0.248 NA
ATOM     54  C   UNL     1      -4.599   9.634  -6.737  1.00  0.00     0.031 C 
ATOM     55  C   UNL     1      -0.846  10.312 -11.468  1.00  0.00     0.029 A 
ATOM     56  C   UNL     1      -1.516   9.781 -10.377  1.00  0.00     0.049 A 
ATOM     57  H   UNL     1      -1.246   7.907  -9.443  1.00  0.00     0.167 HD
ATOM     58  C   UNL     1      -3.174   9.790  -8.528  1.00  0.00     0.074 A 
ATOM     59  C   UNL     1      -4.239  10.398  -7.758  1.00  0.00     0.031 C 
ATOM     60  C   UNL     1      -2.578  10.376  -9.599  1.00  0.00     0.034 A 
BRANCH  47  61
ATOM     61  C   UNL     1       1.857   6.918 -12.233  1.00  0.00     0.023 A 
ATOM     62  C   UNL     1       1.834   5.902 -13.205  1.00  0.00     0.031 A 
ATOM     63  C   UNL     1       2.943   7.811 -12.246  1.00  0.00     0.131 A 
ATOM     64  C   UNL     1       2.912   5.752 -14.091  1.00  0.00     0.055 A 
ATOM     65  C   UNL     1       3.967   7.714 -13.191  1.00  0.00     0.041 A 
ATOM     66  F   UNL     1       3.037   8.788 -11.330  1.00  0.00    -0.206 F 
ATOM     67  C   UNL     1       3.965   6.669 -14.110  1.00  0.00     0.022 A 
BRANCH  64  68
ATOM     68  S   UNL     1       2.997   4.250 -15.104  1.00  0.00     0.124 S 
ATOM     69  O   UNL     1       2.993   3.206 -14.082  1.00  0.00    -0.237 OA
ATOM     70  O   UNL     1       1.794   4.351 -15.920  1.00  0.00    -0.237 OA
ATOM     71  O   UNL     1       4.258   4.396 -15.828  1.00  0.00    -0.744 OA
ENDBRANCH  64  68
ENDBRANCH  47  61
BRANCH  48  72
ATOM     72  C   UNL     1      -4.968   7.388  -4.886  1.00  0.00     0.023 A 
ATOM     73  C   UNL     1      -6.336   7.565  -5.147  1.00  0.00     0.031 A 
ATOM     74  C   UNL     1      -4.554   7.356  -3.542  1.00  0.00     0.131 A 
ATOM     75  C   UNL     1      -7.233   7.759  -4.084  1.00  0.00     0.055 A 
ATOM     76  C   UNL     1      -5.458   7.486  -2.487  1.00  0.00     0.041 A 
ATOM     77  F   UNL     1      -3.258   7.186  -3.235  1.00  0.00    -0.206 F 
ATOM     78  C   UNL     1      -6.806   7.705  -2.756  1.00  0.00     0.022 A 
BRANCH  75  79
ATOM     79  S   UNL     1      -8.954   8.186  -4.468  1.00  0.00     0.124 S 
ATOM     80  O   UNL     1      -8.787   9.395  -5.267  1.00  0.00    -0.237 OA
ATOM     81  O   UNL     1      -9.407   7.000  -5.185  1.00  0.00    -0.237 OA
ATOM     82  O   UNL     1      -9.556   8.385  -3.151  1.00  0.00    -0.744 OA
ENDBRANCH  75  79
ENDBRANCH  48  72
BRANCH  60  83
ATOM     83  C   UNL     1      -3.116  11.718 -10.040  1.00  0.00     0.023 A 
ATOM     84  C   UNL     1      -3.027  12.862  -9.228  1.00  0.00     0.031 A 
ATOM     85  C   UNL     1      -3.742  11.845 -11.293  1.00  0.00     0.131 A 
ATOM     86  C   UNL     1      -3.615  14.065  -9.650  1.00  0.00     0.055 A 
ATOM     87  C   UNL     1      -4.259  13.063 -11.739  1.00  0.00     0.041 A 
ATOM     88  F   UNL     1      -3.861  10.786 -12.110  1.00  0.00    -0.206 F 
ATOM     89  C   UNL     1      -4.211  14.178 -10.908  1.00  0.00     0.022 A 
BRANCH  86  90
ATOM     90  S   UNL     1      -3.693  15.451  -8.482  1.00  0.00     0.124 S 
ATOM     91  O   UNL     1      -4.396  14.854  -7.351  1.00  0.00    -0.237 OA
ATOM     92  O   UNL     1      -2.282  15.756  -8.266  1.00  0.00    -0.237 OA
ATOM     93  O   UNL     1      -4.444  16.471  -9.211  1.00  0.00    -0.744 OA
ENDBRANCH  86  90
ENDBRANCH  60  83
ENDBRANCH  34  35
ENDBRANCH  26  29
ENDBRANCH  24  25
ENDBRANCH   1  24
TORSDOF 16
