REMARK SMILES O=C(NCCCNC(=O)c1[nH]ncc1C[N@H+]1CCC[C@@H](C(=O)c2ccc(Oc3ccccc3)cc2)C1)c1ccc(-c2c3nc(c(-c4cc(S(=O)(=O)[O-])ccc4F)c4ccc([nH]4)c(-c4cc(S(=O)(=O)[O-])ccc4F)c4nc(c(-c5cc(S(=O)(=O)[O-])ccc5F)c5ccc2[nH]5)C=C4)C=C3)cc1
REMARK SMILES IDX 7 1 8 2 9 3 6 5 5 6 4 7 3 8 1 9 2 10 37 12 38 13 99 14 39 15
REMARK SMILES IDX 98 16 40 17 41 18 42 19 92 20 43 21 97 22 91 23 93 24 44 25
REMARK SMILES IDX 96 26 90 27 89 28 45 30 77 31 57 32 76 33 58 34 61 35 75 36
REMARK SMILES IDX 94 37 59 38 60 39 74 41 95 42 62 43 46 44 47 45 55 46 48 47
REMARK SMILES IDX 54 48 56 49 53 50 49 51 50 52 51 53 52 54 78 55 79 56 87 57
REMARK SMILES IDX 80 58 86 59 88 60 85 61 81 62 82 63 83 64 84 65 63 66 64 67
REMARK SMILES IDX 72 68 65 69 71 70 73 71 70 72 66 73 67 74 68 75 69 76 10 77
REMARK SMILES IDX 11 78 14 79 12 80 13 82 15 83 16 84 17 85 36 86 18 88 20 89
REMARK SMILES IDX 19 90 21 91 22 92 23 93 24 94 35 95 25 96 34 97 26 98 27 99
REMARK SMILES IDX 28 100 29 101 33 102 30 103 32 104 31 105
REMARK H PARENT 7 4 3 11 93 29 61 40 11 81 16 87
REMARK Flexibility Score: inf
ROOT
ATOM      1  N   UNL     1       4.944  -2.865   3.103  1.00  0.00    -0.351 N 
ATOM      2  C   UNL     1       5.807  -3.539   3.928  1.00  0.00     0.269 C 
ATOM      3  O   UNL     1       6.266  -4.618   3.558  1.00  0.00    -0.268 OA
ATOM      4  H   UNL     1       4.595  -3.384   2.343  1.00  0.00     0.163 HD
ENDROOT
BRANCH   1   5
ATOM      5  C   UNL     1       4.471  -1.488   3.190  1.00  0.00     0.118 C 
BRANCH   5   6
ATOM      6  C   UNL     1       4.995  -0.608   2.070  1.00  0.00     0.042 C 
BRANCH   6   7
ATOM      7  C   UNL     1       4.559  -1.059   0.687  1.00  0.00     0.118 C 
BRANCH   7   8
ATOM      8  N   UNL     1       3.111  -1.042   0.524  1.00  0.00    -0.352 N 
ATOM      9  O   UNL     1       1.093  -0.226  -0.031  1.00  0.00    -0.269 OA
ATOM     10  C   UNL     1       2.309  -0.195  -0.200  1.00  0.00     0.251 C 
ATOM     11  H   UNL     1       2.632  -1.751   1.011  1.00  0.00     0.163 HD
BRANCH  10  12
ATOM     12  C   UNL     1       2.904   0.757  -1.162  1.00  0.00     0.039 A 
ATOM     13  C   UNL     1       3.955   0.370  -1.997  1.00  0.00     0.014 A 
ATOM     14  C   UNL     1       2.379   2.049  -1.253  1.00  0.00     0.014 A 
ATOM     15  C   UNL     1       4.585   1.310  -2.803  1.00  0.00     0.010 A 
ATOM     16  C   UNL     1       2.947   2.965  -2.140  1.00  0.00     0.010 A 
ATOM     17  C   UNL     1       4.074   2.611  -2.901  1.00  0.00    -0.014 A 
BRANCH  17  18
ATOM     18  C   UNL     1       4.689   3.581  -3.841  1.00  0.00     0.031 A 
ATOM     19  C   UNL     1       5.312   4.848  -3.333  1.00  0.00     0.074 A 
ATOM     20  C   UNL     1       4.655   3.320  -5.162  1.00  0.00     0.049 A 
ATOM     21  N   UNL     1       5.793   5.861  -4.005  1.00  0.00    -0.248 NA
ATOM     22  C   UNL     1       5.389   5.000  -1.873  1.00  0.00     0.031 C 
ATOM     23  C   UNL     1       4.082   2.115  -5.767  1.00  0.00     0.029 A 
ATOM     24  N   UNL     1       5.096   4.052  -6.234  1.00  0.00    -0.354 N 
ATOM     25  C   UNL     1       6.208   6.787  -3.054  1.00  0.00     0.074 A 
ATOM     26  C   UNL     1       5.886   6.223  -1.758  1.00  0.00     0.031 C 
ATOM     27  C   UNL     1       4.211   2.187  -7.098  1.00  0.00     0.029 A 
ATOM     28  C   UNL     1       4.801   3.474  -7.446  1.00  0.00     0.049 A 
ATOM     29  H   UNL     1       5.576   4.907  -6.144  1.00  0.00     0.167 HD
ATOM     30  C   UNL     1       6.804   7.991  -3.249  1.00  0.00     0.034 A 
ATOM     31  C   UNL     1       4.938   3.946  -8.700  1.00  0.00     0.034 A 
ATOM     32  C   UNL     1       7.104   8.529  -4.556  1.00  0.00     0.049 A 
ATOM     33  C   UNL     1       5.538   5.308  -8.899  1.00  0.00     0.074 A 
ATOM     34  C   UNL     1       7.736   9.718  -4.877  1.00  0.00     0.029 A 
ATOM     35  N   UNL     1       6.773   7.921  -5.763  1.00  0.00    -0.354 N 
ATOM     36  N   UNL     1       5.939   6.170  -7.993  1.00  0.00    -0.248 NA
ATOM     37  C   UNL     1       5.709   5.762 -10.284  1.00  0.00     0.031 C 
ATOM     38  C   UNL     1       7.717   9.865  -6.268  1.00  0.00     0.029 A 
ATOM     39  C   UNL     1       7.153   8.728  -6.826  1.00  0.00     0.049 A 
ATOM     40  H   UNL     1       6.333   7.045  -5.851  1.00  0.00     0.167 HD
ATOM     41  C   UNL     1       6.437   7.259  -8.700  1.00  0.00     0.074 A 
ATOM     42  C   UNL     1       6.284   6.944 -10.107  1.00  0.00     0.031 C 
ATOM     43  C   UNL     1       6.984   8.407  -8.226  1.00  0.00     0.034 A 
BRANCH  30  44
ATOM     44  C   UNL     1       7.106   8.822  -2.021  1.00  0.00     0.023 A 
ATOM     45  C   UNL     1       7.965   8.364  -1.006  1.00  0.00     0.031 A 
ATOM     46  C   UNL     1       6.476  10.065  -1.832  1.00  0.00     0.131 A 
ATOM     47  C   UNL     1       8.089   9.089   0.189  1.00  0.00     0.055 A 
ATOM     48  C   UNL     1       6.680  10.829  -0.681  1.00  0.00     0.041 A 
ATOM     49  F   UNL     1       5.628  10.550  -2.753  1.00  0.00    -0.206 F 
ATOM     50  C   UNL     1       7.473  10.332   0.349  1.00  0.00     0.022 A 
BRANCH  47  51
ATOM     51  S   UNL     1       8.905   8.293   1.602  1.00  0.00     0.124 S 
ATOM     52  O   UNL     1       8.154   7.044   1.716  1.00  0.00    -0.237 OA
ATOM     53  O   UNL     1      10.283   8.169   1.142  1.00  0.00    -0.237 OA
ATOM     54  O   UNL     1       8.692   9.236   2.698  1.00  0.00    -0.744 OA
ENDBRANCH  47  51
ENDBRANCH  30  44
BRANCH  31  55
ATOM     55  C   UNL     1       4.442   3.132  -9.843  1.00  0.00     0.023 A 
ATOM     56  C   UNL     1       5.325   2.558 -10.768  1.00  0.00     0.031 A 
ATOM     57  C   UNL     1       3.064   2.886  -9.998  1.00  0.00     0.131 A 
ATOM     58  C   UNL     1       4.819   1.779 -11.820  1.00  0.00     0.055 A 
ATOM     59  C   UNL     1       2.571   2.073 -11.018  1.00  0.00     0.041 A 
ATOM     60  F   UNL     1       2.181   3.403  -9.130  1.00  0.00    -0.206 F 
ATOM     61  C   UNL     1       3.451   1.519 -11.942  1.00  0.00     0.022 A 
BRANCH  58  62
ATOM     62  S   UNL     1       5.977   1.132 -13.056  1.00  0.00     0.124 S 
ATOM     63  O   UNL     1       6.539   2.359 -13.607  1.00  0.00    -0.237 OA
ATOM     64  O   UNL     1       6.875   0.324 -12.237  1.00  0.00    -0.237 OA
ATOM     65  O   UNL     1       5.117   0.375 -13.964  1.00  0.00    -0.744 OA
ENDBRANCH  58  62
ENDBRANCH  31  55
BRANCH  43  66
ATOM     66  C   UNL     1       7.517   9.387  -9.241  1.00  0.00     0.023 A 
ATOM     67  C   UNL     1       6.669  10.130 -10.079  1.00  0.00     0.031 A 
ATOM     68  C   UNL     1       8.904   9.595  -9.345  1.00  0.00     0.131 A 
ATOM     69  C   UNL     1       7.220  11.026 -11.008  1.00  0.00     0.055 A 
ATOM     70  C   UNL     1       9.443  10.525 -10.234  1.00  0.00     0.041 A 
ATOM     71  F   UNL     1       9.758   8.907  -8.570  1.00  0.00    -0.206 F 
ATOM     72  C   UNL     1       8.599  11.242 -11.077  1.00  0.00     0.022 A 
BRANCH  69  73
ATOM     73  S   UNL     1       6.114  11.876 -12.168  1.00  0.00     0.124 S 
ATOM     74  O   UNL     1       5.538  10.759 -12.911  1.00  0.00    -0.237 OA
ATOM     75  O   UNL     1       5.204  12.584 -11.274  1.00  0.00    -0.237 OA
ATOM     76  O   UNL     1       7.015  12.732 -12.937  1.00  0.00    -0.744 OA
ENDBRANCH  69  73
ENDBRANCH  43  66
ENDBRANCH  17  18
ENDBRANCH  10  12
ENDBRANCH   7   8
ENDBRANCH   6   7
ENDBRANCH   5   6
ENDBRANCH   1   5
BRANCH   2  77
ATOM     77  C   UNL     1       6.180  -2.929   5.167  1.00  0.00     0.131 A 
ATOM     78  N   UNL     1       7.484  -2.844   5.567  1.00  0.00    -0.272 N 
ATOM     79  C   UNL     1       5.430  -2.339   6.179  1.00  0.00     0.057 A 
ATOM     80  N   UNL     1       7.663  -2.068   6.645  1.00  0.00    -0.183 NA
ATOM     81  H   UNL     1       8.220  -3.309   5.107  1.00  0.00     0.190 HD
ATOM     82  C   UNL     1       6.421  -1.724   6.986  1.00  0.00     0.145 A 
BRANCH  79  83
ATOM     83  C   UNL     1       3.934  -2.253   6.268  1.00  0.00     0.303 C 
BRANCH  83  84
ATOM     84  N   UNL     1       3.336  -2.771   7.504  1.00  0.00    -0.330 N 
ATOM     85  C   UNL     1       3.504  -4.207   7.700  1.00  0.00     0.262 C 
ATOM     86  C   UNL     1       3.724  -2.002   8.677  1.00  0.00     0.274 C 
ATOM     87  H   UNL     1       2.332  -2.641   7.378  1.00  0.00     0.348 HD
ATOM     88  C   UNL     1       2.666  -4.655   8.900  1.00  0.00     0.062 C 
ATOM     89  C   UNL     1       2.933  -2.346   9.941  1.00  0.00     0.116 C 
ATOM     90  C   UNL     1       3.005  -3.867  10.168  1.00  0.00     0.023 C 
BRANCH  89  91
ATOM     91  C   UNL     1       3.474  -1.611  11.182  1.00  0.00     0.171 C 
ATOM     92  O   UNL     1       3.248  -1.998  12.328  1.00  0.00    -0.294 OA
BRANCH  91  93
ATOM     93  C   UNL     1       4.331  -0.406  11.015  1.00  0.00     0.018 A 
ATOM     94  C   UNL     1       5.609  -0.418  11.578  1.00  0.00     0.015 A 
ATOM     95  C   UNL     1       3.922   0.680  10.236  1.00  0.00     0.015 A 
ATOM     96  C   UNL     1       6.491   0.634  11.315  1.00  0.00     0.048 A 
ATOM     97  C   UNL     1       4.825   1.708   9.939  1.00  0.00     0.048 A 
ATOM     98  C   UNL     1       6.112   1.696  10.484  1.00  0.00     0.127 A 
BRANCH  98  99
ATOM     99  O   UNL     1       7.098   2.636  10.270  1.00  0.00    -0.457 OA
BRANCH  99 100
ATOM    100  C   UNL     1       6.854   3.711   9.450  1.00  0.00     0.127 A 
ATOM    101  C   UNL     1       7.666   3.863   8.325  1.00  0.00     0.047 A 
ATOM    102  C   UNL     1       5.912   4.690   9.774  1.00  0.00     0.047 A 
ATOM    103  C   UNL     1       7.492   4.966   7.488  1.00  0.00     0.004 A 
ATOM    104  C   UNL     1       5.726   5.781   8.924  1.00  0.00     0.004 A 
ATOM    105  C   UNL     1       6.514   5.917   7.781  1.00  0.00     0.000 A 
ENDBRANCH  99 100
ENDBRANCH  98  99
ENDBRANCH  91  93
ENDBRANCH  89  91
ENDBRANCH  83  84
ENDBRANCH  79  83
ENDBRANCH   2  77
TORSDOF 19
