REMARK SMILES O=C(CC1(NC(=O)c2ccncc2Cl)CCCCC1)NCCCNC(=O)c1ccc(-c2c3nc(c(-c4cc(S(=O)(=O)[O-])ccc4F)c4ccc([nH]4)c(-c4cc(S(=O)(=O)[O-])ccc4F)c4nc(c(-c5cc(S(=O)(=O)[O-])ccc5F)c5ccc2[nH]5)C=C4)C=C3)cc1
REMARK SMILES IDX 22 1 21 2 20 3 1 4 2 5 3 7 4 8 15 9 19 10 16 11 18 12 17 13
REMARK SMILES IDX 5 14 6 15 7 17 8 18 9 19 13 20 10 21 12 22 14 23 11 24 23 25
REMARK SMILES IDX 24 26 25 27 26 29 27 30 28 31 89 32 29 33 88 34 30 35 31 36
REMARK SMILES IDX 32 37 82 38 33 39 87 40 81 41 83 42 34 43 86 44 80 45 79 46
REMARK SMILES IDX 35 48 67 49 47 50 66 51 48 52 51 53 65 54 84 55 49 56 50 57
REMARK SMILES IDX 64 59 85 60 52 61 36 62 37 63 45 64 38 65 44 66 46 67 43 68
REMARK SMILES IDX 39 69 40 70 41 71 42 72 68 73 69 74 77 75 70 76 76 77 78 78
REMARK SMILES IDX 75 79 71 80 72 81 73 82 74 83 53 84 54 85 62 86 55 87 61 88
REMARK SMILES IDX 63 89 60 90 56 91 57 92 58 93 59 94
REMARK H PARENT 20 6 5 16 24 28 83 47 51 58
REMARK Flexibility Score: inf
ROOT
ATOM      1  C   UNL     1       2.483   3.329   1.771  1.00  0.00     0.042 C 
ENDROOT
BRANCH   1   2
ATOM      2  C   UNL     1       2.123   2.631   0.474  1.00  0.00     0.117 C 
BRANCH   2   3
ATOM      3  N   UNL     1       2.949   1.473   0.200  1.00  0.00    -0.356 N 
ATOM      4  O   UNL     1       1.667   0.004   1.350  1.00  0.00    -0.275 OA
ATOM      5  C   UNL     1       2.586   0.207   0.557  1.00  0.00     0.222 C 
ATOM      6  H   UNL     1       3.808   1.604  -0.263  1.00  0.00     0.163 HD
BRANCH   5   7
ATOM      7  C   UNL     1       3.417  -0.953   0.033  1.00  0.00     0.128 C 
BRANCH   7   8
ATOM      8  C   UNL     1       3.894  -1.051  -1.449  1.00  0.00     0.049 C 
ATOM      9  C   UNL     1       4.787   0.169  -1.816  1.00  0.00     0.029 C 
ATOM     10  C   UNL     1       4.758  -2.356  -1.511  1.00  0.00     0.029 C 
ATOM     11  C   UNL     1       5.701  -0.007  -3.027  1.00  0.00     0.002 C 
ATOM     12  C   UNL     1       5.658  -2.480  -2.742  1.00  0.00     0.002 C 
ATOM     13  C   UNL     1       6.549  -1.258  -2.903  1.00  0.00     0.000 C 
BRANCH   8  14
ATOM     14  N   UNL     1       2.849  -1.167  -2.509  1.00  0.00    -0.346 N 
ATOM     15  C   UNL     1       1.605  -1.726  -2.616  1.00  0.00     0.253 C 
ATOM     16  H   UNL     1       3.126  -0.727  -3.345  1.00  0.00     0.164 HD
ATOM     17  O   UNL     1       1.212  -2.120  -3.713  1.00  0.00    -0.269 OA
BRANCH  15  18
ATOM     18  C   UNL     1       0.678  -1.818  -1.490  1.00  0.00     0.061 A 
ATOM     19  C   UNL     1       0.354  -3.083  -0.995  1.00  0.00     0.035 A 
ATOM     20  C   UNL     1      -0.013  -0.696  -1.044  1.00  0.00     0.072 A 
ATOM     21  C   UNL     1      -0.588  -3.158   0.016  1.00  0.00     0.112 A 
ATOM     22  C   UNL     1      -0.895  -0.873   0.011  1.00  0.00     0.132 A 
ATOM     23  Cl  UNL     1       0.126   0.851  -1.790  1.00  0.00    -0.082 Cl
ATOM     24  N   UNL     1      -1.201  -2.081   0.549  1.00  0.00    -0.263 NA
ENDBRANCH  15  18
ENDBRANCH   8  14
ENDBRANCH   7   8
ENDBRANCH   5   7
ENDBRANCH   2   3
ENDBRANCH   1   2
BRANCH   1  25
ATOM     25  C   UNL     1       3.961   3.657   1.913  1.00  0.00     0.118 C 
BRANCH  25  26
ATOM     26  N   UNL     1       4.477   4.505   0.847  1.00  0.00    -0.352 N 
ATOM     27  C   UNL     1       5.230   5.656   0.938  1.00  0.00     0.251 C 
ATOM     28  H   UNL     1       4.256   4.215  -0.067  1.00  0.00     0.163 HD
ATOM     29  O   UNL     1       5.477   6.299  -0.068  1.00  0.00    -0.269 OA
BRANCH  27  30
ATOM     30  C   UNL     1       5.692   6.116   2.267  1.00  0.00     0.039 A 
ATOM     31  C   UNL     1       5.540   7.463   2.602  1.00  0.00     0.014 A 
ATOM     32  C   UNL     1       6.233   5.218   3.189  1.00  0.00     0.014 A 
ATOM     33  C   UNL     1       5.870   7.893   3.889  1.00  0.00     0.010 A 
ATOM     34  C   UNL     1       6.464   5.626   4.497  1.00  0.00     0.010 A 
ATOM     35  C   UNL     1       6.301   6.971   4.859  1.00  0.00    -0.014 A 
BRANCH  35  36
ATOM     36  C   UNL     1       6.618   7.406   6.244  1.00  0.00     0.031 A 
ATOM     37  C   UNL     1       8.017   7.242   6.777  1.00  0.00     0.074 A 
ATOM     38  C   UNL     1       5.643   7.902   7.032  1.00  0.00     0.049 A 
ATOM     39  N   UNL     1       8.490   7.520   7.964  1.00  0.00    -0.248 NA
ATOM     40  C   UNL     1       9.006   6.652   5.862  1.00  0.00     0.031 C 
ATOM     41  C   UNL     1       4.238   8.055   6.644  1.00  0.00     0.029 A 
ATOM     42  N   UNL     1       5.681   8.370   8.321  1.00  0.00    -0.354 N 
ATOM     43  C   UNL     1       9.825   7.128   7.941  1.00  0.00     0.074 A 
ATOM     44  C   UNL     1      10.060   6.519   6.651  1.00  0.00     0.031 C 
ATOM     45  C   UNL     1       3.560   8.617   7.658  1.00  0.00     0.029 A 
ATOM     46  C   UNL     1       4.467   8.825   8.782  1.00  0.00     0.049 A 
ATOM     47  H   UNL     1       6.502   8.380   8.865  1.00  0.00     0.167 HD
ATOM     48  C   UNL     1      10.775   7.289   8.895  1.00  0.00     0.034 A 
ATOM     49  C   UNL     1       4.126   9.350   9.976  1.00  0.00     0.034 A 
ATOM     50  C   UNL     1      10.523   7.913  10.171  1.00  0.00     0.049 A 
ATOM     51  C   UNL     1       5.199   9.520  11.023  1.00  0.00     0.074 A 
ATOM     52  C   UNL     1      11.415   8.172  11.197  1.00  0.00     0.029 A 
ATOM     53  N   UNL     1       9.284   8.375  10.599  1.00  0.00    -0.354 N 
ATOM     54  N   UNL     1       6.471   9.194  10.966  1.00  0.00    -0.248 NA
ATOM     55  C   UNL     1       4.794  10.146  12.286  1.00  0.00     0.031 C 
ATOM     56  C   UNL     1      10.705   8.727  12.267  1.00  0.00     0.029 A 
ATOM     57  C   UNL     1       9.384   8.894  11.881  1.00  0.00     0.049 A 
ATOM     58  H   UNL     1       8.455   8.338  10.069  1.00  0.00     0.167 HD
ATOM     59  C   UNL     1       7.023   9.611  12.174  1.00  0.00     0.074 A 
ATOM     60  C   UNL     1       5.950  10.229  12.926  1.00  0.00     0.031 C 
ATOM     61  C   UNL     1       8.301   9.498  12.622  1.00  0.00     0.034 A 
BRANCH  48  62
ATOM     62  C   UNL     1      12.159   6.763   8.592  1.00  0.00     0.023 A 
ATOM     63  C   UNL     1      12.916   7.252   7.511  1.00  0.00     0.031 A 
ATOM     64  C   UNL     1      12.717   5.730   9.366  1.00  0.00     0.131 A 
ATOM     65  C   UNL     1      14.141   6.652   7.182  1.00  0.00     0.055 A 
ATOM     66  C   UNL     1      13.979   5.199   9.088  1.00  0.00     0.041 A 
ATOM     67  F   UNL     1      12.036   5.204  10.396  1.00  0.00    -0.206 F 
ATOM     68  C   UNL     1      14.691   5.648   7.980  1.00  0.00     0.022 A 
BRANCH  65  69
ATOM     69  S   UNL     1      14.926   7.093   5.607  1.00  0.00     0.124 S 
ATOM     70  O   UNL     1      13.888   6.722   4.647  1.00  0.00    -0.237 OA
ATOM     71  O   UNL     1      15.169   8.522   5.764  1.00  0.00    -0.237 OA
ATOM     72  O   UNL     1      16.123   6.255   5.573  1.00  0.00    -0.744 OA
ENDBRANCH  65  69
ENDBRANCH  48  62
BRANCH  49  73
ATOM     73  C   UNL     1       2.719   9.763  10.251  1.00  0.00     0.023 A 
ATOM     74  C   UNL     1       2.394  11.107  10.500  1.00  0.00     0.031 A 
ATOM     75  C   UNL     1       1.684   8.814  10.315  1.00  0.00     0.131 A 
ATOM     76  C   UNL     1       1.081  11.456  10.854  1.00  0.00     0.055 A 
ATOM     77  C   UNL     1       0.368   9.175  10.611  1.00  0.00     0.041 A 
ATOM     78  F   UNL     1       1.937   7.516  10.079  1.00  0.00    -0.206 F 
ATOM     79  C   UNL     1       0.064  10.501  10.898  1.00  0.00     0.022 A 
BRANCH  76  80
ATOM     80  S   UNL     1       0.742  13.169  11.348  1.00  0.00     0.124 S 
ATOM     81  O   UNL     1       1.666  13.346  12.462  1.00  0.00    -0.237 OA
ATOM     82  O   UNL     1       1.058  13.904  10.128  1.00  0.00    -0.237 OA
ATOM     83  O   UNL     1      -0.674  13.144  11.709  1.00  0.00    -0.744 OA
ENDBRANCH  76  80
ENDBRANCH  49  73
BRANCH  61  84
ATOM     84  C   UNL     1       8.607  10.105  13.971  1.00  0.00     0.023 A 
ATOM     85  C   UNL     1       8.021   9.621  15.153  1.00  0.00     0.031 A 
ATOM     86  C   UNL     1       9.474  11.209  14.068  1.00  0.00     0.131 A 
ATOM     87  C   UNL     1       8.246  10.286  16.368  1.00  0.00     0.055 A 
ATOM     88  C   UNL     1       9.752  11.820  15.290  1.00  0.00     0.041 A 
ATOM     89  F   UNL     1      10.062  11.716  12.972  1.00  0.00    -0.206 F 
ATOM     90  C   UNL     1       9.123  11.371  16.447  1.00  0.00     0.022 A 
BRANCH  87  91
ATOM     91  S   UNL     1       7.279   9.791  17.821  1.00  0.00     0.124 S 
ATOM     92  O   UNL     1       5.910   9.933  17.336  1.00  0.00    -0.237 OA
ATOM     93  O   UNL     1       7.737   8.424  18.048  1.00  0.00    -0.237 OA
ATOM     94  O   UNL     1       7.679  10.757  18.843  1.00  0.00    -0.744 OA
ENDBRANCH  87  91
ENDBRANCH  61  84
ENDBRANCH  35  36
ENDBRANCH  27  30
ENDBRANCH  25  26
ENDBRANCH   1  25
TORSDOF 16
