REMARK SMILES C[C@@H](Cc1cnn(-c2ccccc2)n1)C(=O)NCCCNC(=O)c1ccc(-c2c3nc(c(-c4cc(S(=O)(=O)[O-])ccc4F)c4ccc([nH]4)c(-c4cc(S(=O)(=O)[O-])ccc4F)c4nc(c(-c5cc(S(=O)(=O)[O-])ccc5F)c5ccc2[nH]5)C=C4)C=C3)cc1
REMARK SMILES IDX 19 1 18 2 17 3 15 4 16 5 2 7 1 8 3 9 4 10 5 11 14 12 6 13
REMARK SMILES IDX 7 14 8 15 9 16 13 17 10 18 12 19 11 20 20 21 21 22 22 23
REMARK SMILES IDX 23 25 24 26 25 27 86 28 26 29 85 30 27 31 28 32 29 33 79 34
REMARK SMILES IDX 30 35 84 36 78 37 80 38 31 39 83 40 77 41 76 42 32 44 64 45
REMARK SMILES IDX 44 46 63 47 45 48 48 49 62 50 81 51 46 52 47 53 61 55 82 56
REMARK SMILES IDX 49 57 33 58 34 59 42 60 35 61 41 62 43 63 40 64 36 65 37 66
REMARK SMILES IDX 38 67 39 68 65 69 66 70 74 71 67 72 73 73 75 74 72 75 68 76
REMARK SMILES IDX 69 77 70 78 71 79 50 80 51 81 59 82 52 83 58 84 60 85 57 86
REMARK SMILES IDX 53 87 54 88 55 89 56 90
REMARK H PARENT 17 6 21 24 80 43 48 54
REMARK Flexibility Score: inf
ROOT
ATOM      1  C   UNL     1      -1.390  -2.292   0.541  1.00  0.00     0.042 C 
ENDROOT
BRANCH   1   2
ATOM      2  C   UNL     1      -1.109  -1.626  -0.777  1.00  0.00     0.117 C 
BRANCH   2   3
ATOM      3  N   UNL     1      -1.405  -0.230  -0.895  1.00  0.00    -0.356 N 
ATOM      4  C   UNL     1      -0.643   0.669  -1.583  1.00  0.00     0.223 C 
ATOM      5  O   UNL     1      -1.157   1.732  -1.935  1.00  0.00    -0.275 OA
ATOM      6  H   UNL     1      -2.215   0.105  -0.447  1.00  0.00     0.163 HD
BRANCH   4   7
ATOM      7  C   UNL     1       0.841   0.397  -1.865  1.00  0.00     0.081 C 
ATOM      8  C   UNL     1       1.627   0.125  -0.576  1.00  0.00     0.018 C 
BRANCH   7   9
ATOM      9  C   UNL     1       1.139  -0.492  -3.103  1.00  0.00     0.073 C 
BRANCH   9  10
ATOM     10  C   UNL     1       1.111  -1.983  -2.946  1.00  0.00     0.084 A 
ATOM     11  C   UNL     1       2.058  -2.820  -2.328  1.00  0.00     0.161 A 
ATOM     12  N   UNL     1       0.079  -2.740  -3.356  1.00  0.00    -0.153 NA
ATOM     13  N   UNL     1       1.560  -4.045  -2.166  1.00  0.00    -0.157 NA
ATOM     14  N   UNL     1       0.321  -3.934  -2.726  1.00  0.00    -0.151 N 
BRANCH  14  15
ATOM     15  C   UNL     1      -0.704  -4.887  -2.466  1.00  0.00     0.086 A 
ATOM     16  C   UNL     1      -0.561  -5.783  -1.390  1.00  0.00     0.030 A 
ATOM     17  C   UNL     1      -1.889  -4.888  -3.210  1.00  0.00     0.030 A 
ATOM     18  C   UNL     1      -1.601  -6.651  -1.047  1.00  0.00     0.002 A 
ATOM     19  C   UNL     1      -2.895  -5.810  -2.902  1.00  0.00     0.002 A 
ATOM     20  C   UNL     1      -2.763  -6.672  -1.812  1.00  0.00     0.000 A 
ENDBRANCH  14  15
ENDBRANCH   9  10
ENDBRANCH   7   9
ENDBRANCH   4   7
ENDBRANCH   2   3
ENDBRANCH   1   2
BRANCH   1  21
ATOM     21  C   UNL     1      -2.842  -2.631   0.741  1.00  0.00     0.118 C 
BRANCH  21  22
ATOM     22  N   UNL     1      -3.464  -3.303  -0.389  1.00  0.00    -0.352 N 
ATOM     23  C   UNL     1      -4.550  -4.125  -0.488  1.00  0.00     0.251 C 
ATOM     24  H   UNL     1      -3.016  -3.131  -1.249  1.00  0.00     0.163 HD
ATOM     25  O   UNL     1      -4.971  -4.393  -1.613  1.00  0.00    -0.269 OA
BRANCH  23  26
ATOM     26  C   UNL     1      -5.305  -4.605   0.679  1.00  0.00     0.039 A 
ATOM     27  C   UNL     1      -6.464  -5.349   0.390  1.00  0.00     0.014 A 
ATOM     28  C   UNL     1      -5.235  -3.929   1.890  1.00  0.00     0.014 A 
ATOM     29  C   UNL     1      -7.637  -4.907   0.992  1.00  0.00     0.010 A 
ATOM     30  C   UNL     1      -6.288  -4.096   2.724  1.00  0.00     0.010 A 
ATOM     31  C   UNL     1      -7.472  -4.002   2.011  1.00  0.00    -0.014 A 
BRANCH  31  32
ATOM     32  C   UNL     1      -8.273  -2.813   2.313  1.00  0.00     0.031 A 
ATOM     33  C   UNL     1      -8.213  -2.532   3.771  1.00  0.00     0.074 A 
ATOM     34  C   UNL     1      -8.662  -1.766   1.558  1.00  0.00     0.049 A 
ATOM     35  N   UNL     1      -8.778  -3.271   4.670  1.00  0.00    -0.248 NA
ATOM     36  C   UNL     1      -7.094  -1.702   4.272  1.00  0.00     0.031 C 
ATOM     37  C   UNL     1      -8.377  -1.377   0.181  1.00  0.00     0.029 A 
ATOM     38  N   UNL     1      -9.402  -0.716   2.016  1.00  0.00    -0.354 N 
ATOM     39  C   UNL     1      -8.261  -2.818   5.864  1.00  0.00     0.074 A 
ATOM     40  C   UNL     1      -7.013  -2.209   5.505  1.00  0.00     0.031 C 
ATOM     41  C   UNL     1      -8.813  -0.102  -0.020  1.00  0.00     0.029 A 
ATOM     42  C   UNL     1      -9.500   0.378   1.175  1.00  0.00     0.049 A 
ATOM     43  H   UNL     1      -9.841  -0.736   2.897  1.00  0.00     0.167 HD
ATOM     44  C   UNL     1      -9.043  -2.652   6.967  1.00  0.00     0.034 A 
ATOM     45  C   UNL     1     -10.056   1.579   1.510  1.00  0.00     0.034 A 
ATOM     46  C   UNL     1     -10.422  -3.018   6.646  1.00  0.00     0.049 A 
ATOM     47  C   UNL     1     -10.875   1.352   2.744  1.00  0.00     0.074 A 
ATOM     48  C   UNL     1     -11.040  -4.167   6.178  1.00  0.00     0.029 A 
ATOM     49  N   UNL     1     -11.287  -1.985   6.311  1.00  0.00    -0.354 N 
ATOM     50  N   UNL     1     -11.930   0.581   2.783  1.00  0.00    -0.248 NA
ATOM     51  C   UNL     1     -10.245   1.573   4.043  1.00  0.00     0.031 C 
ATOM     52  C   UNL     1     -11.953  -3.718   5.171  1.00  0.00     0.029 A 
ATOM     53  C   UNL     1     -11.922  -2.321   5.136  1.00  0.00     0.049 A 
ATOM     54  H   UNL     1     -11.423  -1.156   6.825  1.00  0.00     0.167 HD
ATOM     55  C   UNL     1     -11.849  -0.104   3.989  1.00  0.00     0.074 A 
ATOM     56  C   UNL     1     -10.849   0.623   4.766  1.00  0.00     0.031 C 
ATOM     57  C   UNL     1     -12.364  -1.365   4.129  1.00  0.00     0.034 A 
BRANCH  44  58
ATOM     58  C   UNL     1      -8.697  -1.772   8.148  1.00  0.00     0.023 A 
ATOM     59  C   UNL     1      -9.715  -1.579   9.094  1.00  0.00     0.031 A 
ATOM     60  C   UNL     1      -7.539  -0.986   8.345  1.00  0.00     0.131 A 
ATOM     61  C   UNL     1      -9.641  -0.547  10.040  1.00  0.00     0.055 A 
ATOM     62  C   UNL     1      -7.464   0.040   9.289  1.00  0.00     0.041 A 
ATOM     63  F   UNL     1      -6.409  -1.142   7.655  1.00  0.00    -0.206 F 
ATOM     64  C   UNL     1      -8.535   0.291  10.121  1.00  0.00     0.022 A 
BRANCH  61  65
ATOM     65  S   UNL     1     -11.087  -0.248  11.075  1.00  0.00     0.124 S 
ATOM     66  O   UNL     1     -12.145  -0.144  10.075  1.00  0.00    -0.237 OA
ATOM     67  O   UNL     1     -11.104  -1.444  11.910  1.00  0.00    -0.237 OA
ATOM     68  O   UNL     1     -10.753   0.994  11.766  1.00  0.00    -0.744 OA
ENDBRANCH  61  65
ENDBRANCH  44  58
BRANCH  45  69
ATOM     69  C   UNL     1      -9.717   2.944   1.009  1.00  0.00     0.023 A 
ATOM     70  C   UNL     1     -10.588   4.053   1.126  1.00  0.00     0.031 A 
ATOM     71  C   UNL     1      -8.396   3.226   0.598  1.00  0.00     0.131 A 
ATOM     72  C   UNL     1     -10.129   5.361   0.830  1.00  0.00     0.055 A 
ATOM     73  C   UNL     1      -7.950   4.517   0.300  1.00  0.00     0.041 A 
ATOM     74  F   UNL     1      -7.463   2.262   0.557  1.00  0.00    -0.206 F 
ATOM     75  C   UNL     1      -8.814   5.593   0.421  1.00  0.00     0.022 A 
BRANCH  72  76
ATOM     76  S   UNL     1     -11.215   6.811   1.065  1.00  0.00     0.124 S 
ATOM     77  O   UNL     1     -12.192   6.646  -0.001  1.00  0.00    -0.237 OA
ATOM     78  O   UNL     1     -11.703   6.618   2.430  1.00  0.00    -0.237 OA
ATOM     79  O   UNL     1     -10.309   7.948   0.901  1.00  0.00    -0.744 OA
ENDBRANCH  72  76
ENDBRANCH  45  69
BRANCH  57  80
ATOM     80  C   UNL     1     -13.285  -1.890   3.037  1.00  0.00     0.023 A 
ATOM     81  C   UNL     1     -12.948  -1.984   1.666  1.00  0.00     0.031 A 
ATOM     82  C   UNL     1     -14.519  -2.433   3.436  1.00  0.00     0.131 A 
ATOM     83  C   UNL     1     -13.833  -2.600   0.757  1.00  0.00     0.055 A 
ATOM     84  C   UNL     1     -15.384  -3.059   2.538  1.00  0.00     0.041 A 
ATOM     85  F   UNL     1     -14.894  -2.397   4.726  1.00  0.00    -0.206 F 
ATOM     86  C   UNL     1     -15.046  -3.141   1.192  1.00  0.00     0.022 A 
BRANCH  83  87
ATOM     87  S   UNL     1     -13.422  -2.704  -1.016  1.00  0.00     0.124 S 
ATOM     88  O   UNL     1     -13.004  -1.348  -1.349  1.00  0.00    -0.237 OA
ATOM     89  O   UNL     1     -12.375  -3.722  -1.035  1.00  0.00    -0.237 OA
ATOM     90  O   UNL     1     -14.684  -3.121  -1.633  1.00  0.00    -0.744 OA
ENDBRANCH  83  87
ENDBRANCH  57  80
ENDBRANCH  31  32
ENDBRANCH  23  26
ENDBRANCH  21  22
ENDBRANCH   1  21
TORSDOF 16
