REMARK SMILES CC(=O)N[C@@H](Cc1c(OCC(C)C)ccc2ccccc12)C(=O)NCCCNC(=O)c1ccc(-c2c3nc(c(-c4cc(S(=O)(=O)[O-])ccc4F)c4ccc([nH]4)c(-c4cc(S(=O)(=O)[O-])ccc4F)c4nc(c(-c5cc(S(=O)(=O)[O-])ccc5F)c5ccc2[nH]5)C=C4)C=C3)cc1
REMARK SMILES IDX 25 1 24 2 22 3 23 4 5 6 4 7 1 8 2 9 3 10 6 12 7 13 8 14
REMARK SMILES IDX 21 15 14 16 16 17 20 18 15 19 17 20 19 21 18 22 9 23 10 24
REMARK SMILES IDX 11 25 12 26 13 27 26 28 27 29 28 30 29 31 30 33 31 34 32 35
REMARK SMILES IDX 93 36 33 37 92 38 34 39 35 40 36 41 86 42 37 43 91 44 85 45
REMARK SMILES IDX 87 46 38 47 90 48 84 49 83 50 39 52 71 53 51 54 70 55 52 56
REMARK SMILES IDX 55 57 69 58 88 59 53 60 54 61 68 63 89 64 56 65 40 66 41 67
REMARK SMILES IDX 49 68 42 69 48 70 50 71 47 72 43 73 44 74 45 75 46 76 72 77
REMARK SMILES IDX 73 78 81 79 74 80 80 81 82 82 79 83 75 84 76 85 77 86 78 87
REMARK SMILES IDX 57 88 58 89 66 90 59 91 65 92 67 93 64 94 60 95 61 96 62 97
REMARK SMILES IDX 63 98
REMARK H PARENT 24 5 4 11 28 32 87 51 55 62
REMARK Flexibility Score: inf
ROOT
ATOM      1  C   UNL     1       0.069  -0.489   5.025  1.00  0.00     0.117 C 
ENDROOT
BRANCH   1   2
ATOM      2  N   UNL     1       0.078  -1.604   4.098  1.00  0.00    -0.354 N 
ATOM      3  C   UNL     1       0.970  -1.891   3.107  1.00  0.00     0.242 C 
ATOM      4  O   UNL     1       0.985  -3.054   2.685  1.00  0.00    -0.273 OA
ATOM      5  H   UNL     1      -0.664  -2.243   4.197  1.00  0.00     0.163 HD
BRANCH   3   6
ATOM      6  C   UNL     1       2.018  -0.878   2.593  1.00  0.00     0.175 C 
BRANCH   6   7
ATOM      7  N   UNL     1       1.470   0.445   2.302  1.00  0.00    -0.344 N 
ATOM      8  C   UNL     1       0.978  -0.002  -0.074  1.00  0.00     0.114 C 
ATOM      9  C   UNL     1       0.904   0.883   1.142  1.00  0.00     0.217 C 
ATOM     10  O   UNL     1       0.388   1.998   1.100  1.00  0.00    -0.275 OA
ATOM     11  H   UNL     1       1.515   1.101   3.035  1.00  0.00     0.164 HD
ENDBRANCH   6   7
BRANCH   6  12
ATOM     12  C   UNL     1       3.331  -0.836   3.400  1.00  0.00     0.075 C 
BRANCH  12  13
ATOM     13  C   UNL     1       3.290  -0.506   4.886  1.00  0.00     0.005 A 
ATOM     14  C   UNL     1       3.344   0.849   5.301  1.00  0.00     0.123 A 
ATOM     15  C   UNL     1       3.164  -1.546   5.870  1.00  0.00    -0.011 A 
ATOM     16  C   UNL     1       3.437   1.148   6.658  1.00  0.00     0.047 A 
ATOM     17  C   UNL     1       3.121  -1.183   7.240  1.00  0.00    -0.018 A 
ATOM     18  C   UNL     1       2.986  -2.921   5.575  1.00  0.00     0.009 A 
ATOM     19  C   UNL     1       3.310   0.147   7.615  1.00  0.00     0.012 A 
ATOM     20  C   UNL     1       2.837  -2.137   8.229  1.00  0.00     0.009 A 
ATOM     21  C   UNL     1       2.693  -3.862   6.568  1.00  0.00     0.001 A 
ATOM     22  C   UNL     1       2.602  -3.466   7.893  1.00  0.00     0.001 A 
BRANCH  14  23
ATOM     23  O   UNL     1       3.210   1.794   4.317  1.00  0.00    -0.493 OA
BRANCH  23  24
ATOM     24  C   UNL     1       3.196   3.190   4.644  1.00  0.00     0.232 C 
BRANCH  24  25
ATOM     25  C   UNL     1       1.782   3.773   4.862  1.00  0.00     0.020 C 
ATOM     26  C   UNL     1       1.054   3.236   6.095  1.00  0.00     0.011 C 
ATOM     27  C   UNL     1       1.867   5.298   4.975  1.00  0.00     0.011 C 
ENDBRANCH  24  25
ENDBRANCH  23  24
ENDBRANCH  14  23
ENDBRANCH  12  13
ENDBRANCH   6  12
ENDBRANCH   3   6
ENDBRANCH   1   2
BRANCH   1  28
ATOM     28  C   UNL     1      -1.295  -0.154   5.590  1.00  0.00     0.042 C 
BRANCH  28  29
ATOM     29  C   UNL     1      -1.847  -1.228   6.517  1.00  0.00     0.118 C 
BRANCH  29  30
ATOM     30  N   UNL     1      -1.034  -1.454   7.712  1.00  0.00    -0.352 N 
ATOM     31  C   UNL     1      -1.271  -1.160   9.038  1.00  0.00     0.251 C 
ATOM     32  H   UNL     1      -0.169  -1.891   7.539  1.00  0.00     0.163 HD
ATOM     33  O   UNL     1      -0.377  -1.308   9.863  1.00  0.00    -0.269 OA
BRANCH  31  34
ATOM     34  C   UNL     1      -2.588  -0.624   9.455  1.00  0.00     0.039 A 
ATOM     35  C   UNL     1      -2.643   0.424  10.378  1.00  0.00     0.014 A 
ATOM     36  C   UNL     1      -3.766  -1.128   8.910  1.00  0.00     0.014 A 
ATOM     37  C   UNL     1      -3.868   1.038  10.657  1.00  0.00     0.010 A 
ATOM     38  C   UNL     1      -4.957  -0.436   9.084  1.00  0.00     0.010 A 
ATOM     39  C   UNL     1      -5.026   0.657   9.960  1.00  0.00    -0.014 A 
BRANCH  39  40
ATOM     40  C   UNL     1      -6.323   1.369  10.120  1.00  0.00     0.031 A 
ATOM     41  C   UNL     1      -7.551   0.599  10.533  1.00  0.00     0.074 A 
ATOM     42  C   UNL     1      -6.423   2.669   9.775  1.00  0.00     0.049 A 
ATOM     43  N   UNL     1      -8.802   0.978  10.557  1.00  0.00    -0.248 NA
ATOM     44  C   UNL     1      -7.345  -0.808  10.912  1.00  0.00     0.031 C 
ATOM     45  C   UNL     1      -5.323   3.505   9.287  1.00  0.00     0.029 A 
ATOM     46  N   UNL     1      -7.507   3.511   9.757  1.00  0.00    -0.354 N 
ATOM     47  C   UNL     1      -9.534  -0.153  10.906  1.00  0.00     0.074 A 
ATOM     48  C   UNL     1      -8.589  -1.244  11.014  1.00  0.00     0.031 C 
ATOM     49  C   UNL     1      -5.783   4.742   9.040  1.00  0.00     0.029 A 
ATOM     50  C   UNL     1      -7.218   4.777   9.301  1.00  0.00     0.049 A 
ATOM     51  H   UNL     1      -8.408   3.235  10.043  1.00  0.00     0.167 HD
ATOM     52  C   UNL     1     -10.865  -0.266  11.140  1.00  0.00     0.034 A 
ATOM     53  C   UNL     1      -8.020   5.842   9.099  1.00  0.00     0.034 A 
ATOM     54  C   UNL     1     -11.780   0.848  11.073  1.00  0.00     0.049 A 
ATOM     55  C   UNL     1      -9.488   5.710   9.411  1.00  0.00     0.074 A 
ATOM     56  C   UNL     1     -13.128   0.877  11.383  1.00  0.00     0.029 A 
ATOM     57  N   UNL     1     -11.437   2.132  10.669  1.00  0.00    -0.354 N 
ATOM     58  N   UNL     1     -10.156   4.651   9.806  1.00  0.00    -0.248 NA
ATOM     59  C   UNL     1     -10.307   6.919   9.261  1.00  0.00     0.031 C 
ATOM     60  C   UNL     1     -13.612   2.162  11.110  1.00  0.00     0.029 A 
ATOM     61  C   UNL     1     -12.552   2.955  10.697  1.00  0.00     0.049 A 
ATOM     62  H   UNL     1     -10.533   2.417  10.401  1.00  0.00     0.167 HD
ATOM     63  C   UNL     1     -11.471   5.074   9.976  1.00  0.00     0.074 A 
ATOM     64  C   UNL     1     -11.496   6.487   9.657  1.00  0.00     0.031 C 
ATOM     65  C   UNL     1     -12.559   4.361  10.364  1.00  0.00     0.034 A 
BRANCH  52  66
ATOM     66  C   UNL     1     -11.400  -1.642  11.468  1.00  0.00     0.023 A 
ATOM     67  C   UNL     1     -10.957  -2.359  12.594  1.00  0.00     0.031 A 
ATOM     68  C   UNL     1     -12.326  -2.269  10.616  1.00  0.00     0.131 A 
ATOM     69  C   UNL     1     -11.358  -3.691  12.780  1.00  0.00     0.055 A 
ATOM     70  C   UNL     1     -12.794  -3.562  10.860  1.00  0.00     0.041 A 
ATOM     71  F   UNL     1     -12.774  -1.645   9.515  1.00  0.00    -0.206 F 
ATOM     72  C   UNL     1     -12.294  -4.289  11.936  1.00  0.00     0.022 A 
BRANCH  69  73
ATOM     73  S   UNL     1     -10.504  -4.679  14.040  1.00  0.00     0.124 S 
ATOM     74  O   UNL     1      -9.117  -4.596  13.588  1.00  0.00    -0.237 OA
ATOM     75  O   UNL     1     -10.819  -3.963  15.270  1.00  0.00    -0.237 OA
ATOM     76  O   UNL     1     -11.115  -6.001  13.911  1.00  0.00    -0.744 OA
ENDBRANCH  69  73
ENDBRANCH  52  66
BRANCH  53  77
ATOM     77  C   UNL     1      -7.458   7.119   8.573  1.00  0.00     0.023 A 
ATOM     78  C   UNL     1      -7.419   8.274   9.369  1.00  0.00     0.031 A 
ATOM     79  C   UNL     1      -6.969   7.207   7.258  1.00  0.00     0.131 A 
ATOM     80  C   UNL     1      -6.937   9.479   8.832  1.00  0.00     0.055 A 
ATOM     81  C   UNL     1      -6.448   8.395   6.743  1.00  0.00     0.041 A 
ATOM     82  F   UNL     1      -6.973   6.128   6.459  1.00  0.00    -0.206 F 
ATOM     83  C   UNL     1      -6.441   9.544   7.528  1.00  0.00     0.022 A 
BRANCH  80  84
ATOM     84  S   UNL     1      -7.028  10.980   9.845  1.00  0.00     0.124 S 
ATOM     85  O   UNL     1      -8.459  11.071  10.116  1.00  0.00    -0.237 OA
ATOM     86  O   UNL     1      -6.181  10.630  10.981  1.00  0.00    -0.237 OA
ATOM     87  O   UNL     1      -6.491  12.017   8.967  1.00  0.00    -0.744 OA
ENDBRANCH  80  84
ENDBRANCH  53  77
BRANCH  65  88
ATOM     88  C   UNL     1     -13.856   5.117  10.504  1.00  0.00     0.023 A 
ATOM     89  C   UNL     1     -14.526   5.647   9.389  1.00  0.00     0.031 A 
ATOM     90  C   UNL     1     -14.423   5.315  11.776  1.00  0.00     0.131 A 
ATOM     91  C   UNL     1     -15.698   6.395   9.571  1.00  0.00     0.055 A 
ATOM     92  C   UNL     1     -15.620   6.010  11.945  1.00  0.00     0.041 A 
ATOM     93  F   UNL     1     -13.822   4.831  12.875  1.00  0.00    -0.206 F 
ATOM     94  C   UNL     1     -16.259   6.566  10.840  1.00  0.00     0.022 A 
BRANCH  91  95
ATOM     95  S   UNL     1     -16.438   7.218   8.134  1.00  0.00     0.124 S 
ATOM     96  O   UNL     1     -15.349   8.077   7.682  1.00  0.00    -0.237 OA
ATOM     97  O   UNL     1     -16.766   6.093   7.264  1.00  0.00    -0.237 OA
ATOM     98  O   UNL     1     -17.590   7.921   8.697  1.00  0.00    -0.744 OA
ENDBRANCH  91  95
ENDBRANCH  65  88
ENDBRANCH  39  40
ENDBRANCH  31  34
ENDBRANCH  29  30
ENDBRANCH  28  29
ENDBRANCH   1  28
TORSDOF 19
