REMARK SMILES O=C(NCCCNC(=O)c1ccc(S(=O)(=O)Nc2ccccc2I)cc1)c1ccc(-c2c3nc(c(-c4cc(S(=O)(=O)[O-])ccc4F)c4ccc([nH]4)c(-c4cc(S(=O)(=O)[O-])ccc4F)c4nc(c(-c5cc(S(=O)(=O)[O-])ccc5F)c5ccc2[nH]5)C=C4)C=C3)cc1
REMARK SMILES IDX 5 1 4 2 3 3 1 4 2 5 27 7 28 8 89 9 29 10 88 11 30 12 31 13
REMARK SMILES IDX 32 14 82 15 33 16 87 17 81 18 83 19 34 20 86 21 80 22 79 23
REMARK SMILES IDX 35 25 67 26 47 27 66 28 48 29 51 30 65 31 84 32 49 33 50 34
REMARK SMILES IDX 64 36 85 37 52 38 36 39 37 40 45 41 38 42 44 43 46 44 43 45
REMARK SMILES IDX 39 46 40 47 41 48 42 49 68 50 69 51 77 52 70 53 76 54 78 55
REMARK SMILES IDX 75 56 71 57 72 58 73 59 74 60 53 61 54 62 62 63 55 64 61 65
REMARK SMILES IDX 63 66 60 67 56 68 57 69 58 70 59 71 6 72 7 73 8 74 9 76
REMARK SMILES IDX 10 77 11 78 26 79 12 80 25 81 13 82 14 83 15 84 16 85 17 86
REMARK SMILES IDX 18 88 19 89 23 90 20 91 22 92 24 93 21 94
REMARK H PARENT 3 6 83 24 51 35 7 75 17 87
REMARK Flexibility Score: inf
ROOT
ATOM      1  C   UNL     1       4.960   1.406  -1.662  1.00  0.00     0.042 C 
ENDROOT
BRANCH   1   2
ATOM      2  C   UNL     1       4.486   1.281  -0.230  1.00  0.00     0.118 C 
BRANCH   2   3
ATOM      3  N   UNL     1       3.047   1.050  -0.131  1.00  0.00    -0.352 N 
ATOM      4  O   UNL     1       1.125  -0.116  -0.015  1.00  0.00    -0.269 OA
ATOM      5  C   UNL     1       2.344  -0.102   0.141  1.00  0.00     0.251 C 
ATOM      6  H   UNL     1       2.490   1.847  -0.283  1.00  0.00     0.163 HD
BRANCH   5   7
ATOM      7  C   UNL     1       3.051  -1.319   0.597  1.00  0.00     0.039 A 
ATOM      8  C   UNL     1       4.126  -1.220   1.476  1.00  0.00     0.014 A 
ATOM      9  C   UNL     1       2.632  -2.579   0.157  1.00  0.00     0.014 A 
ATOM     10  C   UNL     1       4.912  -2.331   1.736  1.00  0.00     0.010 A 
ATOM     11  C   UNL     1       3.339  -3.725   0.546  1.00  0.00     0.010 A 
ATOM     12  C   UNL     1       4.507  -3.605   1.312  1.00  0.00    -0.014 A 
BRANCH  12  13
ATOM     13  C   UNL     1       5.293  -4.778   1.778  1.00  0.00     0.031 A 
ATOM     14  C   UNL     1       5.993  -5.690   0.810  1.00  0.00     0.074 A 
ATOM     15  C   UNL     1       5.428  -4.958   3.108  1.00  0.00     0.049 A 
ATOM     16  N   UNL     1       6.759  -6.721   1.063  1.00  0.00    -0.248 NA
ATOM     17  C   UNL     1       5.805  -5.423  -0.623  1.00  0.00     0.031 C 
ATOM     18  C   UNL     1       4.782  -4.132   4.136  1.00  0.00     0.029 A 
ATOM     19  N   UNL     1       6.176  -5.849   3.831  1.00  0.00    -0.354 N 
ATOM     20  C   UNL     1       7.130  -7.238  -0.173  1.00  0.00     0.074 A 
ATOM     21  C   UNL     1       6.480  -6.421  -1.177  1.00  0.00     0.031 C 
ATOM     22  C   UNL     1       5.226  -4.500   5.344  1.00  0.00     0.029 A 
ATOM     23  C   UNL     1       6.109  -5.647   5.191  1.00  0.00     0.049 A 
ATOM     24  H   UNL     1       6.711  -6.565   3.417  1.00  0.00     0.167 HD
ATOM     25  C   UNL     1       7.942  -8.292  -0.440  1.00  0.00     0.034 A 
ATOM     26  C   UNL     1       6.676  -6.322   6.208  1.00  0.00     0.034 A 
ATOM     27  C   UNL     1       8.586  -9.088   0.580  1.00  0.00     0.049 A 
ATOM     28  C   UNL     1       7.555  -7.495   5.879  1.00  0.00     0.074 A 
ATOM     29  C   UNL     1       9.434 -10.171   0.422  1.00  0.00     0.029 A 
ATOM     30  N   UNL     1       8.455  -8.888   1.949  1.00  0.00    -0.354 N 
ATOM     31  N   UNL     1       7.887  -7.971   4.701  1.00  0.00    -0.248 NA
ATOM     32  C   UNL     1       8.132  -8.223   7.014  1.00  0.00     0.031 C 
ATOM     33  C   UNL     1       9.767 -10.660   1.691  1.00  0.00     0.029 A 
ATOM     34  C   UNL     1       9.184  -9.841   2.645  1.00  0.00     0.049 A 
ATOM     35  H   UNL     1       7.921  -8.173   2.365  1.00  0.00     0.167 HD
ATOM     36  C   UNL     1       8.718  -9.056   4.955  1.00  0.00     0.074 A 
ATOM     37  C   UNL     1       8.867  -9.134   6.395  1.00  0.00     0.031 C 
ATOM     38  C   UNL     1       9.297  -9.918   4.082  1.00  0.00     0.034 A 
BRANCH  25  39
ATOM     39  C   UNL     1       8.142  -8.674  -1.887  1.00  0.00     0.023 A 
ATOM     40  C   UNL     1       8.818  -7.835  -2.790  1.00  0.00     0.031 A 
ATOM     41  C   UNL     1       7.648  -9.899  -2.370  1.00  0.00     0.131 A 
ATOM     42  C   UNL     1       8.938  -8.210  -4.138  1.00  0.00     0.055 A 
ATOM     43  C   UNL     1       7.830 -10.297  -3.696  1.00  0.00     0.041 A 
ATOM     44  F   UNL     1       6.976 -10.732  -1.559  1.00  0.00    -0.206 F 
ATOM     45  C   UNL     1       8.470  -9.446  -4.592  1.00  0.00     0.022 A 
BRANCH  42  46
ATOM     46  S   UNL     1       9.618  -7.011  -5.318  1.00  0.00     0.124 S 
ATOM     47  O   UNL     1       8.665  -5.910  -5.201  1.00  0.00    -0.237 OA
ATOM     48  O   UNL     1      10.951  -6.763  -4.782  1.00  0.00    -0.237 OA
ATOM     49  O   UNL     1       9.581  -7.725  -6.593  1.00  0.00    -0.744 OA
ENDBRANCH  42  46
ENDBRANCH  25  39
BRANCH  26  50
ATOM     50  C   UNL     1       6.391  -5.939   7.620  1.00  0.00     0.023 A 
ATOM     51  C   UNL     1       7.414  -5.518   8.482  1.00  0.00     0.031 A 
ATOM     52  C   UNL     1       5.085  -6.026   8.140  1.00  0.00     0.131 A 
ATOM     53  C   UNL     1       7.124  -5.242   9.827  1.00  0.00     0.055 A 
ATOM     54  C   UNL     1       4.792  -5.692   9.461  1.00  0.00     0.041 A 
ATOM     55  F   UNL     1       4.067  -6.422   7.358  1.00  0.00    -0.206 F 
ATOM     56  C   UNL     1       5.818  -5.311  10.319  1.00  0.00     0.022 A 
BRANCH  53  57
ATOM     57  S   UNL     1       8.499  -4.888  10.956  1.00  0.00     0.124 S 
ATOM     58  O   UNL     1       9.358  -6.049  10.754  1.00  0.00    -0.237 OA
ATOM     59  O   UNL     1       8.999  -3.621  10.433  1.00  0.00    -0.237 OA
ATOM     60  O   UNL     1       7.852  -4.809  12.264  1.00  0.00    -0.744 OA
ENDBRANCH  53  57
ENDBRANCH  26  50
BRANCH  38  61
ATOM     61  C   UNL     1      10.153 -11.002   4.685  1.00  0.00     0.023 A 
ATOM     62  C   UNL     1       9.592 -12.020   5.476  1.00  0.00     0.031 A 
ATOM     63  C   UNL     1      11.547 -10.985   4.513  1.00  0.00     0.131 A 
ATOM     64  C   UNL     1      10.429 -12.937   6.128  1.00  0.00     0.055 A 
ATOM     65  C   UNL     1      12.370 -11.939   5.113  1.00  0.00     0.041 A 
ATOM     66  F   UNL     1      12.133 -10.033   3.769  1.00  0.00    -0.206 F 
ATOM     67  C   UNL     1      11.813 -12.911   5.940  1.00  0.00     0.022 A 
BRANCH  64  68
ATOM     68  S   UNL     1       9.691 -14.093   7.315  1.00  0.00     0.124 S 
ATOM     69  O   UNL     1       9.051 -13.187   8.263  1.00  0.00    -0.237 OA
ATOM     70  O   UNL     1       8.791 -14.873   6.472  1.00  0.00    -0.237 OA
ATOM     71  O   UNL     1      10.841 -14.827   7.838  1.00  0.00    -0.744 OA
ENDBRANCH  64  68
ENDBRANCH  38  61
ENDBRANCH  12  13
ENDBRANCH   5   7
ENDBRANCH   2   3
ENDBRANCH   1   2
BRANCH   1  72
ATOM     72  C   UNL     1       4.477   2.668  -2.343  1.00  0.00     0.118 C 
BRANCH  72  73
ATOM     73  N   UNL     1       5.010   3.892  -1.747  1.00  0.00    -0.352 N 
ATOM     74  C   UNL     1       5.779   4.902  -2.282  1.00  0.00     0.251 C 
ATOM     75  H   UNL     1       4.780   4.016  -0.798  1.00  0.00     0.163 HD
ATOM     76  O   UNL     1       6.226   5.779  -1.548  1.00  0.00    -0.269 OA
BRANCH  74  77
ATOM     77  C   UNL     1       6.075   4.941  -3.732  1.00  0.00     0.039 A 
ATOM     78  C   UNL     1       7.310   5.415  -4.194  1.00  0.00     0.015 A 
ATOM     79  C   UNL     1       5.135   4.492  -4.650  1.00  0.00     0.015 A 
ATOM     80  C   UNL     1       7.604   5.388  -5.567  1.00  0.00     0.023 A 
ATOM     81  C   UNL     1       5.501   4.293  -5.968  1.00  0.00     0.023 A 
ATOM     82  C   UNL     1       6.691   4.813  -6.459  1.00  0.00     0.087 A 
BRANCH  82  83
ATOM     83  S   UNL     1       7.074   4.668  -8.188  1.00  0.00     0.261 S 
ATOM     84  O   UNL     1       8.153   5.596  -8.478  1.00  0.00    -0.201 OA
ATOM     85  O   UNL     1       7.221   3.261  -8.475  1.00  0.00    -0.201 OA
BRANCH  83  86
ATOM     86  N   UNL     1       5.752   5.212  -9.142  1.00  0.00    -0.279 N 
ATOM     87  H   UNL     1       5.914   5.741  -9.956  1.00  0.00     0.180 HD
BRANCH  86  88
ATOM     88  C   UNL     1       4.405   4.891  -8.742  1.00  0.00     0.062 A 
ATOM     89  C   UNL     1       3.909   3.593  -8.942  1.00  0.00     0.028 A 
ATOM     90  C   UNL     1       3.624   5.824  -8.036  1.00  0.00     0.037 A 
ATOM     91  C   UNL     1       2.670   3.223  -8.404  1.00  0.00     0.002 A 
ATOM     92  C   UNL     1       2.387   5.446  -7.499  1.00  0.00     0.017 A 
ATOM     93  I   UNL     1       4.263   7.795  -7.704  1.00  0.00    -0.042 I 
ATOM     94  C   UNL     1       1.918   4.143  -7.674  1.00  0.00     0.001 A 
ENDBRANCH  86  88
ENDBRANCH  83  86
ENDBRANCH  82  83
ENDBRANCH  74  77
ENDBRANCH  72  73
ENDBRANCH   1  72
TORSDOF 16
