REMARK SMILES Cc1cccc(C(=O)N2CCC[C@H]2c2nnc(SCC(=O)Nc3ccc(C(=O)NCCCNC(=O)c4ccc(-c5c6nc(c(-c7cc(S(=O)(=O)[O-])ccc7F)c7ccc([nH]7)c(-c7cc(S(=O)(=O)[O-])ccc7F)c7nc(c(-c8cc(S(=O)(=O)[O-])ccc8F)c8ccc5[nH]8)C=C7)C=C6)cc4)cc3)n2C)c1
REMARK SMILES IDX 27 1 28 2 29 3 26 5 23 6 24 7 100 8 25 9 99 10 22 11 20 12
REMARK SMILES IDX 21 13 19 15 18 16 17 17 14 18 15 19 101 20 16 21 102 22
REMARK SMILES IDX 13 23 9 24 10 25 11 26 12 27 7 28 8 29 6 30 1 31 2 32 3 33
REMARK SMILES IDX 103 34 4 35 5 36 30 37 31 38 32 39 33 40 34 41 35 43 36 44
REMARK SMILES IDX 37 45 98 46 38 47 97 48 39 49 40 50 41 51 91 52 42 53 96 54
REMARK SMILES IDX 90 55 92 56 43 57 95 58 89 59 88 60 44 62 76 63 56 64 75 65
REMARK SMILES IDX 57 66 60 67 74 68 93 69 58 70 59 71 73 73 94 74 61 75 45 76
REMARK SMILES IDX 46 77 54 78 47 79 53 80 55 81 52 82 48 83 49 84 50 85 51 86
REMARK SMILES IDX 77 87 78 88 86 89 79 90 85 91 87 92 84 93 80 94 81 95 82 96
REMARK SMILES IDX 83 97 62 98 63 99 71 100 64 101 70 102 72 103 69 104 65 105
REMARK SMILES IDX 66 106 67 107 68 108
REMARK H PARENT 29 4 22 14 33 42 92 61 60 72
REMARK Flexibility Score: inf
ROOT
ATOM      1  C   UNL     1     -11.184   4.618   2.157  1.00  0.00     0.251 C 
ATOM      2  O   UNL     1     -12.150   3.869   2.290  1.00  0.00    -0.269 OA
ATOM      3  N   UNL     1     -11.318   5.826   1.509  1.00  0.00    -0.352 N 
ATOM      4  H   UNL     1     -12.248   6.040   1.269  1.00  0.00     0.163 HD
ENDROOT
BRANCH   1   5
ATOM      5  C   UNL     1      -9.872   4.167   2.673  1.00  0.00     0.039 A 
ATOM      6  C   UNL     1      -7.261   3.388   3.375  1.00  0.00     0.041 A 
ATOM      7  C   UNL     1      -7.658   4.715   3.400  1.00  0.00     0.027 A 
ATOM      8  C   UNL     1      -8.215   2.423   3.028  1.00  0.00     0.027 A 
ATOM      9  C   UNL     1      -8.972   5.084   3.179  1.00  0.00     0.016 A 
ATOM     10  C   UNL     1      -9.515   2.813   2.659  1.00  0.00     0.016 A 
BRANCH   6  11
ATOM     11  N   UNL     1      -5.947   2.986   3.667  1.00  0.00    -0.325 N 
ATOM     12  C   UNL     1      -4.916   3.644   4.282  1.00  0.00     0.234 C 
ATOM     13  O   UNL     1      -3.818   3.075   4.350  1.00  0.00    -0.274 OA
ATOM     14  H   UNL     1      -5.730   2.070   3.378  1.00  0.00     0.169 HD
BRANCH  12  15
ATOM     15  C   UNL     1      -5.106   4.958   5.019  1.00  0.00     0.178 C 
BRANCH  15  16
ATOM     16  S   UNL     1      -4.639   6.482   4.152  1.00  0.00    -0.076 SA
BRANCH  16  17
ATOM     17  C   UNL     1      -3.824   5.980   2.719  1.00  0.00     0.191 A 
ATOM     18  C   UNL     1      -2.218   5.361   1.369  1.00  0.00     0.156 A 
ATOM     19  N   UNL     1      -3.220   5.804   0.634  1.00  0.00    -0.132 NA
ATOM     20  N   UNL     1      -2.559   5.478   2.699  1.00  0.00    -0.307 N 
ATOM     21  N   UNL     1      -4.230   6.199   1.489  1.00  0.00    -0.123 NA
ATOM     22  C   UNL     1      -1.699   5.173   3.812  1.00  0.00     0.154 C 
BRANCH  18  23
ATOM     23  C   UNL     1      -0.902   4.837   0.919  1.00  0.00     0.154 C 
ATOM     24  N   UNL     1      -0.986   3.716  -0.008  1.00  0.00    -0.328 N 
ATOM     25  C   UNL     1      -0.222   3.992  -1.217  1.00  0.00     0.120 C 
ATOM     26  C   UNL     1       0.784   5.040  -0.760  1.00  0.00     0.024 C 
ATOM     27  C   UNL     1      -0.049   5.885   0.198  1.00  0.00     0.035 C 
BRANCH  24  28
ATOM     28  C   UNL     1      -1.515   2.517   0.432  1.00  0.00     0.254 C 
ATOM     29  O   UNL     1      -2.367   2.432   1.313  1.00  0.00    -0.269 OA
BRANCH  28  30
ATOM     30  C   UNL     1      -0.895   1.247  -0.005  1.00  0.00     0.040 A 
ATOM     31  C   UNL     1       2.589  -0.279  -0.014  1.00  0.00     0.044 C 
ATOM     32  C   UNL     1       1.101  -0.136  -0.123  1.00  0.00    -0.050 A 
ATOM     33  C   UNL     1       0.288  -1.257  -0.329  1.00  0.00     0.003 A 
ATOM     34  C   UNL     1       0.498   1.112   0.057  1.00  0.00     0.017 A 
ATOM     35  C   UNL     1      -1.103  -1.129  -0.372  1.00  0.00     0.001 A 
ATOM     36  C   UNL     1      -1.698   0.122  -0.207  1.00  0.00     0.014 A 
ENDBRANCH  28  30
ENDBRANCH  24  28
ENDBRANCH  18  23
ENDBRANCH  16  17
ENDBRANCH  15  16
ENDBRANCH  12  15
ENDBRANCH   6  11
ENDBRANCH   1   5
BRANCH   3  37
ATOM     37  C   UNL     1     -10.357   6.863   1.101  1.00  0.00     0.118 C 
BRANCH  37  38
ATOM     38  C   UNL     1      -9.994   6.795  -0.372  1.00  0.00     0.042 C 
BRANCH  38  39
ATOM     39  C   UNL     1     -10.643   7.919  -1.161  1.00  0.00     0.118 C 
BRANCH  39  40
ATOM     40  N   UNL     1      -9.858   9.156  -1.237  1.00  0.00    -0.352 N 
ATOM     41  C   UNL     1     -10.073  10.248  -2.073  1.00  0.00     0.251 C 
ATOM     42  H   UNL     1      -9.089   9.221  -0.626  1.00  0.00     0.163 HD
ATOM     43  O   UNL     1      -9.365  11.237  -2.079  1.00  0.00    -0.269 OA
BRANCH  41  44
ATOM     44  C   UNL     1     -11.307  10.218  -2.893  1.00  0.00     0.039 A 
ATOM     45  C   UNL     1     -12.356  11.028  -2.449  1.00  0.00     0.014 A 
ATOM     46  C   UNL     1     -11.535   9.118  -3.712  1.00  0.00     0.014 A 
ATOM     47  C   UNL     1     -13.657  10.562  -2.577  1.00  0.00     0.010 A 
ATOM     48  C   UNL     1     -12.817   8.601  -3.736  1.00  0.00     0.010 A 
ATOM     49  C   UNL     1     -13.860   9.281  -3.090  1.00  0.00    -0.014 A 
BRANCH  49  50
ATOM     50  C   UNL     1     -15.093   8.531  -2.851  1.00  0.00     0.031 A 
ATOM     51  C   UNL     1     -16.014   8.257  -3.971  1.00  0.00     0.074 A 
ATOM     52  C   UNL     1     -15.433   8.122  -1.608  1.00  0.00     0.049 A 
ATOM     53  N   UNL     1     -17.281   8.047  -3.849  1.00  0.00    -0.248 NA
ATOM     54  C   UNL     1     -15.573   8.303  -5.358  1.00  0.00     0.031 C 
ATOM     55  C   UNL     1     -16.514   7.210  -1.238  1.00  0.00     0.029 A 
ATOM     56  N   UNL     1     -15.015   8.647  -0.396  1.00  0.00    -0.354 N 
ATOM     57  C   UNL     1     -17.767   7.660  -5.076  1.00  0.00     0.074 A 
ATOM     58  C   UNL     1     -16.690   7.942  -5.991  1.00  0.00     0.031 C 
ATOM     59  C   UNL     1     -16.840   7.418   0.048  1.00  0.00     0.029 A 
ATOM     60  C   UNL     1     -16.067   8.552   0.520  1.00  0.00     0.049 A 
ATOM     61  H   UNL     1     -14.125   9.024  -0.210  1.00  0.00     0.167 HD
ATOM     62  C   UNL     1     -18.975   7.027  -5.144  1.00  0.00     0.034 A 
ATOM     63  C   UNL     1     -16.588   9.661   1.121  1.00  0.00     0.034 A 
ATOM     64  C   UNL     1     -19.693   7.116  -3.864  1.00  0.00     0.049 A 
ATOM     65  C   UNL     1     -18.043   9.913   0.780  1.00  0.00     0.074 A 
ATOM     66  C   UNL     1     -19.934   6.219  -2.836  1.00  0.00     0.029 A 
ATOM     67  N   UNL     1     -20.053   8.371  -3.371  1.00  0.00    -0.354 N 
ATOM     68  N   UNL     1     -18.702   9.297  -0.164  1.00  0.00    -0.248 NA
ATOM     69  C   UNL     1     -18.852  10.919   1.460  1.00  0.00     0.031 C 
ATOM     70  C   UNL     1     -20.369   6.957  -1.699  1.00  0.00     0.029 A 
ATOM     71  C   UNL     1     -20.427   8.298  -2.041  1.00  0.00     0.049 A 
ATOM     72  H   UNL     1     -20.043   9.201  -3.901  1.00  0.00     0.167 HD
ATOM     73  C   UNL     1     -19.951   9.854  -0.289  1.00  0.00     0.074 A 
ATOM     74  C   UNL     1     -20.014  10.821   0.794  1.00  0.00     0.031 C 
ATOM     75  C   UNL     1     -20.806   9.502  -1.301  1.00  0.00     0.034 A 
BRANCH  62  76
ATOM     76  C   UNL     1     -19.375   6.077  -6.270  1.00  0.00     0.023 A 
ATOM     77  C   UNL     1     -20.348   5.082  -6.020  1.00  0.00     0.031 A 
ATOM     78  C   UNL     1     -18.799   6.017  -7.557  1.00  0.00     0.131 A 
ATOM     79  C   UNL     1     -20.627   4.063  -6.958  1.00  0.00     0.055 A 
ATOM     80  C   UNL     1     -19.038   4.981  -8.470  1.00  0.00     0.041 A 
ATOM     81  F   UNL     1     -18.013   6.980  -8.040  1.00  0.00    -0.206 F 
ATOM     82  C   UNL     1     -19.947   3.987  -8.169  1.00  0.00     0.022 A 
BRANCH  79  83
ATOM     83  S   UNL     1     -21.890   2.817  -6.582  1.00  0.00     0.124 S 
ATOM     84  O   UNL     1     -21.370   2.204  -5.365  1.00  0.00    -0.237 OA
ATOM     85  O   UNL     1     -23.092   3.630  -6.438  1.00  0.00    -0.237 OA
ATOM     86  O   UNL     1     -21.874   1.950  -7.761  1.00  0.00    -0.744 OA
ENDBRANCH  79  83
ENDBRANCH  62  76
BRANCH  63  87
ATOM     87  C   UNL     1     -15.573  10.722   1.381  1.00  0.00     0.023 A 
ATOM     88  C   UNL     1     -14.491  10.383   2.220  1.00  0.00     0.031 A 
ATOM     89  C   UNL     1     -15.437  11.839   0.546  1.00  0.00     0.131 A 
ATOM     90  C   UNL     1     -13.262  11.039   2.082  1.00  0.00     0.055 A 
ATOM     91  C   UNL     1     -14.224  12.533   0.458  1.00  0.00     0.041 A 
ATOM     92  F   UNL     1     -16.421  12.190  -0.294  1.00  0.00    -0.206 F 
ATOM     93  C   UNL     1     -13.116  12.103   1.190  1.00  0.00     0.022 A 
BRANCH  90  94
ATOM     94  S   UNL     1     -11.781  10.335   2.866  1.00  0.00     0.124 S 
ATOM     95  O   UNL     1     -11.563  11.241   3.987  1.00  0.00    -0.237 OA
ATOM     96  O   UNL     1     -12.199   8.981   3.219  1.00  0.00    -0.237 OA
ATOM     97  O   UNL     1     -10.787  10.392   1.796  1.00  0.00    -0.744 OA
ENDBRANCH  90  94
ENDBRANCH  63  87
BRANCH  75  98
ATOM     98  C   UNL     1     -22.102  10.220  -1.641  1.00  0.00     0.023 A 
ATOM     99  C   UNL     1     -22.434  11.500  -1.165  1.00  0.00     0.031 A 
ATOM    100  C   UNL     1     -23.046   9.646  -2.527  1.00  0.00     0.131 A 
ATOM    101  C   UNL     1     -23.673  12.100  -1.463  1.00  0.00     0.055 A 
ATOM    102  C   UNL     1     -24.238  10.282  -2.895  1.00  0.00     0.041 A 
ATOM    103  F   UNL     1     -22.850   8.442  -3.084  1.00  0.00    -0.206 F 
ATOM    104  C   UNL     1     -24.571  11.509  -2.344  1.00  0.00     0.022 A 
BRANCH 101 105
ATOM    105  S   UNL     1     -24.113  13.634  -0.602  1.00  0.00     0.124 S 
ATOM    106  O   UNL     1     -24.103  13.208   0.795  1.00  0.00    -0.237 OA
ATOM    107  O   UNL     1     -23.035  14.536  -0.995  1.00  0.00    -0.237 OA
ATOM    108  O   UNL     1     -25.430  13.968  -1.139  1.00  0.00    -0.744 OA
ENDBRANCH 101 105
ENDBRANCH  75  98
ENDBRANCH  49  50
ENDBRANCH  41  44
ENDBRANCH  39  40
ENDBRANCH  38  39
ENDBRANCH  37  38
ENDBRANCH   3  37
TORSDOF 20
