REMARK SMILES Cc1ccc(C(c2ccccc2)(c2ccccc2)n2cnc(C[C@H]([NH3+])C(=O)NCCCNC(=O)c3ccc(-c4c5nc(c(-c6cc(S(=O)(=O)[O-])ccc6F)c6ccc([nH]6)c(-c6cc(S(=O)(=O)[O-])ccc6F)c6nc(c(-c7cc(S(=O)(=O)[O-])ccc7F)c7ccc4[nH]7)C=C6)C=C5)cc3)c2)cc1
REMARK SMILES IDX 29 1 28 2 26 3 27 4 24 6 23 7 22 8 19 9 20 10 98 11 21 12
REMARK SMILES IDX 6 13 5 14 1 15 2 16 3 17 100 18 4 19 99 20 7 21 8 22 12 23
REMARK SMILES IDX 9 24 11 25 10 26 13 27 14 28 18 29 15 30 17 31 16 32 25 33
REMARK SMILES IDX 30 37 31 38 32 39 33 40 34 42 35 43 36 44 97 45 37 46 96 47
REMARK SMILES IDX 38 48 39 49 40 50 90 51 41 52 95 53 89 54 91 55 42 56 94 57
REMARK SMILES IDX 88 58 87 59 43 61 75 62 55 63 74 64 56 65 59 66 73 67 92 68
REMARK SMILES IDX 57 69 58 70 72 72 93 73 60 74 44 75 45 76 53 77 46 78 52 79
REMARK SMILES IDX 54 80 51 81 47 82 48 83 49 84 50 85 76 86 77 87 85 88 78 89
REMARK SMILES IDX 84 90 86 91 83 92 79 93 80 94 81 95 82 96 61 97 62 98 70 99
REMARK SMILES IDX 63 100 69 101 71 102 68 103 64 104 65 105 66 106 67 107
REMARK H PARENT 28 5 25 34 25 35 25 36 32 41 91 60 59 71
REMARK Flexibility Score: inf
ROOT
ATOM      1  C   UNL     1      -5.571  -7.358   1.047  1.00  0.00     0.118 C 
ENDROOT
BRANCH   1   2
ATOM      2  N   UNL     1      -6.805  -6.765   1.532  1.00  0.00    -0.351 N 
ATOM      3  C   UNL     1      -7.356  -5.526   1.393  1.00  0.00     0.278 C 
ATOM      4  O   UNL     1      -8.373  -5.290   2.060  1.00  0.00    -0.268 OA
ATOM      5  H   UNL     1      -7.353  -7.381   2.069  1.00  0.00     0.163 HD
BRANCH   3   6
ATOM      6  C   UNL     1      -6.716  -4.399   0.546  1.00  0.00     0.276 C 
BRANCH   6   7
ATOM      7  C   UNL     1      -6.380  -4.706  -0.916  1.00  0.00     0.133 C 
BRANCH   7   8
ATOM      8  C   UNL     1      -7.496  -5.216  -1.753  1.00  0.00     0.065 A 
ATOM      9  N   UNL     1      -8.824  -5.652  -3.447  1.00  0.00    -0.319 N 
ATOM     10  C   UNL     1      -9.426  -5.984  -2.255  1.00  0.00     0.201 A 
ATOM     11  C   UNL     1      -7.534  -5.292  -3.126  1.00  0.00     0.112 A 
ATOM     12  N   UNL     1      -8.671  -5.668  -1.228  1.00  0.00    -0.241 NA
BRANCH   9  13
ATOM     13  C   UNL     1      -9.495  -5.567  -4.787  1.00  0.00     0.121 C 
BRANCH  13  14
ATOM     14  C   UNL     1      -9.597  -7.006  -5.428  1.00  0.00    -0.013 A 
ATOM     15  C   UNL     1      -9.970 -10.911  -7.309  1.00  0.00     0.044 C 
ATOM     16  C   UNL     1      -9.831  -9.556  -6.682  1.00  0.00    -0.051 A 
ATOM     17  C   UNL     1      -9.307  -9.435  -5.391  1.00  0.00     0.004 A 
ATOM     18  C   UNL     1     -10.220  -8.402  -7.361  1.00  0.00     0.004 A 
ATOM     19  C   UNL     1      -9.191  -8.183  -4.773  1.00  0.00     0.007 A 
ATOM     20  C   UNL     1     -10.095  -7.151  -6.749  1.00  0.00     0.007 A 
ENDBRANCH  13  14
BRANCH  13  21
ATOM     21  C   UNL     1     -10.943  -4.937  -4.545  1.00  0.00    -0.013 A 
ATOM     22  C   UNL     1     -11.113  -3.786  -3.738  1.00  0.00     0.007 A 
ATOM     23  C   UNL     1     -12.134  -5.532  -5.011  1.00  0.00     0.007 A 
ATOM     24  C   UNL     1     -12.370  -3.222  -3.489  1.00  0.00     0.000 A 
ATOM     25  C   UNL     1     -13.396  -4.976  -4.756  1.00  0.00     0.000 A 
ATOM     26  C   UNL     1     -13.513  -3.812  -4.009  1.00  0.00     0.000 A 
ENDBRANCH  13  21
BRANCH  13  27
ATOM     27  C   UNL     1      -8.568  -4.637  -5.707  1.00  0.00    -0.013 A 
ATOM     28  C   UNL     1      -7.619  -5.203  -6.596  1.00  0.00     0.007 A 
ATOM     29  C   UNL     1      -8.481  -3.239  -5.528  1.00  0.00     0.007 A 
ATOM     30  C   UNL     1      -6.667  -4.425  -7.266  1.00  0.00     0.000 A 
ATOM     31  C   UNL     1      -7.508  -2.465  -6.174  1.00  0.00     0.000 A 
ATOM     32  C   UNL     1      -6.603  -3.057  -7.044  1.00  0.00     0.000 A 
ENDBRANCH  13  27
ENDBRANCH   9  13
ENDBRANCH   7   8
ENDBRANCH   6   7
BRANCH   6  33
ATOM     33  N   UNL     1      -5.531  -3.839   1.258  1.00  0.00    -0.347 N 
ATOM     34  H   UNL     1      -4.806  -4.553   1.325  1.00  0.00     0.345 HD
ATOM     35  H   UNL     1      -5.805  -3.543   2.195  1.00  0.00     0.345 HD
ATOM     36  H   UNL     1      -5.171  -3.037   0.740  1.00  0.00     0.345 HD
ENDBRANCH   6  33
ENDBRANCH   3   6
ENDBRANCH   1   2
BRANCH   1  37
ATOM     37  C   UNL     1      -4.439  -7.219   2.058  1.00  0.00     0.042 C 
BRANCH  37  38
ATOM     38  C   UNL     1      -4.500  -8.277   3.150  1.00  0.00     0.118 C 
BRANCH  38  39
ATOM     39  N   UNL     1      -3.569  -9.388   2.966  1.00  0.00    -0.352 N 
ATOM     40  C   UNL     1      -3.381 -10.506   3.766  1.00  0.00     0.251 C 
ATOM     41  H   UNL     1      -2.998  -9.337   2.165  1.00  0.00     0.163 HD
ATOM     42  O   UNL     1      -2.497 -11.313   3.524  1.00  0.00    -0.269 OA
BRANCH  40  43
ATOM     43  C   UNL     1      -4.346 -10.764   4.861  1.00  0.00     0.039 A 
ATOM     44  C   UNL     1      -4.998 -12.003   4.880  1.00  0.00     0.014 A 
ATOM     45  C   UNL     1      -4.779  -9.725   5.676  1.00  0.00     0.014 A 
ATOM     46  C   UNL     1      -6.223 -12.116   5.533  1.00  0.00     0.010 A 
ATOM     47  C   UNL     1      -6.050  -9.796   6.208  1.00  0.00     0.010 A 
ATOM     48  C   UNL     1      -6.795 -10.974   6.093  1.00  0.00    -0.014 A 
BRANCH  48  49
ATOM     49  C   UNL     1      -8.208 -10.874   6.442  1.00  0.00     0.031 A 
ATOM     50  C   UNL     1      -8.636 -10.704   7.846  1.00  0.00     0.074 A 
ATOM     51  C   UNL     1      -9.137 -10.832   5.462  1.00  0.00     0.049 A 
ATOM     52  N   UNL     1      -9.796 -11.044   8.296  1.00  0.00    -0.248 NA
ATOM     53  C   UNL     1      -7.761 -10.161   8.877  1.00  0.00     0.031 C 
ATOM     54  C   UNL     1     -10.538 -10.439   5.588  1.00  0.00     0.029 A 
ATOM     55  N   UNL     1      -9.039 -11.366   4.177  1.00  0.00    -0.354 N 
ATOM     56  C   UNL     1      -9.939 -10.483   9.544  1.00  0.00     0.074 A 
ATOM     57  C   UNL     1      -8.617 -10.016   9.892  1.00  0.00     0.031 C 
ATOM     58  C   UNL     1     -11.229 -10.963   4.565  1.00  0.00     0.029 A 
ATOM     59  C   UNL     1     -10.322 -11.822   3.826  1.00  0.00     0.049 A 
ATOM     60  H   UNL     1      -8.227 -11.414   3.622  1.00  0.00     0.167 HD
ATOM     61  C   UNL     1     -11.186 -10.337  10.078  1.00  0.00     0.034 A 
ATOM     62  C   UNL     1     -10.548 -13.136   3.540  1.00  0.00     0.034 A 
ATOM     63  C   UNL     1     -12.220 -10.892   9.200  1.00  0.00     0.049 A 
ATOM     64  C   UNL     1     -11.547 -13.797   4.462  1.00  0.00     0.074 A 
ATOM     65  C   UNL     1     -13.152 -10.312   8.353  1.00  0.00     0.029 A 
ATOM     66  N   UNL     1     -12.227 -12.252   8.907  1.00  0.00    -0.354 N 
ATOM     67  N   UNL     1     -11.939 -13.308   5.606  1.00  0.00    -0.248 NA
ATOM     68  C   UNL     1     -12.167 -15.082   4.168  1.00  0.00     0.031 C 
ATOM     69  C   UNL     1     -13.712 -11.334   7.543  1.00  0.00     0.029 A 
ATOM     70  C   UNL     1     -13.135 -12.539   7.905  1.00  0.00     0.049 A 
ATOM     71  H   UNL     1     -11.660 -12.922   9.354  1.00  0.00     0.167 HD
ATOM     72  C   UNL     1     -12.816 -14.178   6.213  1.00  0.00     0.074 A 
ATOM     73  C   UNL     1     -12.934 -15.266   5.256  1.00  0.00     0.031 C 
ATOM     74  C   UNL     1     -13.346 -13.912   7.451  1.00  0.00     0.034 A 
BRANCH  61  75
ATOM     75  C   UNL     1     -11.501  -9.413  11.239  1.00  0.00     0.023 A 
ATOM     76  C   UNL     1     -12.780  -8.824  11.328  1.00  0.00     0.031 A 
ATOM     77  C   UNL     1     -10.601  -9.034  12.254  1.00  0.00     0.131 A 
ATOM     78  C   UNL     1     -13.075  -7.833  12.283  1.00  0.00     0.055 A 
ATOM     79  C   UNL     1     -10.868  -8.001  13.165  1.00  0.00     0.041 A 
ATOM     80  F   UNL     1      -9.448  -9.686  12.453  1.00  0.00    -0.206 F 
ATOM     81  C   UNL     1     -12.107  -7.381  13.172  1.00  0.00     0.022 A 
BRANCH  78  82
ATOM     82  S   UNL     1     -14.754  -7.150  12.356  1.00  0.00     0.124 S 
ATOM     83  O   UNL     1     -14.915  -6.576  11.025  1.00  0.00    -0.237 OA
ATOM     84  O   UNL     1     -15.555  -8.333  12.653  1.00  0.00    -0.237 OA
ATOM     85  O   UNL     1     -14.675  -6.174  13.444  1.00  0.00    -0.744 OA
ENDBRANCH  78  82
ENDBRANCH  61  75
BRANCH  62  86
ATOM     86  C   UNL     1      -9.384 -13.804   2.893  1.00  0.00     0.023 A 
ATOM     87  C   UNL     1      -8.954 -13.296   1.648  1.00  0.00     0.031 A 
ATOM     88  C   UNL     1      -8.492 -14.603   3.620  1.00  0.00     0.131 A 
ATOM     89  C   UNL     1      -7.625 -13.465   1.234  1.00  0.00     0.055 A 
ATOM     90  C   UNL     1      -7.179 -14.812   3.178  1.00  0.00     0.041 A 
ATOM     91  F   UNL     1      -8.830 -15.082   4.826  1.00  0.00    -0.206 F 
ATOM     92  C   UNL     1      -6.728 -14.209   2.002  1.00  0.00     0.022 A 
BRANCH  89  93
ATOM     93  S   UNL     1      -7.027 -12.495  -0.183  1.00  0.00     0.124 S 
ATOM     94  O   UNL     1      -7.481 -13.295  -1.315  1.00  0.00    -0.237 OA
ATOM     95  O   UNL     1      -7.700 -11.211   0.000  1.00  0.00    -0.237 OA
ATOM     96  O   UNL     1      -5.580 -12.450   0.015  1.00  0.00    -0.744 OA
ENDBRANCH  89  93
ENDBRANCH  62  86
BRANCH  74  97
ATOM     97  C   UNL     1     -14.176 -14.846   8.327  1.00  0.00     0.023 A 
ATOM     98  C   UNL     1     -14.540 -16.152   7.971  1.00  0.00     0.031 A 
ATOM     99  C   UNL     1     -14.622 -14.440   9.615  1.00  0.00     0.131 A 
ATOM    100  C   UNL     1     -15.325 -16.965   8.816  1.00  0.00     0.055 A 
ATOM    101  C   UNL     1     -15.368 -15.260  10.472  1.00  0.00     0.041 A 
ATOM    102  F   UNL     1     -14.343 -13.230  10.119  1.00  0.00    -0.206 F 
ATOM    103  C   UNL     1     -15.734 -16.531  10.071  1.00  0.00     0.022 A 
BRANCH 100 104
ATOM    104  S   UNL     1     -15.827 -18.598   8.210  1.00  0.00     0.124 S 
ATOM    105  O   UNL     1     -16.604 -18.256   7.021  1.00  0.00    -0.237 OA
ATOM    106  O   UNL     1     -14.543 -19.244   7.960  1.00  0.00    -0.237 OA
ATOM    107  O   UNL     1     -16.599 -19.157   9.317  1.00  0.00    -0.744 OA
ENDBRANCH 100 104
ENDBRANCH  74  97
ENDBRANCH  48  49
ENDBRANCH  40  43
ENDBRANCH  38  39
ENDBRANCH  37  38
ENDBRANCH   1  37
TORSDOF 20
