REMARK SMILES O=C(CC1(NS(=O)(=O)C[C@H]2CCCO2)CCC1)NCCCNC(=O)c1ccc(-c2c3nc(c(-c4cc(S(=O)(=O)[O-])ccc4F)c4ccc([nH]4)c(-c4cc(S(=O)(=O)[O-])ccc4F)c4nc(c(-c5cc(S(=O)(=O)[O-])ccc5F)c5ccc2[nH]5)C=C4)C=C3)cc1
REMARK SMILES IDX 19 1 18 2 1 3 2 4 3 6 4 7 15 8 17 9 16 10 5 11 6 13 7 14
REMARK SMILES IDX 8 15 9 16 10 17 11 18 14 19 12 20 13 21 20 22 21 23 22 24
REMARK SMILES IDX 23 25 24 27 25 28 26 29 87 30 27 31 86 32 28 33 29 34 30 35
REMARK SMILES IDX 80 36 31 37 85 38 79 39 81 40 32 41 84 42 78 43 77 44 33 46
REMARK SMILES IDX 65 47 45 48 64 49 46 50 49 51 63 52 82 53 47 54 48 55 62 57
REMARK SMILES IDX 83 58 50 59 34 60 35 61 43 62 36 63 42 64 44 65 41 66 37 67
REMARK SMILES IDX 38 68 39 69 40 70 66 71 67 72 75 73 68 74 74 75 76 76 73 77
REMARK SMILES IDX 69 78 70 79 71 80 72 81 51 82 52 83 60 84 53 85 59 86 61 87
REMARK SMILES IDX 58 88 54 89 55 90 56 91 57 92
REMARK H PARENT 18 5 5 12 22 26 81 45 49 56
REMARK Flexibility Score: inf
ROOT
ATOM      1  C   UNL     1       7.321  -2.779   0.254  1.00  0.00     0.117 C 
ENDROOT
BRANCH   1   2
ATOM      2  N   UNL     1       6.386  -3.572  -0.506  1.00  0.00    -0.356 N 
ATOM      3  O   UNL     1       5.068  -1.842  -1.252  1.00  0.00    -0.275 OA
ATOM      4  C   UNL     1       5.305  -3.039  -1.161  1.00  0.00     0.221 C 
ATOM      5  H   UNL     1       6.531  -4.544  -0.558  1.00  0.00     0.163 HD
BRANCH   4   6
ATOM      6  C   UNL     1       4.395  -4.102  -1.704  1.00  0.00     0.123 C 
BRANCH   6   7
ATOM      7  C   UNL     1       4.757  -4.679  -3.073  1.00  0.00     0.042 C 
ATOM      8  C   UNL     1       6.248  -4.702  -3.556  1.00  0.00     0.024 C 
ATOM      9  C   UNL     1       4.872  -6.241  -2.960  1.00  0.00     0.024 C 
ATOM     10  C   UNL     1       6.122  -6.202  -3.843  1.00  0.00     0.004 C 
BRANCH   7  11
ATOM     11  N   UNL     1       3.740  -4.233  -4.105  1.00  0.00    -0.208 NA
ATOM     12  H   UNL     1       2.836  -4.488  -3.707  1.00  0.00     0.141 HD
BRANCH  11  13
ATOM     13  S   UNL     1       3.517  -2.692  -4.719  1.00  0.00     0.214 S 
ATOM     14  O   UNL     1       4.808  -2.036  -4.706  1.00  0.00    -0.212 OA
ATOM     15  O   UNL     1       2.833  -2.891  -5.979  1.00  0.00    -0.212 OA
BRANCH  13  16
ATOM     16  C   UNL     1       2.421  -1.832  -3.605  1.00  0.00     0.185 C 
BRANCH  16  17
ATOM     17  C   UNL     1       1.097  -2.464  -3.183  1.00  0.00     0.134 C 
ATOM     18  C   UNL     1       0.363  -3.451  -4.073  1.00  0.00     0.035 C 
ATOM     19  O   UNL     1       1.224  -3.093  -1.890  1.00  0.00    -0.377 OA
ATOM     20  C   UNL     1       0.567  -4.784  -3.396  1.00  0.00     0.031 C 
ATOM     21  C   UNL     1       0.661  -4.407  -1.938  1.00  0.00     0.160 C 
ENDBRANCH  16  17
ENDBRANCH  13  16
ENDBRANCH  11  13
ENDBRANCH   7  11
ENDBRANCH   6   7
ENDBRANCH   4   6
ENDBRANCH   1   2
BRANCH   1  22
ATOM     22  C   UNL     1       7.248  -3.139   1.731  1.00  0.00     0.042 C 
BRANCH  22  23
ATOM     23  C   UNL     1       7.366  -4.635   2.016  1.00  0.00     0.118 C 
BRANCH  23  24
ATOM     24  N   UNL     1       8.558  -5.233   1.433  1.00  0.00    -0.352 N 
ATOM     25  C   UNL     1       9.534  -5.994   2.027  1.00  0.00     0.251 C 
ATOM     26  H   UNL     1       8.683  -5.068   0.470  1.00  0.00     0.163 HD
ATOM     27  O   UNL     1      10.557  -6.255   1.401  1.00  0.00    -0.269 OA
BRANCH  25  28
ATOM     28  C   UNL     1       9.362  -6.463   3.417  1.00  0.00     0.039 A 
ATOM     29  C   UNL     1      10.445  -6.373   4.292  1.00  0.00     0.014 A 
ATOM     30  C   UNL     1       8.141  -6.983   3.858  1.00  0.00     0.014 A 
ATOM     31  C   UNL     1      10.286  -6.755   5.623  1.00  0.00     0.010 A 
ATOM     32  C   UNL     1       7.960  -7.276   5.207  1.00  0.00     0.010 A 
ATOM     33  C   UNL     1       9.033  -7.175   6.104  1.00  0.00    -0.014 A 
BRANCH  33  34
ATOM     34  C   UNL     1       8.852  -7.505   7.542  1.00  0.00     0.031 A 
ATOM     35  C   UNL     1       8.471  -8.898   7.967  1.00  0.00     0.074 A 
ATOM     36  C   UNL     1       9.023  -6.537   8.465  1.00  0.00     0.049 A 
ATOM     37  N   UNL     1       8.314  -9.380   9.174  1.00  0.00    -0.248 NA
ATOM     38  C   UNL     1       8.203  -9.870   6.896  1.00  0.00     0.031 C 
ATOM     39  C   UNL     1       9.332  -5.136   8.169  1.00  0.00     0.029 A 
ATOM     40  N   UNL     1       8.976  -6.582   9.835  1.00  0.00    -0.354 N 
ATOM     41  C   UNL     1       7.932 -10.707   9.008  1.00  0.00     0.074 A 
ATOM     42  C   UNL     1       7.803 -10.929   7.584  1.00  0.00     0.031 C 
ATOM     43  C   UNL     1       9.502  -4.470   9.322  1.00  0.00     0.029 A 
ATOM     44  C   UNL     1       9.268  -5.379  10.438  1.00  0.00     0.049 A 
ATOM     45  H   UNL     1       8.754  -7.397  10.341  1.00  0.00     0.167 HD
ATOM     46  C   UNL     1       7.735 -11.659   9.953  1.00  0.00     0.034 A 
ATOM     47  C   UNL     1       9.345  -5.048  11.742  1.00  0.00     0.034 A 
ATOM     48  C   UNL     1       7.868 -11.418  11.371  1.00  0.00     0.049 A 
ATOM     49  C   UNL     1       9.111  -6.122  12.774  1.00  0.00     0.074 A 
ATOM     50  C   UNL     1       7.737 -12.317  12.415  1.00  0.00     0.029 A 
ATOM     51  N   UNL     1       8.152 -10.185  11.947  1.00  0.00    -0.354 N 
ATOM     52  N   UNL     1       8.816  -7.390  12.598  1.00  0.00    -0.248 NA
ATOM     53  C   UNL     1       9.243  -5.722  14.179  1.00  0.00     0.031 C 
ATOM     54  C   UNL     1       7.861 -11.615  13.619  1.00  0.00     0.029 A 
ATOM     55  C   UNL     1       8.167 -10.295  13.330  1.00  0.00     0.049 A 
ATOM     56  H   UNL     1       8.319  -9.354  11.445  1.00  0.00     0.167 HD
ATOM     57  C   UNL     1       8.759  -7.945  13.874  1.00  0.00     0.074 A 
ATOM     58  C   UNL     1       9.081  -6.879  14.801  1.00  0.00     0.031 C 
ATOM     59  C   UNL     1       8.468  -9.219  14.247  1.00  0.00     0.034 A 
BRANCH  46  60
ATOM     60  C   UNL     1       7.333 -13.039   9.480  1.00  0.00     0.023 A 
ATOM     61  C   UNL     1       8.162 -13.806   8.642  1.00  0.00     0.031 A 
ATOM     62  C   UNL     1       6.093 -13.588   9.853  1.00  0.00     0.131 A 
ATOM     63  C   UNL     1       7.712 -15.037   8.143  1.00  0.00     0.055 A 
ATOM     64  C   UNL     1       5.689 -14.855   9.426  1.00  0.00     0.041 A 
ATOM     65  F   UNL     1       5.245 -12.897  10.631  1.00  0.00    -0.206 F 
ATOM     66  C   UNL     1       6.493 -15.581   8.553  1.00  0.00     0.022 A 
BRANCH  63  67
ATOM     67  S   UNL     1       8.671 -15.844   6.831  1.00  0.00     0.124 S 
ATOM     68  O   UNL     1       8.677 -14.814   5.795  1.00  0.00    -0.237 OA
ATOM     69  O   UNL     1       9.948 -16.102   7.486  1.00  0.00    -0.237 OA
ATOM     70  O   UNL     1       7.881 -17.032   6.511  1.00  0.00    -0.744 OA
ENDBRANCH  63  67
ENDBRANCH  46  60
BRANCH  47  71
ATOM     71  C   UNL     1       9.661  -3.648  12.152  1.00  0.00     0.023 A 
ATOM     72  C   UNL     1      10.820  -3.349  12.886  1.00  0.00     0.031 A 
ATOM     73  C   UNL     1       8.780  -2.592  11.857  1.00  0.00     0.131 A 
ATOM     74  C   UNL     1      11.039  -2.042  13.348  1.00  0.00     0.055 A 
ATOM     75  C   UNL     1       9.034  -1.282  12.264  1.00  0.00     0.041 A 
ATOM     76  F   UNL     1       7.658  -2.820  11.155  1.00  0.00    -0.206 F 
ATOM     77  C   UNL     1      10.162  -1.003  13.029  1.00  0.00     0.022 A 
BRANCH  74  78
ATOM     78  S   UNL     1      12.438  -1.737  14.463  1.00  0.00     0.124 S 
ATOM     79  O   UNL     1      12.154  -2.660  15.555  1.00  0.00    -0.237 OA
ATOM     80  O   UNL     1      13.578  -2.075  13.617  1.00  0.00    -0.237 OA
ATOM     81  O   UNL     1      12.307  -0.319  14.792  1.00  0.00    -0.744 OA
ENDBRANCH  74  78
ENDBRANCH  47  71
BRANCH  59  82
ATOM     82  C   UNL     1       8.530  -9.526  15.726  1.00  0.00     0.023 A 
ATOM     83  C   UNL     1       7.682  -8.889  16.651  1.00  0.00     0.031 A 
ATOM     84  C   UNL     1       9.488 -10.427  16.226  1.00  0.00     0.131 A 
ATOM     85  C   UNL     1       7.872  -9.088  18.026  1.00  0.00     0.055 A 
ATOM     86  C   UNL     1       9.615 -10.685  17.591  1.00  0.00     0.041 A 
ATOM     87  F   UNL     1      10.328 -11.064  15.394  1.00  0.00    -0.206 F 
ATOM     88  C   UNL     1       8.820  -9.996  18.502  1.00  0.00     0.022 A 
BRANCH  85  89
ATOM     89  S   UNL     1       6.970  -8.024  19.187  1.00  0.00     0.124 S 
ATOM     90  O   UNL     1       7.341  -6.691  18.726  1.00  0.00    -0.237 OA
ATOM     91  O   UNL     1       5.584  -8.416  18.955  1.00  0.00    -0.237 OA
ATOM     92  O   UNL     1       7.512  -8.403  20.491  1.00  0.00    -0.744 OA
ENDBRANCH  85  89
ENDBRANCH  59  82
ENDBRANCH  33  34
ENDBRANCH  25  28
ENDBRANCH  23  24
ENDBRANCH  22  23
ENDBRANCH   1  22
TORSDOF 18
