REMARK SMILES C[NH2+][C@]1(C(=O)NCCCNC(=O)c2ccc(-c3c4nc(c(-c5cc(S(=O)(=O)[O-])ccc5F)c5ccc([nH]5)c(-c5cc(S(=O)(=O)[O-])ccc5F)c5nc(c(-c6cc(S(=O)(=O)[O-])ccc6F)c6ccc3[nH]6)C=C5)C=C4)cc2)CCC[C@@H]1CCOC[C@@H]1CCCO1
REMARK SMILES IDX 7 1 6 2 4 3 5 4 3 6 76 7 79 8 77 9 78 10 2 11 1 12 80 15
REMARK SMILES IDX 81 16 82 17 83 18 84 19 85 20 88 21 86 22 87 23 8 24 9 25
REMARK SMILES IDX 10 26 11 27 12 29 13 30 14 31 75 32 15 33 74 34 16 35 17 36
REMARK SMILES IDX 18 37 68 38 19 39 73 40 67 41 69 42 20 43 72 44 66 45 65 46
REMARK SMILES IDX 21 48 53 49 33 50 52 51 34 52 37 53 51 54 70 55 35 56 36 57
REMARK SMILES IDX 50 59 71 60 38 61 22 62 23 63 31 64 24 65 30 66 32 67 29 68
REMARK SMILES IDX 25 69 26 70 27 71 28 72 54 73 55 74 63 75 56 76 62 77 64 78
REMARK SMILES IDX 61 79 57 80 58 81 59 82 60 83 39 84 40 85 48 86 41 87 47 88
REMARK SMILES IDX 49 89 46 90 42 91 43 92 44 93 45 94
REMARK H PARENT 6 5 2 13 2 14 10 28 69 47 37 58
REMARK Flexibility Score: inf
ROOT
ATOM      1  C   UNL     1       0.566   0.956  -3.644  1.00  0.00     0.118 C 
ENDROOT
BRANCH   1   2
ATOM      2  N   UNL     1       1.160   0.806  -2.327  1.00  0.00    -0.351 N 
ATOM      3  C   UNL     1       0.662   0.789  -1.063  1.00  0.00     0.281 C 
ATOM      4  O   UNL     1       1.488   0.510  -0.184  1.00  0.00    -0.268 OA
ATOM      5  H   UNL     1       2.138   0.690  -2.356  1.00  0.00     0.163 HD
BRANCH   3   6
ATOM      6  C   UNL     1      -0.847   0.998  -0.715  1.00  0.00     0.178 C 
ATOM      7  C   UNL     1      -1.542   2.213  -1.367  1.00  0.00     0.079 C 
ATOM      8  C   UNL     1      -1.685  -0.184  -1.293  1.00  0.00     0.063 C 
ATOM      9  C   UNL     1      -3.010   1.816  -1.570  1.00  0.00     0.008 C 
ATOM     10  C   UNL     1      -3.123   0.343  -1.178  1.00  0.00     0.011 C 
BRANCH   6  11
ATOM     11  N   UNL     1      -1.061   1.030   0.769  1.00  0.00    -0.336 N 
ATOM     12  C   UNL     1      -0.386   2.111   1.480  1.00  0.00     0.331 C 
ATOM     13  H   UNL     1      -2.063   1.119   0.940  1.00  0.00     0.346 HD
ATOM     14  H   UNL     1      -0.658   0.164   1.128  1.00  0.00     0.346 HD
ENDBRANCH   6  11
BRANCH   8  15
ATOM     15  C   UNL     1      -1.445  -1.562  -0.648  1.00  0.00     0.039 C 
BRANCH  15  16
ATOM     16  C   UNL     1      -1.867  -2.777  -1.488  1.00  0.00     0.161 C 
BRANCH  16  17
ATOM     17  O   UNL     1      -0.890  -3.244  -2.406  1.00  0.00    -0.379 OA
BRANCH  17  18
ATOM     18  C   UNL     1      -0.697  -2.594  -3.659  1.00  0.00     0.192 C 
BRANCH  18  19
ATOM     19  C   UNL     1      -1.868  -2.552  -4.658  1.00  0.00     0.144 C 
ATOM     20  C   UNL     1      -2.895  -1.456  -4.435  1.00  0.00     0.037 C 
ATOM     21  O   UNL     1      -2.580  -3.800  -4.699  1.00  0.00    -0.376 OA
ATOM     22  C   UNL     1      -4.177  -2.068  -4.928  1.00  0.00     0.031 C 
ATOM     23  C   UNL     1      -3.981  -3.530  -4.595  1.00  0.00     0.160 C 
ENDBRANCH  18  19
ENDBRANCH  17  18
ENDBRANCH  16  17
ENDBRANCH  15  16
ENDBRANCH   8  15
ENDBRANCH   3   6
ENDBRANCH   1   2
BRANCH   1  24
ATOM     24  C   UNL     1       1.000   2.230  -4.346  1.00  0.00     0.042 C 
BRANCH  24  25
ATOM     25  C   UNL     1       2.500   2.305  -4.596  1.00  0.00     0.118 C 
BRANCH  25  26
ATOM     26  N   UNL     1       2.987   1.232  -5.455  1.00  0.00    -0.352 N 
ATOM     27  C   UNL     1       3.552   1.285  -6.708  1.00  0.00     0.251 C 
ATOM     28  H   UNL     1       2.897   0.327  -5.078  1.00  0.00     0.163 HD
ATOM     29  O   UNL     1       3.707   0.248  -7.340  1.00  0.00    -0.269 OA
BRANCH  27  30
ATOM     30  C   UNL     1       3.938   2.588  -7.293  1.00  0.00     0.039 A 
ATOM     31  C   UNL     1       3.688   2.827  -8.646  1.00  0.00     0.014 A 
ATOM     32  C   UNL     1       4.543   3.573  -6.510  1.00  0.00     0.014 A 
ATOM     33  C   UNL     1       3.969   4.083  -9.189  1.00  0.00     0.010 A 
ATOM     34  C   UNL     1       4.721   4.853  -7.022  1.00  0.00     0.010 A 
ATOM     35  C   UNL     1       4.444   5.122  -8.370  1.00  0.00    -0.014 A 
BRANCH  35  36
ATOM     36  C   UNL     1       4.674   6.490  -8.903  1.00  0.00     0.031 A 
ATOM     37  C   UNL     1       6.054   7.091  -8.857  1.00  0.00     0.074 A 
ATOM     38  C   UNL     1       3.633   7.213  -9.363  1.00  0.00     0.049 A 
ATOM     39  N   UNL     1       6.444   8.295  -9.189  1.00  0.00    -0.248 NA
ATOM     40  C   UNL     1       7.130   6.235  -8.334  1.00  0.00     0.031 C 
ATOM     41  C   UNL     1       2.244   6.753  -9.420  1.00  0.00     0.029 A 
ATOM     42  N   UNL     1       3.578   8.489  -9.864  1.00  0.00    -0.354 N 
ATOM     43  C   UNL     1       7.804   8.345  -8.901  1.00  0.00     0.074 A 
ATOM     44  C   UNL     1       8.152   7.075  -8.300  1.00  0.00     0.031 C 
ATOM     45  C   UNL     1       1.482   7.718  -9.959  1.00  0.00     0.029 A 
ATOM     46  C   UNL     1       2.312   8.886 -10.233  1.00  0.00     0.049 A 
ATOM     47  H   UNL     1       4.370   9.068  -9.952  1.00  0.00     0.167 HD
ATOM     48  C   UNL     1       8.686   9.347  -9.139  1.00  0.00     0.034 A 
ATOM     49  C   UNL     1       1.869  10.061 -10.723  1.00  0.00     0.034 A 
ATOM     50  C   UNL     1       8.322  10.601  -9.751  1.00  0.00     0.049 A 
ATOM     51  C   UNL     1       2.863  11.174 -10.947  1.00  0.00     0.074 A 
ATOM     52  C   UNL     1       9.142  11.663 -10.092  1.00  0.00     0.029 A 
ATOM     53  N   UNL     1       7.029  10.970 -10.104  1.00  0.00    -0.354 N 
ATOM     54  N   UNL     1       4.156  11.186 -10.720  1.00  0.00    -0.248 NA
ATOM     55  C   UNL     1       2.338  12.427 -11.504  1.00  0.00     0.031 C 
ATOM     56  C   UNL     1       8.337  12.701 -10.573  1.00  0.00     0.029 A 
ATOM     57  C   UNL     1       7.026  12.256 -10.622  1.00  0.00     0.049 A 
ATOM     58  H   UNL     1       6.233  10.401 -10.002  1.00  0.00     0.167 HD
ATOM     59  C   UNL     1       4.604  12.436 -11.140  1.00  0.00     0.074 A 
ATOM     60  C   UNL     1       3.444  13.141 -11.647  1.00  0.00     0.031 C 
ATOM     61  C   UNL     1       5.859  12.952 -11.116  1.00  0.00     0.034 A 
BRANCH  48  62
ATOM     62  C   UNL     1      10.119   9.130  -8.709  1.00  0.00     0.023 A 
ATOM     63  C   UNL     1      10.902   8.089  -9.238  1.00  0.00     0.031 A 
ATOM     64  C   UNL     1      10.703   9.958  -7.734  1.00  0.00     0.131 A 
ATOM     65  C   UNL     1      12.188   7.849  -8.730  1.00  0.00     0.055 A 
ATOM     66  C   UNL     1      12.017   9.771  -7.298  1.00  0.00     0.041 A 
ATOM     67  F   UNL     1      10.001  10.955  -7.173  1.00  0.00    -0.206 F 
ATOM     68  C   UNL     1      12.762   8.700  -7.784  1.00  0.00     0.022 A 
BRANCH  65  69
ATOM     69  S   UNL     1      13.032   6.315  -9.204  1.00  0.00     0.124 S 
ATOM     70  O   UNL     1      12.074   5.304  -8.764  1.00  0.00    -0.237 OA
ATOM     71  O   UNL     1      13.182   6.470 -10.646  1.00  0.00    -0.237 OA
ATOM     72  O   UNL     1      14.276   6.358  -8.438  1.00  0.00    -0.744 OA
ENDBRANCH  65  69
ENDBRANCH  48  62
BRANCH  49  73
ATOM     73  C   UNL     1       0.422  10.257 -11.030  1.00  0.00     0.023 A 
ATOM     74  C   UNL     1      -0.011  10.509 -12.342  1.00  0.00     0.031 A 
ATOM     75  C   UNL     1      -0.546  10.241 -10.010  1.00  0.00     0.131 A 
ATOM     76  C   UNL     1      -1.364  10.785 -12.592  1.00  0.00     0.055 A 
ATOM     77  C   UNL     1      -1.900  10.456 -10.273  1.00  0.00     0.041 A 
ATOM     78  F   UNL     1      -0.189  10.002  -8.738  1.00  0.00    -0.206 F 
ATOM     79  C   UNL     1      -2.314  10.745 -11.569  1.00  0.00     0.022 A 
BRANCH  76  80
ATOM     80  S   UNL     1      -1.852  11.293 -14.264  1.00  0.00     0.124 S 
ATOM     81  O   UNL     1      -1.020  12.473 -14.468  1.00  0.00    -0.237 OA
ATOM     82  O   UNL     1      -1.503  10.116 -15.052  1.00  0.00    -0.237 OA
ATOM     83  O   UNL     1      -3.284  11.553 -14.135  1.00  0.00    -0.744 OA
ENDBRANCH  76  80
ENDBRANCH  49  73
BRANCH  61  84
ATOM     84  C   UNL     1       6.049  14.331 -11.704  1.00  0.00     0.023 A 
ATOM     85  C   UNL     1       5.464  15.472 -11.129  1.00  0.00     0.031 A 
ATOM     86  C   UNL     1       6.824  14.500 -12.866  1.00  0.00     0.131 A 
ATOM     87  C   UNL     1       5.613  16.722 -11.749  1.00  0.00     0.055 A 
ATOM     88  C   UNL     1       7.027  15.756 -13.438  1.00  0.00     0.041 A 
ATOM     89  F   UNL     1       7.403  13.445 -13.462  1.00  0.00    -0.206 F 
ATOM     90  C   UNL     1       6.408  16.874 -12.888  1.00  0.00     0.022 A 
BRANCH  87  91
ATOM     91  S   UNL     1       4.669  18.131 -11.107  1.00  0.00     0.124 S 
ATOM     92  O   UNL     1       3.296  17.647 -11.210  1.00  0.00    -0.237 OA
ATOM     93  O   UNL     1       5.196  18.269  -9.754  1.00  0.00    -0.237 OA
ATOM     94  O   UNL     1       5.013  19.219 -12.020  1.00  0.00    -0.744 OA
ENDBRANCH  87  91
ENDBRANCH  61  84
ENDBRANCH  35  36
ENDBRANCH  27  30
ENDBRANCH  25  26
ENDBRANCH  24  25
ENDBRANCH   1  24
TORSDOF 19
