REMARK SMILES CCC[C@H](c1ccccc1)[C@@](C)(O)C(=O)NCCCNC(=O)c1ccc(-c2c3nc(c(-c4cc(S(=O)(=O)[O-])ccc4F)c4ccc([nH]4)c(-c4cc(S(=O)(=O)[O-])ccc4F)c4nc(c(-c5cc(S(=O)(=O)[O-])ccc5F)c5ccc2[nH]5)C=C4)C=C3)cc1
REMARK SMILES IDX 18 1 17 2 16 3 14 4 15 5 11 7 12 8 4 9 3 10 2 11 1 12 5 13
REMARK SMILES IDX 6 14 10 15 7 16 9 17 8 18 13 19 19 21 20 22 21 23 22 25
REMARK SMILES IDX 23 26 24 27 85 28 25 29 84 30 26 31 27 32 28 33 78 34 29 35
REMARK SMILES IDX 83 36 77 37 79 38 30 39 82 40 76 41 75 42 31 44 63 45 43 46
REMARK SMILES IDX 62 47 44 48 47 49 61 50 80 51 45 52 46 53 60 55 81 56 48 57
REMARK SMILES IDX 32 58 33 59 41 60 34 61 40 62 42 63 39 64 35 65 36 66 37 67
REMARK SMILES IDX 38 68 64 69 65 70 73 71 66 72 72 73 74 74 71 75 67 76 68 77
REMARK SMILES IDX 69 78 70 79 49 80 50 81 58 82 51 83 57 84 59 85 56 86 52 87
REMARK SMILES IDX 53 88 54 89 55 90
REMARK H PARENT 16 6 13 20 20 24 79 43 47 54
REMARK Flexibility Score: inf
ROOT
ATOM      1  C   UNL     1       0.872   3.966   7.370  1.00  0.00     0.042 C 
ENDROOT
BRANCH   1   2
ATOM      2  C   UNL     1       1.715   3.019   6.533  1.00  0.00     0.117 C 
BRANCH   2   3
ATOM      3  N   UNL     1       1.009   1.793   6.216  1.00  0.00    -0.354 N 
ATOM      4  C   UNL     1       0.590   1.301   5.014  1.00  0.00     0.252 C 
ATOM      5  O   UNL     1      -0.186   0.344   5.069  1.00  0.00    -0.272 OA
ATOM      6  H   UNL     1       0.797   1.225   6.991  1.00  0.00     0.163 HD
BRANCH   4   7
ATOM      7  C   UNL     1       1.086   1.928   3.676  1.00  0.00     0.147 C 
ATOM      8  C   UNL     1       2.626   1.932   3.614  1.00  0.00     0.053 C 
BRANCH   7   9
ATOM      9  C   UNL     1       0.469   1.182   2.420  1.00  0.00     0.060 C 
BRANCH   9  10
ATOM     10  C   UNL     1      -1.073   1.426   2.313  1.00  0.00     0.011 C 
BRANCH  10  11
ATOM     11  C   UNL     1      -1.522   2.047   0.984  1.00  0.00    -0.003 C 
ATOM     12  C   UNL     1      -1.207   1.195  -0.234  1.00  0.00     0.004 C 
ENDBRANCH  10  11
ENDBRANCH   9  10
BRANCH   9  13
ATOM     13  C   UNL     1       0.928  -0.280   2.276  1.00  0.00    -0.042 A 
ATOM     14  C   UNL     1       0.144  -1.375   2.672  1.00  0.00     0.004 A 
ATOM     15  C   UNL     1       2.228  -0.559   1.813  1.00  0.00     0.004 A 
ATOM     16  C   UNL     1       0.650  -2.679   2.657  1.00  0.00     0.000 A 
ATOM     17  C   UNL     1       2.751  -1.855   1.839  1.00  0.00     0.000 A 
ATOM     18  C   UNL     1       1.962  -2.917   2.266  1.00  0.00     0.000 A 
ENDBRANCH   9  13
ENDBRANCH   7   9
BRANCH   7  19
ATOM     19  O   UNL     1       0.680   3.311   3.628  1.00  0.00    -0.380 OA
ATOM     20  H   UNL     1       0.985   3.709   2.797  1.00  0.00     0.212 HD
ENDBRANCH   7  19
ENDBRANCH   4   7
ENDBRANCH   2   3
ENDBRANCH   1   2
BRANCH   1  21
ATOM     21  C   UNL     1       0.412   3.385   8.699  1.00  0.00     0.118 C 
BRANCH  21  22
ATOM     22  N   UNL     1       1.520   2.965   9.546  1.00  0.00    -0.352 N 
ATOM     23  C   UNL     1       1.931   3.432  10.769  1.00  0.00     0.251 C 
ATOM     24  H   UNL     1       2.060   2.226   9.183  1.00  0.00     0.163 HD
ATOM     25  O   UNL     1       3.017   3.064  11.216  1.00  0.00    -0.269 OA
BRANCH  23  26
ATOM     26  C   UNL     1       1.099   4.391  11.527  1.00  0.00     0.039 A 
ATOM     27  C   UNL     1       1.729   5.434  12.211  1.00  0.00     0.014 A 
ATOM     28  C   UNL     1      -0.292   4.271  11.571  1.00  0.00     0.014 A 
ATOM     29  C   UNL     1       0.958   6.393  12.870  1.00  0.00     0.010 A 
ATOM     30  C   UNL     1      -1.061   5.285  12.134  1.00  0.00     0.010 A 
ATOM     31  C   UNL     1      -0.445   6.356  12.795  1.00  0.00    -0.014 A 
BRANCH  31  32
ATOM     32  C   UNL     1      -1.266   7.445  13.387  1.00  0.00     0.031 A 
ATOM     33  C   UNL     1      -2.259   7.152  14.478  1.00  0.00     0.074 A 
ATOM     34  C   UNL     1      -1.149   8.695  12.898  1.00  0.00     0.049 A 
ATOM     35  N   UNL     1      -3.060   7.972  15.110  1.00  0.00    -0.248 NA
ATOM     36  C   UNL     1      -2.397   5.747  14.886  1.00  0.00     0.031 C 
ATOM     37  C   UNL     1      -0.278   9.086  11.786  1.00  0.00     0.029 A 
ATOM     38  N   UNL     1      -1.763   9.866  13.264  1.00  0.00    -0.354 N 
ATOM     39  C   UNL     1      -3.805   7.182  15.979  1.00  0.00     0.074 A 
ATOM     40  C   UNL     1      -3.409   5.811  15.736  1.00  0.00     0.031 C 
ATOM     41  C   UNL     1      -0.386  10.408  11.587  1.00  0.00     0.029 A 
ATOM     42  C   UNL     1      -1.367  10.952  12.518  1.00  0.00     0.049 A 
ATOM     43  H   UNL     1      -2.424   9.923  13.991  1.00  0.00     0.167 HD
ATOM     44  C   UNL     1      -4.715   7.568  16.910  1.00  0.00     0.034 A 
ATOM     45  C   UNL     1      -1.757  12.241  12.568  1.00  0.00     0.034 A 
ATOM     46  C   UNL     1      -5.093   8.944  17.131  1.00  0.00     0.049 A 
ATOM     47  C   UNL     1      -2.765  12.651  13.608  1.00  0.00     0.074 A 
ATOM     48  C   UNL     1      -5.939   9.461  18.098  1.00  0.00     0.029 A 
ATOM     49  N   UNL     1      -4.671  10.022  16.361  1.00  0.00    -0.354 N 
ATOM     50  N   UNL     1      -3.390  11.907  14.492  1.00  0.00    -0.248 NA
ATOM     51  C   UNL     1      -3.105  14.076  13.666  1.00  0.00     0.031 C 
ATOM     52  C   UNL     1      -6.098  10.831  17.855  1.00  0.00     0.029 A 
ATOM     53  C   UNL     1      -5.278  11.192  16.797  1.00  0.00     0.049 A 
ATOM     54  H   UNL     1      -4.034   9.964  15.613  1.00  0.00     0.167 HD
ATOM     55  C   UNL     1      -4.192  12.779  15.222  1.00  0.00     0.074 A 
ATOM     56  C   UNL     1      -3.942  14.106  14.693  1.00  0.00     0.031 C 
ATOM     57  C   UNL     1      -5.056  12.508  16.236  1.00  0.00     0.034 A 
BRANCH  44  58
ATOM     58  C   UNL     1      -5.383   6.477  17.720  1.00  0.00     0.023 A 
ATOM     59  C   UNL     1      -4.645   5.584  18.519  1.00  0.00     0.031 A 
ATOM     60  C   UNL     1      -6.776   6.290  17.650  1.00  0.00     0.131 A 
ATOM     61  C   UNL     1      -5.283   4.491  19.126  1.00  0.00     0.055 A 
ATOM     62  C   UNL     1      -7.418   5.257  18.338  1.00  0.00     0.041 A 
ATOM     63  F   UNL     1      -7.537   7.092  16.890  1.00  0.00    -0.206 F 
ATOM     64  C   UNL     1      -6.668   4.337  19.064  1.00  0.00     0.022 A 
BRANCH  61  65
ATOM     65  S   UNL     1      -4.254   3.173  19.832  1.00  0.00     0.124 S 
ATOM     66  O   UNL     1      -3.413   2.812  18.693  1.00  0.00    -0.237 OA
ATOM     67  O   UNL     1      -3.582   3.853  20.933  1.00  0.00    -0.237 OA
ATOM     68  O   UNL     1      -5.225   2.154  20.226  1.00  0.00    -0.744 OA
ENDBRANCH  61  65
ENDBRANCH  44  58
BRANCH  45  69
ATOM     69  C   UNL     1      -1.202  13.222  11.592  1.00  0.00     0.023 A 
ATOM     70  C   UNL     1      -0.371  14.276  12.001  1.00  0.00     0.031 A 
ATOM     71  C   UNL     1      -1.496  13.106  10.221  1.00  0.00     0.131 A 
ATOM     72  C   UNL     1       0.118  15.188  11.051  1.00  0.00     0.055 A 
ATOM     73  C   UNL     1      -0.968  13.985   9.275  1.00  0.00     0.041 A 
ATOM     74  F   UNL     1      -2.281  12.111   9.777  1.00  0.00    -0.206 F 
ATOM     75  C   UNL     1      -0.161  15.039   9.690  1.00  0.00     0.022 A 
BRANCH  72  76
ATOM     76  S   UNL     1       1.088  16.610  11.624  1.00  0.00     0.124 S 
ATOM     77  O   UNL     1       0.137  17.287  12.499  1.00  0.00    -0.237 OA
ATOM     78  O   UNL     1       2.217  15.962  12.283  1.00  0.00    -0.237 OA
ATOM     79  O   UNL     1       1.415  17.319  10.389  1.00  0.00    -0.744 OA
ENDBRANCH  72  76
ENDBRANCH  45  69
BRANCH  57  80
ATOM     80  C   UNL     1      -5.784  13.686  16.842  1.00  0.00     0.023 A 
ATOM     81  C   UNL     1      -6.675  14.470  16.086  1.00  0.00     0.031 A 
ATOM     82  C   UNL     1      -5.552  14.059  18.178  1.00  0.00     0.131 A 
ATOM     83  C   UNL     1      -7.235  15.629  16.644  1.00  0.00     0.055 A 
ATOM     84  C   UNL     1      -6.176  15.168  18.752  1.00  0.00     0.041 A 
ATOM     85  F   UNL     1      -4.707  13.355  18.948  1.00  0.00    -0.206 F 
ATOM     86  C   UNL     1      -7.008  15.972  17.979  1.00  0.00     0.022 A 
BRANCH  83  87
ATOM     87  S   UNL     1      -8.149  16.761  15.560  1.00  0.00     0.124 S 
ATOM     88  O   UNL     1      -7.161  17.049  14.525  1.00  0.00    -0.237 OA
ATOM     89  O   UNL     1      -9.287  15.946  15.147  1.00  0.00    -0.237 OA
ATOM     90  O   UNL     1      -8.475  17.885  16.435  1.00  0.00    -0.744 OA
ENDBRANCH  83  87
ENDBRANCH  57  80
ENDBRANCH  31  32
ENDBRANCH  23  26
ENDBRANCH  21  22
ENDBRANCH   1  21
TORSDOF 18
