REMARK SMILES CC[C@@H](Sc1cccc(N)c1)C(=O)NCCCNC(=O)c1ccc(-c2c3nc(c(-c4cc(S(=O)(=O)[O-])ccc4F)c4ccc([nH]4)c(-c4cc(S(=O)(=O)[O-])ccc4F)c4nc(c(-c5cc(S(=O)(=O)[O-])ccc5F)c5ccc2[nH]5)C=C4)C=C3)cc1
REMARK SMILES IDX 16 1 15 2 14 3 12 4 13 5 3 7 2 8 1 9 4 10 5 11 6 12 11 13
REMARK SMILES IDX 7 14 9 15 8 16 10 17 17 20 18 21 19 22 20 24 21 25 22 26
REMARK SMILES IDX 83 27 23 28 82 29 24 30 25 31 26 32 76 33 27 34 81 35 75 36
REMARK SMILES IDX 77 37 28 38 80 39 74 40 73 41 29 43 61 44 41 45 60 46 42 47
REMARK SMILES IDX 45 48 59 49 78 50 43 51 44 52 58 54 79 55 46 56 30 57 31 58
REMARK SMILES IDX 39 59 32 60 38 61 40 62 37 63 33 64 34 65 35 66 36 67 62 68
REMARK SMILES IDX 63 69 71 70 64 71 70 72 72 73 69 74 65 75 66 76 67 77 68 78
REMARK SMILES IDX 47 79 48 80 56 81 49 82 55 83 57 84 54 85 50 86 51 87 52 88
REMARK SMILES IDX 53 89
REMARK H PARENT 14 6 10 18 10 19 18 23 77 42 45 53
REMARK Flexibility Score: inf
ROOT
ATOM      1  C   UNL     1      -2.924   0.078  -2.921  1.00  0.00     0.042 C 
ENDROOT
BRANCH   1   2
ATOM      2  C   UNL     1      -2.032  -1.157  -3.008  1.00  0.00     0.117 C 
BRANCH   2   3
ATOM      3  N   UNL     1      -0.840  -0.944  -3.824  1.00  0.00    -0.355 N 
ATOM      4  C   UNL     1       0.485  -0.859  -3.471  1.00  0.00     0.233 C 
ATOM      5  O   UNL     1       1.313  -0.758  -4.382  1.00  0.00    -0.274 OA
ATOM      6  H   UNL     1      -1.014  -0.845  -4.787  1.00  0.00     0.163 HD
BRANCH   4   7
ATOM      7  C   UNL     1       0.936  -0.860  -1.985  1.00  0.00     0.140 C 
BRANCH   7   8
ATOM      8  C   UNL     1       0.318   0.397  -1.339  1.00  0.00     0.021 C 
ATOM      9  C   UNL     1       0.678   0.770   0.081  1.00  0.00     0.005 C 
ENDBRANCH   7   8
BRANCH   7  10
ATOM     10  S   UNL     1       0.572  -2.587  -1.395  1.00  0.00    -0.113 SA
BRANCH  10  11
ATOM     11  C   UNL     1       1.333  -2.860   0.182  1.00  0.00     0.010 A 
ATOM     12  C   UNL     1       2.144  -1.969   0.870  1.00  0.00     0.015 A 
ATOM     13  C   UNL     1       1.040  -4.095   0.789  1.00  0.00     0.040 A 
ATOM     14  C   UNL     1       2.499  -2.219   2.197  1.00  0.00     0.003 A 
ATOM     15  C   UNL     1       1.487  -4.410   2.075  1.00  0.00     0.032 A 
ATOM     16  C   UNL     1       2.147  -3.425   2.803  1.00  0.00     0.025 A 
BRANCH  15  17
ATOM     17  N   UNL     1       1.150  -5.621   2.661  1.00  0.00    -0.399 N 
ATOM     18  H   UNL     1       1.470  -5.835   3.567  1.00  0.00     0.156 HD
ATOM     19  H   UNL     1       0.592  -6.267   2.170  1.00  0.00     0.156 HD
ENDBRANCH  15  17
ENDBRANCH  10  11
ENDBRANCH   7  10
ENDBRANCH   4   7
ENDBRANCH   2   3
ENDBRANCH   1   2
BRANCH   1  20
ATOM     20  C   UNL     1      -3.648   0.408  -4.215  1.00  0.00     0.118 C 
BRANCH  20  21
ATOM     21  N   UNL     1      -4.644  -0.593  -4.561  1.00  0.00    -0.352 N 
ATOM     22  C   UNL     1      -6.013  -0.494  -4.641  1.00  0.00     0.251 C 
ATOM     23  H   UNL     1      -4.280  -1.483  -4.772  1.00  0.00     0.163 HD
ATOM     24  O   UNL     1      -6.678  -1.521  -4.736  1.00  0.00    -0.269 OA
BRANCH  22  25
ATOM     25  C   UNL     1      -6.682   0.827  -4.588  1.00  0.00     0.039 A 
ATOM     26  C   UNL     1      -7.888   0.942  -3.891  1.00  0.00     0.014 A 
ATOM     27  C   UNL     1      -6.150   1.942  -5.240  1.00  0.00     0.014 A 
ATOM     28  C   UNL     1      -8.520   2.185  -3.793  1.00  0.00     0.010 A 
ATOM     29  C   UNL     1      -6.730   3.196  -5.064  1.00  0.00     0.010 A 
ATOM     30  C   UNL     1      -7.926   3.332  -4.344  1.00  0.00    -0.014 A 
BRANCH  30  31
ATOM     31  C   UNL     1      -8.543   4.676  -4.185  1.00  0.00     0.031 A 
ATOM     32  C   UNL     1      -8.991   5.453  -5.395  1.00  0.00     0.074 A 
ATOM     33  C   UNL     1      -8.650   5.221  -2.956  1.00  0.00     0.049 A 
ATOM     34  N   UNL     1      -9.479   6.665  -5.468  1.00  0.00    -0.248 NA
ATOM     35  C   UNL     1      -8.841   4.789  -6.699  1.00  0.00     0.031 C 
ATOM     36  C   UNL     1      -8.221   4.582  -1.709  1.00  0.00     0.029 A 
ATOM     37  N   UNL     1      -9.145   6.435  -2.549  1.00  0.00    -0.354 N 
ATOM     38  C   UNL     1      -9.684   6.912  -6.821  1.00  0.00     0.074 A 
ATOM     39  C   UNL     1      -9.205   5.748  -7.535  1.00  0.00     0.031 C 
ATOM     40  C   UNL     1      -8.497   5.396  -0.679  1.00  0.00     0.029 A 
ATOM     41  C   UNL     1      -9.071   6.637  -1.189  1.00  0.00     0.049 A 
ATOM     42  H   UNL     1      -9.517   7.100  -3.172  1.00  0.00     0.167 HD
ATOM     43  C   UNL     1     -10.243   7.998  -7.411  1.00  0.00     0.034 A 
ATOM     44  C   UNL     1      -9.410   7.705  -0.439  1.00  0.00     0.034 A 
ATOM     45  C   UNL     1     -10.724   9.147  -6.683  1.00  0.00     0.049 A 
ATOM     46  C   UNL     1      -9.993   8.917  -1.123  1.00  0.00     0.074 A 
ATOM     47  C   UNL     1     -11.352  10.278  -7.176  1.00  0.00     0.029 A 
ATOM     48  N   UNL     1     -10.624   9.319  -5.308  1.00  0.00    -0.354 N 
ATOM     49  N   UNL     1     -10.224   9.114  -2.400  1.00  0.00    -0.248 NA
ATOM     50  C   UNL     1     -10.369  10.045  -0.262  1.00  0.00     0.031 C 
ATOM     51  C   UNL     1     -11.559  11.164  -6.113  1.00  0.00     0.029 A 
ATOM     52  C   UNL     1     -11.145  10.551  -4.942  1.00  0.00     0.049 A 
ATOM     53  H   UNL     1     -10.239   8.661  -4.684  1.00  0.00     0.167 HD
ATOM     54  C   UNL     1     -10.807  10.376  -2.489  1.00  0.00     0.074 A 
ATOM     55  C   UNL     1     -10.904  10.884  -1.137  1.00  0.00     0.031 C 
ATOM     56  C   UNL     1     -11.229  11.051  -3.589  1.00  0.00     0.034 A 
BRANCH  43  57
ATOM     57  C   UNL     1     -10.337   8.002  -8.920  1.00  0.00     0.023 A 
ATOM     58  C   UNL     1     -11.096   7.046  -9.617  1.00  0.00     0.031 A 
ATOM     59  C   UNL     1      -9.644   8.966  -9.675  1.00  0.00     0.131 A 
ATOM     60  C   UNL     1     -11.084   7.027 -11.020  1.00  0.00     0.055 A 
ATOM     61  C   UNL     1      -9.706   8.995 -11.069  1.00  0.00     0.041 A 
ATOM     62  F   UNL     1      -8.884   9.892  -9.069  1.00  0.00    -0.206 F 
ATOM     63  C   UNL     1     -10.417   8.012 -11.751  1.00  0.00     0.022 A 
BRANCH  60  64
ATOM     64  S   UNL     1     -11.830   5.611 -11.873  1.00  0.00     0.124 S 
ATOM     65  O   UNL     1     -11.066   4.497 -11.317  1.00  0.00    -0.237 OA
ATOM     66  O   UNL     1     -13.227   5.696 -11.464  1.00  0.00    -0.237 OA
ATOM     67  O   UNL     1     -11.574   5.888 -13.285  1.00  0.00    -0.744 OA
ENDBRANCH  60  64
ENDBRANCH  43  57
BRANCH  44  68
ATOM     68  C   UNL     1      -9.198   7.692   1.038  1.00  0.00     0.023 A 
ATOM     69  C   UNL     1     -10.280   7.794   1.926  1.00  0.00     0.031 A 
ATOM     70  C   UNL     1      -7.903   7.629   1.584  1.00  0.00     0.131 A 
ATOM     71  C   UNL     1     -10.047   7.884   3.307  1.00  0.00     0.055 A 
ATOM     72  C   UNL     1      -7.680   7.657   2.962  1.00  0.00     0.041 A 
ATOM     73  F   UNL     1      -6.831   7.529   0.782  1.00  0.00    -0.206 F 
ATOM     74  C   UNL     1      -8.756   7.801   3.832  1.00  0.00     0.022 A 
BRANCH  71  75
ATOM     75  S   UNL     1     -11.453   8.217   4.405  1.00  0.00     0.124 S 
ATOM     76  O   UNL     1     -11.967   9.467   3.856  1.00  0.00    -0.237 OA
ATOM     77  O   UNL     1     -12.283   7.035   4.199  1.00  0.00    -0.237 OA
ATOM     78  O   UNL     1     -10.835   8.321   5.725  1.00  0.00    -0.744 OA
ENDBRANCH  71  75
ENDBRANCH  44  68
BRANCH  56  79
ATOM     79  C   UNL     1     -11.885  12.394  -3.364  1.00  0.00     0.023 A 
ATOM     80  C   UNL     1     -11.174  13.492  -2.850  1.00  0.00     0.031 A 
ATOM     81  C   UNL     1     -13.248  12.571  -3.664  1.00  0.00     0.131 A 
ATOM     82  C   UNL     1     -11.842  14.700  -2.596  1.00  0.00     0.055 A 
ATOM     83  C   UNL     1     -13.890  13.794  -3.474  1.00  0.00     0.041 A 
ATOM     84  F   UNL     1     -13.978  11.556  -4.154  1.00  0.00    -0.206 F 
ATOM     85  C   UNL     1     -13.191  14.864  -2.923  1.00  0.00     0.022 A 
BRANCH  82  86
ATOM     86  S   UNL     1     -10.950  16.026  -1.739  1.00  0.00     0.124 S 
ATOM     87  O   UNL     1     -10.556  15.372  -0.495  1.00  0.00    -0.237 OA
ATOM     88  O   UNL     1      -9.868  16.328  -2.671  1.00  0.00    -0.237 OA
ATOM     89  O   UNL     1     -11.954  17.078  -1.595  1.00  0.00    -0.744 OA
ENDBRANCH  82  86
ENDBRANCH  56  79
ENDBRANCH  30  31
ENDBRANCH  22  25
ENDBRANCH  20  21
ENDBRANCH   1  20
TORSDOF 17
