REMARK SMILES Cc1cc(S(=O)(=O)N2CC(CC(=O)NCCCNC(=O)c3ccc(-c4c5nc(c(-c6cc(S(=O)(=O)[O-])ccc6F)c6ccc([nH]6)c(-c6cc(S(=O)(=O)[O-])ccc6F)c6nc(c(-c7cc(S(=O)(=O)[O-])ccc7F)c7ccc4[nH]7)C=C6)C=C5)cc3)C2)sc1Br
REMARK SMILES IDX 16 1 15 2 14 3 12 4 13 5 11 7 10 8 8 9 9 10 84 11 5 12 6 13
REMARK SMILES IDX 7 14 4 15 1 16 2 17 3 18 86 19 85 20 87 21 17 22 18 23 19 24
REMARK SMILES IDX 20 26 21 27 22 28 83 29 23 30 82 31 24 32 25 33 26 34 76 35
REMARK SMILES IDX 27 36 81 37 75 38 77 39 28 40 80 41 74 42 73 43 29 45 61 46
REMARK SMILES IDX 41 47 60 48 42 49 45 50 59 51 78 52 43 53 44 54 58 56 79 57
REMARK SMILES IDX 46 58 30 59 31 60 39 61 32 62 38 63 40 64 37 65 33 66 34 67
REMARK SMILES IDX 35 68 36 69 62 70 63 71 71 72 64 73 70 74 72 75 69 76 65 77
REMARK SMILES IDX 66 78 67 79 68 80 47 81 48 82 56 83 49 84 55 85 57 86 54 87
REMARK SMILES IDX 50 88 51 89 52 90 53 91
REMARK H PARENT 14 6 18 25 77 44 45 55
REMARK Flexibility Score: inf
ROOT
ATOM      1  C   UNL     1       4.338  -4.107   3.162  1.00  0.00     0.042 C 
ENDROOT
BRANCH   1   2
ATOM      2  C   UNL     1       4.334  -3.840   1.652  1.00  0.00     0.117 C 
BRANCH   2   3
ATOM      3  N   UNL     1       4.236  -5.067   0.870  1.00  0.00    -0.356 N 
ATOM      4  C   UNL     1       3.169  -5.679   0.285  1.00  0.00     0.220 C 
ATOM      5  O   UNL     1       3.341  -6.756  -0.285  1.00  0.00    -0.275 OA
ATOM      6  H   UNL     1       5.093  -5.536   0.743  1.00  0.00     0.163 HD
BRANCH   4   7
ATOM      7  C   UNL     1       1.792  -5.054   0.330  1.00  0.00     0.106 C 
BRANCH   7   8
ATOM      8  C   UNL     1       0.915  -5.554   1.472  1.00  0.00     0.029 C 
ATOM      9  N   UNL     1      -0.169  -4.542   3.043  1.00  0.00    -0.196 NA
ATOM     10  C   UNL     1      -0.479  -4.891   1.635  1.00  0.00     0.108 C 
ATOM     11  C   UNL     1       1.227  -4.980   2.860  1.00  0.00     0.108 C 
BRANCH   9  12
ATOM     12  S   UNL     1      -0.628  -3.187   3.937  1.00  0.00     0.252 S 
ATOM     13  O   UNL     1       0.238  -3.125   5.106  1.00  0.00    -0.206 OA
ATOM     14  O   UNL     1      -2.062  -3.175   4.032  1.00  0.00    -0.206 OA
BRANCH  12  15
ATOM     15  C   UNL     1      -0.205  -1.723   3.008  1.00  0.00     0.136 A 
ATOM     16  C   UNL     1       1.017   0.299   0.075  1.00  0.00     0.046 C 
ATOM     17  C   UNL     1       0.454  -0.138   1.389  1.00  0.00    -0.025 A 
ATOM     18  C   UNL     1       0.455  -1.509   1.813  1.00  0.00     0.038 A 
ATOM     19  C   UNL     1      -0.134   0.642   2.362  1.00  0.00     0.074 A 
ATOM     20  S   UNL     1      -0.703  -0.238   3.697  1.00  0.00    -0.115 S 
ATOM     21  Br  UNL     1      -0.330   2.509   2.269  1.00  0.00    -0.039 Br
ENDBRANCH  12  15
ENDBRANCH   9  12
ENDBRANCH   7   8
ENDBRANCH   4   7
ENDBRANCH   2   3
ENDBRANCH   1   2
BRANCH   1  22
ATOM     22  C   UNL     1       5.678  -4.545   3.702  1.00  0.00     0.118 C 
BRANCH  22  23
ATOM     23  N   UNL     1       6.637  -3.458   3.857  1.00  0.00    -0.352 N 
ATOM     24  C   UNL     1       7.889  -3.541   4.448  1.00  0.00     0.251 C 
ATOM     25  H   UNL     1       6.369  -2.577   3.508  1.00  0.00     0.163 HD
ATOM     26  O   UNL     1       8.461  -2.529   4.836  1.00  0.00    -0.269 OA
BRANCH  24  27
ATOM     27  C   UNL     1       8.493  -4.879   4.621  1.00  0.00     0.039 A 
ATOM     28  C   UNL     1       9.176  -5.242   5.784  1.00  0.00     0.014 A 
ATOM     29  C   UNL     1       8.285  -5.809   3.610  1.00  0.00     0.014 A 
ATOM     30  C   UNL     1       9.562  -6.574   5.949  1.00  0.00     0.010 A 
ATOM     31  C   UNL     1       8.464  -7.140   3.867  1.00  0.00     0.010 A 
ATOM     32  C   UNL     1       9.178  -7.527   4.993  1.00  0.00    -0.014 A 
BRANCH  32  33
ATOM     33  C   UNL     1       9.425  -8.956   5.176  1.00  0.00     0.031 A 
ATOM     34  C   UNL     1       8.934  -9.521   6.459  1.00  0.00     0.074 A 
ATOM     35  C   UNL     1       9.836  -9.758   4.166  1.00  0.00     0.049 A 
ATOM     36  N   UNL     1       9.644  -9.986   7.431  1.00  0.00    -0.248 NA
ATOM     37  C   UNL     1       7.499  -9.428   6.771  1.00  0.00     0.031 C 
ATOM     38  C   UNL     1      10.089  -9.393   2.766  1.00  0.00     0.029 A 
ATOM     39  N   UNL     1       9.981 -11.111   4.144  1.00  0.00    -0.354 N 
ATOM     40  C   UNL     1       8.742 -10.479   8.368  1.00  0.00     0.074 A 
ATOM     41  C   UNL     1       7.470  -9.909   8.016  1.00  0.00     0.031 C 
ATOM     42  C   UNL     1      10.091 -10.503   1.998  1.00  0.00     0.029 A 
ATOM     43  C   UNL     1      10.025 -11.665   2.865  1.00  0.00     0.049 A 
ATOM     44  H   UNL     1      10.048 -11.654   4.962  1.00  0.00     0.167 HD
ATOM     45  C   UNL     1       9.084 -11.509   9.195  1.00  0.00     0.034 A 
ATOM     46  C   UNL     1       9.990 -12.981   2.527  1.00  0.00     0.034 A 
ATOM     47  C   UNL     1      10.517 -11.724   9.176  1.00  0.00     0.049 A 
ATOM     48  C   UNL     1      10.449 -13.732   3.723  1.00  0.00     0.074 A 
ATOM     49  C   UNL     1      11.616 -10.925   9.434  1.00  0.00     0.029 A 
ATOM     50  N   UNL     1      11.005 -12.793   8.453  1.00  0.00    -0.354 N 
ATOM     51  N   UNL     1      11.660 -13.632   4.201  1.00  0.00    -0.248 NA
ATOM     52  C   UNL     1       9.448 -14.184   4.678  1.00  0.00     0.031 C 
ATOM     53  C   UNL     1      12.560 -11.268   8.422  1.00  0.00     0.029 A 
ATOM     54  C   UNL     1      12.035 -12.323   7.673  1.00  0.00     0.049 A 
ATOM     55  H   UNL     1      10.677 -13.720   8.488  1.00  0.00     0.167 HD
ATOM     56  C   UNL     1      11.496 -13.552   5.575  1.00  0.00     0.074 A 
ATOM     57  C   UNL     1      10.130 -14.017   5.817  1.00  0.00     0.031 C 
ATOM     58  C   UNL     1      12.365 -12.841   6.356  1.00  0.00     0.034 A 
BRANCH  45  59
ATOM     59  C   UNL     1       8.132 -12.560   9.732  1.00  0.00     0.023 A 
ATOM     60  C   UNL     1       8.693 -13.572  10.537  1.00  0.00     0.031 A 
ATOM     61  C   UNL     1       6.813 -12.798   9.288  1.00  0.00     0.131 A 
ATOM     62  C   UNL     1       8.020 -14.787  10.750  1.00  0.00     0.055 A 
ATOM     63  C   UNL     1       6.118 -13.980   9.566  1.00  0.00     0.041 A 
ATOM     64  F   UNL     1       6.149 -11.955   8.491  1.00  0.00    -0.206 F 
ATOM     65  C   UNL     1       6.734 -15.000  10.267  1.00  0.00     0.022 A 
BRANCH  62  66
ATOM     66  S   UNL     1       8.945 -16.154  11.495  1.00  0.00     0.124 S 
ATOM     67  O   UNL     1      10.126 -16.207  10.639  1.00  0.00    -0.237 OA
ATOM     68  O   UNL     1       9.154 -15.668  12.854  1.00  0.00    -0.237 OA
ATOM     69  O   UNL     1       8.032 -17.288  11.370  1.00  0.00    -0.744 OA
ENDBRANCH  62  66
ENDBRANCH  45  59
BRANCH  46  70
ATOM     70  C   UNL     1       9.350 -13.599   1.331  1.00  0.00     0.023 A 
ATOM     71  C   UNL     1       9.654 -14.901   0.878  1.00  0.00     0.031 A 
ATOM     72  C   UNL     1       8.230 -12.972   0.735  1.00  0.00     0.131 A 
ATOM     73  C   UNL     1       8.858 -15.514  -0.122  1.00  0.00     0.055 A 
ATOM     74  C   UNL     1       7.454 -13.578  -0.255  1.00  0.00     0.041 A 
ATOM     75  F   UNL     1       7.798 -11.773   1.157  1.00  0.00    -0.206 F 
ATOM     76  C   UNL     1       7.760 -14.859  -0.682  1.00  0.00     0.022 A 
BRANCH  73  77
ATOM     77  S   UNL     1       9.181 -17.232  -0.644  1.00  0.00     0.124 S 
ATOM     78  O   UNL     1      10.424 -17.102  -1.394  1.00  0.00    -0.237 OA
ATOM     79  O   UNL     1       9.261 -17.939   0.630  1.00  0.00    -0.237 OA
ATOM     80  O   UNL     1       8.008 -17.569  -1.453  1.00  0.00    -0.744 OA
ENDBRANCH  73  77
ENDBRANCH  46  70
BRANCH  58  81
ATOM     81  C   UNL     1      13.671 -12.363   5.744  1.00  0.00     0.023 A 
ATOM     82  C   UNL     1      13.775 -11.547   4.593  1.00  0.00     0.031 A 
ATOM     83  C   UNL     1      14.856 -12.641   6.449  1.00  0.00     0.131 A 
ATOM     84  C   UNL     1      15.031 -11.055   4.184  1.00  0.00     0.055 A 
ATOM     85  C   UNL     1      16.093 -12.132   6.056  1.00  0.00     0.041 A 
ATOM     86  F   UNL     1      14.825 -13.385   7.567  1.00  0.00    -0.206 F 
ATOM     87  C   UNL     1      16.187 -11.342   4.917  1.00  0.00     0.022 A 
BRANCH  84  88
ATOM     88  S   UNL     1      15.190 -10.042   2.676  1.00  0.00     0.124 S 
ATOM     89  O   UNL     1      14.437 -10.792   1.678  1.00  0.00    -0.237 OA
ATOM     90  O   UNL     1      14.610  -8.766   3.088  1.00  0.00    -0.237 OA
ATOM     91  O   UNL     1      16.635 -10.003   2.443  1.00  0.00    -0.744 OA
ENDBRANCH  84  88
ENDBRANCH  58  81
ENDBRANCH  32  33
ENDBRANCH  24  27
ENDBRANCH  22  23
ENDBRANCH   1  22
TORSDOF 16
