REMARK SMILES Cc1n[nH]c(C(=O)N[C@@H](CC(C)C)C(=O)NCCCNC(=O)c2ccc(-c3c4nc(c(-c5cc(S(=O)(=O)[O-])ccc5F)c5ccc([nH]5)c(-c5cc(S(=O)(=O)[O-])ccc5F)c5nc(c(-c6cc(S(=O)(=O)[O-])ccc6F)c6ccc3[nH]6)C=C5)C=C4)cc2)n1
REMARK SMILES IDX 18 1 17 2 16 3 14 4 15 5 9 7 8 8 6 9 7 10 5 12 1 13 2 14
REMARK SMILES IDX 3 15 86 16 4 17 10 19 11 20 12 21 13 22 19 23 20 24 21 25
REMARK SMILES IDX 22 27 23 28 24 29 85 30 25 31 84 32 26 33 27 34 28 35 78 36
REMARK SMILES IDX 29 37 83 38 77 39 79 40 30 41 82 42 76 43 75 44 31 46 63 47
REMARK SMILES IDX 43 48 62 49 44 50 47 51 61 52 80 53 45 54 46 55 60 57 81 58
REMARK SMILES IDX 48 59 32 60 33 61 41 62 34 63 40 64 42 65 39 66 35 67 36 68
REMARK SMILES IDX 37 69 38 70 64 71 65 72 73 73 66 74 72 75 74 76 71 77 67 78
REMARK SMILES IDX 68 79 69 80 70 81 49 82 50 83 58 84 51 85 57 86 59 87 56 88
REMARK SMILES IDX 52 89 53 90 54 91 55 92
REMARK H PARENT 16 6 8 11 4 18 20 26 79 45 47 56
REMARK Flexibility Score: inf
ROOT
ATOM      1  C   UNL     1       1.434   9.306  -2.111  1.00  0.00     0.042 C 
ENDROOT
BRANCH   1   2
ATOM      2  C   UNL     1       0.187   8.464  -2.351  1.00  0.00     0.117 C 
BRANCH   2   3
ATOM      3  N   UNL     1       0.346   7.354  -3.276  1.00  0.00    -0.354 N 
ATOM      4  C   UNL     1      -0.329   6.167  -3.351  1.00  0.00     0.242 C 
ATOM      5  O   UNL     1      -0.274   5.539  -4.413  1.00  0.00    -0.273 OA
ATOM      6  H   UNL     1       1.050   7.476  -3.954  1.00  0.00     0.163 HD
BRANCH   4   7
ATOM      7  C   UNL     1      -1.181   5.596  -2.194  1.00  0.00     0.172 C 
BRANCH   7   8
ATOM      8  N   UNL     1      -0.412   5.569  -0.952  1.00  0.00    -0.338 N 
ATOM      9  C   UNL     1       0.360   4.619  -0.324  1.00  0.00     0.289 C 
ATOM     10  O   UNL     1       1.056   5.091   0.583  1.00  0.00    -0.266 OA
ATOM     11  H   UNL     1      -0.457   6.417  -0.454  1.00  0.00     0.164 HD
BRANCH   9  12
ATOM     12  C   UNL     1       0.331   3.194  -0.615  1.00  0.00     0.214 A 
ATOM     13  C   UNL     1       1.108  -0.169   0.224  1.00  0.00     0.092 C 
ATOM     14  C   UNL     1       0.630   1.098  -0.364  1.00  0.00     0.148 A 
ATOM     15  N   UNL     1      -0.134   1.157  -1.456  1.00  0.00    -0.159 NA
ATOM     16  N   UNL     1       0.926   2.313   0.181  1.00  0.00    -0.207 NA
ATOM     17  N   UNL     1      -0.259   2.486  -1.624  1.00  0.00    -0.255 N 
ATOM     18  H   UNL     1      -0.722   2.902  -2.387  1.00  0.00     0.192 HD
ENDBRANCH   9  12
ENDBRANCH   7   8
BRANCH   7  19
ATOM     19  C   UNL     1      -2.633   6.091  -1.999  1.00  0.00     0.038 C 
BRANCH  19  20
ATOM     20  C   UNL     1      -2.967   7.586  -2.128  1.00  0.00    -0.015 C 
ATOM     21  C   UNL     1      -3.090   8.030  -3.590  1.00  0.00     0.007 C 
ATOM     22  C   UNL     1      -4.285   7.913  -1.414  1.00  0.00     0.007 C 
ENDBRANCH  19  20
ENDBRANCH   7  19
ENDBRANCH   4   7
ENDBRANCH   2   3
ENDBRANCH   1   2
BRANCH   1  23
ATOM     23  C   UNL     1       1.681  10.320  -3.216  1.00  0.00     0.118 C 
BRANCH  23  24
ATOM     24  N   UNL     1       0.633  11.341  -3.319  1.00  0.00    -0.352 N 
ATOM     25  C   UNL     1       0.496  12.293  -4.315  1.00  0.00     0.251 C 
ATOM     26  H   UNL     1      -0.045  11.351  -2.604  1.00  0.00     0.163 HD
ATOM     27  O   UNL     1      -0.262  13.248  -4.186  1.00  0.00    -0.269 OA
BRANCH  25  28
ATOM     28  C   UNL     1       1.331  12.125  -5.516  1.00  0.00     0.039 A 
ATOM     29  C   UNL     1       2.335  13.048  -5.806  1.00  0.00     0.014 A 
ATOM     30  C   UNL     1       1.258  10.900  -6.171  1.00  0.00     0.014 A 
ATOM     31  C   UNL     1       3.365  12.668  -6.667  1.00  0.00     0.010 A 
ATOM     32  C   UNL     1       2.343  10.488  -6.918  1.00  0.00     0.010 A 
ATOM     33  C   UNL     1       3.407  11.360  -7.178  1.00  0.00    -0.014 A 
BRANCH  33  34
ATOM     34  C   UNL     1       4.622  10.871  -7.849  1.00  0.00     0.031 A 
ATOM     35  C   UNL     1       5.939  11.164  -7.198  1.00  0.00     0.074 A 
ATOM     36  C   UNL     1       4.622   9.991  -8.874  1.00  0.00     0.049 A 
ATOM     37  N   UNL     1       6.922  11.861  -7.669  1.00  0.00    -0.248 NA
ATOM     38  C   UNL     1       6.182  10.662  -5.837  1.00  0.00     0.031 C 
ATOM     39  C   UNL     1       3.479   9.324  -9.505  1.00  0.00     0.029 A 
ATOM     40  N   UNL     1       5.691   9.408  -9.491  1.00  0.00    -0.354 N 
ATOM     41  C   UNL     1       7.981  11.739  -6.767  1.00  0.00     0.074 A 
ATOM     42  C   UNL     1       7.422  11.103  -5.602  1.00  0.00     0.031 C 
ATOM     43  C   UNL     1       3.911   8.260 -10.213  1.00  0.00     0.029 A 
ATOM     44  C   UNL     1       5.359   8.302 -10.258  1.00  0.00     0.049 A 
ATOM     45  H   UNL     1       6.613   9.742  -9.399  1.00  0.00     0.167 HD
ATOM     46  C   UNL     1       9.268  12.028  -7.124  1.00  0.00     0.034 A 
ATOM     47  C   UNL     1       6.194   7.466 -10.916  1.00  0.00     0.034 A 
ATOM     48  C   UNL     1       9.309  12.774  -8.361  1.00  0.00     0.049 A 
ATOM     49  C   UNL     1       7.432   8.225 -11.198  1.00  0.00     0.074 A 
ATOM     50  C   UNL     1       8.795  13.982  -8.790  1.00  0.00     0.029 A 
ATOM     51  N   UNL     1       9.677  12.110  -9.508  1.00  0.00    -0.354 N 
ATOM     52  N   UNL     1       7.457   9.287 -11.959  1.00  0.00    -0.248 NA
ATOM     53  C   UNL     1       8.574   8.078 -10.312  1.00  0.00     0.031 C 
ATOM     54  C   UNL     1       8.399  13.748 -10.142  1.00  0.00     0.029 A 
ATOM     55  C   UNL     1       8.749  12.435 -10.466  1.00  0.00     0.049 A 
ATOM     56  H   UNL     1      10.455  11.517  -9.621  1.00  0.00     0.167 HD
ATOM     57  C   UNL     1       8.358  10.143 -11.350  1.00  0.00     0.074 A 
ATOM     58  C   UNL     1       9.114   9.295 -10.432  1.00  0.00     0.031 C 
ATOM     59  C   UNL     1       8.221  11.500 -11.441  1.00  0.00     0.034 A 
BRANCH  46  60
ATOM     60  C   UNL     1      10.531  11.412  -6.546  1.00  0.00     0.023 A 
ATOM     61  C   UNL     1      11.771  11.851  -7.065  1.00  0.00     0.031 A 
ATOM     62  C   UNL     1      10.588  10.254  -5.743  1.00  0.00     0.131 A 
ATOM     63  C   UNL     1      12.951  11.109  -6.872  1.00  0.00     0.055 A 
ATOM     64  C   UNL     1      11.779   9.559  -5.492  1.00  0.00     0.041 A 
ATOM     65  F   UNL     1       9.495   9.677  -5.234  1.00  0.00    -0.206 F 
ATOM     66  C   UNL     1      12.964   9.964  -6.084  1.00  0.00     0.022 A 
BRANCH  63  67
ATOM     67  S   UNL     1      14.423  11.553  -7.837  1.00  0.00     0.124 S 
ATOM     68  O   UNL     1      13.879  11.634  -9.189  1.00  0.00    -0.237 OA
ATOM     69  O   UNL     1      14.815  12.817  -7.223  1.00  0.00    -0.237 OA
ATOM     70  O   UNL     1      15.334  10.435  -7.600  1.00  0.00    -0.744 OA
ENDBRANCH  63  67
ENDBRANCH  46  60
BRANCH  47  71
ATOM     71  C   UNL     1       6.016   6.005 -11.070  1.00  0.00     0.023 A 
ATOM     72  C   UNL     1       6.587   5.268 -12.121  1.00  0.00     0.031 A 
ATOM     73  C   UNL     1       5.406   5.268 -10.027  1.00  0.00     0.131 A 
ATOM     74  C   UNL     1       6.525   3.857 -12.107  1.00  0.00     0.055 A 
ATOM     75  C   UNL     1       5.337   3.875 -10.023  1.00  0.00     0.041 A 
ATOM     76  F   UNL     1       4.921   5.885  -8.936  1.00  0.00    -0.206 F 
ATOM     77  C   UNL     1       5.904   3.161 -11.066  1.00  0.00     0.022 A 
BRANCH  74  78
ATOM     78  S   UNL     1       7.344   2.901 -13.421  1.00  0.00     0.124 S 
ATOM     79  O   UNL     1       6.543   3.234 -14.593  1.00  0.00    -0.237 OA
ATOM     80  O   UNL     1       8.702   3.432 -13.390  1.00  0.00    -0.237 OA
ATOM     81  O   UNL     1       7.219   1.516 -12.963  1.00  0.00    -0.744 OA
ENDBRANCH  74  78
ENDBRANCH  47  71
BRANCH  59  82
ATOM     82  C   UNL     1       7.246  12.063 -12.455  1.00  0.00     0.023 A 
ATOM     83  C   UNL     1       5.857  11.805 -12.450  1.00  0.00     0.031 A 
ATOM     84  C   UNL     1       7.727  13.021 -13.365  1.00  0.00     0.131 A 
ATOM     85  C   UNL     1       5.006  12.489 -13.339  1.00  0.00     0.055 A 
ATOM     86  C   UNL     1       6.879  13.710 -14.233  1.00  0.00     0.041 A 
ATOM     87  F   UNL     1       9.032  13.339 -13.391  1.00  0.00    -0.206 F 
ATOM     88  C   UNL     1       5.514  13.444 -14.225  1.00  0.00     0.022 A 
BRANCH  85  89
ATOM     89  S   UNL     1       3.214  12.156 -13.341  1.00  0.00     0.124 S 
ATOM     90  O   UNL     1       3.138  10.709 -13.500  1.00  0.00    -0.237 OA
ATOM     91  O   UNL     1       2.789  12.681 -12.045  1.00  0.00    -0.237 OA
ATOM     92  O   UNL     1       2.727  12.921 -14.491  1.00  0.00    -0.744 OA
ENDBRANCH  85  89
ENDBRANCH  59  82
ENDBRANCH  33  34
ENDBRANCH  25  28
ENDBRANCH  23  24
ENDBRANCH   1  23
TORSDOF 17
