REMARK SMILES CC[C@H](C)[C@H](NC(=O)CN1C(=O)/C(=C/c2ccc(C)cc2)SC1=S)C(=O)NCCCNC(=O)c1ccc(-c2c3nc(c(-c4cc(S(=O)(=O)[O-])ccc4F)c4ccc([nH]4)c(-c4cc(S(=O)(=O)[O-])ccc4F)c4nc(c(-c5cc(S(=O)(=O)[O-])ccc5F)c5ccc2[nH]5)C=C4)C=C3)cc1
REMARK SMILES IDX 28 1 27 2 25 3 26 4 5 6 3 7 4 8 2 9 1 10 6 11 7 12 8 14 9 15
REMARK SMILES IDX 10 16 11 17 23 18 12 19 13 20 22 21 24 22 14 23 15 24 16 25
REMARK SMILES IDX 21 26 17 27 20 28 18 29 19 30 29 31 30 32 31 33 32 34 33 36
REMARK SMILES IDX 34 37 35 38 96 39 36 40 95 41 37 42 38 43 39 44 89 45 40 46
REMARK SMILES IDX 94 47 88 48 90 49 41 50 93 51 87 52 86 53 42 55 74 56 54 57
REMARK SMILES IDX 73 58 55 59 58 60 72 61 91 62 56 63 57 64 71 66 92 67 59 68
REMARK SMILES IDX 43 69 44 70 52 71 45 72 51 73 53 74 50 75 46 76 47 77 48 78
REMARK SMILES IDX 49 79 75 80 76 81 84 82 77 83 83 84 85 85 82 86 78 87 79 88
REMARK SMILES IDX 80 89 81 90 60 91 61 92 69 93 62 94 68 95 70 96 67 97 63 98
REMARK SMILES IDX 64 99 65 100 66 101
REMARK H PARENT 27 5 6 13 31 35 90 54 58 65
REMARK Flexibility Score: inf
ROOT
ATOM      1  C   UNL     1       3.890  -1.233   3.757  1.00  0.00     0.117 C 
ENDROOT
BRANCH   1   2
ATOM      2  N   UNL     1       3.086  -0.748   4.859  1.00  0.00    -0.354 N 
ATOM      3  C   UNL     1       1.735  -0.654   4.963  1.00  0.00     0.242 C 
ATOM      4  O   UNL     1       1.201  -0.503   6.067  1.00  0.00    -0.273 OA
ATOM      5  H   UNL     1       3.592  -0.441   5.646  1.00  0.00     0.163 HD
BRANCH   3   6
ATOM      6  C   UNL     1       0.826  -0.862   3.745  1.00  0.00     0.174 C 
BRANCH   6   7
ATOM      7  C   UNL     1       0.623  -2.412   3.434  1.00  0.00     0.018 C 
ATOM      8  C   UNL     1       1.383  -2.998   2.228  1.00  0.00     0.010 C 
BRANCH   7   9
ATOM      9  C   UNL     1       0.827  -3.302   4.697  1.00  0.00     0.002 C 
ATOM     10  C   UNL     1       0.862  -4.807   4.470  1.00  0.00     0.004 C 
ENDBRANCH   7   9
ENDBRANCH   6   7
BRANCH   6  11
ATOM     11  N   UNL     1       1.163  -0.049   2.568  1.00  0.00    -0.342 N 
ATOM     12  C   UNL     1       1.369   1.286   2.401  1.00  0.00     0.240 C 
ATOM     13  H   UNL     1       1.258  -0.572   1.739  1.00  0.00     0.164 HD
ATOM     14  O   UNL     1       1.322   1.683   1.228  1.00  0.00    -0.273 OA
BRANCH  12  15
ATOM     15  C   UNL     1       1.827   2.256   3.507  1.00  0.00     0.227 C 
BRANCH  15  16
ATOM     16  N   UNL     1       0.914   2.516   4.608  1.00  0.00    -0.283 N 
ATOM     17  C   UNL     1       1.359   2.317   5.911  1.00  0.00     0.266 C 
ATOM     18  C   UNL     1      -0.261   3.223   4.482  1.00  0.00     0.148 C 
ATOM     19  O   UNL     1       2.514   2.106   6.252  1.00  0.00    -0.268 OA
ATOM     20  C   UNL     1       0.221   2.509   6.845  1.00  0.00     0.081 C 
ATOM     21  S   UNL     1      -0.995   3.445   6.059  1.00  0.00    -0.054 SA
ATOM     22  S   UNL     1      -0.979   3.812   3.095  1.00  0.00    -0.052 S 
ATOM     23  C   UNL     1       0.153   1.930   8.054  1.00  0.00     0.029 C 
BRANCH  23  24
ATOM     24  C   UNL     1      -1.029   2.023   8.919  1.00  0.00    -0.024 A 
ATOM     25  C   UNL     1      -2.269   1.530   8.488  1.00  0.00     0.008 A 
ATOM     26  C   UNL     1      -0.949   2.696  10.138  1.00  0.00     0.008 A 
ATOM     27  C   UNL     1      -3.433   1.817   9.201  1.00  0.00     0.004 A 
ATOM     28  C   UNL     1      -2.113   2.967  10.864  1.00  0.00     0.004 A 
ATOM     29  C   UNL     1      -3.367   2.570  10.377  1.00  0.00    -0.051 A 
ATOM     30  C   UNL     1      -4.616   2.991  11.090  1.00  0.00     0.044 C 
ENDBRANCH  23  24
ENDBRANCH  15  16
ENDBRANCH  12  15
ENDBRANCH   6  11
ENDBRANCH   3   6
ENDBRANCH   1   2
BRANCH   1  31
ATOM     31  C   UNL     1       4.775  -0.197   3.101  1.00  0.00     0.042 C 
BRANCH  31  32
ATOM     32  C   UNL     1       5.811   0.397   4.038  1.00  0.00     0.118 C 
BRANCH  32  33
ATOM     33  N   UNL     1       7.165  -0.040   3.700  1.00  0.00    -0.352 N 
ATOM     34  C   UNL     1       8.373   0.594   3.946  1.00  0.00     0.251 C 
ATOM     35  H   UNL     1       7.227  -0.905   3.233  1.00  0.00     0.163 HD
ATOM     36  O   UNL     1       9.442   0.109   3.646  1.00  0.00    -0.269 OA
BRANCH  34  37
ATOM     37  C   UNL     1       8.313   1.848   4.730  1.00  0.00     0.039 A 
ATOM     38  C   UNL     1       8.760   1.765   6.051  1.00  0.00     0.014 A 
ATOM     39  C   UNL     1       7.508   2.899   4.296  1.00  0.00     0.014 A 
ATOM     40  C   UNL     1       8.180   2.591   7.003  1.00  0.00     0.010 A 
ATOM     41  C   UNL     1       6.867   3.659   5.258  1.00  0.00     0.010 A 
ATOM     42  C   UNL     1       7.146   3.445   6.614  1.00  0.00    -0.014 A 
BRANCH  42  43
ATOM     43  C   UNL     1       6.247   4.042   7.597  1.00  0.00     0.031 A 
ATOM     44  C   UNL     1       6.431   5.447   7.994  1.00  0.00     0.074 A 
ATOM     45  C   UNL     1       5.286   3.297   8.190  1.00  0.00     0.049 A 
ATOM     46  N   UNL     1       6.205   5.918   9.174  1.00  0.00    -0.248 NA
ATOM     47  C   UNL     1       6.963   6.436   7.068  1.00  0.00     0.031 C 
ATOM     48  C   UNL     1       4.261   3.757   9.123  1.00  0.00     0.029 A 
ATOM     49  N   UNL     1       5.215   1.897   8.254  1.00  0.00    -0.354 N 
ATOM     50  C   UNL     1       6.278   7.291   9.095  1.00  0.00     0.074 A 
ATOM     51  C   UNL     1       6.845   7.551   7.792  1.00  0.00     0.031 C 
ATOM     52  C   UNL     1       3.898   2.722   9.898  1.00  0.00     0.029 A 
ATOM     53  C   UNL     1       4.761   1.602   9.559  1.00  0.00     0.049 A 
ATOM     54  H   UNL     1       5.434   1.255   7.540  1.00  0.00     0.167 HD
ATOM     55  C   UNL     1       5.707   8.053  10.074  1.00  0.00     0.034 A 
ATOM     56  C   UNL     1       5.521   0.895  10.443  1.00  0.00     0.034 A 
ATOM     57  C   UNL     1       5.204   7.224  11.173  1.00  0.00     0.049 A 
ATOM     58  C   UNL     1       5.822   1.635  11.728  1.00  0.00     0.074 A 
ATOM     59  C   UNL     1       3.933   6.787  11.515  1.00  0.00     0.029 A 
ATOM     60  N   UNL     1       6.092   6.480  11.946  1.00  0.00    -0.354 N 
ATOM     61  N   UNL     1       5.647   2.917  11.896  1.00  0.00    -0.248 NA
ATOM     62  C   UNL     1       6.387   0.991  12.911  1.00  0.00     0.031 C 
ATOM     63  C   UNL     1       4.069   5.716  12.435  1.00  0.00     0.029 A 
ATOM     64  C   UNL     1       5.417   5.524  12.684  1.00  0.00     0.049 A 
ATOM     65  H   UNL     1       7.067   6.617  11.966  1.00  0.00     0.167 HD
ATOM     66  C   UNL     1       6.112   3.285  13.134  1.00  0.00     0.074 A 
ATOM     67  C   UNL     1       6.524   2.034  13.747  1.00  0.00     0.031 C 
ATOM     68  C   UNL     1       6.143   4.591  13.539  1.00  0.00     0.034 A 
BRANCH  55  69
ATOM     69  C   UNL     1       5.295   9.503   9.870  1.00  0.00     0.023 A 
ATOM     70  C   UNL     1       4.196  10.016  10.595  1.00  0.00     0.031 A 
ATOM     71  C   UNL     1       5.863  10.401   8.946  1.00  0.00     0.131 A 
ATOM     72  C   UNL     1       3.639  11.276  10.300  1.00  0.00     0.055 A 
ATOM     73  C   UNL     1       5.271  11.625   8.602  1.00  0.00     0.041 A 
ATOM     74  F   UNL     1       7.053  10.174   8.380  1.00  0.00    -0.206 F 
ATOM     75  C   UNL     1       4.139  12.061   9.268  1.00  0.00     0.022 A 
BRANCH  72  76
ATOM     76  S   UNL     1       2.246  11.883  11.291  1.00  0.00     0.124 S 
ATOM     77  O   UNL     1       1.241  10.845  11.086  1.00  0.00    -0.237 OA
ATOM     78  O   UNL     1       2.830  11.963  12.625  1.00  0.00    -0.237 OA
ATOM     79  O   UNL     1       1.932  13.174  10.680  1.00  0.00    -0.744 OA
ENDBRANCH  72  76
ENDBRANCH  55  69
BRANCH  56  80
ATOM     80  C   UNL     1       6.411  -0.120   9.814  1.00  0.00     0.023 A 
ATOM     81  C   UNL     1       5.815  -1.137   9.038  1.00  0.00     0.031 A 
ATOM     82  C   UNL     1       7.793   0.071   9.690  1.00  0.00     0.131 A 
ATOM     83  C   UNL     1       6.567  -1.831   8.079  1.00  0.00     0.055 A 
ATOM     84  C   UNL     1       8.550  -0.660   8.765  1.00  0.00     0.041 A 
ATOM     85  F   UNL     1       8.413   1.042  10.375  1.00  0.00    -0.206 F 
ATOM     86  C   UNL     1       7.931  -1.586   7.926  1.00  0.00     0.022 A 
BRANCH  83  87
ATOM     87  S   UNL     1       5.710  -2.865   6.862  1.00  0.00     0.124 S 
ATOM     88  O   UNL     1       5.818  -4.197   7.444  1.00  0.00    -0.237 OA
ATOM     89  O   UNL     1       4.368  -2.288   6.832  1.00  0.00    -0.237 OA
ATOM     90  O   UNL     1       6.470  -2.649   5.631  1.00  0.00    -0.744 OA
ENDBRANCH  83  87
ENDBRANCH  56  80
BRANCH  68  91
ATOM     91  C   UNL     1       6.790   5.099  14.810  1.00  0.00     0.023 A 
ATOM     92  C   UNL     1       7.798   4.407  15.499  1.00  0.00     0.031 A 
ATOM     93  C   UNL     1       6.448   6.369  15.337  1.00  0.00     0.131 A 
ATOM     94  C   UNL     1       8.350   4.918  16.689  1.00  0.00     0.055 A 
ATOM     95  C   UNL     1       7.058   6.912  16.473  1.00  0.00     0.041 A 
ATOM     96  F   UNL     1       5.507   7.137  14.769  1.00  0.00    -0.206 F 
ATOM     97  C   UNL     1       8.003   6.178  17.169  1.00  0.00     0.022 A 
BRANCH  94  98
ATOM     98  S   UNL     1       9.479   3.864  17.639  1.00  0.00     0.124 S 
ATOM     99  O   UNL     1       8.625   2.723  17.960  1.00  0.00    -0.237 OA
ATOM    100  O   UNL     1      10.548   3.605  16.680  1.00  0.00    -0.237 OA
ATOM    101  O   UNL     1       9.854   4.697  18.779  1.00  0.00    -0.744 OA
ENDBRANCH  94  98
ENDBRANCH  68  91
ENDBRANCH  42  43
ENDBRANCH  34  37
ENDBRANCH  32  33
ENDBRANCH  31  32
ENDBRANCH   1  31
TORSDOF 19
