REMARK SMILES C[C@@H]1CCC[C@H](C)[N@H+]1Cc1cc2c(cc1Cl)C=C(C(=O)NCCCNC(=O)c1ccc(-c3c4nc(c(-c5cc(S(=O)(=O)[O-])ccc5F)c5ccc([nH]5)c(-c5cc(S(=O)(=O)[O-])ccc5F)c5nc(c(-c6cc(S(=O)(=O)[O-])ccc6F)c6ccc3[nH]6)C=C5)C=C4)cc1)[C@@H](C(F)(F)F)O2
REMARK SMILES IDX 23 1 22 2 21 3 19 4 20 5 18 7 10 8 11 9 15 10 12 11 14 12
REMARK SMILES IDX 16 13 13 14 96 15 17 16 91 17 9 18 8 19 7 20 6 21 5 22 4 23
REMARK SMILES IDX 2 24 3 26 1 27 92 28 93 29 94 30 95 31 24 32 25 33 26 34
REMARK SMILES IDX 27 36 28 37 29 38 90 39 30 40 89 41 31 42 32 43 33 44 83 45
REMARK SMILES IDX 34 46 88 47 82 48 84 49 35 50 87 51 81 52 80 53 36 55 68 56
REMARK SMILES IDX 48 57 67 58 49 59 52 60 66 61 85 62 50 63 51 64 65 66 86 67
REMARK SMILES IDX 53 68 37 69 38 70 46 71 39 72 45 73 47 74 44 75 40 76 41 77
REMARK SMILES IDX 42 78 43 79 69 80 70 81 78 82 71 83 77 84 79 85 76 86 72 87
REMARK SMILES IDX 73 88 74 89 75 90 54 91 55 92 63 93 56 94 62 95 64 96 61 97
REMARK SMILES IDX 57 98 58 99 59 100 60 101
REMARK H PARENT 21 6 8 25 25 35 84 54 52 65
REMARK Flexibility Score: inf
ROOT
ATOM      1  C   UNL     1      -3.797   7.307  -6.270  1.00  0.00     0.042 C 
ENDROOT
BRANCH   1   2
ATOM      2  C   UNL     1      -2.850   6.644  -7.254  1.00  0.00     0.118 C 
BRANCH   2   3
ATOM      3  N   UNL     1      -1.463   6.963  -6.960  1.00  0.00    -0.352 N 
ATOM      4  C   UNL     1      -0.364   6.285  -6.562  1.00  0.00     0.251 C 
ATOM      5  O   UNL     1       0.671   6.951  -6.463  1.00  0.00    -0.270 OA
ATOM      6  H   UNL     1      -1.275   7.922  -7.083  1.00  0.00     0.163 HD
BRANCH   4   7
ATOM      7  C   UNL     1      -0.338   4.832  -6.249  1.00  0.00     0.067 C 
ATOM      8  C   UNL     1       1.070   0.338  -4.490  1.00  0.00     0.029 A 
ATOM      9  C   UNL     1      -0.155   1.016  -4.576  1.00  0.00     0.058 A 
ATOM     10  C   UNL     1       2.163   0.858  -5.206  1.00  0.00     0.050 A 
ATOM     11  C   UNL     1      -0.218   2.269  -5.172  1.00  0.00     0.128 A 
ATOM     12  C   UNL     1       2.110   2.147  -5.747  1.00  0.00     0.033 A 
ATOM     13  Cl  UNL     1       3.633  -0.022  -5.434  1.00  0.00    -0.084 Cl
ATOM     14  C   UNL     1       0.931   2.879  -5.673  1.00  0.00     0.019 A 
ATOM     15  O   UNL     1      -1.432   2.897  -5.168  1.00  0.00    -0.475 OA
ATOM     16  C   UNL     1       0.874   4.289  -6.037  1.00  0.00     0.025 C 
ATOM     17  C   UNL     1      -1.554   3.954  -6.160  1.00  0.00     0.314 C 
BRANCH   8  18
ATOM     18  C   UNL     1       1.173  -0.828  -3.528  1.00  0.00     0.301 C 
BRANCH  18  19
ATOM     19  N   UNL     1       1.528  -0.490  -2.125  1.00  0.00    -0.327 N 
ATOM     20  C   UNL     1       0.405  -0.293   0.077  1.00  0.00     0.075 C 
ATOM     21  C   UNL     1       0.490   0.231  -1.365  1.00  0.00     0.181 C 
ATOM     22  C   UNL     1       0.643   1.762  -1.357  1.00  0.00     0.065 C 
ATOM     23  C   UNL     1       2.058   2.225  -1.046  1.00  0.00     0.012 C 
ATOM     24  C   UNL     1       2.911  -0.014  -1.947  1.00  0.00     0.181 C 
ATOM     25  H   UNL     1       1.535  -1.393  -1.650  1.00  0.00     0.348 HD
ATOM     26  C   UNL     1       3.071   1.516  -1.933  1.00  0.00     0.065 C 
ATOM     27  C   UNL     1       3.571  -0.636  -0.709  1.00  0.00     0.075 C 
ENDBRANCH  18  19
ENDBRANCH   8  18
BRANCH  17  28
ATOM     28  C   UNL     1      -1.921   3.366  -7.542  1.00  0.00     0.429 C 
ATOM     29  F   UNL     1      -3.200   2.918  -7.549  1.00  0.00    -0.167 F 
ATOM     30  F   UNL     1      -1.828   4.286  -8.534  1.00  0.00    -0.167 F 
ATOM     31  F   UNL     1      -1.129   2.333  -7.908  1.00  0.00    -0.167 F 
ENDBRANCH  17  28
ENDBRANCH   4   7
ENDBRANCH   2   3
ENDBRANCH   1   2
BRANCH   1  32
ATOM     32  C   UNL     1      -4.027   8.770  -6.608  1.00  0.00     0.118 C 
BRANCH  32  33
ATOM     33  N   UNL     1      -4.709   8.933  -7.892  1.00  0.00    -0.352 N 
ATOM     34  C   UNL     1      -5.985   9.356  -8.177  1.00  0.00     0.251 C 
ATOM     35  H   UNL     1      -4.165   8.702  -8.679  1.00  0.00     0.163 HD
ATOM     36  O   UNL     1      -6.444   9.170  -9.302  1.00  0.00    -0.269 OA
BRANCH  34  37
ATOM     37  C   UNL     1      -6.797  10.007  -7.130  1.00  0.00     0.039 A 
ATOM     38  C   UNL     1      -6.190  10.860  -6.211  1.00  0.00     0.014 A 
ATOM     39  C   UNL     1      -8.170   9.761  -7.055  1.00  0.00     0.014 A 
ATOM     40  C   UNL     1      -6.893  11.270  -5.092  1.00  0.00     0.010 A 
ATOM     41  C   UNL     1      -8.912  10.304  -6.001  1.00  0.00     0.010 A 
ATOM     42  C   UNL     1      -8.269  11.017  -4.979  1.00  0.00    -0.014 A 
BRANCH  42  43
ATOM     43  C   UNL     1      -8.993  11.555  -3.798  1.00  0.00     0.031 A 
ATOM     44  C   UNL     1      -9.704  10.646  -2.835  1.00  0.00     0.074 A 
ATOM     45  C   UNL     1      -8.941  12.882  -3.565  1.00  0.00     0.049 A 
ATOM     46  N   UNL     1     -10.316  10.953  -1.721  1.00  0.00    -0.248 NA
ATOM     47  C   UNL     1      -9.748   9.212  -3.162  1.00  0.00     0.031 C 
ATOM     48  C   UNL     1      -8.289  13.855  -4.444  1.00  0.00     0.029 A 
ATOM     49  N   UNL     1      -9.399  13.639  -2.517  1.00  0.00    -0.354 N 
ATOM     50  C   UNL     1     -10.841   9.764  -1.230  1.00  0.00     0.074 A 
ATOM     51  C   UNL     1     -10.503   8.731  -2.184  1.00  0.00     0.031 C 
ATOM     52  C   UNL     1      -8.315  15.060  -3.863  1.00  0.00     0.029 A 
ATOM     53  C   UNL     1      -9.072  14.971  -2.618  1.00  0.00     0.049 A 
ATOM     54  H   UNL     1      -9.912  13.264  -1.764  1.00  0.00     0.167 HD
ATOM     55  C   UNL     1     -11.530   9.557  -0.083  1.00  0.00     0.034 A 
ATOM     56  C   UNL     1      -9.358  16.016  -1.816  1.00  0.00     0.034 A 
ATOM     57  C   UNL     1     -11.829  10.600   0.869  1.00  0.00     0.049 A 
ATOM     58  C   UNL     1     -10.123  15.757  -0.547  1.00  0.00     0.074 A 
ATOM     59  C   UNL     1     -12.473  10.479   2.088  1.00  0.00     0.029 A 
ATOM     60  N   UNL     1     -11.514  11.943   0.717  1.00  0.00    -0.354 N 
ATOM     61  N   UNL     1     -10.556  14.615  -0.067  1.00  0.00    -0.248 NA
ATOM     62  C   UNL     1     -10.436  16.919   0.292  1.00  0.00     0.031 C 
ATOM     63  C   UNL     1     -12.621  11.755   2.631  1.00  0.00     0.029 A 
ATOM     64  C   UNL     1     -11.987  12.667   1.802  1.00  0.00     0.049 A 
ATOM     65  H   UNL     1     -11.027  12.326  -0.048  1.00  0.00     0.167 HD
ATOM     66  C   UNL     1     -11.188  14.920   1.133  1.00  0.00     0.074 A 
ATOM     67  C   UNL     1     -11.040  16.348   1.326  1.00  0.00     0.031 C 
ATOM     68  C   UNL     1     -11.841  14.092   1.989  1.00  0.00     0.034 A 
BRANCH  55  69
ATOM     69  C   UNL     1     -12.020   8.164   0.235  1.00  0.00     0.023 A 
ATOM     70  C   UNL     1     -13.401   7.929   0.383  1.00  0.00     0.031 A 
ATOM     71  C   UNL     1     -11.134   7.113   0.532  1.00  0.00     0.131 A 
ATOM     72  C   UNL     1     -13.852   6.692   0.859  1.00  0.00     0.055 A 
ATOM     73  C   UNL     1     -11.592   5.864   0.957  1.00  0.00     0.041 A 
ATOM     74  F   UNL     1      -9.807   7.283   0.410  1.00  0.00    -0.206 F 
ATOM     75  C   UNL     1     -12.956   5.655   1.138  1.00  0.00     0.022 A 
BRANCH  72  76
ATOM     76  S   UNL     1     -15.608   6.407   1.213  1.00  0.00     0.124 S 
ATOM     77  O   UNL     1     -15.908   5.271   0.344  1.00  0.00    -0.237 OA
ATOM     78  O   UNL     1     -15.585   6.110   2.643  1.00  0.00    -0.237 OA
ATOM     79  O   UNL     1     -16.250   7.662   0.838  1.00  0.00    -0.744 OA
ENDBRANCH  72  76
ENDBRANCH  55  69
BRANCH  56  80
ATOM     80  C   UNL     1      -8.873  17.373  -2.202  1.00  0.00     0.023 A 
ATOM     81  C   UNL     1      -9.260  17.949  -3.427  1.00  0.00     0.031 A 
ATOM     82  C   UNL     1      -7.909  18.044  -1.433  1.00  0.00     0.131 A 
ATOM     83  C   UNL     1      -8.612  19.099  -3.893  1.00  0.00     0.055 A 
ATOM     84  C   UNL     1      -7.331  19.241  -1.861  1.00  0.00     0.041 A 
ATOM     85  F   UNL     1      -7.496  17.530  -0.265  1.00  0.00    -0.206 F 
ATOM     86  C   UNL     1      -7.664  19.761  -3.109  1.00  0.00     0.022 A 
BRANCH  83  87
ATOM     87  S   UNL     1      -8.854  19.670  -5.599  1.00  0.00     0.124 S 
ATOM     88  O   UNL     1      -9.350  21.027  -5.400  1.00  0.00    -0.237 OA
ATOM     89  O   UNL     1      -7.500  19.564  -6.141  1.00  0.00    -0.237 OA
ATOM     90  O   UNL     1      -9.815  18.720  -6.148  1.00  0.00    -0.744 OA
ENDBRANCH  83  87
ENDBRANCH  56  80
BRANCH  68  91
ATOM     91  C   UNL     1     -12.471  14.691   3.225  1.00  0.00     0.023 A 
ATOM     92  C   UNL     1     -12.063  14.264   4.503  1.00  0.00     0.031 A 
ATOM     93  C   UNL     1     -13.564  15.572   3.139  1.00  0.00     0.131 A 
ATOM     94  C   UNL     1     -12.768  14.683   5.638  1.00  0.00     0.055 A 
ATOM     95  C   UNL     1     -14.226  16.034   4.277  1.00  0.00     0.041 A 
ATOM     96  F   UNL     1     -14.002  16.000   1.944  1.00  0.00    -0.206 F 
ATOM     97  C   UNL     1     -13.839  15.575   5.533  1.00  0.00     0.022 A 
BRANCH  94  98
ATOM     98  S   UNL     1     -12.387  14.008   7.278  1.00  0.00     0.124 S 
ATOM     99  O   UNL     1     -11.976  15.204   8.008  1.00  0.00    -0.237 OA
ATOM    100  O   UNL     1     -13.671  13.440   7.683  1.00  0.00    -0.237 OA
ATOM    101  O   UNL     1     -11.326  13.039   7.024  1.00  0.00    -0.744 OA
ENDBRANCH  94  98
ENDBRANCH  68  91
ENDBRANCH  42  43
ENDBRANCH  34  37
ENDBRANCH  32  33
ENDBRANCH   1  32
TORSDOF 16
