REMARK SMILES C[C@@H]1C[C@H](C)C[C@H]([N@@H+]2[C@@H](C(=O)NCCCNC(=O)c3ccc(-c4c5nc(c(-c6cc(S(=O)(=O)[O-])ccc6F)c6ccc([nH]6)c(-c6cc(S(=O)(=O)[O-])ccc6F)c6nc(c(-c7cc(S(=O)(=O)[O-])ccc7F)c7ccc4[nH]7)C=C6)C=C5)cc3)CC[C@@H]3CCCC[C@@H]32)C1
REMARK SMILES IDX 15 1 14 2 13 3 12 4 10 5 11 6 9 8 8 9 89 10 82 12 84 13
REMARK SMILES IDX 88 14 83 15 85 16 87 17 86 18 7 19 5 20 4 21 6 22 3 23 2 24
REMARK SMILES IDX 90 25 1 26 16 27 17 28 18 30 19 31 20 32 81 33 21 34 80 35
REMARK SMILES IDX 22 36 23 37 24 38 74 39 25 40 79 41 73 42 75 43 26 44 78 45
REMARK SMILES IDX 72 46 71 47 27 49 59 50 39 51 58 52 40 53 43 54 57 55 76 56
REMARK SMILES IDX 41 57 42 58 56 60 77 61 44 62 28 63 29 64 37 65 30 66 36 67
REMARK SMILES IDX 38 68 35 69 31 70 32 71 33 72 34 73 60 74 61 75 69 76 62 77
REMARK SMILES IDX 68 78 70 79 67 80 63 81 64 82 65 83 66 84 45 85 46 86 54 87
REMARK SMILES IDX 47 88 53 89 55 90 52 91 48 92 49 93 50 94 51 95
REMARK H PARENT 12 7 8 11 16 29 75 48 43 59
REMARK Flexibility Score: inf
ROOT
ATOM      1  C   UNL     1       3.782   1.351  -5.747  1.00  0.00     0.118 C 
ENDROOT
BRANCH   1   2
ATOM      2  C   UNL     1       2.795   0.562  -4.897  1.00  0.00     0.042 C 
BRANCH   2   3
ATOM      3  C   UNL     1       3.025  -0.946  -4.946  1.00  0.00     0.118 C 
BRANCH   3   4
ATOM      4  N   UNL     1       4.148  -1.345  -4.124  1.00  0.00    -0.351 N 
ATOM      5  C   UNL     1       4.148  -2.009  -2.929  1.00  0.00     0.278 C 
ATOM      6  O   UNL     1       5.249  -2.258  -2.432  1.00  0.00    -0.268 OA
ATOM      7  H   UNL     1       5.036  -1.105  -4.476  1.00  0.00     0.163 HD
BRANCH   5   8
ATOM      8  C   UNL     1       2.803  -2.463  -2.290  1.00  0.00     0.274 C 
ATOM      9  N   UNL     1       2.022  -1.305  -1.710  1.00  0.00    -0.320 N 
ATOM     10  C   UNL     1       2.748  -0.801  -0.504  1.00  0.00     0.188 C 
ATOM     11  H   UNL     1       1.990  -0.396  -2.172  1.00  0.00     0.349 HD
ATOM     12  C   UNL     1       2.985  -3.575  -1.244  1.00  0.00     0.076 C 
ATOM     13  C   UNL     1       3.214  -1.802   0.580  1.00  0.00     0.048 C 
ATOM     14  C   UNL     1       2.382   0.549   0.132  1.00  0.00     0.065 C 
ATOM     15  C   UNL     1       3.709  -3.131   0.017  1.00  0.00     0.016 C 
ATOM     16  C   UNL     1       2.206  -1.976   1.705  1.00  0.00     0.010 C 
ATOM     17  C   UNL     1       2.211   0.617   1.659  1.00  0.00     0.006 C 
ATOM     18  C   UNL     1       1.961  -0.671   2.447  1.00  0.00     0.001 C 
BRANCH   9  19
ATOM     19  C   UNL     1       0.549  -1.505  -1.918  1.00  0.00     0.185 C 
ATOM     20  C   UNL     1      -0.948   0.227   0.604  1.00  0.00     0.008 C 
ATOM     21  C   UNL     1      -1.493  -0.713  -0.445  1.00  0.00    -0.008 C 
ATOM     22  C   UNL     1      -0.507  -1.812  -0.847  1.00  0.00     0.068 C 
ATOM     23  C   UNL     1      -2.064   0.049  -1.638  1.00  0.00     0.007 C 
ATOM     24  C   UNL     1      -1.046   0.479  -2.695  1.00  0.00    -0.008 C 
ATOM     25  C   UNL     1      -0.073  -0.646  -3.057  1.00  0.00     0.068 C 
ATOM     26  C   UNL     1      -0.322   1.794  -2.407  1.00  0.00     0.008 C 
ENDBRANCH   9  19
ENDBRANCH   5   8
ENDBRANCH   3   4
ENDBRANCH   2   3
ENDBRANCH   1   2
BRANCH   1  27
ATOM     27  N   UNL     1       3.571   1.113  -7.170  1.00  0.00    -0.352 N 
ATOM     28  C   UNL     1       3.225   1.984  -8.174  1.00  0.00     0.251 C 
ATOM     29  H   UNL     1       3.697   0.180  -7.457  1.00  0.00     0.163 HD
ATOM     30  O   UNL     1       2.852   1.532  -9.252  1.00  0.00    -0.269 OA
BRANCH  28  31
ATOM     31  C   UNL     1       3.286   3.447  -7.958  1.00  0.00     0.039 A 
ATOM     32  C   UNL     1       2.291   4.254  -8.518  1.00  0.00     0.014 A 
ATOM     33  C   UNL     1       4.331   4.031  -7.238  1.00  0.00     0.014 A 
ATOM     34  C   UNL     1       2.308   5.634  -8.298  1.00  0.00     0.010 A 
ATOM     35  C   UNL     1       4.306   5.394  -6.955  1.00  0.00     0.010 A 
ATOM     36  C   UNL     1       3.293   6.210  -7.481  1.00  0.00    -0.014 A 
BRANCH  36  37
ATOM     37  C   UNL     1       3.278   7.660  -7.154  1.00  0.00     0.031 A 
ATOM     38  C   UNL     1       4.412   8.547  -7.592  1.00  0.00     0.074 A 
ATOM     39  C   UNL     1       2.280   8.159  -6.397  1.00  0.00     0.049 A 
ATOM     40  N   UNL     1       4.632   9.807  -7.316  1.00  0.00    -0.248 NA
ATOM     41  C   UNL     1       5.452   7.925  -8.426  1.00  0.00     0.031 C 
ATOM     42  C   UNL     1       1.146   7.387  -5.881  1.00  0.00     0.029 A 
ATOM     43  N   UNL     1       2.064   9.425  -5.914  1.00  0.00    -0.354 N 
ATOM     44  C   UNL     1       5.841  10.125  -7.926  1.00  0.00     0.074 A 
ATOM     45  C   UNL     1       6.330   8.910  -8.543  1.00  0.00     0.031 C 
ATOM     46  C   UNL     1       0.350   8.198  -5.167  1.00  0.00     0.029 A 
ATOM     47  C   UNL     1       0.940   9.533  -5.128  1.00  0.00     0.049 A 
ATOM     48  H   UNL     1       2.659  10.185  -6.110  1.00  0.00     0.167 HD
ATOM     49  C   UNL     1       6.474  11.323  -7.978  1.00  0.00     0.034 A 
ATOM     50  C   UNL     1       0.450  10.580  -4.435  1.00  0.00     0.034 A 
ATOM     51  C   UNL     1       5.964  12.527  -7.368  1.00  0.00     0.049 A 
ATOM     52  C   UNL     1       1.184  11.896  -4.492  1.00  0.00     0.074 A 
ATOM     53  C   UNL     1       6.489  13.807  -7.418  1.00  0.00     0.029 A 
ATOM     54  N   UNL     1       4.817  12.601  -6.586  1.00  0.00    -0.354 N 
ATOM     55  N   UNL     1       2.297  12.194  -5.122  1.00  0.00    -0.248 NA
ATOM     56  C   UNL     1       0.591  13.018  -3.752  1.00  0.00     0.031 C 
ATOM     57  C   UNL     1       5.704  14.636  -6.609  1.00  0.00     0.029 A 
ATOM     58  C   UNL     1       4.641  13.895  -6.119  1.00  0.00     0.049 A 
ATOM     59  H   UNL     1       4.218  11.844  -6.392  1.00  0.00     0.167 HD
ATOM     60  C   UNL     1       2.521  13.546  -4.876  1.00  0.00     0.074 A 
ATOM     61  C   UNL     1       1.418  14.007  -4.058  1.00  0.00     0.031 C 
ATOM     62  C   UNL     1       3.543  14.338  -5.291  1.00  0.00     0.034 A 
BRANCH  49  63
ATOM     63  C   UNL     1       7.803  11.381  -8.695  1.00  0.00     0.023 A 
ATOM     64  C   UNL     1       7.916  11.116 -10.071  1.00  0.00     0.031 A 
ATOM     65  C   UNL     1       8.977  11.697  -7.988  1.00  0.00     0.131 A 
ATOM     66  C   UNL     1       9.180  11.103 -10.681  1.00  0.00     0.055 A 
ATOM     67  C   UNL     1      10.222  11.761  -8.618  1.00  0.00     0.041 A 
ATOM     68  F   UNL     1       8.937  11.939  -6.669  1.00  0.00    -0.206 F 
ATOM     69  C   UNL     1      10.331  11.449  -9.970  1.00  0.00     0.022 A 
BRANCH  66  70
ATOM     70  S   UNL     1       9.313  10.498 -12.386  1.00  0.00     0.124 S 
ATOM     71  O   UNL     1       8.782   9.143 -12.260  1.00  0.00    -0.237 OA
ATOM     72  O   UNL     1       8.484  11.444 -13.123  1.00  0.00    -0.237 OA
ATOM     73  O   UNL     1      10.746  10.573 -12.665  1.00  0.00    -0.744 OA
ENDBRANCH  66  70
ENDBRANCH  49  63
BRANCH  50  74
ATOM     74  C   UNL     1      -0.781  10.430  -3.606  1.00  0.00     0.023 A 
ATOM     75  C   UNL     1      -1.947  11.153  -3.902  1.00  0.00     0.031 A 
ATOM     76  C   UNL     1      -0.793   9.595  -2.474  1.00  0.00     0.131 A 
ATOM     77  C   UNL     1      -3.059  11.068  -3.049  1.00  0.00     0.055 A 
ATOM     78  C   UNL     1      -1.921   9.469  -1.662  1.00  0.00     0.041 A 
ATOM     79  F   UNL     1       0.293   8.877  -2.147  1.00  0.00    -0.206 F 
ATOM     80  C   UNL     1      -3.059  10.220  -1.939  1.00  0.00     0.022 A 
BRANCH  77  81
ATOM     81  S   UNL     1      -4.476  12.157  -3.360  1.00  0.00     0.124 S 
ATOM     82  O   UNL     1      -3.853  13.475  -3.316  1.00  0.00    -0.237 OA
ATOM     83  O   UNL     1      -4.925  11.702  -4.671  1.00  0.00    -0.237 OA
ATOM     84  O   UNL     1      -5.383  11.857  -2.254  1.00  0.00    -0.744 OA
ENDBRANCH  77  81
ENDBRANCH  50  74
BRANCH  62  85
ATOM     85  C   UNL     1       3.486  15.794  -4.897  1.00  0.00     0.023 A 
ATOM     86  C   UNL     1       3.601  16.203  -3.557  1.00  0.00     0.031 A 
ATOM     87  C   UNL     1       3.300  16.784  -5.878  1.00  0.00     0.131 A 
ATOM     88  C   UNL     1       3.472  17.561  -3.228  1.00  0.00     0.055 A 
ATOM     89  C   UNL     1       3.235  18.139  -5.551  1.00  0.00     0.041 A 
ATOM     90  F   UNL     1       3.180  16.450  -7.173  1.00  0.00    -0.206 F 
ATOM     91  C   UNL     1       3.308  18.533  -4.218  1.00  0.00     0.022 A 
BRANCH  88  92
ATOM     92  S   UNL     1       3.425  18.033  -1.477  1.00  0.00     0.124 S 
ATOM     93  O   UNL     1       2.281  17.271  -0.988  1.00  0.00    -0.237 OA
ATOM     94  O   UNL     1       4.733  17.595  -1.000  1.00  0.00    -0.237 OA
ATOM     95  O   UNL     1       3.235  19.482  -1.517  1.00  0.00    -0.744 OA
ENDBRANCH  88  92
ENDBRANCH  62  85
ENDBRANCH  36  37
ENDBRANCH  28  31
ENDBRANCH   1  27
TORSDOF 14
