REMARK SMILES O=C(Cn1c(=O)c2c3c(sc2n(Cc2ccc(Cl)cc2Cl)c1=O)CCCC3)NCCCNC(=O)c1ccc(-c2c3nc(c(-c4cc(S(=O)(=O)[O-])ccc4F)c4ccc([nH]4)c(-c4cc(S(=O)(=O)[O-])ccc4F)c4nc(c(-c5cc(S(=O)(=O)[O-])ccc5F)c5ccc2[nH]5)C=C4)C=C3)cc1
REMARK SMILES IDX 30 1 29 2 28 3 1 4 2 5 3 7 4 8 5 9 22 10 6 11 7 12 12 13
REMARK SMILES IDX 23 14 8 15 11 16 9 17 27 18 10 19 24 20 26 21 25 22 13 23
REMARK SMILES IDX 14 24 15 25 20 26 16 27 19 28 21 29 17 30 18 31 31 32 32 33
REMARK SMILES IDX 33 34 34 36 35 37 36 38 97 39 37 40 96 41 38 42 39 43 40 44
REMARK SMILES IDX 90 45 41 46 95 47 89 48 91 49 42 50 94 51 88 52 87 53 43 55
REMARK SMILES IDX 75 56 55 57 74 58 56 59 59 60 73 61 92 62 57 63 58 64 72 66
REMARK SMILES IDX 93 67 60 68 44 69 45 70 53 71 46 72 52 73 54 74 51 75 47 76
REMARK SMILES IDX 48 77 49 78 50 79 76 80 77 81 85 82 78 83 84 84 86 85 83 86
REMARK SMILES IDX 79 87 80 88 81 89 82 90 61 91 62 92 70 93 63 94 69 95 71 96
REMARK SMILES IDX 68 97 64 98 65 99 66 100 67 101
REMARK H PARENT 28 6 32 35 91 54 59 65
REMARK Flexibility Score: inf
ROOT
ATOM      1  C   UNL     1       3.008   3.959  -0.245  1.00  0.00     0.042 C 
ENDROOT
BRANCH   1   2
ATOM      2  C   UNL     1       2.628   2.624  -0.897  1.00  0.00     0.117 C 
BRANCH   2   3
ATOM      3  N   UNL     1       3.286   1.487  -0.283  1.00  0.00    -0.354 N 
ATOM      4  O   UNL     1       1.499   0.037  -0.361  1.00  0.00    -0.273 OA
ATOM      5  C   UNL     1       2.662   0.275  -0.047  1.00  0.00     0.240 C 
ATOM      6  H   UNL     1       4.230   1.583  -0.019  1.00  0.00     0.163 HD
BRANCH   5   7
ATOM      7  C   UNL     1       3.599  -0.796   0.530  1.00  0.00     0.230 C 
BRANCH   7   8
ATOM      8  N   UNL     1       4.150  -1.608  -0.551  1.00  0.00    -0.250 N 
ATOM      9  C   UNL     1       3.817  -2.961  -0.588  1.00  0.00     0.265 A 
ATOM     10  C   UNL     1       5.080  -0.976  -1.392  1.00  0.00     0.332 A 
ATOM     11  O   UNL     1       3.147  -3.532   0.278  1.00  0.00    -0.268 OA
ATOM     12  C   UNL     1       4.362  -3.682  -1.715  1.00  0.00     0.079 A 
ATOM     13  N   UNL     1       5.513  -1.668  -2.526  1.00  0.00    -0.280 N 
ATOM     14  O   UNL     1       5.484   0.163  -1.133  1.00  0.00    -0.247 OA
ATOM     15  C   UNL     1       4.333  -5.091  -2.028  1.00  0.00    -0.019 A 
ATOM     16  C   UNL     1       5.104  -2.988  -2.639  1.00  0.00     0.113 A 
ATOM     17  C   UNL     1       5.011  -5.345  -3.207  1.00  0.00     0.011 A 
ATOM     18  C   UNL     1       3.772  -6.213  -1.200  1.00  0.00     0.037 C 
ATOM     19  S   UNL     1       5.496  -3.926  -3.983  1.00  0.00    -0.122 S 
ATOM     20  C   UNL     1       5.299  -6.688  -3.793  1.00  0.00     0.047 C 
ATOM     21  C   UNL     1       3.768  -7.550  -1.970  1.00  0.00     0.005 C 
ATOM     22  C   UNL     1       5.078  -7.778  -2.738  1.00  0.00     0.006 C 
BRANCH  13  23
ATOM     23  C   UNL     1       6.413  -0.973  -3.476  1.00  0.00     0.165 C 
BRANCH  23  24
ATOM     24  C   UNL     1       7.889  -1.244  -3.228  1.00  0.00    -0.009 A 
ATOM     25  C   UNL     1       8.519  -0.596  -2.147  1.00  0.00     0.008 A 
ATOM     26  C   UNL     1       8.677  -2.106  -4.015  1.00  0.00     0.047 A 
ATOM     27  C   UNL     1       9.854  -0.855  -1.822  1.00  0.00     0.021 A 
ATOM     28  C   UNL     1       9.989  -2.421  -3.646  1.00  0.00     0.041 A 
ATOM     29  Cl  UNL     1       8.158  -2.735  -5.539  1.00  0.00    -0.084 Cl
ATOM     30  C   UNL     1      10.571  -1.796  -2.550  1.00  0.00     0.042 A 
ATOM     31  Cl  UNL     1      12.194  -2.166  -2.122  1.00  0.00    -0.084 Cl
ENDBRANCH  23  24
ENDBRANCH  13  23
ENDBRANCH   7   8
ENDBRANCH   5   7
ENDBRANCH   2   3
ENDBRANCH   1   2
BRANCH   1  32
ATOM     32  C   UNL     1       4.468   4.407  -0.428  1.00  0.00     0.118 C 
BRANCH  32  33
ATOM     33  N   UNL     1       4.791   4.651  -1.824  1.00  0.00    -0.352 N 
ATOM     34  C   UNL     1       5.400   5.707  -2.454  1.00  0.00     0.251 C 
ATOM     35  H   UNL     1       4.523   3.924  -2.430  1.00  0.00     0.163 HD
ATOM     36  O   UNL     1       5.349   5.742  -3.683  1.00  0.00    -0.269 OA
BRANCH  34  37
ATOM     37  C   UNL     1       6.103   6.794  -1.730  1.00  0.00     0.039 A 
ATOM     38  C   UNL     1       5.985   8.096  -2.240  1.00  0.00     0.014 A 
ATOM     39  C   UNL     1       6.977   6.554  -0.670  1.00  0.00     0.014 A 
ATOM     40  C   UNL     1       6.688   9.159  -1.661  1.00  0.00     0.010 A 
ATOM     41  C   UNL     1       7.684   7.622  -0.093  1.00  0.00     0.010 A 
ATOM     42  C   UNL     1       7.528   8.938  -0.565  1.00  0.00    -0.014 A 
BRANCH  42  43
ATOM     43  C   UNL     1       8.111  10.115   0.126  1.00  0.00     0.031 A 
ATOM     44  C   UNL     1       8.052  10.082   1.611  1.00  0.00     0.074 A 
ATOM     45  C   UNL     1       9.114  10.877  -0.365  1.00  0.00     0.049 A 
ATOM     46  N   UNL     1       8.914   9.384   2.282  1.00  0.00    -0.248 NA
ATOM     47  C   UNL     1       6.968  10.618   2.426  1.00  0.00     0.031 C 
ATOM     48  C   UNL     1      10.077  10.425  -1.376  1.00  0.00     0.029 A 
ATOM     49  N   UNL     1       9.619  12.085   0.069  1.00  0.00    -0.354 N 
ATOM     50  C   UNL     1       8.498   9.347   3.595  1.00  0.00     0.074 A 
ATOM     51  C   UNL     1       7.278  10.125   3.639  1.00  0.00     0.031 C 
ATOM     52  C   UNL     1      11.131  11.268  -1.375  1.00  0.00     0.029 A 
ATOM     53  C   UNL     1      10.845  12.400  -0.501  1.00  0.00     0.049 A 
ATOM     54  H   UNL     1       9.158  12.665   0.717  1.00  0.00     0.167 HD
ATOM     55  C   UNL     1       9.229   8.705   4.544  1.00  0.00     0.034 A 
ATOM     56  C   UNL     1      11.773  13.263  -0.014  1.00  0.00     0.034 A 
ATOM     57  C   UNL     1      10.527   8.204   4.140  1.00  0.00     0.049 A 
ATOM     58  C   UNL     1      12.381  12.491   1.127  1.00  0.00     0.074 A 
ATOM     59  C   UNL     1      11.344   7.118   4.377  1.00  0.00     0.029 A 
ATOM     60  N   UNL     1      11.233   9.008   3.289  1.00  0.00    -0.354 N 
ATOM     61  N   UNL     1      13.246  11.516   1.013  1.00  0.00    -0.248 NA
ATOM     62  C   UNL     1      11.807  12.638   2.476  1.00  0.00     0.031 C 
ATOM     63  C   UNL     1      12.594   7.366   3.712  1.00  0.00     0.029 A 
ATOM     64  C   UNL     1      12.531   8.618   3.124  1.00  0.00     0.049 A 
ATOM     65  H   UNL     1      10.844   9.791   2.838  1.00  0.00     0.167 HD
ATOM     66  C   UNL     1      13.115  10.785   2.186  1.00  0.00     0.074 A 
ATOM     67  C   UNL     1      12.347  11.600   3.104  1.00  0.00     0.031 C 
ATOM     68  C   UNL     1      13.350   9.445   2.270  1.00  0.00     0.034 A 
BRANCH  55  69
ATOM     69  C   UNL     1       8.874   8.712   5.981  1.00  0.00     0.023 A 
ATOM     70  C   UNL     1       9.649   9.499   6.849  1.00  0.00     0.031 A 
ATOM     71  C   UNL     1       7.905   7.866   6.531  1.00  0.00     0.131 A 
ATOM     72  C   UNL     1       9.457   9.417   8.232  1.00  0.00     0.055 A 
ATOM     73  C   UNL     1       7.718   7.783   7.915  1.00  0.00     0.041 A 
ATOM     74  F   UNL     1       7.155   7.081   5.741  1.00  0.00    -0.206 F 
ATOM     75  C   UNL     1       8.500   8.556   8.774  1.00  0.00     0.022 A 
BRANCH  72  76
ATOM     76  S   UNL     1      10.504  10.429   9.311  1.00  0.00     0.124 S 
ATOM     77  O   UNL     1      11.845  10.004   8.929  1.00  0.00    -0.237 OA
ATOM     78  O   UNL     1      10.118  11.780   8.915  1.00  0.00    -0.237 OA
ATOM     79  O   UNL     1      10.086  10.033  10.655  1.00  0.00    -0.744 OA
ENDBRANCH  72  76
ENDBRANCH  55  69
BRANCH  56  80
ATOM     80  C   UNL     1      11.400  14.714   0.063  1.00  0.00     0.023 A 
ATOM     81  C   UNL     1      10.767  15.305  -1.056  1.00  0.00     0.031 A 
ATOM     82  C   UNL     1      11.700  15.578   1.129  1.00  0.00     0.131 A 
ATOM     83  C   UNL     1      10.377  16.656  -1.044  1.00  0.00     0.055 A 
ATOM     84  C   UNL     1      11.265  16.909   1.163  1.00  0.00     0.041 A 
ATOM     85  F   UNL     1      12.433  15.171   2.174  1.00  0.00    -0.206 F 
ATOM     86  C   UNL     1      10.586  17.451   0.080  1.00  0.00     0.022 A 
BRANCH  83  87
ATOM     87  S   UNL     1       9.565  17.368  -2.504  1.00  0.00     0.124 S 
ATOM     88  O   UNL     1      10.701  17.653  -3.374  1.00  0.00    -0.237 OA
ATOM     89  O   UNL     1       8.681  16.291  -2.940  1.00  0.00    -0.237 OA
ATOM     90  O   UNL     1       8.881  18.543  -1.967  1.00  0.00    -0.744 OA
ENDBRANCH  83  87
ENDBRANCH  56  80
BRANCH  68  91
ATOM     91  C   UNL     1      14.327   8.867   1.316  1.00  0.00     0.023 A 
ATOM     92  C   UNL     1      15.656   9.323   1.345  1.00  0.00     0.031 A 
ATOM     93  C   UNL     1      13.991   7.837   0.428  1.00  0.00     0.131 A 
ATOM     94  C   UNL     1      16.613   8.750   0.503  1.00  0.00     0.055 A 
ATOM     95  C   UNL     1      14.951   7.261  -0.407  1.00  0.00     0.041 A 
ATOM     96  F   UNL     1      12.735   7.367   0.356  1.00  0.00    -0.206 F 
ATOM     97  C   UNL     1      16.269   7.713  -0.368  1.00  0.00     0.022 A 
BRANCH  94  98
ATOM     98  S   UNL     1      18.326   9.329   0.609  1.00  0.00     0.124 S 
ATOM     99  O   UNL     1      18.253  10.648  -0.010  1.00  0.00    -0.237 OA
ATOM    100  O   UNL     1      18.583   9.312   2.046  1.00  0.00    -0.237 OA
ATOM    101  O   UNL     1      19.070   8.328  -0.155  1.00  0.00    -0.744 OA
ENDBRANCH  94  98
ENDBRANCH  68  91
ENDBRANCH  42  43
ENDBRANCH  34  37
ENDBRANCH  32  33
ENDBRANCH   1  32
TORSDOF 16
