REMARK SMILES O=C(NCCCNC(=O)[C@@H](c1ccsc1)[NH+]1CCC(Oc2cccnc2)CC1)c1ccc(-c2c3nc(c(-c4cc(S(=O)(=O)[O-])ccc4F)c4ccc([nH]4)c(-c4cc(S(=O)(=O)[O-])ccc4F)c4nc(c(-c5cc(S(=O)(=O)[O-])ccc5F)c5ccc2[nH]5)C=C4)C=C3)cc1
REMARK SMILES IDX 5 1 4 2 3 3 1 4 2 5 29 7 30 8 91 9 31 10 90 11 32 12 33 13
REMARK SMILES IDX 34 14 84 15 35 16 89 17 83 18 85 19 36 20 88 21 82 22 81 23
REMARK SMILES IDX 37 25 69 26 49 27 68 28 50 29 53 30 67 31 86 32 51 33 52 34
REMARK SMILES IDX 66 36 87 37 54 38 38 39 39 40 47 41 40 42 46 43 48 44 45 45
REMARK SMILES IDX 41 46 42 47 43 48 44 49 70 50 71 51 79 52 72 53 78 54 80 55
REMARK SMILES IDX 77 56 73 57 74 58 75 59 76 60 55 61 56 62 64 63 57 64 63 65
REMARK SMILES IDX 65 66 62 67 58 68 59 69 60 70 61 71 6 72 7 73 8 74 9 76
REMARK SMILES IDX 10 77 11 78 12 79 15 80 13 81 14 82 16 83 17 84 28 85 18 87
REMARK SMILES IDX 27 88 19 89 20 90 21 91 22 92 26 93 23 94 25 95 24 96
REMARK H PARENT 3 6 85 24 53 35 7 75 16 86
REMARK Flexibility Score: inf
ROOT
ATOM      1  C   UNL     1       4.897  -2.337   0.064  1.00  0.00     0.042 C 
ENDROOT
BRANCH   1   2
ATOM      2  C   UNL     1       4.551  -1.000  -0.568  1.00  0.00     0.118 C 
BRANCH   2   3
ATOM      3  N   UNL     1       3.114  -0.780  -0.713  1.00  0.00    -0.352 N 
ATOM      4  O   UNL     1       1.108   0.170  -0.290  1.00  0.00    -0.269 OA
ATOM      5  C   UNL     1       2.329   0.216  -0.176  1.00  0.00     0.251 C 
ATOM      6  H   UNL     1       2.640  -1.436  -1.274  1.00  0.00     0.163 HD
BRANCH   5   7
ATOM      7  C   UNL     1       2.974   1.321   0.564  1.00  0.00     0.039 A 
ATOM      8  C   UNL     1       4.113   1.935   0.045  1.00  0.00     0.014 A 
ATOM      9  C   UNL     1       2.477   1.700   1.814  1.00  0.00     0.014 A 
ATOM     10  C   UNL     1       4.874   2.761   0.859  1.00  0.00     0.010 A 
ATOM     11  C   UNL     1       3.183   2.631   2.583  1.00  0.00     0.010 A 
ATOM     12  C   UNL     1       4.416   3.129   2.136  1.00  0.00    -0.014 A 
BRANCH  12  13
ATOM     13  C   UNL     1       5.248   4.047   2.960  1.00  0.00     0.031 A 
ATOM     14  C   UNL     1       5.802   3.615   4.293  1.00  0.00     0.074 A 
ATOM     15  C   UNL     1       5.552   5.262   2.462  1.00  0.00     0.049 A 
ATOM     16  N   UNL     1       6.560   4.282   5.126  1.00  0.00    -0.248 NA
ATOM     17  C   UNL     1       5.446   2.267   4.758  1.00  0.00     0.031 C 
ATOM     18  C   UNL     1       5.072   5.789   1.181  1.00  0.00     0.029 A 
ATOM     19  N   UNL     1       6.360   6.258   2.945  1.00  0.00    -0.354 N 
ATOM     20  C   UNL     1       6.741   3.454   6.231  1.00  0.00     0.074 A 
ATOM     21  C   UNL     1       5.990   2.243   5.967  1.00  0.00     0.031 C 
ATOM     22  C   UNL     1       5.654   6.972   0.944  1.00  0.00     0.029 A 
ATOM     23  C   UNL     1       6.479   7.330   2.091  1.00  0.00     0.049 A 
ATOM     24  H   UNL     1       6.811   6.212   3.818  1.00  0.00     0.167 HD
ATOM     25  C   UNL     1       7.466   3.683   7.355  1.00  0.00     0.034 A 
ATOM     26  C   UNL     1       7.163   8.483   2.219  1.00  0.00     0.034 A 
ATOM     27  C   UNL     1       8.231   4.888   7.585  1.00  0.00     0.049 A 
ATOM     28  C   UNL     1       7.958   8.711   3.473  1.00  0.00     0.074 A 
ATOM     29  C   UNL     1       9.026   5.213   8.672  1.00  0.00     0.029 A 
ATOM     30  N   UNL     1       8.298   5.969   6.713  1.00  0.00    -0.354 N 
ATOM     31  N   UNL     1       8.111   7.920   4.508  1.00  0.00    -0.248 NA
ATOM     32  C   UNL     1       8.672   9.989   3.573  1.00  0.00     0.031 C 
ATOM     33  C   UNL     1       9.522   6.509   8.485  1.00  0.00     0.029 A 
ATOM     34  C   UNL     1       9.098   6.968   7.248  1.00  0.00     0.049 A 
ATOM     35  H   UNL     1       7.843   6.018   5.841  1.00  0.00     0.167 HD
ATOM     36  C   UNL     1       8.957   8.598   5.378  1.00  0.00     0.074 A 
ATOM     37  C   UNL     1       9.296   9.851   4.733  1.00  0.00     0.031 C 
ATOM     38  C   UNL     1       9.414   8.220   6.600  1.00  0.00     0.034 A 
BRANCH  25  39
ATOM     39  C   UNL     1       7.418   2.634   8.443  1.00  0.00     0.023 A 
ATOM     40  C   UNL     1       7.918   1.334   8.254  1.00  0.00     0.031 A 
ATOM     41  C   UNL     1       6.830   2.935   9.686  1.00  0.00     0.131 A 
ATOM     42  C   UNL     1       7.755   0.365   9.258  1.00  0.00     0.055 A 
ATOM     43  C   UNL     1       6.743   1.990  10.711  1.00  0.00     0.041 A 
ATOM     44  F   UNL     1       6.316   4.152   9.922  1.00  0.00    -0.206 F 
ATOM     45  C   UNL     1       7.192   0.691  10.494  1.00  0.00     0.022 A 
BRANCH  42  46
ATOM     46  S   UNL     1       8.151  -1.363   8.872  1.00  0.00     0.124 S 
ATOM     47  O   UNL     1       7.295  -1.611   7.714  1.00  0.00    -0.237 OA
ATOM     48  O   UNL     1       9.584  -1.306   8.607  1.00  0.00    -0.237 OA
ATOM     49  O   UNL     1       7.768  -2.083  10.085  1.00  0.00    -0.744 OA
ENDBRANCH  42  46
ENDBRANCH  25  39
BRANCH  26  50
ATOM     50  C   UNL     1       7.104   9.510   1.142  1.00  0.00     0.023 A 
ATOM     51  C   UNL     1       8.250   9.860   0.413  1.00  0.00     0.031 A 
ATOM     52  C   UNL     1       5.899  10.167   0.836  1.00  0.00     0.131 A 
ATOM     53  C   UNL     1       8.175  10.863  -0.565  1.00  0.00     0.055 A 
ATOM     54  C   UNL     1       5.818  11.127  -0.173  1.00  0.00     0.041 A 
ATOM     55  F   UNL     1       4.772   9.863   1.500  1.00  0.00    -0.206 F 
ATOM     56  C   UNL     1       6.964  11.488  -0.873  1.00  0.00     0.022 A 
BRANCH  53  57
ATOM     57  S   UNL     1       9.703  11.390  -1.387  1.00  0.00     0.124 S 
ATOM     58  O   UNL     1      10.517  11.819  -0.256  1.00  0.00    -0.237 OA
ATOM     59  O   UNL     1      10.127  10.163  -2.054  1.00  0.00    -0.237 OA
ATOM     60  O   UNL     1       9.258  12.459  -2.278  1.00  0.00    -0.744 OA
ENDBRANCH  53  57
ENDBRANCH  26  50
BRANCH  38  61
ATOM     61  C   UNL     1      10.366   9.167   7.285  1.00  0.00     0.023 A 
ATOM     62  C   UNL     1       9.951  10.432   7.739  1.00  0.00     0.031 A 
ATOM     63  C   UNL     1      11.718   8.816   7.443  1.00  0.00     0.131 A 
ATOM     64  C   UNL     1      10.892  11.327   8.268  1.00  0.00     0.055 A 
ATOM     65  C   UNL     1      12.638   9.688   8.025  1.00  0.00     0.041 A 
ATOM     66  F   UNL     1      12.167   7.623   7.024  1.00  0.00    -0.206 F 
ATOM     67  C   UNL     1      12.231  10.958   8.426  1.00  0.00     0.022 A 
BRANCH  64  68
ATOM     68  S   UNL     1      10.367  13.022   8.643  1.00  0.00     0.124 S 
ATOM     69  O   UNL     1       9.839  13.469   7.358  1.00  0.00    -0.237 OA
ATOM     70  O   UNL     1       9.382  12.815   9.700  1.00  0.00    -0.237 OA
ATOM     71  O   UNL     1      11.602  13.678   9.068  1.00  0.00    -0.744 OA
ENDBRANCH  64  68
ENDBRANCH  38  61
ENDBRANCH  12  13
ENDBRANCH   5   7
ENDBRANCH   2   3
ENDBRANCH   1   2
BRANCH   1  72
ATOM     72  C   UNL     1       4.528  -3.530  -0.796  1.00  0.00     0.118 C 
BRANCH  72  73
ATOM     73  N   UNL     1       5.208  -3.524  -2.085  1.00  0.00    -0.351 N 
ATOM     74  C   UNL     1       5.871  -4.550  -2.707  1.00  0.00     0.283 C 
ATOM     75  H   UNL     1       5.188  -2.670  -2.575  1.00  0.00     0.163 HD
ATOM     76  O   UNL     1       6.238  -4.369  -3.873  1.00  0.00    -0.268 OA
BRANCH  74  77
ATOM     77  C   UNL     1       6.135  -5.906  -1.982  1.00  0.00     0.306 C 
BRANCH  77  78
ATOM     78  C   UNL     1       7.054  -5.674  -0.764  1.00  0.00     0.030 A 
ATOM     79  C   UNL     1       7.169  -6.496   0.417  1.00  0.00     0.022 A 
ATOM     80  C   UNL     1       7.941  -4.607  -0.651  1.00  0.00     0.075 A 
ATOM     81  C   UNL     1       8.089  -6.027   1.331  1.00  0.00     0.065 A 
ATOM     82  S   UNL     1       8.826  -4.584   0.810  1.00  0.00    -0.152 S 
ENDBRANCH  77  78
BRANCH  77  83
ATOM     83  N   UNL     1       4.866  -6.614  -1.611  1.00  0.00    -0.321 N 
ATOM     84  C   UNL     1       3.701  -6.297  -2.461  1.00  0.00     0.267 C 
ATOM     85  C   UNL     1       5.033  -8.082  -1.632  1.00  0.00     0.267 C 
ATOM     86  H   UNL     1       4.675  -6.271  -0.669  1.00  0.00     0.349 HD
ATOM     87  C   UNL     1       2.445  -6.798  -1.758  1.00  0.00     0.107 C 
ATOM     88  C   UNL     1       3.841  -8.749  -0.934  1.00  0.00     0.107 C 
ATOM     89  C   UNL     1       2.509  -8.308  -1.559  1.00  0.00     0.184 C 
BRANCH  89  90
ATOM     90  O   UNL     1       1.312  -8.826  -0.947  1.00  0.00    -0.488 OA
BRANCH  90  91
ATOM     91  C   UNL     1       1.268  -8.810   0.414  1.00  0.00     0.138 A 
ATOM     92  C   UNL     1       1.002  -7.658   1.144  1.00  0.00     0.050 A 
ATOM     93  C   UNL     1       1.384 -10.008   1.106  1.00  0.00     0.157 A 
ATOM     94  C   UNL     1       0.941  -7.732   2.534  1.00  0.00     0.024 A 
ATOM     95  N   UNL     1       1.320 -10.116   2.454  1.00  0.00    -0.261 NA
ATOM     96  C   UNL     1       1.112  -8.968   3.138  1.00  0.00     0.111 A 
ENDBRANCH  90  91
ENDBRANCH  89  90
ENDBRANCH  77  83
ENDBRANCH  74  77
ENDBRANCH  72  73
ENDBRANCH   1  72
TORSDOF 17
