REMARK SMILES COC(=O)c1ccc([C@H]2CC(=O)Nc3c(C(=O)NCCCNC(=O)c4ccc(-c5c6nc(c(-c7cc(S(=O)(=O)[O-])ccc7F)c7ccc([nH]7)c(-c7cc(S(=O)(=O)[O-])ccc7F)c7nc(c(-c8cc(S(=O)(=O)[O-])ccc8F)c8ccc5[nH]8)C=C7)C=C6)cc4)cn(-c4cc(OC)ccc4OC)c32)cc1
REMARK SMILES IDX 20 1 19 2 18 3 16 4 17 5 15 7 9 8 10 9 100 10 11 11 14 12
REMARK SMILES IDX 89 13 12 14 13 15 88 16 8 18 5 19 6 20 102 21 7 22 101 23
REMARK SMILES IDX 3 24 4 25 2 26 1 27 90 28 91 29 97 30 92 31 96 32 95 33
REMARK SMILES IDX 98 34 99 35 93 36 94 37 21 38 22 39 23 40 24 42 25 43 26 44
REMARK SMILES IDX 87 45 27 46 86 47 28 48 29 49 30 50 80 51 31 52 85 53 79 54
REMARK SMILES IDX 81 55 32 56 84 57 78 58 77 59 33 61 65 62 45 63 64 64 46 65
REMARK SMILES IDX 49 66 63 67 82 68 47 69 48 70 62 72 83 73 50 74 34 75 35 76
REMARK SMILES IDX 43 77 36 78 42 79 44 80 41 81 37 82 38 83 39 84 40 85 66 86
REMARK SMILES IDX 67 87 75 88 68 89 74 90 76 91 73 92 69 93 70 94 71 95 72 96
REMARK SMILES IDX 51 97 52 98 60 99 53 100 59 101 61 102 58 103 54 104 55 105
REMARK SMILES IDX 56 106 57 107
REMARK H PARENT 18 6 13 17 22 41 81 60 49 71
REMARK Flexibility Score: inf
ROOT
ATOM      1  C   UNL     1      -5.518   8.420  -4.877  1.00  0.00     0.042 C 
ENDROOT
BRANCH   1   2
ATOM      2  C   UNL     1      -5.542   7.001  -5.460  1.00  0.00     0.118 C 
BRANCH   2   3
ATOM      3  N   UNL     1      -4.643   6.830  -6.576  1.00  0.00    -0.352 N 
ATOM      4  C   UNL     1      -3.318   6.515  -6.683  1.00  0.00     0.254 C 
ATOM      5  O   UNL     1      -2.939   6.260  -7.831  1.00  0.00    -0.269 OA
ATOM      6  H   UNL     1      -5.078   6.972  -7.448  1.00  0.00     0.163 HD
BRANCH   4   7
ATOM      7  C   UNL     1      -2.339   6.531  -5.586  1.00  0.00     0.081 A 
ATOM      8  C   UNL     1      -0.485   7.435  -2.451  1.00  0.00     0.078 C 
ATOM      9  C   UNL     1      -1.620   8.188  -1.734  1.00  0.00     0.115 C 
ATOM     10  C   UNL     1      -0.949   6.966  -3.814  1.00  0.00     0.055 A 
ATOM     11  C   UNL     1      -3.001   7.678  -2.035  1.00  0.00     0.225 C 
ATOM     12  C   UNL     1      -2.272   6.913  -4.214  1.00  0.00     0.076 A 
ATOM     13  N   UNL     1      -0.186   6.439  -4.841  1.00  0.00    -0.314 N 
ATOM     14  O   UNL     1      -3.926   7.798  -1.232  1.00  0.00    -0.275 OA
ATOM     15  N   UNL     1      -3.239   7.188  -3.283  1.00  0.00    -0.324 N 
ATOM     16  C   UNL     1      -1.042   6.097  -5.856  1.00  0.00     0.107 A 
ATOM     17  H   UNL     1      -4.175   7.017  -3.534  1.00  0.00     0.170 HD
BRANCH   8  18
ATOM     18  C   UNL     1       0.734   8.356  -2.377  1.00  0.00    -0.038 A 
ATOM     19  C   UNL     1       2.908  10.139  -2.095  1.00  0.00     0.060 A 
ATOM     20  C   UNL     1       2.433   9.430  -0.988  1.00  0.00     0.016 A 
ATOM     21  C   UNL     1       2.292   9.966  -3.336  1.00  0.00     0.016 A 
ATOM     22  C   UNL     1       1.368   8.537  -1.133  1.00  0.00     0.005 A 
ATOM     23  C   UNL     1       1.192   9.115  -3.461  1.00  0.00     0.005 A 
BRANCH  19  24
ATOM     24  C   UNL     1       4.050  11.073  -1.900  1.00  0.00     0.337 C 
ATOM     25  O   UNL     1       4.751  11.087  -0.911  1.00  0.00    -0.246 OA
BRANCH  24  26
ATOM     26  O   UNL     1       4.148  11.907  -2.969  1.00  0.00    -0.465 OA
ATOM     27  C   UNL     1       5.185  12.880  -2.857  1.00  0.00     0.282 C 
ENDBRANCH  24  26
ENDBRANCH  19  24
ENDBRANCH   8  18
BRANCH  13  28
ATOM     28  C   UNL     1       1.202   6.192  -4.848  1.00  0.00     0.091 A 
ATOM     29  C   UNL     1       1.683   5.400  -3.783  1.00  0.00     0.077 A 
ATOM     30  C   UNL     1       2.093   6.741  -5.781  1.00  0.00     0.143 A 
ATOM     31  C   UNL     1       3.047   5.199  -3.588  1.00  0.00     0.121 A 
ATOM     32  C   UNL     1       3.464   6.501  -5.573  1.00  0.00     0.052 A 
ATOM     33  C   UNL     1       3.942   5.755  -4.490  1.00  0.00     0.050 A 
BRANCH  30  34
ATOM     34  O   UNL     1       1.929   7.575  -6.845  1.00  0.00    -0.495 OA
ATOM     35  C   UNL     1       0.681   8.070  -7.292  1.00  0.00     0.278 C 
ENDBRANCH  30  34
BRANCH  31  36
ATOM     36  O   UNL     1       3.371   4.448  -2.494  1.00  0.00    -0.497 OA
ATOM     37  C   UNL     1       4.718   4.543  -2.048  1.00  0.00     0.278 C 
ENDBRANCH  31  36
ENDBRANCH  13  28
ENDBRANCH   4   7
ENDBRANCH   2   3
ENDBRANCH   1   2
BRANCH   1  38
ATOM     38  C   UNL     1      -6.721   9.250  -5.286  1.00  0.00     0.118 C 
BRANCH  38  39
ATOM     39  N   UNL     1      -7.949   8.743  -4.661  1.00  0.00    -0.352 N 
ATOM     40  C   UNL     1      -9.264   8.950  -5.026  1.00  0.00     0.251 C 
ATOM     41  H   UNL     1      -7.815   8.173  -3.869  1.00  0.00     0.163 HD
ATOM     42  O   UNL     1     -10.168   8.756  -4.223  1.00  0.00    -0.269 OA
BRANCH  40  43
ATOM     43  C   UNL     1      -9.542   9.435  -6.386  1.00  0.00     0.039 A 
ATOM     44  C   UNL     1     -10.451  10.468  -6.615  1.00  0.00     0.014 A 
ATOM     45  C   UNL     1      -8.778   8.909  -7.421  1.00  0.00     0.014 A 
ATOM     46  C   UNL     1     -10.496  11.043  -7.883  1.00  0.00     0.010 A 
ATOM     47  C   UNL     1      -8.686   9.602  -8.599  1.00  0.00     0.010 A 
ATOM     48  C   UNL     1      -9.578  10.633  -8.866  1.00  0.00    -0.014 A 
BRANCH  48  49
ATOM     49  C   UNL     1      -9.478  11.340 -10.141  1.00  0.00     0.031 A 
ATOM     50  C   UNL     1      -9.441  12.825 -10.046  1.00  0.00     0.074 A 
ATOM     51  C   UNL     1      -9.261  10.729 -11.327  1.00  0.00     0.049 A 
ATOM     52  N   UNL     1     -10.363  13.655 -10.403  1.00  0.00    -0.248 NA
ATOM     53  C   UNL     1      -8.313  13.461  -9.349  1.00  0.00     0.031 C 
ATOM     54  C   UNL     1      -8.991   9.312 -11.603  1.00  0.00     0.029 A 
ATOM     55  N   UNL     1      -9.146  11.294 -12.559  1.00  0.00    -0.354 N 
ATOM     56  C   UNL     1      -9.855  14.931 -10.180  1.00  0.00     0.074 A 
ATOM     57  C   UNL     1      -8.678  14.746  -9.373  1.00  0.00     0.031 C 
ATOM     58  C   UNL     1      -8.520   9.171 -12.861  1.00  0.00     0.029 A 
ATOM     59  C   UNL     1      -8.651  10.445 -13.541  1.00  0.00     0.049 A 
ATOM     60  H   UNL     1      -9.394  12.230 -12.740  1.00  0.00     0.167 HD
ATOM     61  C   UNL     1     -10.347  16.014 -10.847  1.00  0.00     0.034 A 
ATOM     62  C   UNL     1      -8.381  10.749 -14.836  1.00  0.00     0.034 A 
ATOM     63  C   UNL     1     -11.624  15.709 -11.454  1.00  0.00     0.049 A 
ATOM     64  C   UNL     1      -9.211  11.930 -15.170  1.00  0.00     0.074 A 
ATOM     65  C   UNL     1     -12.847  15.295 -10.959  1.00  0.00     0.029 A 
ATOM     66  N   UNL     1     -11.652  15.393 -12.795  1.00  0.00    -0.354 N 
ATOM     67  N   UNL     1     -10.516  11.901 -15.185  1.00  0.00    -0.248 NA
ATOM     68  C   UNL     1      -8.627  13.251 -14.999  1.00  0.00     0.031 C 
ATOM     69  C   UNL     1     -13.293  14.297 -11.878  1.00  0.00     0.029 A 
ATOM     70  C   UNL     1     -12.372  14.228 -12.927  1.00  0.00     0.049 A 
ATOM     71  H   UNL     1     -11.234  15.906 -13.524  1.00  0.00     0.167 HD
ATOM     72  C   UNL     1     -10.911  13.090 -14.593  1.00  0.00     0.074 A 
ATOM     73  C   UNL     1      -9.709  13.925 -14.597  1.00  0.00     0.031 C 
ATOM     74  C   UNL     1     -12.090  13.192 -13.908  1.00  0.00     0.034 A 
BRANCH  61  75
ATOM     75  C   UNL     1      -9.555  17.251 -11.209  1.00  0.00     0.023 A 
ATOM     76  C   UNL     1     -10.231  18.303 -11.858  1.00  0.00     0.031 A 
ATOM     77  C   UNL     1      -8.145  17.352 -11.188  1.00  0.00     0.131 A 
ATOM     78  C   UNL     1      -9.521  19.337 -12.499  1.00  0.00     0.055 A 
ATOM     79  C   UNL     1      -7.447  18.416 -11.768  1.00  0.00     0.041 A 
ATOM     80  F   UNL     1      -7.358  16.388 -10.696  1.00  0.00    -0.206 F 
ATOM     81  C   UNL     1      -8.132  19.403 -12.452  1.00  0.00     0.022 A 
BRANCH  78  82
ATOM     82  S   UNL     1     -10.437  20.502 -13.542  1.00  0.00     0.124 S 
ATOM     83  O   UNL     1     -11.170  19.601 -14.424  1.00  0.00    -0.237 OA
ATOM     84  O   UNL     1     -11.231  21.228 -12.556  1.00  0.00    -0.237 OA
ATOM     85  O   UNL     1      -9.381  21.281 -14.187  1.00  0.00    -0.744 OA
ENDBRANCH  78  82
ENDBRANCH  61  75
BRANCH  62  86
ATOM     86  C   UNL     1      -7.228  10.272 -15.643  1.00  0.00     0.023 A 
ATOM     87  C   UNL     1      -7.207  10.320 -17.051  1.00  0.00     0.031 A 
ATOM     88  C   UNL     1      -6.004   9.980 -14.997  1.00  0.00     0.131 A 
ATOM     89  C   UNL     1      -6.000  10.089 -17.752  1.00  0.00     0.055 A 
ATOM     90  C   UNL     1      -4.816   9.752 -15.694  1.00  0.00     0.041 A 
ATOM     91  F   UNL     1      -5.905   9.991 -13.658  1.00  0.00    -0.206 F 
ATOM     92  C   UNL     1      -4.807   9.816 -17.078  1.00  0.00     0.022 A 
BRANCH  89  93
ATOM     93  S   UNL     1      -5.945  10.237 -19.567  1.00  0.00     0.124 S 
ATOM     94  O   UNL     1      -6.733   9.087 -19.996  1.00  0.00    -0.237 OA
ATOM     95  O   UNL     1      -6.537  11.550 -19.793  1.00  0.00    -0.237 OA
ATOM     96  O   UNL     1      -4.516  10.151 -19.874  1.00  0.00    -0.744 OA
ENDBRANCH  89  93
ENDBRANCH  62  86
BRANCH  74  97
ATOM     97  C   UNL     1     -13.090  12.048 -14.014  1.00  0.00     0.023 A 
ATOM     98  C   UNL     1     -12.819  10.697 -13.688  1.00  0.00     0.031 A 
ATOM     99  C   UNL     1     -14.416  12.374 -14.352  1.00  0.00     0.131 A 
ATOM    100  C   UNL     1     -13.853   9.736 -13.719  1.00  0.00     0.055 A 
ATOM    101  C   UNL     1     -15.441  11.427 -14.358  1.00  0.00     0.041 A 
ATOM    102  F   UNL     1     -14.750  13.641 -14.650  1.00  0.00    -0.206 F 
ATOM    103  C   UNL     1     -15.162  10.102 -14.047  1.00  0.00     0.022 A 
BRANCH 100 104
ATOM    104  S   UNL     1     -13.513   7.982 -13.352  1.00  0.00     0.124 S 
ATOM    105  O   UNL     1     -12.338   7.683 -14.162  1.00  0.00    -0.237 OA
ATOM    106  O   UNL     1     -13.306   7.992 -11.906  1.00  0.00    -0.237 OA
ATOM    107  O   UNL     1     -14.736   7.301 -13.783  1.00  0.00    -0.744 OA
ENDBRANCH 100 104
ENDBRANCH  74  97
ENDBRANCH  48  49
ENDBRANCH  40  43
ENDBRANCH  38  39
ENDBRANCH   1  38
TORSDOF 19
