REMARK SMILES C[C@@H](C(=O)NCCCNC(=O)c1ccc(-c2c3nc(c(-c4cc(S(=O)(=O)[O-])ccc4F)c4ccc([nH]4)c(-c4cc(S(=O)(=O)[O-])ccc4F)c4nc(c(-c5cc(S(=O)(=O)[O-])ccc5F)c5ccc2[nH]5)C=C4)C=C3)cc1)c1ccc(N[C@H]2CCC[C@@H]2O)cc1F
REMARK SMILES IDX 6 1 5 2 3 3 4 4 2 6 1 7 75 8 76 9 87 10 77 11 86 12 88 13
REMARK SMILES IDX 78 14 79 15 80 17 81 18 84 19 82 20 83 21 85 22 7 24 8 25
REMARK SMILES IDX 9 26 10 27 11 29 12 30 13 31 74 32 14 33 73 34 15 35 16 36
REMARK SMILES IDX 17 37 67 38 18 39 72 40 66 41 68 42 19 43 71 44 65 45 64 46
REMARK SMILES IDX 20 48 52 49 32 50 51 51 33 52 36 53 50 54 69 55 34 56 35 57
REMARK SMILES IDX 49 59 70 60 37 61 21 62 22 63 30 64 23 65 29 66 31 67 28 68
REMARK SMILES IDX 24 69 25 70 26 71 27 72 53 73 54 74 62 75 55 76 61 77 63 78
REMARK SMILES IDX 60 79 56 80 57 81 58 82 59 83 38 84 39 85 47 86 40 87 46 88
REMARK SMILES IDX 48 89 45 90 41 91 42 92 43 93 44 94
REMARK H PARENT 5 5 79 16 85 23 9 28 68 47 36 58
REMARK Flexibility Score: inf
ROOT
ATOM      1  C   UNL     1       3.401   1.129  -1.719  1.00  0.00     0.117 C 
ENDROOT
BRANCH   1   2
ATOM      2  N   UNL     1       2.316   0.704  -2.580  1.00  0.00    -0.356 N 
ATOM      3  C   UNL     1       0.993   0.508  -2.303  1.00  0.00     0.227 C 
ATOM      4  O   UNL     1       0.281   0.137  -3.239  1.00  0.00    -0.274 OA
ATOM      5  H   UNL     1       2.573   0.529  -3.514  1.00  0.00     0.163 HD
BRANCH   3   6
ATOM      6  C   UNL     1       0.452   0.816  -0.898  1.00  0.00     0.108 C 
ATOM      7  C   UNL     1       0.937  -0.178   0.160  1.00  0.00     0.023 C 
BRANCH   6   8
ATOM      8  C   UNL     1      -1.063   0.921  -0.885  1.00  0.00     0.000 A 
ATOM      9  C   UNL     1      -1.680   2.167  -0.750  1.00  0.00     0.009 A 
ATOM     10  C   UNL     1      -1.886  -0.200  -1.010  1.00  0.00     0.129 A 
ATOM     11  C   UNL     1      -3.076   2.272  -0.724  1.00  0.00     0.026 A 
ATOM     12  C   UNL     1      -3.275  -0.088  -0.991  1.00  0.00     0.065 A 
ATOM     13  F   UNL     1      -1.349  -1.422  -1.137  1.00  0.00    -0.207 F 
ATOM     14  C   UNL     1      -3.904   1.155  -0.858  1.00  0.00     0.037 A 
BRANCH  14  15
ATOM     15  N   UNL     1      -5.282   1.195  -0.827  1.00  0.00    -0.380 N 
ATOM     16  H   UNL     1      -5.726   0.317  -0.862  1.00  0.00     0.160 HD
BRANCH  15  17
ATOM     17  C   UNL     1      -6.180   2.342  -0.752  1.00  0.00     0.107 C 
ATOM     18  C   UNL     1      -6.033   3.167   0.532  1.00  0.00     0.027 C 
ATOM     19  C   UNL     1      -6.050   3.328  -1.925  1.00  0.00     0.136 C 
ATOM     20  C   UNL     1      -5.993   4.629   0.087  1.00  0.00     0.005 C 
ATOM     21  C   UNL     1      -6.550   4.636  -1.329  1.00  0.00     0.034 C 
BRANCH  19  22
ATOM     22  O   UNL     1      -6.866   2.951  -3.029  1.00  0.00    -0.391 OA
ATOM     23  H   UNL     1      -7.790   2.891  -2.741  1.00  0.00     0.211 HD
ENDBRANCH  19  22
ENDBRANCH  15  17
ENDBRANCH  14  15
ENDBRANCH   6   8
ENDBRANCH   3   6
ENDBRANCH   1   2
BRANCH   1  24
ATOM     24  C   UNL     1       4.292  -0.040  -1.308  1.00  0.00     0.042 C 
BRANCH  24  25
ATOM     25  C   UNL     1       5.025  -0.705  -2.469  1.00  0.00     0.118 C 
BRANCH  25  26
ATOM     26  N   UNL     1       5.962   0.194  -3.126  1.00  0.00    -0.352 N 
ATOM     27  C   UNL     1       7.317   0.084  -3.299  1.00  0.00     0.251 C 
ATOM     28  H   UNL     1       5.560   1.009  -3.504  1.00  0.00     0.163 HD
ATOM     29  O   UNL     1       7.945   1.068  -3.702  1.00  0.00    -0.269 OA
BRANCH  27  30
ATOM     30  C   UNL     1       8.029  -1.175  -2.991  1.00  0.00     0.039 A 
ATOM     31  C   UNL     1       9.281  -1.104  -2.374  1.00  0.00     0.014 A 
ATOM     32  C   UNL     1       7.494  -2.421  -3.333  1.00  0.00     0.014 A 
ATOM     33  C   UNL     1       9.963  -2.277  -2.044  1.00  0.00     0.010 A 
ATOM     34  C   UNL     1       8.141  -3.591  -2.937  1.00  0.00     0.010 A 
ATOM     35  C   UNL     1       9.382  -3.533  -2.287  1.00  0.00    -0.014 A 
BRANCH  35  36
ATOM     36  C   UNL     1      10.059  -4.784  -1.853  1.00  0.00     0.031 A 
ATOM     37  C   UNL     1      10.523  -5.793  -2.869  1.00  0.00     0.074 A 
ATOM     38  C   UNL     1      10.215  -5.029  -0.536  1.00  0.00     0.049 A 
ATOM     39  N   UNL     1      11.087  -6.959  -2.678  1.00  0.00    -0.248 NA
ATOM     40  C   UNL     1      10.303  -5.458  -4.284  1.00  0.00     0.031 C 
ATOM     41  C   UNL     1       9.768  -4.146   0.545  1.00  0.00     0.029 A 
ATOM     42  N   UNL     1      10.784  -6.091   0.122  1.00  0.00    -0.354 N 
ATOM     43  C   UNL     1      11.288  -7.497  -3.945  1.00  0.00     0.074 A 
ATOM     44  C   UNL     1      10.728  -6.556  -4.892  1.00  0.00     0.031 C 
ATOM     45  C   UNL     1      10.101  -4.691   1.725  1.00  0.00     0.029 A 
ATOM     46  C   UNL     1      10.742  -5.981   1.493  1.00  0.00     0.049 A 
ATOM     47  H   UNL     1      11.185  -6.860  -0.344  1.00  0.00     0.167 HD
ATOM     48  C   UNL     1      11.902  -8.657  -4.287  1.00  0.00     0.034 A 
ATOM     49  C   UNL     1      11.159  -6.828   2.455  1.00  0.00     0.034 A 
ATOM     50  C   UNL     1      12.460  -9.585  -3.332  1.00  0.00     0.049 A 
ATOM     51  C   UNL     1      11.816  -8.123   2.047  1.00  0.00     0.074 A 
ATOM     52  C   UNL     1      13.139 -10.767  -3.573  1.00  0.00     0.029 A 
ATOM     53  N   UNL     1      12.399  -9.440  -1.952  1.00  0.00    -0.354 N 
ATOM     54  N   UNL     1      12.041  -8.591   0.841  1.00  0.00    -0.248 NA
ATOM     55  C   UNL     1      12.287  -8.995   3.130  1.00  0.00     0.031 C 
ATOM     56  C   UNL     1      13.430 -11.367  -2.343  1.00  0.00     0.029 A 
ATOM     57  C   UNL     1      13.002 -10.524  -1.331  1.00  0.00     0.049 A 
ATOM     58  H   UNL     1      11.987  -8.679  -1.482  1.00  0.00     0.167 HD
ATOM     59  C   UNL     1      12.706  -9.801   1.024  1.00  0.00     0.074 A 
ATOM     60  C   UNL     1      12.867  -9.973   2.453  1.00  0.00     0.031 C 
ATOM     61  C   UNL     1      13.143 -10.691   0.097  1.00  0.00     0.034 A 
BRANCH  48  62
ATOM     62  C   UNL     1      11.986  -8.994  -5.757  1.00  0.00     0.023 A 
ATOM     63  C   UNL     1      12.719  -8.198  -6.655  1.00  0.00     0.031 A 
ATOM     64  C   UNL     1      11.325 -10.124  -6.270  1.00  0.00     0.131 A 
ATOM     65  C   UNL     1      12.721  -8.504  -8.024  1.00  0.00     0.055 A 
ATOM     66  C   UNL     1      11.394 -10.468  -7.622  1.00  0.00     0.041 A 
ATOM     67  F   UNL     1      10.594 -10.912  -5.466  1.00  0.00    -0.206 F 
ATOM     68  C   UNL     1      12.085  -9.649  -8.511  1.00  0.00     0.022 A 
BRANCH  65  69
ATOM     69  S   UNL     1      13.465  -7.319  -9.178  1.00  0.00     0.124 S 
ATOM     70  O   UNL     1      12.656  -6.127  -8.938  1.00  0.00    -0.237 OA
ATOM     71  O   UNL     1      14.848  -7.256  -8.718  1.00  0.00    -0.237 OA
ATOM     72  O   UNL     1      13.270  -7.943 -10.485  1.00  0.00    -0.744 OA
ENDBRANCH  65  69
ENDBRANCH  48  62
BRANCH  49  73
ATOM     73  C   UNL     1      10.958  -6.499   3.897  1.00  0.00     0.023 A 
ATOM     74  C   UNL     1      12.050  -6.330   4.761  1.00  0.00     0.031 A 
ATOM     75  C   UNL     1       9.665  -6.410   4.444  1.00  0.00     0.131 A 
ATOM     76  C   UNL     1      11.834  -6.140   6.135  1.00  0.00     0.055 A 
ATOM     77  C   UNL     1       9.454  -6.161   5.801  1.00  0.00     0.041 A 
ATOM     78  F   UNL     1       8.584  -6.560   3.663  1.00  0.00    -0.206 F 
ATOM     79  C   UNL     1      10.543  -6.041   6.659  1.00  0.00     0.022 A 
BRANCH  76  80
ATOM     80  S   UNL     1      13.268  -6.131   7.246  1.00  0.00     0.124 S 
ATOM     81  O   UNL     1      13.889  -7.414   6.939  1.00  0.00    -0.237 OA
ATOM     82  O   UNL     1      13.989  -4.944   6.798  1.00  0.00    -0.237 OA
ATOM     83  O   UNL     1      12.667  -6.029   8.575  1.00  0.00    -0.744 OA
ENDBRANCH  76  80
ENDBRANCH  49  73
BRANCH  61  84
ATOM     84  C   UNL     1      13.870 -11.910   0.611  1.00  0.00     0.023 A 
ATOM     85  C   UNL     1      13.221 -12.883   1.392  1.00  0.00     0.031 A 
ATOM     86  C   UNL     1      15.240 -12.084   0.344  1.00  0.00     0.131 A 
ATOM     87  C   UNL     1      13.954 -13.948   1.934  1.00  0.00     0.055 A 
ATOM     88  C   UNL     1      15.950 -13.182   0.831  1.00  0.00     0.041 A 
ATOM     89  F   UNL     1      15.912 -11.186  -0.394  1.00  0.00    -0.206 F 
ATOM     90  C   UNL     1      15.311 -14.114   1.644  1.00  0.00     0.022 A 
BRANCH  87  91
ATOM     91  S   UNL     1      13.136 -15.057   3.113  1.00  0.00     0.124 S 
ATOM     92  O   UNL     1      12.695 -14.127   4.148  1.00  0.00    -0.237 OA
ATOM     93  O   UNL     1      12.080 -15.652   2.300  1.00  0.00    -0.237 OA
ATOM     94  O   UNL     1      14.199 -15.975   3.516  1.00  0.00    -0.744 OA
ENDBRANCH  87  91
ENDBRANCH  61  84
ENDBRANCH  35  36
ENDBRANCH  27  30
ENDBRANCH  25  26
ENDBRANCH  24  25
ENDBRANCH   1  24
TORSDOF 17
