REMARK SMILES CC1CC[NH+](CC2(CC(=O)NCCCNC(=O)c3ccc(-c4c5nc(c(-c6cc(S(=O)(=O)[O-])ccc6F)c6ccc([nH]6)c(-c6cc(S(=O)(=O)[O-])ccc6F)c6nc(c(-c7cc(S(=O)(=O)[O-])ccc7F)c7ccc4[nH]7)C=C6)C=C5)cc3)CCCCC2)CC1
REMARK SMILES IDX 13 1 12 2 11 3 9 4 10 5 8 7 7 8 81 9 85 10 82 11 84 12 83 13
REMARK SMILES IDX 6 14 5 15 1 16 2 17 3 18 87 19 4 20 86 21 14 23 15 24 16 25
REMARK SMILES IDX 17 27 18 28 19 29 80 30 20 31 79 32 21 33 22 34 23 35 73 36
REMARK SMILES IDX 24 37 78 38 72 39 74 40 25 41 77 42 71 43 70 44 26 46 58 47
REMARK SMILES IDX 38 48 57 49 39 50 42 51 56 52 75 53 40 54 41 55 55 57 76 58
REMARK SMILES IDX 43 59 27 60 28 61 36 62 29 63 35 64 37 65 34 66 30 67 31 68
REMARK SMILES IDX 32 69 33 70 59 71 60 72 68 73 61 74 67 75 69 76 66 77 62 78
REMARK SMILES IDX 63 79 64 80 65 81 44 82 45 83 53 84 46 85 52 86 54 87 51 88
REMARK SMILES IDX 47 89 48 90 49 91 50 92
REMARK H PARENT 11 6 5 22 15 26 74 45 42 56
REMARK Flexibility Score: inf
ROOT
ATOM      1  C   UNL     1       0.032   4.107  -2.895  1.00  0.00     0.042 C 
ENDROOT
BRANCH   1   2
ATOM      2  C   UNL     1       0.044   3.463  -4.283  1.00  0.00     0.117 C 
BRANCH   2   3
ATOM      3  N   UNL     1       1.239   2.654  -4.474  1.00  0.00    -0.356 N 
ATOM      4  C   UNL     1       1.468   1.318  -4.338  1.00  0.00     0.220 C 
ATOM      5  O   UNL     1       2.631   0.930  -4.481  1.00  0.00    -0.275 OA
ATOM      6  H   UNL     1       2.030   3.168  -4.755  1.00  0.00     0.163 HD
BRANCH   4   7
ATOM      7  C   UNL     1       0.357   0.302  -4.084  1.00  0.00     0.112 C 
BRANCH   7   8
ATOM      8  C   UNL     1      -0.053  -0.010  -2.609  1.00  0.00     0.028 C 
ATOM      9  C   UNL     1      -0.794  -1.387  -2.561  1.00  0.00     0.013 C 
ATOM     10  C   UNL     1      -1.042   1.048  -2.087  1.00  0.00     0.013 C 
ATOM     11  C   UNL     1      -2.224  -1.385  -3.115  1.00  0.00     0.001 C 
ATOM     12  C   UNL     1      -2.411   1.075  -2.745  1.00  0.00     0.001 C 
ATOM     13  C   UNL     1      -3.079  -0.269  -2.524  1.00  0.00     0.000 C 
BRANCH   8  14
ATOM     14  C   UNL     1       1.222  -0.072  -1.671  1.00  0.00     0.269 C 
BRANCH  14  15
ATOM     15  N   UNL     1       0.840  -0.275  -0.282  1.00  0.00    -0.334 N 
ATOM     16  C   UNL     1      -2.336  -0.906   1.870  1.00  0.00     0.008 C 
ATOM     17  C   UNL     1      -0.811  -0.707   1.948  1.00  0.00    -0.003 C 
ATOM     18  C   UNL     1      -0.457   0.723   1.478  1.00  0.00     0.065 C 
ATOM     19  C   UNL     1      -0.112  -1.879   1.215  1.00  0.00     0.065 C 
ATOM     20  C   UNL     1       0.812   0.848   0.633  1.00  0.00     0.262 C 
ATOM     21  C   UNL     1       1.128  -1.516   0.395  1.00  0.00     0.262 C 
ATOM     22  H   UNL     1      -0.122  -0.392  -0.599  1.00  0.00     0.348 HD
ENDBRANCH  14  15
ENDBRANCH   8  14
ENDBRANCH   7   8
ENDBRANCH   4   7
ENDBRANCH   2   3
ENDBRANCH   1   2
BRANCH   1  23
ATOM     23  C   UNL     1       0.517   5.540  -2.817  1.00  0.00     0.118 C 
BRANCH  23  24
ATOM     24  N   UNL     1      -0.517   6.492  -3.180  1.00  0.00    -0.352 N 
ATOM     25  C   UNL     1      -1.060   7.534  -2.464  1.00  0.00     0.251 C 
ATOM     26  H   UNL     1      -0.889   6.373  -4.083  1.00  0.00     0.163 HD
ATOM     27  O   UNL     1      -2.078   8.068  -2.908  1.00  0.00    -0.269 OA
BRANCH  25  28
ATOM     28  C   UNL     1      -0.472   8.016  -1.183  1.00  0.00     0.039 A 
ATOM     29  C   UNL     1      -1.315   8.643  -0.256  1.00  0.00     0.014 A 
ATOM     30  C   UNL     1       0.893   7.934  -0.899  1.00  0.00     0.014 A 
ATOM     31  C   UNL     1      -0.796   9.166   0.934  1.00  0.00     0.010 A 
ATOM     32  C   UNL     1       1.390   8.348   0.337  1.00  0.00     0.010 A 
ATOM     33  C   UNL     1       0.563   9.015   1.248  1.00  0.00    -0.014 A 
BRANCH  33  34
ATOM     34  C   UNL     1       1.149   9.630   2.471  1.00  0.00     0.031 A 
ATOM     35  C   UNL     1       2.222  10.686   2.336  1.00  0.00     0.074 A 
ATOM     36  C   UNL     1       0.745   9.226   3.692  1.00  0.00     0.049 A 
ATOM     37  N   UNL     1       2.888  11.319   3.269  1.00  0.00    -0.248 NA
ATOM     38  C   UNL     1       2.626  11.053   0.969  1.00  0.00     0.031 C 
ATOM     39  C   UNL     1      -0.243   8.177   3.951  1.00  0.00     0.029 A 
ATOM     40  N   UNL     1       1.115   9.646   4.946  1.00  0.00    -0.354 N 
ATOM     41  C   UNL     1       3.803  12.130   2.602  1.00  0.00     0.074 A 
ATOM     42  C   UNL     1       3.650  11.862   1.190  1.00  0.00     0.031 C 
ATOM     43  C   UNL     1      -0.423   8.057   5.277  1.00  0.00     0.029 A 
ATOM     44  C   UNL     1       0.462   8.991   5.966  1.00  0.00     0.049 A 
ATOM     45  H   UNL     1       1.784  10.351   5.101  1.00  0.00     0.167 HD
ATOM     46  C   UNL     1       4.672  13.035   3.117  1.00  0.00     0.034 A 
ATOM     47  C   UNL     1       0.567   9.128   7.303  1.00  0.00     0.034 A 
ATOM     48  C   UNL     1       4.779  13.322   4.527  1.00  0.00     0.049 A 
ATOM     49  C   UNL     1       1.507  10.175   7.849  1.00  0.00     0.074 A 
ATOM     50  C   UNL     1       5.573  14.264   5.157  1.00  0.00     0.029 A 
ATOM     51  N   UNL     1       4.067  12.670   5.525  1.00  0.00    -0.354 N 
ATOM     52  N   UNL     1       2.318  10.979   7.199  1.00  0.00    -0.248 NA
ATOM     53  C   UNL     1       1.524  10.354   9.306  1.00  0.00     0.031 C 
ATOM     54  C   UNL     1       5.388  14.139   6.538  1.00  0.00     0.029 A 
ATOM     55  C   UNL     1       4.418  13.176   6.767  1.00  0.00     0.049 A 
ATOM     56  H   UNL     1       3.409  11.954   5.373  1.00  0.00     0.167 HD
ATOM     57  C   UNL     1       2.913  11.783   8.168  1.00  0.00     0.074 A 
ATOM     58  C   UNL     1       2.347  11.382   9.440  1.00  0.00     0.031 C 
ATOM     59  C   UNL     1       3.841  12.763   8.025  1.00  0.00     0.034 A 
BRANCH  46  60
ATOM     60  C   UNL     1       5.584  13.763   2.156  1.00  0.00     0.023 A 
ATOM     61  C   UNL     1       5.087  14.622   1.159  1.00  0.00     0.031 A 
ATOM     62  C   UNL     1       6.978  13.586   2.232  1.00  0.00     0.131 A 
ATOM     63  C   UNL     1       5.966  15.216   0.241  1.00  0.00     0.055 A 
ATOM     64  C   UNL     1       7.854  14.243   1.366  1.00  0.00     0.041 A 
ATOM     65  F   UNL     1       7.513  12.762   3.147  1.00  0.00    -0.206 F 
ATOM     66  C   UNL     1       7.349  15.054   0.354  1.00  0.00     0.022 A 
BRANCH  63  67
ATOM     67  S   UNL     1       5.275  16.101  -1.183  1.00  0.00     0.124 S 
ATOM     68  O   UNL     1       4.521  15.040  -1.851  1.00  0.00    -0.237 OA
ATOM     69  O   UNL     1       4.473  17.145  -0.546  1.00  0.00    -0.237 OA
ATOM     70  O   UNL     1       6.450  16.570  -1.903  1.00  0.00    -0.744 OA
ENDBRANCH  63  67
ENDBRANCH  46  60
BRANCH  47  71
ATOM     71  C   UNL     1      -0.232   8.265   8.224  1.00  0.00     0.023 A 
ATOM     72  C   UNL     1      -1.186   8.816   9.096  1.00  0.00     0.031 A 
ATOM     73  C   UNL     1      -0.009   6.878   8.288  1.00  0.00     0.131 A 
ATOM     74  C   UNL     1      -1.834   7.998  10.035  1.00  0.00     0.055 A 
ATOM     75  C   UNL     1      -0.701   6.058   9.182  1.00  0.00     0.041 A 
ATOM     76  F   UNL     1       0.885   6.295   7.474  1.00  0.00    -0.206 F 
ATOM     77  C   UNL     1      -1.607   6.621  10.075  1.00  0.00     0.022 A 
BRANCH  74  78
ATOM     78  S   UNL     1      -2.897   8.779  11.281  1.00  0.00     0.124 S 
ATOM     79  O   UNL     1      -1.992   9.750  11.879  1.00  0.00    -0.237 OA
ATOM     80  O   UNL     1      -3.974   9.324  10.458  1.00  0.00    -0.237 OA
ATOM     81  O   UNL     1      -3.282   7.665  12.146  1.00  0.00    -0.744 OA
ENDBRANCH  74  78
ENDBRANCH  47  71
BRANCH  59  82
ATOM     82  C   UNL     1       4.251  13.505   9.275  1.00  0.00     0.023 A 
ATOM     83  C   UNL     1       4.920  12.863  10.332  1.00  0.00     0.031 A 
ATOM     84  C   UNL     1       3.934  14.867   9.422  1.00  0.00     0.131 A 
ATOM     85  C   UNL     1       5.178  13.561  11.520  1.00  0.00     0.055 A 
ATOM     86  C   UNL     1       4.260  15.576  10.579  1.00  0.00     0.041 A 
ATOM     87  F   UNL     1       3.297  15.531   8.445  1.00  0.00    -0.206 F 
ATOM     88  C   UNL     1       4.867  14.918  11.644  1.00  0.00     0.022 A 
BRANCH  85  89
ATOM     89  S   UNL     1       5.805  12.638  12.949  1.00  0.00     0.124 S 
ATOM     90  O   UNL     1       4.806  11.584  13.093  1.00  0.00    -0.237 OA
ATOM     91  O   UNL     1       7.122  12.210  12.489  1.00  0.00    -0.237 OA
ATOM     92  O   UNL     1       5.816  13.632  14.021  1.00  0.00    -0.744 OA
ENDBRANCH  85  89
ENDBRANCH  59  82
ENDBRANCH  33  34
ENDBRANCH  25  28
ENDBRANCH  23  24
ENDBRANCH   1  23
TORSDOF 16
