REMARK SMILES Cc1cccc(NC(=O)C[C@@H]2CCCCO2)c1C(=O)NCCCNC(=O)c1ccc(-c2c3nc(c(-c4cc(S(=O)(=O)[O-])ccc4F)c4ccc([nH]4)c(-c4cc(S(=O)(=O)[O-])ccc4F)c4nc(c(-c5cc(S(=O)(=O)[O-])ccc5F)c5ccc2[nH]5)C=C4)C=C3)cc1
REMARK SMILES IDX 22 1 21 2 20 3 18 4 19 5 17 7 1 8 2 9 3 10 4 11 6 12 5 13
REMARK SMILES IDX 7 14 8 15 9 17 10 18 11 19 12 20 16 21 13 22 15 23 14 24
REMARK SMILES IDX 23 25 24 26 25 27 26 29 27 30 28 31 89 32 29 33 88 34 30 35
REMARK SMILES IDX 31 36 32 37 82 38 33 39 87 40 81 41 83 42 34 43 86 44 80 45
REMARK SMILES IDX 79 46 35 48 67 49 47 50 66 51 48 52 51 53 65 54 84 55 49 56
REMARK SMILES IDX 50 57 64 59 85 60 52 61 36 62 37 63 45 64 38 65 44 66 46 67
REMARK SMILES IDX 43 68 39 69 40 70 41 71 42 72 68 73 69 74 77 75 70 76 76 77
REMARK SMILES IDX 78 78 75 79 71 80 72 81 73 82 74 83 53 84 54 85 62 86 55 87
REMARK SMILES IDX 61 88 63 89 60 90 56 91 57 92 58 93 59 94
REMARK H PARENT 20 6 7 16 24 28 83 47 51 58
REMARK Flexibility Score: inf
ROOT
ATOM      1  C   UNL     1       4.132   0.991  -1.263  1.00  0.00     0.042 C 
ENDROOT
BRANCH   1   2
ATOM      2  C   UNL     1       3.476   1.707  -0.078  1.00  0.00     0.118 C 
BRANCH   2   3
ATOM      3  N   UNL     1       2.286   2.428  -0.522  1.00  0.00    -0.352 N 
ATOM      4  C   UNL     1       0.941   2.221  -0.368  1.00  0.00     0.253 C 
ATOM      5  O   UNL     1       0.209   3.106  -0.823  1.00  0.00    -0.269 OA
ATOM      6  H   UNL     1       2.496   3.236  -1.045  1.00  0.00     0.163 HD
BRANCH   4   7
ATOM      7  C   UNL     1       0.325   1.070   0.382  1.00  0.00     0.066 A 
ATOM      8  C   UNL     1       1.722  -0.816  -0.673  1.00  0.00     0.045 C 
ATOM      9  C   UNL     1       0.805  -0.258   0.372  1.00  0.00    -0.036 A 
ATOM     10  C   UNL     1       0.271  -1.215   1.258  1.00  0.00     0.004 A 
ATOM     11  C   UNL     1      -0.818  -0.911   2.058  1.00  0.00     0.002 A 
ATOM     12  C   UNL     1      -0.941   1.273   1.004  1.00  0.00     0.054 A 
ATOM     13  C   UNL     1      -1.442   0.322   1.905  1.00  0.00     0.027 A 
BRANCH  12  14
ATOM     14  N   UNL     1      -1.760   2.355   0.588  1.00  0.00    -0.325 N 
ATOM     15  C   UNL     1      -3.059   2.363   0.134  1.00  0.00     0.227 C 
ATOM     16  H   UNL     1      -1.331   3.240   0.631  1.00  0.00     0.169 HD
ATOM     17  O   UNL     1      -3.552   3.425  -0.263  1.00  0.00    -0.275 OA
BRANCH  15  18
ATOM     18  C   UNL     1      -3.905   1.103   0.085  1.00  0.00     0.132 C 
BRANCH  18  19
ATOM     19  C   UNL     1      -4.166   0.508  -1.315  1.00  0.00     0.127 C 
ATOM     20  C   UNL     1      -4.858  -0.863  -1.211  1.00  0.00     0.033 C 
ATOM     21  O   UNL     1      -3.036   0.357  -2.176  1.00  0.00    -0.378 OA
ATOM     22  C   UNL     1      -3.911  -1.930  -0.659  1.00  0.00     0.005 C 
ATOM     23  C   UNL     1      -2.066  -0.587  -1.753  1.00  0.00     0.160 C 
ATOM     24  C   UNL     1      -2.617  -1.973  -1.460  1.00  0.00     0.029 C 
ENDBRANCH  18  19
ENDBRANCH  15  18
ENDBRANCH  12  14
ENDBRANCH   4   7
ENDBRANCH   2   3
ENDBRANCH   1   2
BRANCH   1  25
ATOM     25  C   UNL     1       5.494   1.523  -1.653  1.00  0.00     0.118 C 
BRANCH  25  26
ATOM     26  N   UNL     1       6.628   0.704  -1.216  1.00  0.00    -0.352 N 
ATOM     27  C   UNL     1       7.970   0.834  -1.547  1.00  0.00     0.251 C 
ATOM     28  H   UNL     1       6.409  -0.036  -0.606  1.00  0.00     0.163 HD
ATOM     29  O   UNL     1       8.825   0.070  -1.102  1.00  0.00    -0.269 OA
BRANCH  27  30
ATOM     30  C   UNL     1       8.399   2.028  -2.322  1.00  0.00     0.039 A 
ATOM     31  C   UNL     1       9.198   2.927  -1.606  1.00  0.00     0.014 A 
ATOM     32  C   UNL     1       7.579   2.473  -3.349  1.00  0.00     0.014 A 
ATOM     33  C   UNL     1       8.847   4.267  -1.607  1.00  0.00     0.010 A 
ATOM     34  C   UNL     1       7.129   3.769  -3.249  1.00  0.00     0.010 A 
ATOM     35  C   UNL     1       7.703   4.632  -2.308  1.00  0.00    -0.014 A 
BRANCH  35  36
ATOM     36  C   UNL     1       7.072   5.931  -2.185  1.00  0.00     0.031 A 
ATOM     37  C   UNL     1       7.440   6.912  -3.211  1.00  0.00     0.074 A 
ATOM     38  C   UNL     1       6.194   6.209  -1.197  1.00  0.00     0.049 A 
ATOM     39  N   UNL     1       7.472   8.181  -3.032  1.00  0.00    -0.248 NA
ATOM     40  C   UNL     1       7.924   6.500  -4.525  1.00  0.00     0.031 C 
ATOM     41  C   UNL     1       5.364   7.401  -1.050  1.00  0.00     0.029 A 
ATOM     42  N   UNL     1       6.031   5.529   0.008  1.00  0.00    -0.354 N 
ATOM     43  C   UNL     1       7.685   8.759  -4.263  1.00  0.00     0.074 A 
ATOM     44  C   UNL     1       8.089   7.678  -5.121  1.00  0.00     0.031 C 
ATOM     45  C   UNL     1       4.981   7.511   0.235  1.00  0.00     0.029 A 
ATOM     46  C   UNL     1       5.668   6.477   0.990  1.00  0.00     0.049 A 
ATOM     47  H   UNL     1       6.147   4.562   0.150  1.00  0.00     0.167 HD
ATOM     48  C   UNL     1       7.337  10.063  -4.436  1.00  0.00     0.034 A 
ATOM     49  C   UNL     1       6.502   6.702   2.050  1.00  0.00     0.034 A 
ATOM     50  C   UNL     1       6.898  10.640  -3.158  1.00  0.00     0.049 A 
ATOM     51  C   UNL     1       7.205   8.053   1.974  1.00  0.00     0.074 A 
ATOM     52  C   UNL     1       5.656  10.863  -2.585  1.00  0.00     0.029 A 
ATOM     53  N   UNL     1       7.810  10.714  -2.116  1.00  0.00    -0.354 N 
ATOM     54  N   UNL     1       7.047   8.932   1.018  1.00  0.00    -0.248 NA
ATOM     55  C   UNL     1       8.209   8.472   2.947  1.00  0.00     0.031 C 
ATOM     56  C   UNL     1       5.839  11.015  -1.175  1.00  0.00     0.029 A 
ATOM     57  C   UNL     1       7.192  10.941  -0.898  1.00  0.00     0.049 A 
ATOM     58  H   UNL     1       8.783  10.617  -2.229  1.00  0.00     0.167 HD
ATOM     59  C   UNL     1       7.928   9.975   1.186  1.00  0.00     0.074 A 
ATOM     60  C   UNL     1       8.647   9.620   2.403  1.00  0.00     0.031 C 
ATOM     61  C   UNL     1       8.021  11.024   0.302  1.00  0.00     0.034 A 
BRANCH  48  62
ATOM     62  C   UNL     1       7.104  10.705  -5.789  1.00  0.00     0.023 A 
ATOM     63  C   UNL     1       6.269  11.837  -5.852  1.00  0.00     0.031 A 
ATOM     64  C   UNL     1       7.588  10.255  -7.037  1.00  0.00     0.131 A 
ATOM     65  C   UNL     1       5.881  12.399  -7.084  1.00  0.00     0.055 A 
ATOM     66  C   UNL     1       7.162  10.779  -8.265  1.00  0.00     0.041 A 
ATOM     67  F   UNL     1       8.545   9.329  -7.146  1.00  0.00    -0.206 F 
ATOM     68  C   UNL     1       6.295  11.855  -8.295  1.00  0.00     0.022 A 
BRANCH  65  69
ATOM     69  S   UNL     1       4.823  13.868  -7.080  1.00  0.00     0.124 S 
ATOM     70  O   UNL     1       3.615  13.372  -6.429  1.00  0.00    -0.237 OA
ATOM     71  O   UNL     1       5.625  14.822  -6.321  1.00  0.00    -0.237 OA
ATOM     72  O   UNL     1       4.676  14.182  -8.501  1.00  0.00    -0.744 OA
ENDBRANCH  65  69
ENDBRANCH  48  62
BRANCH  49  73
ATOM     73  C   UNL     1       7.118   5.419   2.528  1.00  0.00     0.023 A 
ATOM     74  C   UNL     1       6.242   4.431   3.042  1.00  0.00     0.031 A 
ATOM     75  C   UNL     1       8.342   4.997   1.994  1.00  0.00     0.131 A 
ATOM     76  C   UNL     1       6.498   3.072   2.791  1.00  0.00     0.055 A 
ATOM     77  C   UNL     1       8.600   3.641   1.776  1.00  0.00     0.041 A 
ATOM     78  F   UNL     1       9.227   5.886   1.519  1.00  0.00    -0.206 F 
ATOM     79  C   UNL     1       7.646   2.681   2.101  1.00  0.00     0.022 A 
BRANCH  76  80
ATOM     80  S   UNL     1       5.223   1.826   3.142  1.00  0.00     0.124 S 
ATOM     81  O   UNL     1       5.571   1.397   4.491  1.00  0.00    -0.237 OA
ATOM     82  O   UNL     1       3.981   2.581   3.013  1.00  0.00    -0.237 OA
ATOM     83  O   UNL     1       5.431   0.831   2.088  1.00  0.00    -0.744 OA
ENDBRANCH  76  80
ENDBRANCH  49  73
BRANCH  61  84
ATOM     84  C   UNL     1       8.956  12.216   0.469  1.00  0.00     0.023 A 
ATOM     85  C   UNL     1       9.473  12.595   1.713  1.00  0.00     0.031 A 
ATOM     86  C   UNL     1       9.329  13.056  -0.612  1.00  0.00     0.131 A 
ATOM     87  C   UNL     1      10.434  13.615   1.829  1.00  0.00     0.055 A 
ATOM     88  C   UNL     1      10.225  14.122  -0.485  1.00  0.00     0.041 A 
ATOM     89  F   UNL     1       8.853  12.893  -1.852  1.00  0.00    -0.206 F 
ATOM     90  C   UNL     1      10.813  14.387   0.738  1.00  0.00     0.022 A 
BRANCH  87  91
ATOM     91  S   UNL     1      11.222  13.857   3.439  1.00  0.00     0.124 S 
ATOM     92  O   UNL     1      10.080  14.019   4.330  1.00  0.00    -0.237 OA
ATOM     93  O   UNL     1      11.973  12.614   3.589  1.00  0.00    -0.237 OA
ATOM     94  O   UNL     1      12.038  15.056   3.245  1.00  0.00    -0.744 OA
ENDBRANCH  87  91
ENDBRANCH  61  84
ENDBRANCH  35  36
ENDBRANCH  27  30
ENDBRANCH  25  26
ENDBRANCH   1  25
TORSDOF 16
