REMARK SMILES C=C1C[C@@]23CC[C@H]4[C@@](C)(CCC[C@@]4(C)C(=O)NCCCNC(=O)c4ccc(-c5c6nc(c(-c7cc(S(=O)(=O)[O-])ccc7F)c7ccc([nH]7)c(-c7cc(S(=O)(=O)[O-])ccc7F)c7nc(c(-c8cc(S(=O)(=O)[O-])ccc8F)c8ccc5[nH]8)C=C7)C=C6)cc4)[C@H]2CC[C@]1(O)C3
REMARK SMILES IDX 20 1 19 2 18 3 17 4 15 5 16 6 13 8 1 9 2 10 3 11 90 12 4 13
REMARK SMILES IDX 89 14 92 15 5 16 87 17 88 18 6 19 8 20 7 21 9 22 10 23 11 24
REMARK SMILES IDX 12 25 14 26 91 27 21 29 22 30 23 32 24 33 25 34 86 35 26 36
REMARK SMILES IDX 85 37 27 38 28 39 29 40 79 41 30 42 84 43 78 44 80 45 31 46
REMARK SMILES IDX 83 47 77 48 76 49 32 51 64 52 44 53 63 54 45 55 48 56 62 57
REMARK SMILES IDX 81 58 46 59 47 60 61 62 82 63 49 64 33 65 34 66 42 67 35 68
REMARK SMILES IDX 41 69 43 70 40 71 36 72 37 73 38 74 39 75 65 76 66 77 74 78
REMARK SMILES IDX 67 79 73 80 75 81 72 82 68 83 69 84 70 85 71 86 50 87 51 88
REMARK SMILES IDX 59 89 52 90 58 91 60 92 57 93 53 94 54 95 55 96 56 97
REMARK H PARENT 17 7 91 28 21 31 80 50 48 61
REMARK Flexibility Score: inf
ROOT
ATOM      1  C   UNL     1      -5.075   8.738   7.143  1.00  0.00     0.118 C 
ENDROOT
BRANCH   1   2
ATOM      2  C   UNL     1      -5.399   7.249   7.071  1.00  0.00     0.042 C 
BRANCH   2   3
ATOM      3  C   UNL     1      -4.977   6.578   5.764  1.00  0.00     0.117 C 
BRANCH   3   4
ATOM      4  N   UNL     1      -3.562   6.770   5.475  1.00  0.00    -0.356 N 
ATOM      5  C   UNL     1      -2.432   6.111   5.814  1.00  0.00     0.226 C 
ATOM      6  O   UNL     1      -1.515   6.899   6.093  1.00  0.00    -0.274 OA
ATOM      7  H   UNL     1      -3.391   7.556   4.907  1.00  0.00     0.163 HD
BRANCH   5   8
ATOM      8  C   UNL     1      -2.216   4.558   5.886  1.00  0.00     0.050 C 
ATOM      9  C   UNL     1       1.383   0.173  -0.027  1.00  0.00     0.011 C 
ATOM     10  C   UNL     1       0.838   1.174   0.681  1.00  0.00    -0.045 C 
ATOM     11  C   UNL     1       1.273   1.600   2.073  1.00  0.00     0.040 C 
ATOM     12  C   UNL     1      -0.484   1.833   0.393  1.00  0.00     0.086 C 
ATOM     13  C   UNL     1      -0.046   2.152   2.699  1.00  0.00    -0.020 C 
ATOM     14  C   UNL     1      -0.357   3.345   0.107  1.00  0.00     0.040 C 
ATOM     15  C   UNL     1      -1.120   1.573   1.742  1.00  0.00     0.047 C 
ATOM     16  C   UNL     1      -0.301   1.609   4.079  1.00  0.00     0.008 C 
ATOM     17  C   UNL     1      -0.237   3.710   2.630  1.00  0.00     0.002 C 
ATOM     18  C   UNL     1       0.268   4.213   1.249  1.00  0.00     0.008 C 
ATOM     19  C   UNL     1      -1.600   2.251   4.588  1.00  0.00     0.006 C 
ATOM     20  C   UNL     1      -0.313   4.571   3.999  1.00  0.00    -0.025 C 
ATOM     21  C   UNL     1      -1.343   3.768   4.857  1.00  0.00     0.010 C 
ATOM     22  C   UNL     1      -0.693   5.995   3.508  1.00  0.00     0.012 C 
ATOM     23  C   UNL     1       0.804   4.799   5.122  1.00  0.00     0.007 C 
ATOM     24  C   UNL     1       0.272   4.822   6.710  1.00  0.00     0.002 C 
ATOM     25  C   UNL     1      -1.264   4.461   7.119  1.00  0.00     0.017 C 
ATOM     26  C   UNL     1      -3.567   3.843   5.937  1.00  0.00     0.022 C 
BRANCH  12  27
ATOM     27  O   UNL     1      -1.225   1.190  -0.626  1.00  0.00    -0.386 OA
ATOM     28  H   UNL     1      -0.810   1.363  -1.486  1.00  0.00     0.211 HD
ENDBRANCH  12  27
ENDBRANCH   5   8
ENDBRANCH   3   4
ENDBRANCH   2   3
ENDBRANCH   1   2
BRANCH   1  29
ATOM     29  N   UNL     1      -5.646   9.492   6.034  1.00  0.00    -0.352 N 
ATOM     30  C   UNL     1      -6.744  10.323   5.983  1.00  0.00     0.251 C 
ATOM     31  H   UNL     1      -5.168   9.391   5.179  1.00  0.00     0.163 HD
ATOM     32  O   UNL     1      -7.185  10.674   4.902  1.00  0.00    -0.269 OA
BRANCH  30  33
ATOM     33  C   UNL     1      -7.398  10.750   7.240  1.00  0.00     0.039 A 
ATOM     34  C   UNL     1      -8.792  10.743   7.315  1.00  0.00     0.014 A 
ATOM     35  C   UNL     1      -6.639  11.138   8.344  1.00  0.00     0.014 A 
ATOM     36  C   UNL     1      -9.417  11.032   8.530  1.00  0.00     0.010 A 
ATOM     37  C   UNL     1      -7.255  11.315   9.577  1.00  0.00     0.010 A 
ATOM     38  C   UNL     1      -8.652  11.263   9.685  1.00  0.00    -0.014 A 
BRANCH  38  39
ATOM     39  C   UNL     1      -9.292  11.446  11.015  1.00  0.00     0.031 A 
ATOM     40  C   UNL     1      -9.081  12.723  11.785  1.00  0.00     0.074 A 
ATOM     41  C   UNL     1     -10.003  10.435  11.556  1.00  0.00     0.049 A 
ATOM     42  N   UNL     1      -9.488  13.040  12.987  1.00  0.00    -0.248 NA
ATOM     43  C   UNL     1      -8.279  13.768  11.129  1.00  0.00     0.031 C 
ATOM     44  C   UNL     1     -10.233   9.132  10.927  1.00  0.00     0.029 A 
ATOM     45  N   UNL     1     -10.658  10.338  12.758  1.00  0.00    -0.354 N 
ATOM     46  C   UNL     1      -8.980  14.311  13.236  1.00  0.00     0.074 A 
ATOM     47  C   UNL     1      -8.180  14.675  12.088  1.00  0.00     0.031 C 
ATOM     48  C   UNL     1     -11.004   8.383  11.731  1.00  0.00     0.029 A 
ATOM     49  C   UNL     1     -11.275   9.124  12.958  1.00  0.00     0.049 A 
ATOM     50  H   UNL     1     -10.684  11.069  13.417  1.00  0.00     0.167 HD
ATOM     51  C   UNL     1      -9.185  15.110  14.312  1.00  0.00     0.034 A 
ATOM     52  C   UNL     1     -11.968   8.654  14.015  1.00  0.00     0.034 A 
ATOM     53  C   UNL     1      -9.998  14.733  15.442  1.00  0.00     0.049 A 
ATOM     54  C   UNL     1     -12.157   9.552  15.212  1.00  0.00     0.074 A 
ATOM     55  C   UNL     1     -10.325  15.487  16.556  1.00  0.00     0.029 A 
ATOM     56  N   UNL     1     -10.604  13.495  15.611  1.00  0.00    -0.354 N 
ATOM     57  N   UNL     1     -11.723  10.776  15.403  1.00  0.00    -0.248 NA
ATOM     58  C   UNL     1     -12.938   9.008  16.330  1.00  0.00     0.031 C 
ATOM     59  C   UNL     1     -11.057  14.680  17.432  1.00  0.00     0.029 A 
ATOM     60  C   UNL     1     -11.268  13.451  16.828  1.00  0.00     0.049 A 
ATOM     61  H   UNL     1     -10.568  12.756  14.961  1.00  0.00     0.167 HD
ATOM     62  C   UNL     1     -12.204  11.158  16.653  1.00  0.00     0.074 A 
ATOM     63  C   UNL     1     -12.979  10.043  17.156  1.00  0.00     0.031 C 
ATOM     64  C   UNL     1     -12.025  12.325  17.323  1.00  0.00     0.034 A 
BRANCH  51  65
ATOM     65  C   UNL     1      -8.498  16.455  14.326  1.00  0.00     0.023 A 
ATOM     66  C   UNL     1      -8.774  17.438  13.359  1.00  0.00     0.031 A 
ATOM     67  C   UNL     1      -7.543  16.757  15.313  1.00  0.00     0.131 A 
ATOM     68  C   UNL     1      -8.054  18.643  13.357  1.00  0.00     0.055 A 
ATOM     69  C   UNL     1      -6.891  17.991  15.356  1.00  0.00     0.041 A 
ATOM     70  F   UNL     1      -7.218  15.851  16.249  1.00  0.00    -0.206 F 
ATOM     71  C   UNL     1      -7.135  18.938  14.366  1.00  0.00     0.022 A 
BRANCH  68  72
ATOM     72  S   UNL     1      -8.234  19.757  11.937  1.00  0.00     0.124 S 
ATOM     73  O   UNL     1      -7.824  18.893  10.831  1.00  0.00    -0.237 OA
ATOM     74  O   UNL     1      -9.649  20.105  11.985  1.00  0.00    -0.237 OA
ATOM     75  O   UNL     1      -7.311  20.849  12.239  1.00  0.00    -0.744 OA
ENDBRANCH  68  72
ENDBRANCH  51  65
BRANCH  52  76
ATOM     76  C   UNL     1     -12.518   7.266  14.007  1.00  0.00     0.023 A 
ATOM     77  C   UNL     1     -13.901   7.034  14.089  1.00  0.00     0.031 A 
ATOM     78  C   UNL     1     -11.666   6.148  13.969  1.00  0.00     0.131 A 
ATOM     79  C   UNL     1     -14.386   5.720  14.187  1.00  0.00     0.055 A 
ATOM     80  C   UNL     1     -12.157   4.842  14.002  1.00  0.00     0.041 A 
ATOM     81  F   UNL     1     -10.335   6.310  13.889  1.00  0.00    -0.206 F 
ATOM     82  C   UNL     1     -13.525   4.622  14.128  1.00  0.00     0.022 A 
BRANCH  79  83
ATOM     83  S   UNL     1     -16.155   5.468  14.498  1.00  0.00     0.124 S 
ATOM     84  O   UNL     1     -16.347   6.219  15.734  1.00  0.00    -0.237 OA
ATOM     85  O   UNL     1     -16.758   6.040  13.299  1.00  0.00    -0.237 OA
ATOM     86  O   UNL     1     -16.275   4.017  14.623  1.00  0.00    -0.744 OA
ENDBRANCH  79  83
ENDBRANCH  52  76
BRANCH  64  87
ATOM     87  C   UNL     1     -12.719  12.464  18.658  1.00  0.00     0.023 A 
ATOM     88  C   UNL     1     -12.375  11.660  19.758  1.00  0.00     0.031 A 
ATOM     89  C   UNL     1     -13.746  13.410  18.826  1.00  0.00     0.131 A 
ATOM     90  C   UNL     1     -13.094  11.772  20.957  1.00  0.00     0.055 A 
ATOM     91  C   UNL     1     -14.409  13.567  20.043  1.00  0.00     0.041 A 
ATOM     92  F   UNL     1     -14.120  14.203  17.809  1.00  0.00    -0.206 F 
ATOM     93  C   UNL     1     -14.095  12.735  21.113  1.00  0.00     0.022 A 
BRANCH  90  94
ATOM     94  S   UNL     1     -12.776  10.571  22.278  1.00  0.00     0.124 S 
ATOM     95  O   UNL     1     -13.059   9.305  21.610  1.00  0.00    -0.237 OA
ATOM     96  O   UNL     1     -11.375  10.823  22.599  1.00  0.00    -0.237 OA
ATOM     97  O   UNL     1     -13.728  10.947  23.321  1.00  0.00    -0.744 OA
ENDBRANCH  90  94
ENDBRANCH  64  87
ENDBRANCH  38  39
ENDBRANCH  30  33
ENDBRANCH   1  29
TORSDOF 14
