REMARK SMILES Cc1ccccc1/[NH+]=C1\S[C@@H](CC(=O)Nc2ccc(C(=O)NCCCNC(=O)c3ccc(-c4c5nc(c(-c6cc(S(=O)(=O)[O-])ccc6F)c6ccc([nH]6)c(-c6cc(S(=O)(=O)[O-])ccc6F)c6nc(c(-c7cc(S(=O)(=O)[O-])ccc7F)c7ccc4[nH]7)C=C6)C=C5)cc3)cc2)C(=O)N1C
REMARK SMILES IDX 23 1 22 2 20 3 21 4 19 6 16 7 17 8 93 9 18 10 92 11 15 12
REMARK SMILES IDX 13 13 14 14 12 16 11 17 8 18 9 19 10 21 96 22 94 23 97 24
REMARK SMILES IDX 95 25 7 26 1 27 2 28 3 29 4 30 6 31 5 32 24 33 25 34 26 35
REMARK SMILES IDX 27 36 28 38 29 39 30 40 91 41 31 42 90 43 32 44 33 45 34 46
REMARK SMILES IDX 84 47 35 48 89 49 83 50 85 51 36 52 88 53 82 54 81 55 37 57
REMARK SMILES IDX 69 58 49 59 68 60 50 61 53 62 67 63 86 64 51 65 52 66 66 68
REMARK SMILES IDX 87 69 54 70 38 71 39 72 47 73 40 74 46 75 48 76 45 77 41 78
REMARK SMILES IDX 42 79 43 80 44 81 70 82 71 83 79 84 72 85 78 86 80 87 77 88
REMARK SMILES IDX 73 89 74 90 75 91 76 92 55 93 56 94 64 95 57 96 63 97 65 98
REMARK SMILES IDX 62 99 58 100 59 101 60 102 61 103
REMARK H PARENT 22 5 15 15 8 20 26 37 85 56 53 67
REMARK Flexibility Score: inf
ROOT
ATOM      1  C   UNL     1       3.220   4.843  -3.132  1.00  0.00     0.118 C 
ENDROOT
BRANCH   1   2
ATOM      2  N   UNL     1       4.130   5.892  -3.593  1.00  0.00    -0.352 N 
ATOM      3  C   UNL     1       5.450   6.132  -3.277  1.00  0.00     0.251 C 
ATOM      4  O   UNL     1       6.129   6.889  -3.966  1.00  0.00    -0.269 OA
ATOM      5  H   UNL     1       3.736   6.528  -4.233  1.00  0.00     0.163 HD
BRANCH   3   6
ATOM      6  C   UNL     1       6.098   5.486  -2.110  1.00  0.00     0.039 A 
ATOM      7  C   UNL     1       7.316   4.175   0.036  1.00  0.00     0.041 A 
ATOM      8  C   UNL     1       6.063   4.765   0.182  1.00  0.00     0.027 A 
ATOM      9  C   UNL     1       8.044   4.387  -1.128  1.00  0.00     0.027 A 
ATOM     10  C   UNL     1       5.453   5.416  -0.882  1.00  0.00     0.016 A 
ATOM     11  C   UNL     1       7.424   5.033  -2.209  1.00  0.00     0.016 A 
BRANCH   7  12
ATOM     12  N   UNL     1       7.807   3.338   1.046  1.00  0.00    -0.326 N 
ATOM     13  C   UNL     1       7.161   2.220   1.532  1.00  0.00     0.226 C 
ATOM     14  O   UNL     1       7.532   1.677   2.573  1.00  0.00    -0.275 OA
ATOM     15  H   UNL     1       8.681   3.565   1.439  1.00  0.00     0.169 HD
BRANCH  13  16
ATOM     16  C   UNL     1       6.123   1.563   0.631  1.00  0.00     0.128 C 
BRANCH  16  17
ATOM     17  C   UNL     1       4.714   1.492   1.177  1.00  0.00     0.183 C 
ATOM     18  N   UNL     1       1.027   1.785   0.756  1.00  0.00    -0.234 N 
ATOM     19  C   UNL     1       2.288   1.998   0.664  1.00  0.00     0.319 C 
ATOM     20  H   UNL     1       0.523   2.448   1.282  1.00  0.00     0.313 HD
ATOM     21  S   UNL     1       3.535   1.143  -0.182  1.00  0.00    -0.022 SA
ATOM     22  N   UNL     1       2.870   3.006   1.376  1.00  0.00    -0.193 N 
ATOM     23  C   UNL     1       4.146   2.744   1.822  1.00  0.00     0.324 C 
ATOM     24  C   UNL     1       2.146   4.178   1.825  1.00  0.00     0.301 C 
ATOM     25  O   UNL     1       4.705   3.365   2.721  1.00  0.00    -0.245 OA
BRANCH  18  26
ATOM     26  C   UNL     1       0.266   0.740   0.214  1.00  0.00     0.128 A 
ATOM     27  C   UNL     1       1.781  -1.251   0.867  1.00  0.00     0.049 C 
ATOM     28  C   UNL     1       0.520  -0.645   0.322  1.00  0.00    -0.004 A 
ATOM     29  C   UNL     1      -0.462  -1.563  -0.109  1.00  0.00     0.008 A 
ATOM     30  C   UNL     1      -1.706  -1.136  -0.564  1.00  0.00     0.001 A 
ATOM     31  C   UNL     1      -0.994   1.142  -0.265  1.00  0.00     0.052 A 
ATOM     32  C   UNL     1      -1.975   0.221  -0.638  1.00  0.00     0.004 A 
ENDBRANCH  18  26
ENDBRANCH  16  17
ENDBRANCH  13  16
ENDBRANCH   7  12
ENDBRANCH   3   6
ENDBRANCH   1   2
BRANCH   1  33
ATOM     33  C   UNL     1       2.170   5.338  -2.133  1.00  0.00     0.042 C 
BRANCH  33  34
ATOM     34  C   UNL     1       0.931   5.950  -2.781  1.00  0.00     0.118 C 
BRANCH  34  35
ATOM     35  N   UNL     1      -0.320   5.310  -2.331  1.00  0.00    -0.352 N 
ATOM     36  C   UNL     1      -1.620   5.737  -2.504  1.00  0.00     0.251 C 
ATOM     37  H   UNL     1      -0.211   4.464  -1.841  1.00  0.00     0.163 HD
ATOM     38  O   UNL     1      -2.576   5.085  -2.126  1.00  0.00    -0.269 OA
BRANCH  36  39
ATOM     39  C   UNL     1      -1.829   7.005  -3.240  1.00  0.00     0.039 A 
ATOM     40  C   UNL     1      -2.431   6.944  -4.501  1.00  0.00     0.014 A 
ATOM     41  C   UNL     1      -1.170   8.151  -2.807  1.00  0.00     0.014 A 
ATOM     42  C   UNL     1      -2.166   7.954  -5.421  1.00  0.00     0.010 A 
ATOM     43  C   UNL     1      -0.827   9.097  -3.752  1.00  0.00     0.010 A 
ATOM     44  C   UNL     1      -1.269   8.966  -5.079  1.00  0.00    -0.014 A 
BRANCH  44  45
ATOM     45  C   UNL     1      -0.591   9.807  -6.065  1.00  0.00     0.031 A 
ATOM     46  C   UNL     1      -0.782  11.274  -6.093  1.00  0.00     0.074 A 
ATOM     47  C   UNL     1       0.311   9.258  -6.912  1.00  0.00     0.049 A 
ATOM     48  N   UNL     1      -0.493  12.019  -7.107  1.00  0.00    -0.248 NA
ATOM     49  C   UNL     1      -1.358  12.025  -4.983  1.00  0.00     0.031 C 
ATOM     50  C   UNL     1       1.316   9.959  -7.708  1.00  0.00     0.029 A 
ATOM     51  N   UNL     1       0.323   7.958  -7.412  1.00  0.00    -0.354 N 
ATOM     52  C   UNL     1      -0.577  13.330  -6.710  1.00  0.00     0.074 A 
ATOM     53  C   UNL     1      -1.164  13.283  -5.391  1.00  0.00     0.031 C 
ATOM     54  C   UNL     1       1.659   9.191  -8.752  1.00  0.00     0.029 A 
ATOM     55  C   UNL     1       0.792   8.031  -8.741  1.00  0.00     0.049 A 
ATOM     56  H   UNL     1       0.056   7.143  -6.930  1.00  0.00     0.167 HD
ATOM     57  C   UNL     1      -0.042  14.307  -7.494  1.00  0.00     0.034 A 
ATOM     58  C   UNL     1       0.032   7.589  -9.786  1.00  0.00     0.034 A 
ATOM     59  C   UNL     1       0.505  13.784  -8.743  1.00  0.00     0.049 A 
ATOM     60  C   UNL     1      -0.304   8.656 -10.810  1.00  0.00     0.074 A 
ATOM     61  C   UNL     1       1.775  13.480  -9.203  1.00  0.00     0.029 A 
ATOM     62  N   UNL     1      -0.371  13.263  -9.673  1.00  0.00    -0.354 N 
ATOM     63  N   UNL     1       0.069   9.903 -10.724  1.00  0.00    -0.248 NA
ATOM     64  C   UNL     1      -1.176   8.421 -11.963  1.00  0.00     0.031 C 
ATOM     65  C   UNL     1       1.640  12.759 -10.427  1.00  0.00     0.029 A 
ATOM     66  C   UNL     1       0.292  12.643 -10.711  1.00  0.00     0.049 A 
ATOM     67  H   UNL     1      -1.351  13.327  -9.604  1.00  0.00     0.167 HD
ATOM     68  C   UNL     1      -0.570  10.637 -11.690  1.00  0.00     0.074 A 
ATOM     69  C   UNL     1      -1.321   9.662 -12.458  1.00  0.00     0.031 C 
ATOM     70  C   UNL     1      -0.495  11.999 -11.750  1.00  0.00     0.034 A 
BRANCH  57  71
ATOM     71  C   UNL     1       0.172  15.729  -7.044  1.00  0.00     0.023 A 
ATOM     72  C   UNL     1       1.262  16.453  -7.568  1.00  0.00     0.031 A 
ATOM     73  C   UNL     1      -0.630  16.418  -6.117  1.00  0.00     0.131 A 
ATOM     74  C   UNL     1       1.571  17.745  -7.109  1.00  0.00     0.055 A 
ATOM     75  C   UNL     1      -0.287  17.679  -5.611  1.00  0.00     0.041 A 
ATOM     76  F   UNL     1      -1.805  15.925  -5.700  1.00  0.00    -0.206 F 
ATOM     77  C   UNL     1       0.827  18.346  -6.099  1.00  0.00     0.022 A 
BRANCH  74  78
ATOM     78  S   UNL     1       2.957  18.634  -7.867  1.00  0.00     0.124 S 
ATOM     79  O   UNL     1       4.075  17.726  -7.632  1.00  0.00    -0.237 OA
ATOM     80  O   UNL     1       2.515  18.770  -9.251  1.00  0.00    -0.237 OA
ATOM     81  O   UNL     1       3.010  19.885  -7.111  1.00  0.00    -0.744 OA
ENDBRANCH  74  78
ENDBRANCH  57  71
BRANCH  58  82
ATOM     82  C   UNL     1      -0.833   6.434  -9.407  1.00  0.00     0.023 A 
ATOM     83  C   UNL     1      -0.177   5.313  -8.853  1.00  0.00     0.031 A 
ATOM     84  C   UNL     1      -2.207   6.573  -9.173  1.00  0.00     0.131 A 
ATOM     85  C   UNL     1      -0.839   4.503  -7.923  1.00  0.00     0.055 A 
ATOM     86  C   UNL     1      -2.892   5.690  -8.329  1.00  0.00     0.041 A 
ATOM     87  F   UNL     1      -2.880   7.634  -9.641  1.00  0.00    -0.206 F 
ATOM     88  C   UNL     1      -2.198   4.680  -7.660  1.00  0.00     0.022 A 
BRANCH  85  89
ATOM     89  S   UNL     1       0.181   3.463  -6.833  1.00  0.00     0.124 S 
ATOM     90  O   UNL     1       0.500   2.334  -7.698  1.00  0.00    -0.237 OA
ATOM     91  O   UNL     1       1.294   4.354  -6.502  1.00  0.00    -0.237 OA
ATOM     92  O   UNL     1      -0.704   3.170  -5.709  1.00  0.00    -0.744 OA
ENDBRANCH  85  89
ENDBRANCH  58  82
BRANCH  70  93
ATOM     93  C   UNL     1      -1.213  12.828 -12.782  1.00  0.00     0.023 A 
ATOM     94  C   UNL     1      -1.275  12.441 -14.130  1.00  0.00     0.031 A 
ATOM     95  C   UNL     1      -1.796  14.075 -12.460  1.00  0.00     0.131 A 
ATOM     96  C   UNL     1      -1.943  13.241 -15.075  1.00  0.00     0.055 A 
ATOM     97  C   UNL     1      -2.380  14.908 -13.417  1.00  0.00     0.041 A 
ATOM     98  F   UNL     1      -1.866  14.516 -11.196  1.00  0.00    -0.206 F 
ATOM     99  C   UNL     1      -2.467  14.487 -14.734  1.00  0.00     0.022 A 
BRANCH  96 100
ATOM    100  S   UNL     1      -2.191  12.586 -16.745  1.00  0.00     0.124 S 
ATOM    101  O   UNL     1      -0.837  12.234 -17.156  1.00  0.00    -0.237 OA
ATOM    102  O   UNL     1      -3.089  11.462 -16.489  1.00  0.00    -0.237 OA
ATOM    103  O   UNL     1      -2.792  13.704 -17.469  1.00  0.00    -0.744 OA
ENDBRANCH  96 100
ENDBRANCH  70  93
ENDBRANCH  44  45
ENDBRANCH  36  39
ENDBRANCH  34  35
ENDBRANCH  33  34
ENDBRANCH   1  33
TORSDOF 17
