REMARK SMILES CCc1cc(Oc2cncc(C(=O)NCCCNC(=O)c3ccc(-c4c5nc(c(-c6cc(S(=O)(=O)[O-])ccc6F)c6ccc([nH]6)c(-c6cc(S(=O)(=O)[O-])ccc6F)c6nc(c(-c7cc(S(=O)(=O)[O-])ccc7F)c7ccc4[nH]7)C=C6)C=C5)cc3)n2)ccc1Cl
REMARK SMILES IDX 16 1 15 2 14 3 12 4 13 5 11 7 7 8 8 9 84 10 9 11 10 12 6 13
REMARK SMILES IDX 5 14 3 15 4 16 87 17 86 18 88 19 85 20 2 21 1 22 17 23 18 24
REMARK SMILES IDX 19 25 20 27 21 28 22 29 83 30 23 31 82 32 24 33 25 34 26 35
REMARK SMILES IDX 76 36 27 37 81 38 75 39 77 40 28 41 80 42 74 43 73 44 29 46
REMARK SMILES IDX 61 47 41 48 60 49 42 50 45 51 59 52 78 53 43 54 44 55 58 57
REMARK SMILES IDX 79 58 46 59 30 60 31 61 39 62 32 63 38 64 40 65 37 66 33 67
REMARK SMILES IDX 34 68 35 69 36 70 62 71 63 72 71 73 64 74 70 75 72 76 69 77
REMARK SMILES IDX 65 78 66 79 67 80 68 81 47 82 48 83 56 84 49 85 55 86 57 87
REMARK SMILES IDX 54 88 50 89 51 90 52 91 53 92
REMARK H PARENT 14 6 18 26 77 45 45 56
REMARK Flexibility Score: inf
ROOT
ATOM      1  C   UNL     1       7.056  -1.936   5.721  1.00  0.00     0.042 C 
ENDROOT
BRANCH   1   2
ATOM      2  C   UNL     1       6.502  -2.625   6.964  1.00  0.00     0.118 C 
BRANCH   2   3
ATOM      3  N   UNL     1       6.642  -1.797   8.152  1.00  0.00    -0.351 N 
ATOM      4  C   UNL     1       5.713  -1.047   8.837  1.00  0.00     0.271 C 
ATOM      5  O   UNL     1       6.067  -0.485   9.875  1.00  0.00    -0.267 OA
ATOM      6  H   UNL     1       7.551  -1.769   8.529  1.00  0.00     0.163 HD
BRANCH   4   7
ATOM      7  C   UNL     1       4.296  -0.927   8.396  1.00  0.00     0.150 A 
ATOM      8  C   UNL     1       2.649  -1.170   6.825  1.00  0.00     0.238 A 
ATOM      9  C   UNL     1       1.690  -0.817   7.768  1.00  0.00     0.179 A 
ATOM     10  N   UNL     1       3.963  -1.245   7.121  1.00  0.00    -0.205 NA
ATOM     11  N   UNL     1       2.014  -0.456   9.033  1.00  0.00    -0.257 NA
ATOM     12  C   UNL     1       3.342  -0.514   9.321  1.00  0.00     0.145 A 
BRANCH   8  13
ATOM     13  O   UNL     1       2.302  -1.567   5.559  1.00  0.00    -0.437 OA
BRANCH  13  14
ATOM     14  C   UNL     1       1.843  -0.612   4.678  1.00  0.00     0.129 A 
ATOM     15  C   UNL     1       0.873  -0.260   2.453  1.00  0.00    -0.026 A 
ATOM     16  C   UNL     1       1.408  -1.109   3.442  1.00  0.00     0.052 A 
ATOM     17  C   UNL     1       0.759   1.107   2.751  1.00  0.00     0.044 A 
ATOM     18  C   UNL     1       1.240   1.612   3.964  1.00  0.00     0.024 A 
ATOM     19  Cl  UNL     1      -0.012   2.225   1.687  1.00  0.00    -0.084 Cl
ATOM     20  C   UNL     1       1.794   0.760   4.920  1.00  0.00     0.049 A 
BRANCH  15  21
ATOM     21  C   UNL     1       0.434  -0.867   1.139  1.00  0.00     0.034 C 
ATOM     22  C   UNL     1       1.261  -0.416  -0.060  1.00  0.00     0.009 C 
ENDBRANCH  15  21
ENDBRANCH  13  14
ENDBRANCH   8  13
ENDBRANCH   4   7
ENDBRANCH   2   3
ENDBRANCH   1   2
BRANCH   1  23
ATOM     23  C   UNL     1       8.581  -1.855   5.712  1.00  0.00     0.118 C 
BRANCH  23  24
ATOM     24  N   UNL     1       9.204  -3.172   5.607  1.00  0.00    -0.352 N 
ATOM     25  C   UNL     1      10.074  -3.659   4.662  1.00  0.00     0.251 C 
ATOM     26  H   UNL     1       8.964  -3.806   6.321  1.00  0.00     0.163 HD
ATOM     27  O   UNL     1      10.320  -4.862   4.626  1.00  0.00    -0.269 OA
BRANCH  25  28
ATOM     28  C   UNL     1      10.696  -2.739   3.688  1.00  0.00     0.039 A 
ATOM     29  C   UNL     1      10.747  -3.103   2.338  1.00  0.00     0.014 A 
ATOM     30  C   UNL     1      11.237  -1.523   4.110  1.00  0.00     0.014 A 
ATOM     31  C   UNL     1      11.275  -2.212   1.400  1.00  0.00     0.010 A 
ATOM     32  C   UNL     1      11.702  -0.613   3.168  1.00  0.00     0.010 A 
ATOM     33  C   UNL     1      11.722  -0.945   1.803  1.00  0.00    -0.014 A 
BRANCH  33  34
ATOM     34  C   UNL     1      12.235   0.062   0.838  1.00  0.00     0.031 A 
ATOM     35  C   UNL     1      13.660   0.528   0.950  1.00  0.00     0.074 A 
ATOM     36  C   UNL     1      11.398   0.636  -0.047  1.00  0.00     0.049 A 
ATOM     37  N   UNL     1      14.248   1.548   0.381  1.00  0.00    -0.248 NA
ATOM     38  C   UNL     1      14.526  -0.240   1.857  1.00  0.00     0.031 C 
ATOM     39  C   UNL     1       9.992   0.276  -0.241  1.00  0.00     0.029 A 
ATOM     40  N   UNL     1      11.600   1.669  -0.930  1.00  0.00    -0.354 N 
ATOM     41  C   UNL     1      15.543   1.567   0.888  1.00  0.00     0.074 A 
ATOM     42  C   UNL     1      15.636   0.481   1.841  1.00  0.00     0.031 C 
ATOM     43  C   UNL     1       9.460   1.074  -1.181  1.00  0.00     0.029 A 
ATOM     44  C   UNL     1      10.465   2.040  -1.614  1.00  0.00     0.049 A 
ATOM     45  H   UNL     1      12.474   2.103  -1.061  1.00  0.00     0.167 HD
ATOM     46  C   UNL     1      16.561   2.408   0.577  1.00  0.00     0.034 A 
ATOM     47  C   UNL     1      10.249   3.063  -2.465  1.00  0.00     0.034 A 
ATOM     48  C   UNL     1      16.451   3.471  -0.392  1.00  0.00     0.049 A 
ATOM     49  C   UNL     1      11.388   4.001  -2.781  1.00  0.00     0.074 A 
ATOM     50  C   UNL     1      17.426   4.357  -0.817  1.00  0.00     0.029 A 
ATOM     51  N   UNL     1      15.293   3.792  -1.089  1.00  0.00    -0.354 N 
ATOM     52  N   UNL     1      12.611   4.003  -2.302  1.00  0.00    -0.248 NA
ATOM     53  C   UNL     1      11.121   5.069  -3.753  1.00  0.00     0.031 C 
ATOM     54  C   UNL     1      16.844   5.247  -1.726  1.00  0.00     0.029 A 
ATOM     55  C   UNL     1      15.525   4.872  -1.925  1.00  0.00     0.049 A 
ATOM     56  H   UNL     1      14.432   3.321  -1.002  1.00  0.00     0.167 HD
ATOM     57  C   UNL     1      13.269   5.045  -2.950  1.00  0.00     0.074 A 
ATOM     58  C   UNL     1      12.308   5.652  -3.846  1.00  0.00     0.031 C 
ATOM     59  C   UNL     1      14.556   5.455  -2.823  1.00  0.00     0.034 A 
BRANCH  46  60
ATOM     60  C   UNL     1      17.863   2.227   1.320  1.00  0.00     0.023 A 
ATOM     61  C   UNL     1      18.615   1.044   1.216  1.00  0.00     0.031 A 
ATOM     62  C   UNL     1      18.341   3.237   2.174  1.00  0.00     0.131 A 
ATOM     63  C   UNL     1      19.754   0.866   2.014  1.00  0.00     0.055 A 
ATOM     64  C   UNL     1      19.524   3.088   2.901  1.00  0.00     0.041 A 
ATOM     65  F   UNL     1      17.657   4.381   2.332  1.00  0.00    -0.206 F 
ATOM     66  C   UNL     1      20.230   1.890   2.837  1.00  0.00     0.022 A 
BRANCH  63  67
ATOM     67  S   UNL     1      20.517  -0.778   2.076  1.00  0.00     0.124 S 
ATOM     68  O   UNL     1      19.408  -1.598   2.560  1.00  0.00    -0.237 OA
ATOM     69  O   UNL     1      20.913  -0.995   0.690  1.00  0.00    -0.237 OA
ATOM     70  O   UNL     1      21.618  -0.611   3.022  1.00  0.00    -0.744 OA
ENDBRANCH  63  67
ENDBRANCH  46  60
BRANCH  47  71
ATOM     71  C   UNL     1       8.901   3.274  -3.065  1.00  0.00     0.023 A 
ATOM     72  C   UNL     1       8.697   3.133  -4.446  1.00  0.00     0.031 A 
ATOM     73  C   UNL     1       7.804   3.653  -2.271  1.00  0.00     0.131 A 
ATOM     74  C   UNL     1       7.438   3.412  -5.000  1.00  0.00     0.055 A 
ATOM     75  C   UNL     1       6.540   3.879  -2.820  1.00  0.00     0.041 A 
ATOM     76  F   UNL     1       7.943   3.796  -0.943  1.00  0.00    -0.206 F 
ATOM     77  C   UNL     1       6.355   3.772  -4.195  1.00  0.00     0.022 A 
BRANCH  74  78
ATOM     78  S   UNL     1       7.257   3.374  -6.804  1.00  0.00     0.124 S 
ATOM     79  O   UNL     1       8.247   4.361  -7.222  1.00  0.00    -0.237 OA
ATOM     80  O   UNL     1       7.567   1.982  -7.110  1.00  0.00    -0.237 OA
ATOM     81  O   UNL     1       5.863   3.761  -7.014  1.00  0.00    -0.744 OA
ENDBRANCH  74  78
ENDBRANCH  47  71
BRANCH  59  82
ATOM     82  C   UNL     1      15.025   6.559  -3.736  1.00  0.00     0.023 A 
ATOM     83  C   UNL     1      14.601   7.889  -3.579  1.00  0.00     0.031 A 
ATOM     84  C   UNL     1      15.940   6.267  -4.764  1.00  0.00     0.131 A 
ATOM     85  C   UNL     1      15.071   8.876  -4.460  1.00  0.00     0.055 A 
ATOM     86  C   UNL     1      16.439   7.261  -5.606  1.00  0.00     0.041 A 
ATOM     87  F   UNL     1      16.375   5.011  -4.954  1.00  0.00    -0.206 F 
ATOM     88  C   UNL     1      15.999   8.573  -5.460  1.00  0.00     0.022 A 
BRANCH  85  89
ATOM     89  S   UNL     1      14.419  10.562  -4.313  1.00  0.00     0.124 S 
ATOM     90  O   UNL     1      12.999  10.363  -4.584  1.00  0.00    -0.237 OA
ATOM     91  O   UNL     1      14.762  10.913  -2.938  1.00  0.00    -0.237 OA
ATOM     92  O   UNL     1      15.149  11.304  -5.340  1.00  0.00    -0.744 OA
ENDBRANCH  85  89
ENDBRANCH  59  82
ENDBRANCH  33  34
ENDBRANCH  25  28
ENDBRANCH  23  24
ENDBRANCH   1  23
TORSDOF 16
