REMARK SMILES O=C(Cc1ccccc1C(=O)NCCCNC(=O)c1ccc(-c2c3nc(c(-c4cc(S(=O)(=O)[O-])ccc4F)c4ccc([nH]4)c(-c4cc(S(=O)(=O)[O-])ccc4F)c4nc(c(-c5cc(S(=O)(=O)[O-])ccc5F)c5ccc2[nH]5)C=C4)C=C3)cc1)Nc1cccc(OC[C@@H]2CCCO2)c1
REMARK SMILES IDX 10 1 11 2 12 3 9 5 4 6 5 7 6 8 8 9 7 10 3 11 2 12 1 13 82 14
REMARK SMILES IDX 83 16 84 17 95 18 85 19 87 20 86 21 88 22 89 23 90 24 91 25
REMARK SMILES IDX 94 26 92 27 93 28 13 29 14 30 15 31 16 32 17 33 18 35 19 36
REMARK SMILES IDX 20 37 81 38 21 39 80 40 22 41 23 42 24 43 74 44 25 45 79 46
REMARK SMILES IDX 73 47 75 48 26 49 78 50 72 51 71 52 27 54 59 55 39 56 58 57
REMARK SMILES IDX 40 58 43 59 57 60 76 61 41 62 42 63 56 65 77 66 44 67 28 68
REMARK SMILES IDX 29 69 37 70 30 71 36 72 38 73 35 74 31 75 32 76 33 77 34 78
REMARK SMILES IDX 60 79 61 80 69 81 62 82 68 83 70 84 67 85 63 86 64 87 65 88
REMARK SMILES IDX 66 89 45 90 46 91 54 92 47 93 53 94 55 95 52 96 48 97 49 98
REMARK SMILES IDX 50 99 51 100
REMARK H PARENT 12 4 82 15 16 34 75 53 43 64
REMARK Flexibility Score: inf
ROOT
ATOM      1  C   UNL     1       5.585  -0.258  -0.734  1.00  0.00     0.251 C 
ATOM      2  O   UNL     1       6.208   0.155  -1.714  1.00  0.00    -0.269 OA
ATOM      3  N   UNL     1       5.468   0.572   0.352  1.00  0.00    -0.352 N 
ATOM      4  H   UNL     1       6.297   0.819   0.821  1.00  0.00     0.163 HD
ENDROOT
BRANCH   1   5
ATOM      5  C   UNL     1       5.227  -1.713  -0.696  1.00  0.00     0.043 A 
ATOM      6  C   UNL     1       3.995  -2.342  -0.430  1.00  0.00    -0.026 A 
ATOM      7  C   UNL     1       3.937  -3.760  -0.506  1.00  0.00     0.005 A 
ATOM      8  C   UNL     1       5.023  -4.534  -0.898  1.00  0.00     0.000 A 
ATOM      9  C   UNL     1       6.312  -2.524  -1.111  1.00  0.00     0.014 A 
ATOM     10  C   UNL     1       6.213  -3.912  -1.218  1.00  0.00     0.001 A 
BRANCH   6  11
ATOM     11  C   UNL     1       2.699  -1.715   0.002  1.00  0.00     0.136 C 
BRANCH  11  12
ATOM     12  C   UNL     1       2.005  -0.655  -0.828  1.00  0.00     0.228 C 
ATOM     13  O   UNL     1       0.836  -0.401  -0.531  1.00  0.00    -0.274 OA
ATOM     14  N   UNL     1       2.713   0.011  -1.805  1.00  0.00    -0.326 N 
ATOM     15  H   UNL     1       3.563  -0.386  -2.104  1.00  0.00     0.169 HD
BRANCH  14  16
ATOM     16  C   UNL     1       2.307   1.226  -2.411  1.00  0.00     0.044 A 
ATOM     17  C   UNL     1       2.826   1.547  -3.665  1.00  0.00     0.026 A 
ATOM     18  C   UNL     1       1.383   2.095  -1.814  1.00  0.00     0.072 A 
ATOM     19  C   UNL     1       2.320   2.642  -4.367  1.00  0.00     0.006 A 
ATOM     20  C   UNL     1       0.805   3.134  -2.540  1.00  0.00     0.121 A 
ATOM     21  C   UNL     1       1.288   3.406  -3.820  1.00  0.00     0.046 A 
BRANCH  20  22
ATOM     22  O   UNL     1      -0.273   3.882  -2.164  1.00  0.00    -0.491 OA
BRANCH  22  23
ATOM     23  C   UNL     1      -0.722   3.893  -0.803  1.00  0.00     0.261 C 
BRANCH  23  24
ATOM     24  C   UNL     1      -1.863   2.912  -0.474  1.00  0.00     0.156 C 
ATOM     25  C   UNL     1      -1.476   1.450  -0.379  1.00  0.00     0.038 C 
ATOM     26  O   UNL     1      -2.944   2.965  -1.433  1.00  0.00    -0.375 OA
ATOM     27  C   UNL     1      -2.778   0.743  -0.622  1.00  0.00     0.031 C 
ATOM     28  C   UNL     1      -3.348   1.614  -1.720  1.00  0.00     0.161 C 
ENDBRANCH  23  24
ENDBRANCH  22  23
ENDBRANCH  20  22
ENDBRANCH  14  16
ENDBRANCH  11  12
ENDBRANCH   6  11
ENDBRANCH   1   5
BRANCH   3  29
ATOM     29  C   UNL     1       4.232   1.116   0.866  1.00  0.00     0.118 C 
BRANCH  29  30
ATOM     30  C   UNL     1       4.258   1.395   2.353  1.00  0.00     0.042 C 
BRANCH  30  31
ATOM     31  C   UNL     1       3.966   2.853   2.664  1.00  0.00     0.118 C 
BRANCH  31  32
ATOM     32  N   UNL     1       2.677   3.324   2.165  1.00  0.00    -0.352 N 
ATOM     33  C   UNL     1       1.718   4.098   2.784  1.00  0.00     0.251 C 
ATOM     34  H   UNL     1       2.459   3.046   1.246  1.00  0.00     0.163 HD
ATOM     35  O   UNL     1       0.654   4.310   2.221  1.00  0.00    -0.269 OA
BRANCH  33  36
ATOM     36  C   UNL     1       1.957   4.618   4.147  1.00  0.00     0.039 A 
ATOM     37  C   UNL     1       0.901   4.617   5.062  1.00  0.00     0.014 A 
ATOM     38  C   UNL     1       3.221   5.057   4.539  1.00  0.00     0.014 A 
ATOM     39  C   UNL     1       1.143   4.960   6.392  1.00  0.00     0.010 A 
ATOM     40  C   UNL     1       3.489   5.263   5.883  1.00  0.00     0.010 A 
ATOM     41  C   UNL     1       2.451   5.228   6.824  1.00  0.00    -0.014 A 
BRANCH  41  42
ATOM     42  C   UNL     1       2.765   5.497   8.249  1.00  0.00     0.031 A 
ATOM     43  C   UNL     1       3.426   6.795   8.629  1.00  0.00     0.074 A 
ATOM     44  C   UNL     1       2.546   4.537   9.171  1.00  0.00     0.049 A 
ATOM     45  N   UNL     1       3.905   7.175   9.784  1.00  0.00    -0.248 NA
ATOM     46  C   UNL     1       3.630   7.773   7.547  1.00  0.00     0.031 C 
ATOM     47  C   UNL     1       1.984   3.210   8.898  1.00  0.00     0.029 A 
ATOM     48  N   UNL     1       2.777   4.522  10.522  1.00  0.00    -0.354 N 
ATOM     49  C   UNL     1       4.504   8.411   9.556  1.00  0.00     0.074 A 
ATOM     50  C   UNL     1       4.390   8.679   8.140  1.00  0.00     0.031 C 
ATOM     51  C   UNL     1       1.884   2.527  10.049  1.00  0.00     0.029 A 
ATOM     52  C   UNL     1       2.413   3.344  11.134  1.00  0.00     0.049 A 
ATOM     53  H   UNL     1       3.168   5.283  11.009  1.00  0.00     0.167 HD
ATOM     54  C   UNL     1       5.069   9.255  10.453  1.00  0.00     0.034 A 
ATOM     55  C   UNL     1       2.503   2.969  12.425  1.00  0.00     0.034 A 
ATOM     56  C   UNL     1       5.113   8.986  11.868  1.00  0.00     0.049 A 
ATOM     57  C   UNL     1       3.067   3.956  13.415  1.00  0.00     0.074 A 
ATOM     58  C   UNL     1       5.575   9.797  12.888  1.00  0.00     0.029 A 
ATOM     59  N   UNL     1       4.667   7.812  12.464  1.00  0.00    -0.354 N 
ATOM     60  N   UNL     1       3.567   5.151  13.195  1.00  0.00    -0.248 NA
ATOM     61  C   UNL     1       3.058   3.555  14.826  1.00  0.00     0.031 C 
ATOM     62  C   UNL     1       5.458   9.094  14.092  1.00  0.00     0.029 A 
ATOM     63  C   UNL     1       4.858   7.871  13.834  1.00  0.00     0.049 A 
ATOM     64  H   UNL     1       4.272   7.049  11.982  1.00  0.00     0.167 HD
ATOM     65  C   UNL     1       3.905   5.655  14.447  1.00  0.00     0.074 A 
ATOM     66  C   UNL     1       3.529   4.644  15.415  1.00  0.00     0.031 C 
ATOM     67  C   UNL     1       4.476   6.844  14.774  1.00  0.00     0.034 A 
BRANCH  54  68
ATOM     68  C   UNL     1       5.689  10.527   9.922  1.00  0.00     0.023 A 
ATOM     69  C   UNL     1       4.928  11.497   9.244  1.00  0.00     0.031 A 
ATOM     70  C   UNL     1       7.069  10.755  10.058  1.00  0.00     0.131 A 
ATOM     71  C   UNL     1       5.563  12.601   8.654  1.00  0.00     0.055 A 
ATOM     72  C   UNL     1       7.681  11.902   9.545  1.00  0.00     0.041 A 
ATOM     73  F   UNL     1       7.854   9.858  10.675  1.00  0.00    -0.206 F 
ATOM     74  C   UNL     1       6.930  12.825   8.823  1.00  0.00     0.022 A 
BRANCH  71  75
ATOM     75  S   UNL     1       4.599  13.658   7.538  1.00  0.00     0.124 S 
ATOM     76  O   UNL     1       4.208  12.707   6.500  1.00  0.00    -0.237 OA
ATOM     77  O   UNL     1       3.527  14.136   8.402  1.00  0.00    -0.237 OA
ATOM     78  O   UNL     1       5.560  14.674   7.113  1.00  0.00    -0.744 OA
ENDBRANCH  71  75
ENDBRANCH  54  68
BRANCH  55  79
ATOM     79  C   UNL     1       2.045   1.618  12.860  1.00  0.00     0.023 A 
ATOM     80  C   UNL     1       0.959   1.470  13.737  1.00  0.00     0.031 A 
ATOM     81  C   UNL     1       2.710   0.454  12.436  1.00  0.00     0.131 A 
ATOM     82  C   UNL     1       0.604   0.196  14.207  1.00  0.00     0.055 A 
ATOM     83  C   UNL     1       2.319  -0.817  12.864  1.00  0.00     0.041 A 
ATOM     84  F   UNL     1       3.747   0.535  11.587  1.00  0.00    -0.206 F 
ATOM     85  C   UNL     1       1.270  -0.950  13.767  1.00  0.00     0.022 A 
BRANCH  82  86
ATOM     86  S   UNL     1      -0.686   0.066  15.476  1.00  0.00     0.124 S 
ATOM     87  O   UNL     1      -0.162   0.936  16.523  1.00  0.00    -0.237 OA
ATOM     88  O   UNL     1      -1.861   0.556  14.763  1.00  0.00    -0.237 OA
ATOM     89  O   UNL     1      -0.704  -1.359  15.798  1.00  0.00    -0.744 OA
ENDBRANCH  82  86
ENDBRANCH  55  79
BRANCH  67  90
ATOM     90  C   UNL     1       4.677   7.117  16.242  1.00  0.00     0.023 A 
ATOM     91  C   UNL     1       5.579   6.366  17.014  1.00  0.00     0.031 A 
ATOM     92  C   UNL     1       3.935   8.126  16.881  1.00  0.00     0.131 A 
ATOM     93  C   UNL     1       5.668   6.589  18.395  1.00  0.00     0.055 A 
ATOM     94  C   UNL     1       4.076   8.388  18.244  1.00  0.00     0.041 A 
ATOM     95  F   UNL     1       3.059   8.872  16.189  1.00  0.00    -0.206 F 
ATOM     96  C   UNL     1       4.934   7.606  19.012  1.00  0.00     0.022 A 
BRANCH  93  97
ATOM     97  S   UNL     1       6.673   5.457  19.393  1.00  0.00     0.124 S 
ATOM     98  O   UNL     1       6.075   4.163  19.079  1.00  0.00    -0.237 OA
ATOM     99  O   UNL     1       8.014   5.684  18.866  1.00  0.00    -0.237 OA
ATOM    100  O   UNL     1       6.458   5.924  20.762  1.00  0.00    -0.744 OA
ENDBRANCH  93  97
ENDBRANCH  67  90
ENDBRANCH  41  42
ENDBRANCH  33  36
ENDBRANCH  31  32
ENDBRANCH  30  31
ENDBRANCH  29  30
ENDBRANCH   3  29
TORSDOF 19
