REMARK SMILES COc1ccc(CCC(=O)Nc2ccc(N3CCCC3)cc2C(=O)NCCCNC(=O)c2ccc(-c3c4nc(c(-c5cc(S(=O)(=O)[O-])ccc5F)c5ccc([nH]5)c(-c5cc(S(=O)(=O)[O-])ccc5F)c5nc(c(-c6cc(S(=O)(=O)[O-])ccc6F)c6ccc3[nH]6)C=C5)C=C4)cc2)cc1
REMARK SMILES IDX 26 1 25 2 23 3 24 4 22 6 12 7 13 8 14 9 21 10 15 11 11 12
REMARK SMILES IDX 9 13 10 14 8 16 7 17 6 18 3 19 4 20 96 21 5 22 95 23 2 24
REMARK SMILES IDX 1 25 16 26 17 27 20 28 18 29 19 30 27 31 28 32 29 33 30 34
REMARK SMILES IDX 31 36 32 37 33 38 94 39 34 40 93 41 35 42 36 43 37 44 87 45
REMARK SMILES IDX 38 46 92 47 86 48 88 49 39 50 91 51 85 52 84 53 40 55 72 56
REMARK SMILES IDX 52 57 71 58 53 59 56 60 70 61 89 62 54 63 55 64 69 66 90 67
REMARK SMILES IDX 57 68 41 69 42 70 50 71 43 72 49 73 51 74 48 75 44 76 45 77
REMARK SMILES IDX 46 78 47 79 73 80 74 81 82 82 75 83 81 84 83 85 80 86 76 87
REMARK SMILES IDX 77 88 78 89 79 90 58 91 59 92 67 93 60 94 66 95 68 96 65 97
REMARK SMILES IDX 61 98 62 99 63 100 64 101
REMARK H PARENT 25 5 11 15 29 35 88 54 56 65
REMARK Flexibility Score: inf
ROOT
ATOM      1  C   UNL     1      -1.275   1.737  -7.455  1.00  0.00     0.118 C 
ENDROOT
BRANCH   1   2
ATOM      2  N   UNL     1      -0.169   1.871  -6.526  1.00  0.00    -0.352 N 
ATOM      3  C   UNL     1      -0.230   1.483  -5.196  1.00  0.00     0.253 C 
ATOM      4  O   UNL     1      -0.910   2.110  -4.396  1.00  0.00    -0.269 OA
ATOM      5  H   UNL     1       0.672   2.260  -6.858  1.00  0.00     0.163 HD
BRANCH   3   6
ATOM      6  C   UNL     1       0.475   0.195  -4.826  1.00  0.00     0.065 A 
ATOM      7  C   UNL     1       0.744  -0.697  -5.843  1.00  0.00     0.054 A 
ATOM      8  C   UNL     1       0.593  -2.047  -5.597  1.00  0.00     0.029 A 
ATOM      9  C   UNL     1       0.885  -2.468  -4.309  1.00  0.00     0.028 A 
ATOM     10  C   UNL     1       0.817  -0.233  -3.536  1.00  0.00     0.042 A 
ATOM     11  C   UNL     1       1.262  -1.548  -3.326  1.00  0.00     0.038 A 
BRANCH   7  12
ATOM     12  N   UNL     1       1.474  -0.299  -6.972  1.00  0.00    -0.325 N 
ATOM     13  C   UNL     1       2.395   0.733  -7.040  1.00  0.00     0.224 C 
ATOM     14  O   UNL     1       2.678   1.163  -8.163  1.00  0.00    -0.275 OA
ATOM     15  H   UNL     1       1.315  -0.805  -7.801  1.00  0.00     0.169 HD
BRANCH  13  16
ATOM     16  C   UNL     1       3.208   1.224  -5.785  1.00  0.00     0.105 C 
BRANCH  16  17
ATOM     17  C   UNL     1       3.002   2.622  -5.102  1.00  0.00     0.045 C 
BRANCH  17  18
ATOM     18  C   UNL     1       2.605   2.701  -3.618  1.00  0.00    -0.047 A 
ATOM     19  C   UNL     1       1.462   2.343  -1.053  1.00  0.00     0.118 A 
ATOM     20  C   UNL     1       0.831   3.143  -1.996  1.00  0.00     0.046 A 
ATOM     21  C   UNL     1       2.785   1.963  -1.282  1.00  0.00     0.046 A 
ATOM     22  C   UNL     1       1.426   3.366  -3.247  1.00  0.00     0.007 A 
ATOM     23  C   UNL     1       3.343   2.114  -2.576  1.00  0.00     0.007 A 
BRANCH  19  24
ATOM     24  O   UNL     1       0.596   1.557  -0.325  1.00  0.00    -0.497 OA
ATOM     25  C   UNL     1       0.680   1.546   1.085  1.00  0.00     0.278 C 
ENDBRANCH  19  24
ENDBRANCH  17  18
ENDBRANCH  16  17
ENDBRANCH  13  16
ENDBRANCH   7  12
BRANCH  11  26
ATOM     26  N   UNL     1       2.082  -1.972  -2.307  1.00  0.00    -0.372 N 
ATOM     27  C   UNL     1       2.171  -1.442  -0.962  1.00  0.00     0.116 C 
ATOM     28  C   UNL     1       3.219  -2.857  -2.601  1.00  0.00     0.116 C 
ATOM     29  C   UNL     1       3.625  -1.685  -0.553  1.00  0.00     0.023 C 
ATOM     30  C   UNL     1       3.983  -2.966  -1.282  1.00  0.00     0.023 C 
ENDBRANCH  11  26
ENDBRANCH   3   6
ENDBRANCH   1   2
BRANCH   1  31
ATOM     31  C   UNL     1      -2.103   3.006  -7.564  1.00  0.00     0.042 C 
BRANCH  31  32
ATOM     32  C   UNL     1      -1.293   4.230  -7.984  1.00  0.00     0.118 C 
BRANCH  32  33
ATOM     33  N   UNL     1      -0.689   4.112  -9.312  1.00  0.00    -0.352 N 
ATOM     34  C   UNL     1      -1.174   4.481 -10.545  1.00  0.00     0.251 C 
ATOM     35  H   UNL     1       0.207   3.704  -9.324  1.00  0.00     0.163 HD
ATOM     36  O   UNL     1      -0.580   4.145 -11.569  1.00  0.00    -0.269 OA
BRANCH  34  37
ATOM     37  C   UNL     1      -2.436   5.237 -10.634  1.00  0.00     0.039 A 
ATOM     38  C   UNL     1      -3.441   4.806 -11.503  1.00  0.00     0.014 A 
ATOM     39  C   UNL     1      -2.643   6.344  -9.814  1.00  0.00     0.014 A 
ATOM     40  C   UNL     1      -4.693   5.424 -11.465  1.00  0.00     0.010 A 
ATOM     41  C   UNL     1      -3.920   6.873  -9.689  1.00  0.00     0.010 A 
ATOM     42  C   UNL     1      -4.961   6.423 -10.515  1.00  0.00    -0.014 A 
BRANCH  42  43
ATOM     43  C   UNL     1      -6.313   7.027 -10.371  1.00  0.00     0.031 A 
ATOM     44  C   UNL     1      -6.480   8.517 -10.526  1.00  0.00     0.074 A 
ATOM     45  C   UNL     1      -7.360   6.255 -10.016  1.00  0.00     0.049 A 
ATOM     46  N   UNL     1      -7.538   9.258 -10.323  1.00  0.00    -0.248 NA
ATOM     47  C   UNL     1      -5.282   9.280 -10.910  1.00  0.00     0.031 C 
ATOM     48  C   UNL     1      -7.304   4.810  -9.774  1.00  0.00     0.029 A 
ATOM     49  N   UNL     1      -8.676   6.572  -9.787  1.00  0.00    -0.354 N 
ATOM     50  C   UNL     1      -7.123  10.571 -10.522  1.00  0.00     0.074 A 
ATOM     51  C   UNL     1      -5.701  10.528 -10.781  1.00  0.00     0.031 C 
ATOM     52  C   UNL     1      -8.534   4.364  -9.472  1.00  0.00     0.029 A 
ATOM     53  C   UNL     1      -9.457   5.492  -9.442  1.00  0.00     0.049 A 
ATOM     54  H   UNL     1      -9.028   7.489  -9.863  1.00  0.00     0.167 HD
ATOM     55  C   UNL     1      -7.865  11.705 -10.522  1.00  0.00     0.034 A 
ATOM     56  C   UNL     1     -10.767   5.423  -9.129  1.00  0.00     0.034 A 
ATOM     57  C   UNL     1      -9.290  11.717 -10.300  1.00  0.00     0.049 A 
ATOM     58  C   UNL     1     -11.576   6.696  -9.147  1.00  0.00     0.074 A 
ATOM     59  C   UNL     1     -10.161  12.790 -10.352  1.00  0.00     0.029 A 
ATOM     60  N   UNL     1     -10.052  10.600  -9.983  1.00  0.00    -0.354 N 
ATOM     61  N   UNL     1     -11.181   7.923  -9.403  1.00  0.00    -0.248 NA
ATOM     62  C   UNL     1     -13.009   6.576  -8.849  1.00  0.00     0.031 C 
ATOM     63  C   UNL     1     -11.435  12.335  -9.996  1.00  0.00     0.029 A 
ATOM     64  C   UNL     1     -11.377  10.963  -9.806  1.00  0.00     0.049 A 
ATOM     65  H   UNL     1      -9.702   9.684  -9.896  1.00  0.00     0.167 HD
ATOM     66  C   UNL     1     -12.325   8.714  -9.328  1.00  0.00     0.074 A 
ATOM     67  C   UNL     1     -13.424   7.822  -9.022  1.00  0.00     0.031 C 
ATOM     68  C   UNL     1     -12.457  10.055  -9.498  1.00  0.00     0.034 A 
BRANCH  55  69
ATOM     69  C   UNL     1      -7.144  13.014 -10.753  1.00  0.00     0.023 A 
ATOM     70  C   UNL     1      -6.438  13.272 -11.942  1.00  0.00     0.031 A 
ATOM     71  C   UNL     1      -7.131  14.005  -9.756  1.00  0.00     0.131 A 
ATOM     72  C   UNL     1      -5.680  14.446 -12.068  1.00  0.00     0.055 A 
ATOM     73  C   UNL     1      -6.449  15.212  -9.925  1.00  0.00     0.041 A 
ATOM     74  F   UNL     1      -7.767  13.811  -8.590  1.00  0.00    -0.206 F 
ATOM     75  C   UNL     1      -5.703  15.431 -11.079  1.00  0.00     0.022 A 
BRANCH  72  76
ATOM     76  S   UNL     1      -4.542  14.594 -13.473  1.00  0.00     0.124 S 
ATOM     77  O   UNL     1      -3.673  13.437 -13.270  1.00  0.00    -0.237 OA
ATOM     78  O   UNL     1      -5.442  14.523 -14.618  1.00  0.00    -0.237 OA
ATOM     79  O   UNL     1      -3.902  15.890 -13.261  1.00  0.00    -0.744 OA
ENDBRANCH  72  76
ENDBRANCH  55  69
BRANCH  56  80
ATOM     80  C   UNL     1     -11.399   4.118  -8.770  1.00  0.00     0.023 A 
ATOM     81  C   UNL     1     -12.424   3.568  -9.557  1.00  0.00     0.031 A 
ATOM     82  C   UNL     1     -11.021   3.422  -7.608  1.00  0.00     0.131 A 
ATOM     83  C   UNL     1     -13.070   2.391  -9.148  1.00  0.00     0.055 A 
ATOM     84  C   UNL     1     -11.626   2.219  -7.236  1.00  0.00     0.041 A 
ATOM     85  F   UNL     1     -10.045   3.897  -6.818  1.00  0.00    -0.206 F 
ATOM     86  C   UNL     1     -12.668   1.705  -8.000  1.00  0.00     0.022 A 
BRANCH  83  87
ATOM     87  S   UNL     1     -14.514   1.819 -10.086  1.00  0.00     0.124 S 
ATOM     88  O   UNL     1     -15.392   2.982 -10.019  1.00  0.00    -0.237 OA
ATOM     89  O   UNL     1     -13.931   1.529 -11.392  1.00  0.00    -0.237 OA
ATOM     90  O   UNL     1     -14.968   0.650  -9.335  1.00  0.00    -0.744 OA
ENDBRANCH  83  87
ENDBRANCH  56  80
BRANCH  68  91
ATOM     91  C   UNL     1     -13.852  10.623  -9.407  1.00  0.00     0.023 A 
ATOM     92  C   UNL     1     -14.579  10.615  -8.204  1.00  0.00     0.031 A 
ATOM     93  C   UNL     1     -14.461  11.180 -10.546  1.00  0.00     0.131 A 
ATOM     94  C   UNL     1     -15.894  11.101  -8.181  1.00  0.00     0.055 A 
ATOM     95  C   UNL     1     -15.744  11.725 -10.500  1.00  0.00     0.041 A 
ATOM     96  F   UNL     1     -13.814  11.210 -11.722  1.00  0.00    -0.206 F 
ATOM     97  C   UNL     1     -16.474  11.675  -9.316  1.00  0.00     0.022 A 
BRANCH  94  98
ATOM     98  S   UNL     1     -16.874  10.884  -6.671  1.00  0.00     0.124 S 
ATOM     99  O   UNL     1     -16.845   9.435  -6.497  1.00  0.00    -0.237 OA
ATOM    100  O   UNL     1     -16.118  11.659  -5.693  1.00  0.00    -0.237 OA
ATOM    101  O   UNL     1     -18.179  11.440  -7.027  1.00  0.00    -0.744 OA
ENDBRANCH  94  98
ENDBRANCH  68  91
ENDBRANCH  42  43
ENDBRANCH  34  37
ENDBRANCH  32  33
ENDBRANCH  31  32
ENDBRANCH   1  31
TORSDOF 19
