REMARK SMILES CSCC[C@@H](NC1=[NH+]S(=O)(=O)c2ccccc21)C(=O)NCCCNC(=O)c1ccc(-c2c3nc(c(-c4cc(S(=O)(=O)[O-])ccc4F)c4ccc([nH]4)c(-c4cc(S(=O)(=O)[O-])ccc4F)c4nc(c(-c5cc(S(=O)(=O)[O-])ccc5F)c5ccc2[nH]5)C=C4)C=C3)cc1
REMARK SMILES IDX 22 1 21 2 20 3 18 4 19 5 5 7 4 8 3 9 2 10 1 11 6 12 7 13
REMARK SMILES IDX 8 15 17 16 9 17 12 19 16 20 10 21 11 22 13 23 15 24 14 25
REMARK SMILES IDX 23 26 24 27 25 28 26 30 27 31 28 32 89 33 29 34 88 35 30 36
REMARK SMILES IDX 31 37 32 38 82 39 33 40 87 41 81 42 83 43 34 44 86 45 80 46
REMARK SMILES IDX 79 47 35 49 67 50 47 51 66 52 48 53 51 54 65 55 84 56 49 57
REMARK SMILES IDX 50 58 64 60 85 61 52 62 36 63 37 64 45 65 38 66 44 67 46 68
REMARK SMILES IDX 43 69 39 70 40 71 41 72 42 73 68 74 69 75 77 76 70 77 76 78
REMARK SMILES IDX 78 79 75 80 71 81 72 82 73 83 74 84 53 85 54 86 62 87 55 88
REMARK SMILES IDX 61 89 63 90 60 91 56 92 57 93 58 94 59 95
REMARK H PARENT 20 6 6 14 8 18 24 29 83 48 51 59
REMARK Flexibility Score: inf
ROOT
ATOM      1  C   UNL     1       1.071   1.310   6.728  1.00  0.00     0.042 C 
ENDROOT
BRANCH   1   2
ATOM      2  C   UNL     1       1.747   0.362   5.755  1.00  0.00     0.118 C 
BRANCH   2   3
ATOM      3  N   UNL     1       0.838  -0.628   5.207  1.00  0.00    -0.352 N 
ATOM      4  C   UNL     1       0.602  -0.997   3.913  1.00  0.00     0.264 C 
ATOM      5  O   UNL     1      -0.220  -1.899   3.716  1.00  0.00    -0.270 OA
ATOM      6  H   UNL     1       0.303  -1.112   5.878  1.00  0.00     0.163 HD
BRANCH   4   7
ATOM      7  C   UNL     1       1.244  -0.248   2.720  1.00  0.00     0.262 C 
BRANCH   7   8
ATOM      8  C   UNL     1       0.520   1.104   2.582  1.00  0.00     0.071 C 
BRANCH   8   9
ATOM      9  C   UNL     1       0.893   1.969   1.380  1.00  0.00     0.074 C 
BRANCH   9  10
ATOM     10  S   UNL     1       0.078   1.518  -0.183  1.00  0.00    -0.165 SA
ATOM     11  C   UNL     1       1.091   0.113  -0.700  1.00  0.00     0.085 C 
ENDBRANCH   9  10
ENDBRANCH   8   9
ENDBRANCH   7   8
BRANCH   7  12
ATOM     12  N   UNL     1       2.703  -0.070   2.843  1.00  0.00    -0.261 N 
ATOM     13  C   UNL     1       3.536  -0.939   3.506  1.00  0.00     0.292 C 
ATOM     14  H   UNL     1       3.106   0.723   2.423  1.00  0.00     0.306 HD
ATOM     15  N   UNL     1       3.266  -2.189   3.740  1.00  0.00    -0.162 N 
ATOM     16  C   UNL     1       4.786  -0.433   4.121  1.00  0.00     0.087 A 
ATOM     17  S   UNL     1       4.382  -2.859   4.744  1.00  0.00     0.329 S 
ATOM     18  H   UNL     1       2.494  -2.671   3.365  1.00  0.00     0.327 HD
ATOM     19  C   UNL     1       5.346  -1.419   4.910  1.00  0.00     0.124 A 
ATOM     20  C   UNL     1       5.320   0.845   4.110  1.00  0.00     0.018 A 
ATOM     21  O   UNL     1       5.183  -3.827   4.039  1.00  0.00    -0.179 OA
ATOM     22  O   UNL     1       3.789  -3.113   6.040  1.00  0.00    -0.179 OA
ATOM     23  C   UNL     1       6.423  -1.199   5.744  1.00  0.00     0.025 A 
ATOM     24  C   UNL     1       6.427   1.097   4.928  1.00  0.00     0.001 A 
ATOM     25  C   UNL     1       6.968   0.086   5.744  1.00  0.00     0.002 A 
ENDBRANCH   7  12
ENDBRANCH   4   7
ENDBRANCH   2   3
ENDBRANCH   1   2
BRANCH   1  26
ATOM     26  C   UNL     1       0.546   0.635   7.985  1.00  0.00     0.118 C 
BRANCH  26  27
ATOM     27  N   UNL     1       1.602   0.023   8.780  1.00  0.00    -0.352 N 
ATOM     28  C   UNL     1       2.002   0.284  10.068  1.00  0.00     0.251 C 
ATOM     29  H   UNL     1       2.107  -0.688   8.323  1.00  0.00     0.163 HD
ATOM     30  O   UNL     1       3.052  -0.202  10.482  1.00  0.00    -0.269 OA
BRANCH  28  31
ATOM     31  C   UNL     1       1.196   1.168  10.941  1.00  0.00     0.039 A 
ATOM     32  C   UNL     1       1.855   2.061  11.789  1.00  0.00     0.014 A 
ATOM     33  C   UNL     1      -0.201   1.115  10.936  1.00  0.00     0.014 A 
ATOM     34  C   UNL     1       1.114   2.948  12.573  1.00  0.00     0.010 A 
ATOM     35  C   UNL     1      -0.935   2.061  11.643  1.00  0.00     0.010 A 
ATOM     36  C   UNL     1      -0.287   2.984  12.475  1.00  0.00    -0.014 A 
BRANCH  36  37
ATOM     37  C   UNL     1      -1.081   3.982  13.234  1.00  0.00     0.031 A 
ATOM     38  C   UNL     1      -2.079   3.536  14.269  1.00  0.00     0.074 A 
ATOM     39  C   UNL     1      -0.959   5.289  12.932  1.00  0.00     0.049 A 
ATOM     40  N   UNL     1      -2.885   4.256  15.007  1.00  0.00    -0.248 NA
ATOM     41  C   UNL     1      -2.218   2.087  14.466  1.00  0.00     0.031 C 
ATOM     42  C   UNL     1      -0.097   5.836  11.880  1.00  0.00     0.029 A 
ATOM     43  N   UNL     1      -1.568   6.394  13.468  1.00  0.00    -0.354 N 
ATOM     44  C   UNL     1      -3.643   3.347  15.738  1.00  0.00     0.074 A 
ATOM     45  C   UNL     1      -3.243   2.026  15.302  1.00  0.00     0.031 C 
ATOM     46  C   UNL     1      -0.219   7.173  11.862  1.00  0.00     0.029 A 
ATOM     47  C   UNL     1      -1.183   7.576  12.880  1.00  0.00     0.049 A 
ATOM     48  H   UNL     1      -2.219   6.346  14.205  1.00  0.00     0.167 HD
ATOM     49  C   UNL     1      -4.567   3.591  16.702  1.00  0.00     0.034 A 
ATOM     50  C   UNL     1      -1.565   8.842  13.131  1.00  0.00     0.034 A 
ATOM     51  C   UNL     1      -4.934   4.917  17.138  1.00  0.00     0.049 A 
ATOM     52  C   UNL     1      -2.541   9.098  14.246  1.00  0.00     0.074 A 
ATOM     53  C   UNL     1      -5.779   5.285  18.171  1.00  0.00     0.029 A 
ATOM     54  N   UNL     1      -4.484   6.097  16.557  1.00  0.00    -0.354 N 
ATOM     55  N   UNL     1      -3.176   8.232  15.001  1.00  0.00    -0.248 NA
ATOM     56  C   UNL     1      -2.830  10.502  14.557  1.00  0.00     0.031 C 
ATOM     57  C   UNL     1      -5.886   6.682  18.175  1.00  0.00     0.029 A 
ATOM     58  C   UNL     1      -5.058   7.192  17.187  1.00  0.00     0.049 A 
ATOM     59  H   UNL     1      -3.850   6.149  15.805  1.00  0.00     0.167 HD
ATOM     60  C   UNL     1      -3.940   8.989  15.884  1.00  0.00     0.074 A 
ATOM     61  C   UNL     1      -3.657  10.380  15.586  1.00  0.00     0.031 C 
ATOM     62  C   UNL     1      -4.797   8.573  16.852  1.00  0.00     0.034 A 
BRANCH  49  63
ATOM     63  C   UNL     1      -5.253   2.393  17.319  1.00  0.00     0.023 A 
ATOM     64  C   UNL     1      -4.532   1.404  18.013  1.00  0.00     0.031 A 
ATOM     65  C   UNL     1      -6.638   2.205  17.163  1.00  0.00     0.131 A 
ATOM     66  C   UNL     1      -5.176   0.230  18.433  1.00  0.00     0.055 A 
ATOM     67  C   UNL     1      -7.289   1.075  17.663  1.00  0.00     0.041 A 
ATOM     68  F   UNL     1      -7.379   3.104  16.498  1.00  0.00    -0.206 F 
ATOM     69  C   UNL     1      -6.554   0.069  18.284  1.00  0.00     0.022 A 
BRANCH  66  70
ATOM     70  S   UNL     1      -4.156  -1.152  19.018  1.00  0.00     0.124 S 
ATOM     71  O   UNL     1      -3.269  -1.367  17.877  1.00  0.00    -0.237 OA
ATOM     72  O   UNL     1      -3.535  -0.600  20.215  1.00  0.00    -0.237 OA
ATOM     73  O   UNL     1      -5.126  -2.220  19.251  1.00  0.00    -0.744 OA
ENDBRANCH  66  70
ENDBRANCH  49  63
BRANCH  50  74
ATOM     74  C   UNL     1      -1.018   9.959  12.314  1.00  0.00     0.023 A 
ATOM     75  C   UNL     1      -0.107  10.878  12.856  1.00  0.00     0.031 A 
ATOM     76  C   UNL     1      -1.399  10.115  10.970  1.00  0.00     0.131 A 
ATOM     77  C   UNL     1       0.371  11.934  12.065  1.00  0.00     0.055 A 
ATOM     78  C   UNL     1      -0.893  11.145  10.176  1.00  0.00     0.041 A 
ATOM     79  F   UNL     1      -2.252   9.248  10.402  1.00  0.00    -0.206 F 
ATOM     80  C   UNL     1      -0.008  12.068  10.726  1.00  0.00     0.022 A 
BRANCH  77  81
ATOM     81  S   UNL     1       1.478  13.156  12.821  1.00  0.00     0.124 S 
ATOM     82  O   UNL     1       0.635  13.714  13.871  1.00  0.00    -0.237 OA
ATOM     83  O   UNL     1       2.591  12.322  13.265  1.00  0.00    -0.237 OA
ATOM     84  O   UNL     1       1.788  14.063  11.718  1.00  0.00    -0.744 OA
ENDBRANCH  77  81
ENDBRANCH  50  74
BRANCH  62  85
ATOM     85  C   UNL     1      -5.481   9.653  17.653  1.00  0.00     0.023 A 
ATOM     86  C   UNL     1      -6.408  10.529  17.060  1.00  0.00     0.031 A 
ATOM     87  C   UNL     1      -5.171   9.839  19.011  1.00  0.00     0.131 A 
ATOM     88  C   UNL     1      -6.940  11.592  17.804  1.00  0.00     0.055 A 
ATOM     89  C   UNL     1      -5.751  10.861  19.763  1.00  0.00     0.041 A 
ATOM     90  F   UNL     1      -4.290   9.034  19.627  1.00  0.00    -0.206 F 
ATOM     91  C   UNL     1      -6.629  11.755  19.156  1.00  0.00     0.022 A 
BRANCH  88  92
ATOM     92  S   UNL     1      -7.954  12.829  16.948  1.00  0.00     0.124 S 
ATOM     93  O   UNL     1      -7.059  13.272  15.883  1.00  0.00    -0.237 OA
ATOM     94  O   UNL     1      -9.110  12.046  16.525  1.00  0.00    -0.237 OA
ATOM     95  O   UNL     1      -8.225  13.825  17.983  1.00  0.00    -0.744 OA
ENDBRANCH  88  92
ENDBRANCH  62  85
ENDBRANCH  36  37
ENDBRANCH  28  31
ENDBRANCH  26  27
ENDBRANCH   1  26
TORSDOF 17
