REMARK SMILES CCOC(=O)c1c(NC(=O)[C@@H]2[C@@H](C(=O)NCCCNC(=O)c3ccc(-c4c5nc(c(-c6cc(S(=O)(=O)[O-])ccc6F)c6ccc([nH]6)c(-c6cc(S(=O)(=O)[O-])ccc6F)c6nc(c(-c7cc(S(=O)(=O)[O-])ccc7F)c7ccc4[nH]7)C=C6)C=C5)cc3)[C@@H]3C=C[C@H]2CC3)sc2c1CCC2
REMARK SMILES IDX 16 1 15 2 13 3 14 4 12 6 11 7 88 8 85 9 87 10 89 11 86 12
REMARK SMILES IDX 90 13 9 14 8 15 10 17 7 18 6 19 93 20 91 21 92 22 94 23
REMARK SMILES IDX 96 24 95 25 4 26 5 27 3 28 2 29 1 30 17 31 18 32 19 33 20 34
REMARK SMILES IDX 21 36 22 37 23 38 84 39 24 40 83 41 25 42 26 43 27 44 77 45
REMARK SMILES IDX 28 46 82 47 76 48 78 49 29 50 81 51 75 52 74 53 30 55 62 56
REMARK SMILES IDX 42 57 61 58 43 59 46 60 60 61 79 62 44 63 45 64 59 66 80 67
REMARK SMILES IDX 47 68 31 69 32 70 40 71 33 72 39 73 41 74 38 75 34 76 35 77
REMARK SMILES IDX 36 78 37 79 63 80 64 81 72 82 65 83 71 84 73 85 70 86 66 87
REMARK SMILES IDX 67 88 68 89 69 90 48 91 49 92 57 93 50 94 56 95 58 96 55 97
REMARK SMILES IDX 51 98 52 99 53 100 54 101
REMARK H PARENT 15 5 8 16 19 35 78 54 46 65
REMARK Flexibility Score: inf
ROOT
ATOM      1  C   UNL     1       8.204  -7.689   0.770  1.00  0.00     0.117 C 
ENDROOT
BRANCH   1   2
ATOM      2  N   UNL     1       7.005  -7.783  -0.060  1.00  0.00    -0.356 N 
ATOM      3  C   UNL     1       5.673  -7.623   0.155  1.00  0.00     0.224 C 
ATOM      4  O   UNL     1       4.945  -8.317  -0.569  1.00  0.00    -0.275 OA
ATOM      5  H   UNL     1       7.210  -8.017  -0.994  1.00  0.00     0.163 HD
BRANCH   3   6
ATOM      6  C   UNL     1       4.999  -6.672   1.167  1.00  0.00     0.098 C 
ATOM      7  C   UNL     1       5.836  -5.497   1.729  1.00  0.00     0.099 C 
ATOM      8  C   UNL     1       5.847  -5.699   3.298  1.00  0.00     0.025 C 
ATOM      9  C   UNL     1       4.283  -7.491   2.279  1.00  0.00     0.025 C 
ATOM     10  C   UNL     1       4.395  -5.598   3.752  1.00  0.00    -0.027 C 
ATOM     11  C   UNL     1       6.303  -7.129   3.701  1.00  0.00     0.009 C 
ATOM     12  C   UNL     1       3.579  -6.508   3.196  1.00  0.00    -0.027 C 
ATOM     13  C   UNL     1       5.321  -8.187   3.159  1.00  0.00     0.009 C 
BRANCH   7  14
ATOM     14  C   UNL     1       5.481  -4.001   1.458  1.00  0.00     0.229 C 
ATOM     15  N   UNL     1       4.792  -3.432   0.435  1.00  0.00    -0.317 N 
ATOM     16  H   UNL     1       4.761  -2.449   0.487  1.00  0.00     0.170 HD
ATOM     17  O   UNL     1       5.913  -3.161   2.273  1.00  0.00    -0.274 OA
BRANCH  15  18
ATOM     18  C   UNL     1       4.130  -3.939  -0.654  1.00  0.00     0.110 A 
ATOM     19  C   UNL     1       2.957  -3.461  -1.249  1.00  0.00     0.098 A 
ATOM     20  C   UNL     1       2.382  -4.547  -1.968  1.00  0.00    -0.017 A 
ATOM     21  S   UNL     1       4.812  -5.177  -1.610  1.00  0.00    -0.122 S 
ATOM     22  C   UNL     1       3.266  -5.585  -2.100  1.00  0.00     0.011 A 
ATOM     23  C   UNL     1       1.092  -4.890  -2.618  1.00  0.00     0.038 C 
ATOM     24  C   UNL     1       2.709  -6.817  -2.696  1.00  0.00     0.047 C 
ATOM     25  C   UNL     1       1.195  -6.446  -2.765  1.00  0.00     0.010 C 
BRANCH  19  26
ATOM     26  C   UNL     1       2.445  -2.115  -1.004  1.00  0.00     0.341 C 
ATOM     27  O   UNL     1       3.171  -1.194  -0.718  1.00  0.00    -0.246 OA
BRANCH  26  28
ATOM     28  O   UNL     1       1.087  -2.015  -1.168  1.00  0.00    -0.462 OA
BRANCH  28  29
ATOM     29  C   UNL     1       0.551  -0.681  -1.207  1.00  0.00     0.230 C 
ATOM     30  C   UNL     1       0.690   0.101   0.092  1.00  0.00     0.049 C 
ENDBRANCH  28  29
ENDBRANCH  26  28
ENDBRANCH  19  26
ENDBRANCH  15  18
ENDBRANCH   7  14
ENDBRANCH   3   6
ENDBRANCH   1   2
BRANCH   1  31
ATOM     31  C   UNL     1       8.463  -8.988   1.542  1.00  0.00     0.042 C 
BRANCH  31  32
ATOM     32  C   UNL     1       9.151 -10.050   0.716  1.00  0.00     0.118 C 
BRANCH  32  33
ATOM     33  N   UNL     1      10.598  -9.866   0.651  1.00  0.00    -0.352 N 
ATOM     34  C   UNL     1      11.495 -10.652  -0.052  1.00  0.00     0.251 C 
ATOM     35  H   UNL     1      10.973  -9.110   1.158  1.00  0.00     0.163 HD
ATOM     36  O   UNL     1      12.674 -10.699   0.277  1.00  0.00    -0.269 OA
BRANCH  34  37
ATOM     37  C   UNL     1      10.971 -11.454  -1.174  1.00  0.00     0.039 A 
ATOM     38  C   UNL     1      11.325 -12.791  -1.337  1.00  0.00     0.014 A 
ATOM     39  C   UNL     1      10.008 -10.869  -1.990  1.00  0.00     0.014 A 
ATOM     40  C   UNL     1      10.616 -13.556  -2.262  1.00  0.00     0.010 A 
ATOM     41  C   UNL     1       9.187 -11.669  -2.749  1.00  0.00     0.010 A 
ATOM     42  C   UNL     1       9.509 -13.005  -2.940  1.00  0.00    -0.014 A 
BRANCH  42  43
ATOM     43  C   UNL     1       8.657 -13.847  -3.784  1.00  0.00     0.031 A 
ATOM     44  C   UNL     1       8.379 -15.206  -3.253  1.00  0.00     0.074 A 
ATOM     45  C   UNL     1       8.053 -13.460  -4.930  1.00  0.00     0.049 A 
ATOM     46  N   UNL     1       8.944 -16.305  -3.626  1.00  0.00    -0.248 NA
ATOM     47  C   UNL     1       7.503 -15.357  -2.084  1.00  0.00     0.031 C 
ATOM     48  C   UNL     1       7.971 -12.127  -5.537  1.00  0.00     0.029 A 
ATOM     49  N   UNL     1       7.310 -14.219  -5.787  1.00  0.00    -0.354 N 
ATOM     50  C   UNL     1       8.333 -17.324  -2.909  1.00  0.00     0.074 A 
ATOM     51  C   UNL     1       7.601 -16.670  -1.855  1.00  0.00     0.031 C 
ATOM     52  C   UNL     1       7.055 -12.127  -6.530  1.00  0.00     0.029 A 
ATOM     53  C   UNL     1       6.639 -13.496  -6.764  1.00  0.00     0.049 A 
ATOM     54  H   UNL     1       7.255 -15.200  -5.718  1.00  0.00     0.167 HD
ATOM     55  C   UNL     1       8.322 -18.601  -3.385  1.00  0.00     0.034 A 
ATOM     56  C   UNL     1       5.832 -13.972  -7.745  1.00  0.00     0.034 A 
ATOM     57  C   UNL     1       9.297 -18.767  -4.444  1.00  0.00     0.049 A 
ATOM     58  C   UNL     1       6.255 -15.369  -7.997  1.00  0.00     0.074 A 
ATOM     59  C   UNL     1      10.665 -18.578  -4.533  1.00  0.00     0.029 A 
ATOM     60  N   UNL     1       8.851 -18.780  -5.748  1.00  0.00    -0.354 N 
ATOM     61  N   UNL     1       7.426 -15.680  -8.483  1.00  0.00    -0.248 NA
ATOM     62  C   UNL     1       5.584 -16.438  -7.276  1.00  0.00     0.031 C 
ATOM     63  C   UNL     1      10.867 -17.963  -5.806  1.00  0.00     0.029 A 
ATOM     64  C   UNL     1       9.632 -17.896  -6.456  1.00  0.00     0.049 A 
ATOM     65  H   UNL     1       8.110 -19.321  -6.106  1.00  0.00     0.167 HD
ATOM     66  C   UNL     1       7.828 -16.796  -7.767  1.00  0.00     0.074 A 
ATOM     67  C   UNL     1       6.610 -17.281  -7.120  1.00  0.00     0.031 C 
ATOM     68  C   UNL     1       9.150 -17.067  -7.548  1.00  0.00     0.034 A 
BRANCH  55  69
ATOM     69  C   UNL     1       7.219 -19.609  -3.144  1.00  0.00     0.023 A 
ATOM     70  C   UNL     1       7.372 -20.889  -3.712  1.00  0.00     0.031 A 
ATOM     71  C   UNL     1       5.931 -19.314  -2.642  1.00  0.00     0.131 A 
ATOM     72  C   UNL     1       6.275 -21.757  -3.853  1.00  0.00     0.055 A 
ATOM     73  C   UNL     1       4.859 -20.208  -2.721  1.00  0.00     0.041 A 
ATOM     74  F   UNL     1       5.607 -18.120  -2.133  1.00  0.00    -0.206 F 
ATOM     75  C   UNL     1       5.017 -21.425  -3.359  1.00  0.00     0.022 A 
BRANCH  72  76
ATOM     76  S   UNL     1       6.480 -23.247  -4.862  1.00  0.00     0.124 S 
ATOM     77  O   UNL     1       7.014 -22.693  -6.101  1.00  0.00    -0.237 OA
ATOM     78  O   UNL     1       7.408 -24.031  -4.053  1.00  0.00    -0.237 OA
ATOM     79  O   UNL     1       5.124 -23.784  -4.952  1.00  0.00    -0.744 OA
ENDBRANCH  72  76
ENDBRANCH  55  69
BRANCH  56  80
ATOM     80  C   UNL     1       4.563 -13.371  -8.226  1.00  0.00     0.023 A 
ATOM     81  C   UNL     1       3.962 -13.734  -9.448  1.00  0.00     0.031 A 
ATOM     82  C   UNL     1       3.786 -12.588  -7.341  1.00  0.00     0.131 A 
ATOM     83  C   UNL     1       2.639 -13.328  -9.736  1.00  0.00     0.055 A 
ATOM     84  C   UNL     1       2.481 -12.189  -7.631  1.00  0.00     0.041 A 
ATOM     85  F   UNL     1       4.242 -12.258  -6.122  1.00  0.00    -0.206 F 
ATOM     86  C   UNL     1       1.896 -12.568  -8.828  1.00  0.00     0.022 A 
BRANCH  83  87
ATOM     87  S   UNL     1       1.820 -13.876 -11.269  1.00  0.00     0.124 S 
ATOM     88  O   UNL     1       2.541 -13.125 -12.290  1.00  0.00    -0.237 OA
ATOM     89  O   UNL     1       2.041 -15.317 -11.244  1.00  0.00    -0.237 OA
ATOM     90  O   UNL     1       0.428 -13.469 -11.076  1.00  0.00    -0.744 OA
ENDBRANCH  83  87
ENDBRANCH  56  80
BRANCH  68  91
ATOM     91  C   UNL     1      10.192 -16.299  -8.347  1.00  0.00     0.023 A 
ATOM     92  C   UNL     1      10.304 -14.889  -8.397  1.00  0.00     0.031 A 
ATOM     93  C   UNL     1      11.185 -17.048  -9.005  1.00  0.00     0.131 A 
ATOM     94  C   UNL     1      11.371 -14.286  -9.096  1.00  0.00     0.055 A 
ATOM     95  C   UNL     1      12.252 -16.449  -9.675  1.00  0.00     0.041 A 
ATOM     96  F   UNL     1      11.154 -18.391  -8.980  1.00  0.00    -0.206 F 
ATOM     97  C   UNL     1      12.345 -15.064  -9.729  1.00  0.00     0.022 A 
BRANCH  94  98
ATOM     98  S   UNL     1      11.502 -12.471  -9.216  1.00  0.00     0.124 S 
ATOM     99  O   UNL     1      10.161 -12.055  -9.609  1.00  0.00    -0.237 OA
ATOM    100  O   UNL     1      11.918 -12.092  -7.868  1.00  0.00    -0.237 OA
ATOM    101  O   UNL     1      12.526 -12.270 -10.244  1.00  0.00    -0.744 OA
ENDBRANCH  94  98
ENDBRANCH  68  91
ENDBRANCH  42  43
ENDBRANCH  34  37
ENDBRANCH  32  33
ENDBRANCH  31  32
ENDBRANCH   1  31
TORSDOF 18
