REMARK SMILES Cc1ccc(NC(=O)N2CCCC[C@@H]2C(=O)NCCCNC(=O)c2ccc(-c3c4nc(c(-c5cc(S(=O)(=O)[O-])ccc5F)c5ccc([nH]5)c(-c5cc(S(=O)(=O)[O-])ccc5F)c5nc(c(-c6cc(S(=O)(=O)[O-])ccc6F)c6ccc3[nH]6)C=C5)C=C4)cc2)cc1
REMARK SMILES IDX 19 1 18 2 17 3 15 4 16 5 14 7 9 8 10 9 11 10 13 11 12 12
REMARK SMILES IDX 7 13 6 14 8 16 5 17 1 18 2 19 3 20 88 21 4 22 87 23 20 24
REMARK SMILES IDX 21 25 22 26 23 28 24 29 25 30 86 31 26 32 85 33 27 34 28 35
REMARK SMILES IDX 29 36 79 37 30 38 84 39 78 40 80 41 31 42 83 43 77 44 76 45
REMARK SMILES IDX 32 47 64 48 44 49 63 50 45 51 48 52 62 53 81 54 46 55 47 56
REMARK SMILES IDX 61 58 82 59 49 60 33 61 34 62 42 63 35 64 41 65 43 66 40 67
REMARK SMILES IDX 36 68 37 69 38 70 39 71 65 72 66 73 74 74 67 75 73 76 75 77
REMARK SMILES IDX 72 78 68 79 69 80 70 81 71 82 50 83 51 84 59 85 52 86 58 87
REMARK SMILES IDX 60 88 57 89 53 90 54 91 55 92 56 93
REMARK H PARENT 17 6 6 15 21 27 80 46 48 57
REMARK Flexibility Score: inf
ROOT
ATOM      1  C   UNL     1      -5.539  -3.019   3.109  1.00  0.00     0.042 C 
ENDROOT
BRANCH   1   2
ATOM      2  C   UNL     1      -5.070  -1.950   2.127  1.00  0.00     0.117 C 
BRANCH   2   3
ATOM      3  N   UNL     1      -3.776  -1.402   2.511  1.00  0.00    -0.354 N 
ATOM      4  C   UNL     1      -2.510  -1.702   2.104  1.00  0.00     0.242 C 
ATOM      5  O   UNL     1      -1.579  -1.246   2.781  1.00  0.00    -0.273 OA
ATOM      6  H   UNL     1      -3.825  -0.686   3.185  1.00  0.00     0.163 HD
BRANCH   4   7
ATOM      7  C   UNL     1      -2.204  -2.736   0.986  1.00  0.00     0.176 C 
ATOM      8  N   UNL     1      -3.087  -2.694  -0.210  1.00  0.00    -0.313 N 
ATOM      9  C   UNL     1      -3.297  -3.912  -0.984  1.00  0.00     0.122 C 
ATOM     10  C   UNL     1      -3.347  -5.190  -0.168  1.00  0.00     0.022 C 
ATOM     11  C   UNL     1      -2.139  -4.109   1.687  1.00  0.00     0.035 C 
ATOM     12  C   UNL     1      -2.128  -5.283   0.727  1.00  0.00     0.004 C 
BRANCH   8  13
ATOM     13  C   UNL     1      -3.462  -1.519  -0.866  1.00  0.00     0.322 C 
ATOM     14  N   UNL     1      -2.844  -0.353  -0.531  1.00  0.00    -0.308 N 
ATOM     15  H   UNL     1      -3.429   0.385  -0.244  1.00  0.00     0.171 HD
ATOM     16  O   UNL     1      -4.383  -1.503  -1.684  1.00  0.00    -0.248 OA
BRANCH  14  17
ATOM     17  C   UNL     1      -1.464  -0.085  -0.549  1.00  0.00     0.042 A 
ATOM     18  C   UNL     1       2.760   0.553  -0.071  1.00  0.00     0.044 C 
ATOM     19  C   UNL     1       1.294   0.392  -0.336  1.00  0.00    -0.051 A 
ATOM     20  C   UNL     1       0.824  -0.728  -1.027  1.00  0.00     0.005 A 
ATOM     21  C   UNL     1       0.370   1.305   0.190  1.00  0.00     0.005 A 
ATOM     22  C   UNL     1      -0.547  -0.950  -1.154  1.00  0.00     0.026 A 
ATOM     23  C   UNL     1      -1.004   1.076   0.069  1.00  0.00     0.026 A 
ENDBRANCH  14  17
ENDBRANCH   8  13
ENDBRANCH   4   7
ENDBRANCH   2   3
ENDBRANCH   1   2
BRANCH   1  24
ATOM     24  C   UNL     1      -6.066  -2.436   4.411  1.00  0.00     0.118 C 
BRANCH  24  25
ATOM     25  N   UNL     1      -7.510  -2.569   4.577  1.00  0.00    -0.352 N 
ATOM     26  C   UNL     1      -8.296  -2.197   5.657  1.00  0.00     0.251 C 
ATOM     27  H   UNL     1      -7.990  -2.978   3.821  1.00  0.00     0.163 HD
ATOM     28  O   UNL     1      -9.495  -2.417   5.678  1.00  0.00    -0.269 OA
BRANCH  26  29
ATOM     29  C   UNL     1      -7.665  -1.404   6.739  1.00  0.00     0.039 A 
ATOM     30  C   UNL     1      -8.221  -0.152   7.024  1.00  0.00     0.014 A 
ATOM     31  C   UNL     1      -6.423  -1.764   7.250  1.00  0.00     0.014 A 
ATOM     32  C   UNL     1      -7.427   0.823   7.620  1.00  0.00     0.010 A 
ATOM     33  C   UNL     1      -5.599  -0.767   7.730  1.00  0.00     0.010 A 
ATOM     34  C   UNL     1      -6.084   0.539   7.862  1.00  0.00    -0.014 A 
BRANCH  34  35
ATOM     35  C   UNL     1      -5.090   1.565   8.151  1.00  0.00     0.031 A 
ATOM     36  C   UNL     1      -4.511   1.683   9.502  1.00  0.00     0.074 A 
ATOM     37  C   UNL     1      -4.656   2.385   7.168  1.00  0.00     0.049 A 
ATOM     38  N   UNL     1      -4.007   2.770   9.980  1.00  0.00    -0.248 NA
ATOM     39  C   UNL     1      -4.496   0.579  10.453  1.00  0.00     0.031 C 
ATOM     40  C   UNL     1      -3.504   3.281   7.207  1.00  0.00     0.029 A 
ATOM     41  N   UNL     1      -5.339   2.746   6.008  1.00  0.00    -0.354 N 
ATOM     42  C   UNL     1      -3.354   2.452  11.148  1.00  0.00     0.074 A 
ATOM     43  C   UNL     1      -3.745   1.091  11.432  1.00  0.00     0.031 C 
ATOM     44  C   UNL     1      -3.679   4.252   6.298  1.00  0.00     0.029 A 
ATOM     45  C   UNL     1      -5.007   4.087   5.739  1.00  0.00     0.049 A 
ATOM     46  H   UNL     1      -5.938   2.173   5.478  1.00  0.00     0.167 HD
ATOM     47  C   UNL     1      -2.450   3.328  11.668  1.00  0.00     0.034 A 
ATOM     48  C   UNL     1      -5.967   5.054   5.687  1.00  0.00     0.034 A 
ATOM     49  C   UNL     1      -2.375   4.558  10.879  1.00  0.00     0.049 A 
ATOM     50  C   UNL     1      -5.772   6.157   6.702  1.00  0.00     0.074 A 
ATOM     51  C   UNL     1      -1.476   5.022   9.932  1.00  0.00     0.029 A 
ATOM     52  N   UNL     1      -3.481   5.398  10.813  1.00  0.00    -0.354 N 
ATOM     53  N   UNL     1      -4.971   6.079   7.730  1.00  0.00    -0.248 NA
ATOM     54  C   UNL     1      -6.474   7.433   6.645  1.00  0.00     0.031 C 
ATOM     55  C   UNL     1      -2.063   6.136   9.276  1.00  0.00     0.029 A 
ATOM     56  C   UNL     1      -3.306   6.364   9.841  1.00  0.00     0.049 A 
ATOM     57  H   UNL     1      -4.280   5.315  11.381  1.00  0.00     0.167 HD
ATOM     58  C   UNL     1      -5.043   7.236   8.470  1.00  0.00     0.074 A 
ATOM     59  C   UNL     1      -5.986   8.058   7.732  1.00  0.00     0.031 C 
ATOM     60  C   UNL     1      -4.322   7.390   9.626  1.00  0.00     0.034 A 
BRANCH  47  61
ATOM     61  C   UNL     1      -1.422   2.954  12.714  1.00  0.00     0.023 A 
ATOM     62  C   UNL     1      -0.173   3.610  12.719  1.00  0.00     0.031 A 
ATOM     63  C   UNL     1      -1.579   1.954  13.692  1.00  0.00     0.131 A 
ATOM     64  C   UNL     1       0.873   3.200  13.566  1.00  0.00     0.055 A 
ATOM     65  C   UNL     1      -0.522   1.501  14.493  1.00  0.00     0.041 A 
ATOM     66  F   UNL     1      -2.775   1.411  13.957  1.00  0.00    -0.206 F 
ATOM     67  C   UNL     1       0.719   2.115  14.423  1.00  0.00     0.022 A 
BRANCH  64  68
ATOM     68  S   UNL     1       2.439   4.114  13.541  1.00  0.00     0.124 S 
ATOM     69  O   UNL     1       2.859   3.973  12.150  1.00  0.00    -0.237 OA
ATOM     70  O   UNL     1       2.025   5.448  13.960  1.00  0.00    -0.237 OA
ATOM     71  O   UNL     1       3.267   3.394  14.509  1.00  0.00    -0.744 OA
ENDBRANCH  64  68
ENDBRANCH  47  61
BRANCH  48  72
ATOM     72  C   UNL     1      -7.269   4.549   5.166  1.00  0.00     0.023 A 
ATOM     73  C   UNL     1      -7.257   3.995   3.866  1.00  0.00     0.031 A 
ATOM     74  C   UNL     1      -8.327   4.205   6.017  1.00  0.00     0.131 A 
ATOM     75  C   UNL     1      -8.168   2.989   3.519  1.00  0.00     0.055 A 
ATOM     76  C   UNL     1      -9.284   3.255   5.635  1.00  0.00     0.041 A 
ATOM     77  F   UNL     1      -8.372   4.670   7.274  1.00  0.00    -0.206 F 
ATOM     78  C   UNL     1      -9.178   2.607   4.402  1.00  0.00     0.022 A 
BRANCH  75  79
ATOM     79  S   UNL     1      -7.837   1.984   2.037  1.00  0.00     0.124 S 
ATOM     80  O   UNL     1      -8.625   2.674   1.023  1.00  0.00    -0.237 OA
ATOM     81  O   UNL     1      -6.385   2.077   1.891  1.00  0.00    -0.237 OA
ATOM     82  O   UNL     1      -8.312   0.655   2.419  1.00  0.00    -0.744 OA
ENDBRANCH  75  79
ENDBRANCH  48  72
BRANCH  60  83
ATOM     83  C   UNL     1      -4.424   8.523  10.642  1.00  0.00     0.023 A 
ATOM     84  C   UNL     1      -5.367   9.558  10.581  1.00  0.00     0.031 A 
ATOM     85  C   UNL     1      -3.566   8.566  11.775  1.00  0.00     0.131 A 
ATOM     86  C   UNL     1      -5.409  10.579  11.553  1.00  0.00     0.055 A 
ATOM     87  C   UNL     1      -3.646   9.546  12.771  1.00  0.00     0.041 A 
ATOM     88  F   UNL     1      -2.610   7.650  11.982  1.00  0.00    -0.206 F 
ATOM     89  C   UNL     1      -4.568  10.570  12.661  1.00  0.00     0.022 A 
BRANCH  86  90
ATOM     90  S   UNL     1      -6.573  11.947  11.310  1.00  0.00     0.124 S 
ATOM     91  O   UNL     1      -6.084  12.542  10.069  1.00  0.00    -0.237 OA
ATOM     92  O   UNL     1      -7.854  11.255  11.218  1.00  0.00    -0.237 OA
ATOM     93  O   UNL     1      -6.395  12.770  12.505  1.00  0.00    -0.744 OA
ENDBRANCH  86  90
ENDBRANCH  60  83
ENDBRANCH  34  35
ENDBRANCH  26  29
ENDBRANCH  24  25
ENDBRANCH   1  24
TORSDOF 15
