REMARK SMILES CC[C@H](NC(=O)Cc1c(C)c2cc(Cl)c(OC)cc2oc1=O)C(=O)NCCCNC(=O)c1ccc(-c2c3nc(c(-c4cc(S(=O)(=O)[O-])ccc4F)c4ccc([nH]4)c(-c4cc(S(=O)(=O)[O-])ccc4F)c4nc(c(-c5cc(S(=O)(=O)[O-])ccc5F)c5ccc2[nH]5)C=C4)C=C3)cc1
REMARK SMILES IDX 26 1 25 2 23 3 24 4 3 6 2 7 1 8 4 9 5 10 6 12 7 13 8 14 9 15
REMARK SMILES IDX 21 16 10 17 11 18 20 19 22 20 12 21 19 22 13 23 18 24 14 25
REMARK SMILES IDX 15 26 16 27 17 28 27 29 28 30 29 31 30 32 31 34 32 35 33 36
REMARK SMILES IDX 94 37 34 38 93 39 35 40 36 41 37 42 87 43 38 44 92 45 86 46
REMARK SMILES IDX 88 47 39 48 91 49 85 50 84 51 40 53 72 54 52 55 71 56 53 57
REMARK SMILES IDX 56 58 70 59 89 60 54 61 55 62 69 64 90 65 57 66 41 67 42 68
REMARK SMILES IDX 50 69 43 70 49 71 51 72 48 73 44 74 45 75 46 76 47 77 73 78
REMARK SMILES IDX 74 79 82 80 75 81 81 82 83 83 80 84 76 85 77 86 78 87 79 88
REMARK SMILES IDX 58 89 59 90 67 91 60 92 66 93 68 94 65 95 61 96 62 97 63 98
REMARK SMILES IDX 64 99
REMARK H PARENT 25 5 4 11 29 33 88 52 56 63
REMARK Flexibility Score: inf
ROOT
ATOM      1  C   UNL     1      -1.978   3.111  -0.734  1.00  0.00     0.117 C 
ENDROOT
BRANCH   1   2
ATOM      2  N   UNL     1      -0.894   4.056  -0.519  1.00  0.00    -0.354 N 
ATOM      3  C   UNL     1       0.456   3.868  -0.483  1.00  0.00     0.242 C 
ATOM      4  O   UNL     1       1.175   4.861  -0.335  1.00  0.00    -0.273 OA
ATOM      5  H   UNL     1      -1.182   4.986  -0.376  1.00  0.00     0.163 HD
BRANCH   3   6
ATOM      6  C   UNL     1       1.086   2.482  -0.713  1.00  0.00     0.171 C 
BRANCH   6   7
ATOM      7  C   UNL     1       0.912   2.041  -2.177  1.00  0.00     0.031 C 
ATOM      8  C   UNL     1       1.380   0.621  -2.454  1.00  0.00     0.006 C 
ENDBRANCH   6   7
BRANCH   6   9
ATOM      9  N   UNL     1       0.572   1.521   0.256  1.00  0.00    -0.344 N 
ATOM     10  C   UNL     1       1.010   1.252   1.520  1.00  0.00     0.225 C 
ATOM     11  H   UNL     1      -0.201   0.992  -0.044  1.00  0.00     0.164 HD
ATOM     12  O   UNL     1       0.354   0.461   2.201  1.00  0.00    -0.275 OA
BRANCH  10  13
ATOM     13  C   UNL     1       2.227   1.973   2.106  1.00  0.00     0.143 C 
BRANCH  13  14
ATOM     14  C   UNL     1       3.591   1.745   1.485  1.00  0.00     0.051 A 
ATOM     15  C   UNL     1       4.645   2.563   1.721  1.00  0.00    -0.029 A 
ATOM     16  C   UNL     1       3.740   0.579   0.572  1.00  0.00     0.340 A 
ATOM     17  C   UNL     1       4.623   3.680   2.737  1.00  0.00     0.046 C 
ATOM     18  C   UNL     1       5.878   2.400   0.924  1.00  0.00     0.023 A 
ATOM     19  O   UNL     1       4.795   0.616  -0.322  1.00  0.00    -0.422 OA
ATOM     20  O   UNL     1       2.950  -0.356   0.548  1.00  0.00    -0.246 OA
ATOM     21  C   UNL     1       7.036   3.169   1.093  1.00  0.00     0.036 A 
ATOM     22  C   UNL     1       5.877   1.481  -0.118  1.00  0.00     0.142 A 
ATOM     23  C   UNL     1       8.126   3.030   0.218  1.00  0.00     0.083 A 
ATOM     24  C   UNL     1       6.946   1.338  -1.009  1.00  0.00     0.095 A 
ATOM     25  Cl  UNL     1       9.514   4.025   0.496  1.00  0.00    -0.080 Cl
ATOM     26  C   UNL     1       8.083   2.127  -0.856  1.00  0.00     0.141 A 
BRANCH  26  27
ATOM     27  O   UNL     1       9.177   2.076  -1.679  1.00  0.00    -0.495 OA
ATOM     28  C   UNL     1       9.062   1.304  -2.868  1.00  0.00     0.278 C 
ENDBRANCH  26  27
ENDBRANCH  13  14
ENDBRANCH  10  13
ENDBRANCH   6   9
ENDBRANCH   3   6
ENDBRANCH   1   2
BRANCH   1  29
ATOM     29  C   UNL     1      -2.774   2.830   0.530  1.00  0.00     0.042 C 
BRANCH  29  30
ATOM     30  C   UNL     1      -3.485   4.051   1.096  1.00  0.00     0.118 C 
BRANCH  30  31
ATOM     31  N   UNL     1      -4.481   4.612   0.188  1.00  0.00    -0.352 N 
ATOM     32  C   UNL     1      -5.840   4.770   0.344  1.00  0.00     0.251 C 
ATOM     33  H   UNL     1      -4.124   4.927  -0.674  1.00  0.00     0.163 HD
ATOM     34  O   UNL     1      -6.518   5.131  -0.614  1.00  0.00    -0.269 OA
BRANCH  32  35
ATOM     35  C   UNL     1      -6.479   4.469   1.644  1.00  0.00     0.039 A 
ATOM     36  C   UNL     1      -5.872   4.854   2.838  1.00  0.00     0.014 A 
ATOM     37  C   UNL     1      -7.686   3.765   1.670  1.00  0.00     0.014 A 
ATOM     38  C   UNL     1      -6.343   4.345   4.041  1.00  0.00     0.010 A 
ATOM     39  C   UNL     1      -8.223   3.351   2.895  1.00  0.00     0.010 A 
ATOM     40  C   UNL     1      -7.520   3.578   4.087  1.00  0.00    -0.014 A 
BRANCH  40  41
ATOM     41  C   UNL     1      -7.971   3.030   5.396  1.00  0.00     0.031 A 
ATOM     42  C   UNL     1      -8.046   1.544   5.633  1.00  0.00     0.074 A 
ATOM     43  C   UNL     1      -8.228   3.886   6.406  1.00  0.00     0.049 A 
ATOM     44  N   UNL     1      -8.318   0.903   6.740  1.00  0.00    -0.248 NA
ATOM     45  C   UNL     1      -7.790   0.661   4.483  1.00  0.00     0.031 C 
ATOM     46  C   UNL     1      -8.193   5.345   6.289  1.00  0.00     0.029 A 
ATOM     47  N   UNL     1      -8.521   3.666   7.729  1.00  0.00    -0.354 N 
ATOM     48  C   UNL     1      -8.289  -0.451   6.419  1.00  0.00     0.074 A 
ATOM     49  C   UNL     1      -8.006  -0.539   5.004  1.00  0.00     0.031 C 
ATOM     50  C   UNL     1      -8.367   5.886   7.502  1.00  0.00     0.029 A 
ATOM     51  C   UNL     1      -8.601   4.821   8.473  1.00  0.00     0.049 A 
ATOM     52  H   UNL     1      -8.661   2.769   8.109  1.00  0.00     0.167 HD
ATOM     53  C   UNL     1      -8.464  -1.519   7.234  1.00  0.00     0.034 A 
ATOM     54  C   UNL     1      -8.829   5.009   9.790  1.00  0.00     0.034 A 
ATOM     55  C   UNL     1      -8.711  -1.417   8.650  1.00  0.00     0.049 A 
ATOM     56  C   UNL     1      -9.010   3.804  10.674  1.00  0.00     0.074 A 
ATOM     57  C   UNL     1      -8.877  -2.443   9.564  1.00  0.00     0.029 A 
ATOM     58  N   UNL     1      -8.812  -0.230   9.362  1.00  0.00    -0.354 N 
ATOM     59  N   UNL     1      -8.937   2.532  10.357  1.00  0.00    -0.248 NA
ATOM     60  C   UNL     1      -9.301   4.052  12.092  1.00  0.00     0.031 C 
ATOM     61  C   UNL     1      -9.133  -1.879  10.814  1.00  0.00     0.029 A 
ATOM     62  C   UNL     1      -9.057  -0.500  10.698  1.00  0.00     0.049 A 
ATOM     63  H   UNL     1      -8.723   0.670   8.974  1.00  0.00     0.167 HD
ATOM     64  C   UNL     1      -9.151   1.830  11.540  1.00  0.00     0.074 A 
ATOM     65  C   UNL     1      -9.326   2.819  12.583  1.00  0.00     0.031 C 
ATOM     66  C   UNL     1      -9.207   0.489  11.739  1.00  0.00     0.034 A 
BRANCH  53  67
ATOM     67  C   UNL     1      -8.387  -2.905   6.641  1.00  0.00     0.023 A 
ATOM     68  C   UNL     1      -9.517  -3.746   6.670  1.00  0.00     0.031 A 
ATOM     69  C   UNL     1      -7.173  -3.441   6.177  1.00  0.00     0.131 A 
ATOM     70  C   UNL     1      -9.400  -5.085   6.277  1.00  0.00     0.055 A 
ATOM     71  C   UNL     1      -7.071  -4.765   5.748  1.00  0.00     0.041 A 
ATOM     72  F   UNL     1      -6.067  -2.680   6.129  1.00  0.00    -0.206 F 
ATOM     73  C   UNL     1      -8.185  -5.598   5.810  1.00  0.00     0.022 A 
BRANCH  70  74
ATOM     74  S   UNL     1     -10.799  -6.231   6.419  1.00  0.00     0.124 S 
ATOM     75  O   UNL     1     -10.961  -6.678   5.037  1.00  0.00    -0.237 OA
ATOM     76  O   UNL     1     -10.279  -7.236   7.342  1.00  0.00    -0.237 OA
ATOM     77  O   UNL     1     -11.882  -5.401   6.933  1.00  0.00    -0.744 OA
ENDBRANCH  70  74
ENDBRANCH  53  67
BRANCH  54  78
ATOM     78  C   UNL     1      -8.826   6.398  10.338  1.00  0.00     0.023 A 
ATOM     79  C   UNL     1      -9.740   7.362   9.875  1.00  0.00     0.031 A 
ATOM     80  C   UNL     1      -7.837   6.810  11.246  1.00  0.00     0.131 A 
ATOM     81  C   UNL     1      -9.597   8.701  10.260  1.00  0.00     0.055 A 
ATOM     82  C   UNL     1      -7.746   8.131  11.688  1.00  0.00     0.041 A 
ATOM     83  F   UNL     1      -6.932   5.932  11.707  1.00  0.00    -0.206 F 
ATOM     84  C   UNL     1      -8.617   9.089  11.178  1.00  0.00     0.022 A 
BRANCH  81  85
ATOM     85  S   UNL     1     -10.577  10.004   9.463  1.00  0.00     0.124 S 
ATOM     86  O   UNL     1     -11.334  10.545  10.588  1.00  0.00    -0.237 OA
ATOM     87  O   UNL     1      -9.535  10.876   8.925  1.00  0.00    -0.237 OA
ATOM     88  O   UNL     1     -11.358   9.285   8.463  1.00  0.00    -0.744 OA
ENDBRANCH  81  85
ENDBRANCH  54  78
BRANCH  66  89
ATOM     89  C   UNL     1      -9.455  -0.023  13.137  1.00  0.00     0.023 A 
ATOM     90  C   UNL     1      -8.482  -0.815  13.778  1.00  0.00     0.031 A 
ATOM     91  C   UNL     1     -10.699   0.144  13.769  1.00  0.00     0.131 A 
ATOM     92  C   UNL     1      -8.782  -1.437  14.996  1.00  0.00     0.055 A 
ATOM     93  C   UNL     1     -10.977  -0.441  15.005  1.00  0.00     0.041 A 
ATOM     94  F   UNL     1     -11.664   0.878  13.192  1.00  0.00    -0.206 F 
ATOM     95  C   UNL     1     -10.021  -1.248  15.617  1.00  0.00     0.022 A 
BRANCH  92  96
ATOM     96  S   UNL     1      -7.614  -2.588  15.772  1.00  0.00     0.124 S 
ATOM     97  O   UNL     1      -7.295  -1.897  17.019  1.00  0.00    -0.237 OA
ATOM     98  O   UNL     1      -8.421  -3.796  15.918  1.00  0.00    -0.237 OA
ATOM     99  O   UNL     1      -6.518  -2.679  14.813  1.00  0.00    -0.744 OA
ENDBRANCH  92  96
ENDBRANCH  66  89
ENDBRANCH  40  41
ENDBRANCH  32  35
ENDBRANCH  30  31
ENDBRANCH  29  30
ENDBRANCH   1  29
TORSDOF 18
