REMARK SMILES CC[NH2+][C@@]1(C(=O)NCCCNC(=O)c2ccc(-c3c4nc(c(-c5cc(S(=O)(=O)[O-])ccc5F)c5ccc([nH]5)c(-c5cc(S(=O)(=O)[O-])ccc5F)c5nc(c(-c6cc(S(=O)(=O)[O-])ccc6F)c6ccc3[nH]6)C=C5)C=C4)cc2)CC[C@@H](Oc2cccc(OC)c2)C1
REMARK SMILES IDX 9 1 8 2 7 3 5 4 6 5 4 7 77 8 89 9 78 10 79 11 3 12 2 15 1 16
REMARK SMILES IDX 80 17 81 18 82 19 88 20 83 21 85 22 84 23 86 24 87 25 10 26
REMARK SMILES IDX 11 27 12 28 13 30 14 31 15 32 76 33 16 34 75 35 17 36 18 37
REMARK SMILES IDX 19 38 69 39 20 40 74 41 68 42 70 43 21 44 73 45 67 46 66 47
REMARK SMILES IDX 22 49 54 50 34 51 53 52 35 53 38 54 52 55 71 56 36 57 37 58
REMARK SMILES IDX 51 60 72 61 39 62 23 63 24 64 32 65 25 66 31 67 33 68 30 69
REMARK SMILES IDX 26 70 27 71 28 72 29 73 55 74 56 75 64 76 57 77 63 78 65 79
REMARK SMILES IDX 62 80 58 81 59 82 60 83 61 84 40 85 41 86 49 87 42 88 48 89
REMARK SMILES IDX 50 90 47 91 43 92 44 93 45 94 46 95
REMARK H PARENT 7 6 3 13 3 14 11 29 70 48 38 59
REMARK Flexibility Score: inf
ROOT
ATOM      1  C   UNL     1      -2.640   6.020  -2.455  1.00  0.00     0.042 C 
ENDROOT
BRANCH   1   2
ATOM      2  C   UNL     1      -2.026   5.537  -1.147  1.00  0.00     0.118 C 
BRANCH   2   3
ATOM      3  N   UNL     1      -2.088   4.097  -1.066  1.00  0.00    -0.351 N 
ATOM      4  C   UNL     1      -1.215   3.129  -1.434  1.00  0.00     0.281 C 
ATOM      5  O   UNL     1      -1.743   2.026  -1.633  1.00  0.00    -0.268 OA
ATOM      6  H   UNL     1      -2.921   3.755  -0.668  1.00  0.00     0.163 HD
BRANCH   4   7
ATOM      7  C   UNL     1       0.338   3.350  -1.606  1.00  0.00     0.179 C 
ATOM      8  C   UNL     1       1.009   4.408  -0.708  1.00  0.00     0.083 C 
ATOM      9  C   UNL     1       0.640   3.794  -3.053  1.00  0.00     0.124 C 
ATOM     10  C   UNL     1       1.447   5.578  -1.593  1.00  0.00     0.052 C 
ATOM     11  C   UNL     1       0.891   5.302  -2.993  1.00  0.00     0.180 C 
BRANCH   7  12
ATOM     12  N   UNL     1       1.006   2.028  -1.377  1.00  0.00    -0.334 N 
ATOM     13  H   UNL     1       0.635   1.361  -2.054  1.00  0.00     0.347 HD
ATOM     14  H   UNL     1       2.008   2.182  -1.485  1.00  0.00     0.347 HD
BRANCH  12  15
ATOM     15  C   UNL     1       0.804   1.480  -0.032  1.00  0.00     0.257 C 
ATOM     16  C   UNL     1       1.286   0.039   0.012  1.00  0.00     0.071 C 
ENDBRANCH  12  15
ENDBRANCH   7  12
BRANCH  11  17
ATOM     17  O   UNL     1       1.594   5.861  -4.115  1.00  0.00    -0.490 OA
BRANCH  17  18
ATOM     18  C   UNL     1       2.954   5.806  -4.031  1.00  0.00     0.123 A 
ATOM     19  C   UNL     1       3.664   6.952  -3.683  1.00  0.00     0.047 A 
ATOM     20  C   UNL     1       3.619   4.615  -4.301  1.00  0.00     0.092 A 
ATOM     21  C   UNL     1       5.044   6.872  -3.503  1.00  0.00     0.008 A 
ATOM     22  C   UNL     1       4.987   4.512  -4.066  1.00  0.00     0.122 A 
ATOM     23  C   UNL     1       5.698   5.648  -3.674  1.00  0.00     0.046 A 
BRANCH  22  24
ATOM     24  O   UNL     1       5.714   3.358  -4.183  1.00  0.00    -0.497 OA
ATOM     25  C   UNL     1       4.951   2.156  -4.279  1.00  0.00     0.278 C 
ENDBRANCH  22  24
ENDBRANCH  17  18
ENDBRANCH  11  17
ENDBRANCH   4   7
ENDBRANCH   2   3
ENDBRANCH   1   2
BRANCH   1  26
ATOM     26  C   UNL     1      -4.159   6.001  -2.418  1.00  0.00     0.118 C 
BRANCH  26  27
ATOM     27  N   UNL     1      -4.672   6.947  -1.435  1.00  0.00    -0.352 N 
ATOM     28  C   UNL     1      -5.384   8.100  -1.631  1.00  0.00     0.251 C 
ATOM     29  H   UNL     1      -4.479   6.725  -0.495  1.00  0.00     0.163 HD
ATOM     30  O   UNL     1      -5.444   8.934  -0.726  1.00  0.00    -0.269 OA
BRANCH  28  31
ATOM     31  C   UNL     1      -6.066   8.331  -2.918  1.00  0.00     0.039 A 
ATOM     32  C   UNL     1      -6.104   9.619  -3.454  1.00  0.00     0.014 A 
ATOM     33  C   UNL     1      -6.683   7.270  -3.587  1.00  0.00     0.014 A 
ATOM     34  C   UNL     1      -6.717   9.830  -4.689  1.00  0.00     0.010 A 
ATOM     35  C   UNL     1      -7.194   7.461  -4.862  1.00  0.00     0.010 A 
ATOM     36  C   UNL     1      -7.236   8.746  -5.418  1.00  0.00    -0.014 A 
BRANCH  36  37
ATOM     37  C   UNL     1      -7.859   8.934  -6.751  1.00  0.00     0.031 A 
ATOM     38  C   UNL     1      -9.303   8.563  -6.957  1.00  0.00     0.074 A 
ATOM     39  C   UNL     1      -7.106   9.367  -7.780  1.00  0.00     0.049 A 
ATOM     40  N   UNL     1     -10.008   8.560  -8.058  1.00  0.00    -0.248 NA
ATOM     41  C   UNL     1     -10.040   8.095  -5.772  1.00  0.00     0.031 C 
ATOM     42  C   UNL     1      -5.684   9.709  -7.702  1.00  0.00     0.029 A 
ATOM     43  N   UNL     1      -7.427   9.587  -9.095  1.00  0.00    -0.354 N 
ATOM     44  C   UNL     1     -11.261   8.072  -7.702  1.00  0.00     0.074 A 
ATOM     45  C   UNL     1     -11.194   7.722  -6.301  1.00  0.00     0.031 C 
ATOM     46  C   UNL     1      -5.265  10.126  -8.908  1.00  0.00     0.029 A 
ATOM     47  C   UNL     1      -6.369  10.028  -9.856  1.00  0.00     0.049 A 
ATOM     48  H   UNL     1      -8.330   9.442  -9.461  1.00  0.00     0.167 HD
ATOM     49  C   UNL     1     -12.373   7.955  -8.469  1.00  0.00     0.034 A 
ATOM     50  C   UNL     1      -6.296  10.308 -11.172  1.00  0.00     0.034 A 
ATOM     51  C   UNL     1     -12.417   8.328  -9.861  1.00  0.00     0.049 A 
ATOM     52  C   UNL     1      -7.539  10.151 -12.010  1.00  0.00     0.074 A 
ATOM     53  C   UNL     1     -13.498   8.313 -10.724  1.00  0.00     0.029 A 
ATOM     54  N   UNL     1     -11.327   8.777 -10.599  1.00  0.00    -0.354 N 
ATOM     55  N   UNL     1      -8.735   9.743 -11.648  1.00  0.00    -0.248 NA
ATOM     56  C   UNL     1      -7.427  10.502 -13.431  1.00  0.00     0.031 C 
ATOM     57  C   UNL     1     -13.047   8.676 -11.997  1.00  0.00     0.029 A 
ATOM     58  C   UNL     1     -11.703   9.006 -11.913  1.00  0.00     0.049 A 
ATOM     59  H   UNL     1     -10.420   8.912 -10.240  1.00  0.00     0.167 HD
ATOM     60  C   UNL     1      -9.524   9.820 -12.792  1.00  0.00     0.074 A 
ATOM     61  C   UNL     1      -8.672  10.328 -13.848  1.00  0.00     0.031 C 
ATOM     62  C   UNL     1     -10.835   9.504 -12.955  1.00  0.00     0.034 A 
BRANCH  49  63
ATOM     63  C   UNL     1     -13.611   7.379  -7.821  1.00  0.00     0.023 A 
ATOM     64  C   UNL     1     -14.230   8.001  -6.722  1.00  0.00     0.031 A 
ATOM     65  C   UNL     1     -14.162   6.172  -8.286  1.00  0.00     0.131 A 
ATOM     66  C   UNL     1     -15.305   7.374  -6.074  1.00  0.00     0.055 A 
ATOM     67  C   UNL     1     -15.290   5.599  -7.693  1.00  0.00     0.041 A 
ATOM     68  F   UNL     1     -13.604   5.516  -9.316  1.00  0.00    -0.206 F 
ATOM     69  C   UNL     1     -15.858   6.192  -6.569  1.00  0.00     0.022 A 
BRANCH  66  70
ATOM     70  S   UNL     1     -15.866   8.044  -4.484  1.00  0.00     0.124 S 
ATOM     71  O   UNL     1     -14.644   7.972  -3.686  1.00  0.00    -0.237 OA
ATOM     72  O   UNL     1     -16.314   9.384  -4.846  1.00  0.00    -0.237 OA
ATOM     73  O   UNL     1     -16.922   7.121  -4.076  1.00  0.00    -0.744 OA
ENDBRANCH  66  70
ENDBRANCH  49  63
BRANCH  50  74
ATOM     74  C   UNL     1      -5.009  10.754 -11.779  1.00  0.00     0.023 A 
ATOM     75  C   UNL     1      -4.881  12.030 -12.348  1.00  0.00     0.031 A 
ATOM     76  C   UNL     1      -3.895   9.896 -11.829  1.00  0.00     0.131 A 
ATOM     77  C   UNL     1      -3.684  12.397 -12.983  1.00  0.00     0.055 A 
ATOM     78  C   UNL     1      -2.688  10.287 -12.410  1.00  0.00     0.041 A 
ATOM     79  F   UNL     1      -3.960   8.666 -11.295  1.00  0.00    -0.206 F 
ATOM     80  C   UNL     1      -2.582  11.540 -13.005  1.00  0.00     0.022 A 
BRANCH  77  81
ATOM     81  S   UNL     1      -3.619  13.982 -13.863  1.00  0.00     0.124 S 
ATOM     82  O   UNL     1      -4.713  13.837 -14.817  1.00  0.00    -0.237 OA
ATOM     83  O   UNL     1      -3.833  14.938 -12.781  1.00  0.00    -0.237 OA
ATOM     84  O   UNL     1      -2.279  13.993 -14.445  1.00  0.00    -0.744 OA
ENDBRANCH  77  81
ENDBRANCH  50  74
BRANCH  62  85
ATOM     85  C   UNL     1     -11.433   9.745 -14.319  1.00  0.00     0.023 A 
ATOM     86  C   UNL     1     -11.024   9.016 -15.449  1.00  0.00     0.031 A 
ATOM     87  C   UNL     1     -12.428  10.725 -14.489  1.00  0.00     0.131 A 
ATOM     88  C   UNL     1     -11.565   9.317 -16.707  1.00  0.00     0.055 A 
ATOM     89  C   UNL     1     -13.012  10.973 -15.731  1.00  0.00     0.041 A 
ATOM     90  F   UNL     1     -12.854  11.454 -13.445  1.00  0.00    -0.206 F 
ATOM     91  C   UNL     1     -12.572  10.276 -16.852  1.00  0.00     0.022 A 
BRANCH  88  92
ATOM     92  S   UNL     1     -10.866   8.507 -18.172  1.00  0.00     0.124 S 
ATOM     93  O   UNL     1      -9.464   8.906 -18.098  1.00  0.00    -0.237 OA
ATOM     94  O   UNL     1     -11.143   7.098 -17.912  1.00  0.00    -0.237 OA
ATOM     95  O   UNL     1     -11.620   9.092 -19.279  1.00  0.00    -0.744 OA
ENDBRANCH  88  92
ENDBRANCH  62  85
ENDBRANCH  36  37
ENDBRANCH  28  31
ENDBRANCH  26  27
ENDBRANCH   1  26
TORSDOF 18
