REMARK SMILES O=C(CSc1nnc(-c2ccncc2)s1)Nc1cccc(C(=O)NCCCNC(=O)c2ccc(-c3c4nc(c(-c5cc(S(=O)(=O)[O-])ccc5F)c5ccc([nH]5)c(-c5cc(S(=O)(=O)[O-])ccc5F)c5nc(c(-c6cc(S(=O)(=O)[O-])ccc6F)c6ccc3[nH]6)C=C5)C=C4)cc2)c1
REMARK SMILES IDX 25 1 24 2 22 3 23 4 21 6 17 7 18 8 94 9 19 10 20 11 16 12
REMARK SMILES IDX 1 13 2 14 3 16 4 17 5 18 6 19 15 20 7 21 8 22 9 23 10 24
REMARK SMILES IDX 14 25 11 26 13 27 12 28 26 29 27 30 28 31 29 32 30 34 31 35
REMARK SMILES IDX 32 36 93 37 33 38 92 39 34 40 35 41 36 42 86 43 37 44 91 45
REMARK SMILES IDX 85 46 87 47 38 48 90 49 84 50 83 51 39 53 71 54 51 55 70 56
REMARK SMILES IDX 52 57 55 58 69 59 88 60 53 61 54 62 68 64 89 65 56 66 40 67
REMARK SMILES IDX 41 68 49 69 42 70 48 71 50 72 47 73 43 74 44 75 45 76 46 77
REMARK SMILES IDX 72 78 73 79 81 80 74 81 80 82 82 83 79 84 75 85 76 86 77 87
REMARK SMILES IDX 78 88 57 89 58 90 66 91 59 92 65 93 67 94 64 95 60 96 61 97
REMARK SMILES IDX 62 98 63 99
REMARK H PARENT 24 5 16 15 28 33 87 52 55 63
REMARK Flexibility Score: inf
ROOT
ATOM      1  C   UNL     1      -0.259   2.229  -2.212  1.00  0.00     0.118 C 
ENDROOT
BRANCH   1   2
ATOM      2  N   UNL     1      -0.818   1.716  -3.463  1.00  0.00    -0.352 N 
ATOM      3  C   UNL     1      -0.515   0.615  -4.237  1.00  0.00     0.251 C 
ATOM      4  O   UNL     1      -1.153   0.432  -5.274  1.00  0.00    -0.269 OA
ATOM      5  H   UNL     1      -1.553   2.263  -3.822  1.00  0.00     0.163 HD
BRANCH   3   6
ATOM      6  C   UNL     1       0.595  -0.317  -3.904  1.00  0.00     0.041 A 
ATOM      7  C   UNL     1       2.204  -1.153  -2.299  1.00  0.00     0.041 A 
ATOM      8  C   UNL     1       2.933  -1.734  -3.341  1.00  0.00     0.026 A 
ATOM      9  C   UNL     1       0.969  -0.579  -2.589  1.00  0.00     0.040 A 
ATOM     10  C   UNL     1       2.459  -1.663  -4.655  1.00  0.00     0.003 A 
ATOM     11  C   UNL     1       1.313  -0.918  -4.942  1.00  0.00     0.014 A 
BRANCH   7  12
ATOM     12  N   UNL     1       2.805  -1.056  -1.023  1.00  0.00    -0.325 N 
ATOM     13  O   UNL     1       1.105  -0.047   0.211  1.00  0.00    -0.274 OA
ATOM     14  C   UNL     1       2.268  -0.430   0.093  1.00  0.00     0.234 C 
ATOM     15  H   UNL     1       3.690  -1.474  -0.915  1.00  0.00     0.169 HD
BRANCH  14  16
ATOM     16  C   UNL     1       3.255  -0.141   1.209  1.00  0.00     0.177 C 
BRANCH  16  17
ATOM     17  S   UNL     1       4.295  -1.543   1.653  1.00  0.00    -0.084 SA
BRANCH  17  18
ATOM     18  C   UNL     1       3.168  -2.854   1.922  1.00  0.00     0.175 A 
ATOM     19  N   UNL     1       3.589  -4.092   1.777  1.00  0.00    -0.131 NA
ATOM     20  S   UNL     1       1.521  -2.730   2.382  1.00  0.00    -0.086 S 
ATOM     21  N   UNL     1       2.587  -5.015   1.988  1.00  0.00    -0.137 NA
ATOM     22  C   UNL     1       1.434  -4.440   2.259  1.00  0.00     0.148 A 
BRANCH  22  23
ATOM     23  C   UNL     1       0.188  -5.158   2.491  1.00  0.00     0.015 A 
ATOM     24  C   UNL     1      -0.920  -4.983   1.658  1.00  0.00     0.031 A 
ATOM     25  C   UNL     1       0.117  -6.093   3.525  1.00  0.00     0.031 A 
ATOM     26  C   UNL     1      -2.047  -5.751   1.898  1.00  0.00     0.111 A 
ATOM     27  C   UNL     1      -1.058  -6.804   3.689  1.00  0.00     0.111 A 
ATOM     28  N   UNL     1      -2.141  -6.654   2.898  1.00  0.00    -0.265 NA
ENDBRANCH  22  23
ENDBRANCH  17  18
ENDBRANCH  16  17
ENDBRANCH  14  16
ENDBRANCH   7  12
ENDBRANCH   3   6
ENDBRANCH   1   2
BRANCH   1  29
ATOM     29  C   UNL     1       0.258   3.655  -2.292  1.00  0.00     0.042 C 
BRANCH  29  30
ATOM     30  C   UNL     1      -0.814   4.714  -2.470  1.00  0.00     0.118 C 
BRANCH  30  31
ATOM     31  N   UNL     1      -1.736   4.783  -1.343  1.00  0.00    -0.352 N 
ATOM     32  C   UNL     1      -1.895   5.733  -0.360  1.00  0.00     0.251 C 
ATOM     33  H   UNL     1      -2.352   4.019  -1.273  1.00  0.00     0.163 HD
ATOM     34  O   UNL     1      -2.606   5.476   0.607  1.00  0.00    -0.269 OA
BRANCH  32  35
ATOM     35  C   UNL     1      -1.200   7.040  -0.441  1.00  0.00     0.039 A 
ATOM     36  C   UNL     1      -0.714   7.627   0.732  1.00  0.00     0.014 A 
ATOM     37  C   UNL     1      -1.047   7.707  -1.657  1.00  0.00     0.014 A 
ATOM     38  C   UNL     1      -0.009   8.833   0.669  1.00  0.00     0.010 A 
ATOM     39  C   UNL     1      -0.251   8.845  -1.734  1.00  0.00     0.010 A 
ATOM     40  C   UNL     1       0.271   9.429  -0.571  1.00  0.00    -0.014 A 
BRANCH  40  41
ATOM     41  C   UNL     1       1.080  10.672  -0.679  1.00  0.00     0.031 A 
ATOM     42  C   UNL     1       0.478  11.909  -1.293  1.00  0.00     0.074 A 
ATOM     43  C   UNL     1       2.372  10.669  -0.290  1.00  0.00     0.049 A 
ATOM     44  N   UNL     1       1.044  13.055  -1.576  1.00  0.00    -0.248 NA
ATOM     45  C   UNL     1      -0.942  11.834  -1.672  1.00  0.00     0.031 C 
ATOM     46  C   UNL     1       3.078   9.523   0.287  1.00  0.00     0.029 A 
ATOM     47  N   UNL     1       3.324  11.657  -0.327  1.00  0.00    -0.354 N 
ATOM     48  C   UNL     1       0.055  13.828  -2.176  1.00  0.00     0.074 A 
ATOM     49  C   UNL     1      -1.122  12.994  -2.284  1.00  0.00     0.031 C 
ATOM     50  C   UNL     1       4.338   9.883   0.580  1.00  0.00     0.029 A 
ATOM     51  C   UNL     1       4.550  11.264   0.160  1.00  0.00     0.049 A 
ATOM     52  H   UNL     1       3.147  12.562  -0.671  1.00  0.00     0.167 HD
ATOM     53  C   UNL     1       0.113  15.124  -2.574  1.00  0.00     0.034 A 
ATOM     54  C   UNL     1       5.717  11.935   0.244  1.00  0.00     0.034 A 
ATOM     55  C   UNL     1       1.291  15.946  -2.446  1.00  0.00     0.049 A 
ATOM     56  C   UNL     1       5.768  13.362  -0.244  1.00  0.00     0.074 A 
ATOM     57  C   UNL     1       1.450  17.280  -2.776  1.00  0.00     0.029 A 
ATOM     58  N   UNL     1       2.515  15.510  -1.954  1.00  0.00    -0.354 N 
ATOM     59  N   UNL     1       4.811  14.091  -0.772  1.00  0.00    -0.248 NA
ATOM     60  C   UNL     1       7.054  14.059  -0.117  1.00  0.00     0.031 C 
ATOM     61  C   UNL     1       2.786  17.631  -2.553  1.00  0.00     0.029 A 
ATOM     62  C   UNL     1       3.441  16.541  -2.001  1.00  0.00     0.049 A 
ATOM     63  H   UNL     1       2.699  14.602  -1.620  1.00  0.00     0.167 HD
ATOM     64  C   UNL     1       5.373  15.345  -1.002  1.00  0.00     0.074 A 
ATOM     65  C   UNL     1       6.745  15.275  -0.542  1.00  0.00     0.031 C 
ATOM     66  C   UNL     1       4.807  16.455  -1.541  1.00  0.00     0.034 A 
BRANCH  53  67
ATOM     67  C   UNL     1      -1.129  15.718  -3.198  1.00  0.00     0.023 A 
ATOM     68  C   UNL     1      -2.335  15.824  -2.483  1.00  0.00     0.031 A 
ATOM     69  C   UNL     1      -1.116  16.163  -4.531  1.00  0.00     0.131 A 
ATOM     70  C   UNL     1      -3.493  16.287  -3.125  1.00  0.00     0.055 A 
ATOM     71  C   UNL     1      -2.251  16.706  -5.138  1.00  0.00     0.041 A 
ATOM     72  F   UNL     1      -0.002  16.067  -5.274  1.00  0.00    -0.206 F 
ATOM     73  C   UNL     1      -3.453  16.755  -4.439  1.00  0.00     0.022 A 
BRANCH  70  74
ATOM     74  S   UNL     1      -5.082  16.124  -2.264  1.00  0.00     0.124 S 
ATOM     75  O   UNL     1      -5.147  14.682  -2.038  1.00  0.00    -0.237 OA
ATOM     76  O   UNL     1      -4.884  16.949  -1.078  1.00  0.00    -0.237 OA
ATOM     77  O   UNL     1      -6.049  16.640  -3.231  1.00  0.00    -0.744 OA
ENDBRANCH  70  74
ENDBRANCH  53  67
BRANCH  54  78
ATOM     78  C   UNL     1       6.936  11.278   0.802  1.00  0.00     0.023 A 
ATOM     79  C   UNL     1       7.556  11.774   1.960  1.00  0.00     0.031 A 
ATOM     80  C   UNL     1       7.535  10.183   0.154  1.00  0.00     0.131 A 
ATOM     81  C   UNL     1       8.767  11.217   2.400  1.00  0.00     0.055 A 
ATOM     82  C   UNL     1       8.705   9.591   0.633  1.00  0.00     0.041 A 
ATOM     83  F   UNL     1       6.985   9.665  -0.956  1.00  0.00    -0.206 F 
ATOM     84  C   UNL     1       9.338  10.119   1.754  1.00  0.00     0.022 A 
BRANCH  81  85
ATOM     85  S   UNL     1       9.644  12.021   3.769  1.00  0.00     0.124 S 
ATOM     86  O   UNL     1       9.814  13.376   3.256  1.00  0.00    -0.237 OA
ATOM     87  O   UNL     1       8.697  11.864   4.868  1.00  0.00    -0.237 OA
ATOM     88  O   UNL     1      10.873  11.240   3.891  1.00  0.00    -0.744 OA
ENDBRANCH  81  85
ENDBRANCH  54  78
BRANCH  66  89
ATOM     89  C   UNL     1       5.661  17.699  -1.608  1.00  0.00     0.023 A 
ATOM     90  C   UNL     1       6.805  17.772  -2.421  1.00  0.00     0.031 A 
ATOM     91  C   UNL     1       5.324  18.826  -0.837  1.00  0.00     0.131 A 
ATOM     92  C   UNL     1       7.606  18.924  -2.397  1.00  0.00     0.055 A 
ATOM     93  C   UNL     1       6.086  19.995  -0.871  1.00  0.00     0.041 A 
ATOM     94  F   UNL     1       4.244  18.812  -0.039  1.00  0.00    -0.206 F 
ATOM     95  C   UNL     1       7.242  20.043  -1.643  1.00  0.00     0.022 A 
BRANCH  92  96
ATOM     96  S   UNL     1       9.186  18.903  -3.287  1.00  0.00     0.124 S 
ATOM     97  O   UNL     1       9.868  17.773  -2.666  1.00  0.00    -0.237 OA
ATOM     98  O   UNL     1       8.763  18.710  -4.670  1.00  0.00    -0.237 OA
ATOM     99  O   UNL     1       9.763  20.214  -2.993  1.00  0.00    -0.744 OA
ENDBRANCH  92  96
ENDBRANCH  66  89
ENDBRANCH  40  41
ENDBRANCH  32  35
ENDBRANCH  30  31
ENDBRANCH  29  30
ENDBRANCH   1  29
TORSDOF 18
