REMARK SMILES O=C(NCCCNC(=O)c1cc(NC(=S)NC(=O)c2ccccc2F)ccc1Cl)c1ccc(-c2c3nc(c(-c4cc(S(=O)(=O)[O-])ccc4F)c4ccc([nH]4)c(-c4cc(S(=O)(=O)[O-])ccc4F)c4nc(c(-c5cc(S(=O)(=O)[O-])ccc5F)c5ccc2[nH]5)C=C4)C=C3)cc1
REMARK SMILES IDX 5 1 4 2 3 3 1 4 2 5 30 7 31 8 92 9 32 10 91 11 33 12 34 13
REMARK SMILES IDX 35 14 85 15 36 16 90 17 84 18 86 19 37 20 89 21 83 22 82 23
REMARK SMILES IDX 38 25 70 26 50 27 69 28 51 29 54 30 68 31 87 32 52 33 53 34
REMARK SMILES IDX 67 36 88 37 55 38 39 39 40 40 48 41 41 42 47 43 49 44 46 45
REMARK SMILES IDX 42 46 43 47 44 48 45 49 71 50 72 51 80 52 73 53 79 54 81 55
REMARK SMILES IDX 78 56 74 57 75 58 76 59 77 60 56 61 57 62 65 63 58 64 64 65
REMARK SMILES IDX 66 66 63 67 59 68 60 69 61 70 62 71 6 72 7 73 8 74 9 76
REMARK SMILES IDX 10 77 11 78 28 79 12 80 27 81 29 82 26 83 13 84 14 86 15 87
REMARK SMILES IDX 16 88 17 89 18 91 19 92 20 93 24 94 21 95 23 96 25 97 22 98
REMARK H PARENT 3 6 86 24 54 35 7 75 13 85 16 90
REMARK Flexibility Score: inf
ROOT
ATOM      1  C   UNL     1       4.710   1.069  -2.166  1.00  0.00     0.042 C 
ENDROOT
BRANCH   1   2
ATOM      2  C   UNL     1       4.440   1.064  -0.667  1.00  0.00     0.118 C 
BRANCH   2   3
ATOM      3  N   UNL     1       3.016   0.957  -0.359  1.00  0.00    -0.352 N 
ATOM      4  O   UNL     1       1.066  -0.107   0.045  1.00  0.00    -0.269 OA
ATOM      5  C   UNL     1       2.292  -0.131   0.066  1.00  0.00     0.251 C 
ATOM      6  H   UNL     1       2.498   1.786  -0.474  1.00  0.00     0.163 HD
BRANCH   5   7
ATOM      7  C   UNL     1       3.014  -1.329   0.531  1.00  0.00     0.039 A 
ATOM      8  C   UNL     1       4.127  -1.176   1.356  1.00  0.00     0.014 A 
ATOM      9  C   UNL     1       2.602  -2.601   0.126  1.00  0.00     0.014 A 
ATOM     10  C   UNL     1       4.945  -2.262   1.605  1.00  0.00     0.010 A 
ATOM     11  C   UNL     1       3.351  -3.718   0.506  1.00  0.00     0.010 A 
ATOM     12  C   UNL     1       4.544  -3.553   1.226  1.00  0.00    -0.014 A 
BRANCH  12  13
ATOM     13  C   UNL     1       5.351  -4.701   1.707  1.00  0.00     0.031 A 
ATOM     14  C   UNL     1       6.040  -5.635   0.757  1.00  0.00     0.074 A 
ATOM     15  C   UNL     1       5.505  -4.838   3.039  1.00  0.00     0.049 A 
ATOM     16  N   UNL     1       6.819  -6.650   1.032  1.00  0.00    -0.248 NA
ATOM     17  C   UNL     1       5.825  -5.417  -0.681  1.00  0.00     0.031 C 
ATOM     18  C   UNL     1       4.878  -3.974   4.047  1.00  0.00     0.029 A 
ATOM     19  N   UNL     1       6.264  -5.705   3.779  1.00  0.00    -0.354 N 
ATOM     20  C   UNL     1       7.173  -7.204  -0.192  1.00  0.00     0.074 A 
ATOM     21  C   UNL     1       6.501  -6.427  -1.213  1.00  0.00     0.031 C 
ATOM     22  C   UNL     1       5.353  -4.290   5.256  1.00  0.00     0.029 A 
ATOM     23  C   UNL     1       6.229  -5.447   5.129  1.00  0.00     0.049 A 
ATOM     24  H   UNL     1       6.784  -6.441   3.383  1.00  0.00     0.167 HD
ATOM     25  C   UNL     1       7.985  -8.262  -0.431  1.00  0.00     0.034 A 
ATOM     26  C   UNL     1       6.811  -6.081   6.162  1.00  0.00     0.034 A 
ATOM     27  C   UNL     1       8.646  -9.014   0.610  1.00  0.00     0.049 A 
ATOM     28  C   UNL     1       7.661  -7.280   5.876  1.00  0.00     0.074 A 
ATOM     29  C   UNL     1       9.511 -10.086   0.477  1.00  0.00     0.029 A 
ATOM     30  N   UNL     1       8.511  -8.780   1.974  1.00  0.00    -0.354 N 
ATOM     31  N   UNL     1       7.965  -7.807   4.713  1.00  0.00    -0.248 NA
ATOM     32  C   UNL     1       8.233  -7.981   7.030  1.00  0.00     0.031 C 
ATOM     33  C   UNL     1       9.835 -10.549   1.756  1.00  0.00     0.029 A 
ATOM     34  C   UNL     1       9.245  -9.713   2.691  1.00  0.00     0.049 A 
ATOM     35  H   UNL     1       7.973  -8.059   2.372  1.00  0.00     0.167 HD
ATOM     36  C   UNL     1       8.776  -8.899   4.994  1.00  0.00     0.074 A 
ATOM     37  C   UNL     1       8.916  -8.952   6.437  1.00  0.00     0.031 C 
ATOM     38  C   UNL     1       9.358  -9.767   4.131  1.00  0.00     0.034 A 
BRANCH  25  39
ATOM     39  C   UNL     1       8.167  -8.705  -1.862  1.00  0.00     0.023 A 
ATOM     40  C   UNL     1       8.820  -7.903  -2.813  1.00  0.00     0.031 A 
ATOM     41  C   UNL     1       7.692  -9.963  -2.276  1.00  0.00     0.131 A 
ATOM     42  C   UNL     1       8.940  -8.348  -4.140  1.00  0.00     0.055 A 
ATOM     43  C   UNL     1       7.875 -10.429  -3.579  1.00  0.00     0.041 A 
ATOM     44  F   UNL     1       7.041 -10.763  -1.416  1.00  0.00    -0.206 F 
ATOM     45  C   UNL     1       8.495  -9.616  -4.522  1.00  0.00     0.022 A 
BRANCH  42  46
ATOM     46  S   UNL     1       9.598  -7.206  -5.386  1.00  0.00     0.124 S 
ATOM     47  O   UNL     1       8.626  -6.116  -5.332  1.00  0.00    -0.237 OA
ATOM     48  O   UNL     1      10.927  -6.902  -4.867  1.00  0.00    -0.237 OA
ATOM     49  O   UNL     1       9.574  -7.990  -6.619  1.00  0.00    -0.744 OA
ENDBRANCH  42  46
ENDBRANCH  25  39
BRANCH  26  50
ATOM     50  C   UNL     1       6.559  -5.592   7.544  1.00  0.00     0.023 A 
ATOM     51  C   UNL     1       7.564  -4.954   8.283  1.00  0.00     0.031 A 
ATOM     52  C   UNL     1       5.270  -5.675   8.105  1.00  0.00     0.131 A 
ATOM     53  C   UNL     1       7.263  -4.417   9.544  1.00  0.00     0.055 A 
ATOM     54  C   UNL     1       4.966  -5.104   9.340  1.00  0.00     0.041 A 
ATOM     55  F   UNL     1       4.271  -6.259   7.424  1.00  0.00    -0.206 F 
ATOM     56  C   UNL     1       5.967  -4.471  10.068  1.00  0.00     0.022 A 
BRANCH  53  57
ATOM     57  S   UNL     1       8.590  -3.634  10.499  1.00  0.00     0.124 S 
ATOM     58  O   UNL     1       9.472  -4.765  10.763  1.00  0.00    -0.237 OA
ATOM     59  O   UNL     1       9.091  -2.632   9.564  1.00  0.00    -0.237 OA
ATOM     60  O   UNL     1       7.897  -3.096  11.668  1.00  0.00    -0.744 OA
ENDBRANCH  53  57
ENDBRANCH  26  50
BRANCH  38  61
ATOM     61  C   UNL     1      10.234 -10.842   4.717  1.00  0.00     0.023 A 
ATOM     62  C   UNL     1       9.694 -11.938   5.408  1.00  0.00     0.031 A 
ATOM     63  C   UNL     1      11.625 -10.795   4.518  1.00  0.00     0.131 A 
ATOM     64  C   UNL     1      10.546 -12.941   5.892  1.00  0.00     0.055 A 
ATOM     65  C   UNL     1      12.462 -11.818   4.960  1.00  0.00     0.041 A 
ATOM     66  F   UNL     1      12.186  -9.767   3.862  1.00  0.00    -0.206 F 
ATOM     67  C   UNL     1      11.924 -12.898   5.654  1.00  0.00     0.022 A 
BRANCH  64  68
ATOM     68  S   UNL     1       9.837 -14.301   6.858  1.00  0.00     0.124 S 
ATOM     69  O   UNL     1       9.359 -13.607   8.050  1.00  0.00    -0.237 OA
ATOM     70  O   UNL     1       8.806 -14.820   5.966  1.00  0.00    -0.237 OA
ATOM     71  O   UNL     1      10.973 -15.196   7.075  1.00  0.00    -0.744 OA
ENDBRANCH  64  68
ENDBRANCH  38  61
ENDBRANCH  12  13
ENDBRANCH   5   7
ENDBRANCH   2   3
ENDBRANCH   1   2
BRANCH   1  72
ATOM     72  C   UNL     1       4.014   2.214  -2.888  1.00  0.00     0.118 C 
BRANCH  72  73
ATOM     73  N   UNL     1       4.303   3.482  -2.245  1.00  0.00    -0.352 N 
ATOM     74  C   UNL     1       5.095   4.533  -2.604  1.00  0.00     0.252 C 
ATOM     75  H   UNL     1       3.839   3.608  -1.386  1.00  0.00     0.163 HD
ATOM     76  O   UNL     1       5.190   5.468  -1.813  1.00  0.00    -0.269 OA
BRANCH  74  77
ATOM     77  C   UNL     1       5.720   4.612  -3.993  1.00  0.00     0.060 A 
ATOM     78  C   UNL     1       7.579   4.683  -4.779  1.00  0.00     0.041 A 
ATOM     79  C   UNL     1       4.376   4.913  -5.177  1.00  0.00     0.053 A 
ATOM     80  C   UNL     1       7.888   5.136  -6.392  1.00  0.00     0.041 A 
ATOM     81  C   UNL     1       4.810   5.262  -6.874  1.00  0.00     0.023 A 
ATOM     82  Cl  UNL     1       2.713   4.960  -4.740  1.00  0.00    -0.083 Cl
ATOM     83  C   UNL     1       6.511   5.381  -7.446  1.00  0.00     0.028 A 
BRANCH  80  84
ATOM     84  N   UNL     1       9.165   5.717  -6.479  1.00  0.00    -0.332 N 
ATOM     85  H   UNL     1       9.455   5.943  -7.393  1.00  0.00     0.169 HD
BRANCH  84  86
ATOM     86  C   UNL     1      10.080   6.022  -5.488  1.00  0.00     0.177 C 
ATOM     87  S   UNL     1      11.573   6.591  -6.023  1.00  0.00    -0.040 S 
BRANCH  86  88
ATOM     88  N   UNL     1       9.927   5.950  -4.059  1.00  0.00    -0.299 N 
ATOM     89  C   UNL     1       9.192   5.682  -2.771  1.00  0.00     0.260 C 
ATOM     90  H   UNL     1      10.810   6.247  -3.739  1.00  0.00     0.172 HD
ATOM     91  O   UNL     1       9.792   5.813  -1.707  1.00  0.00    -0.269 OA
BRANCH  89  92
ATOM     92  C   UNL     1       7.723   5.277  -2.758  1.00  0.00     0.075 A 
ATOM     93  C   UNL     1       6.980   6.467  -3.802  1.00  0.00     0.017 A 
ATOM     94  C   UNL     1       7.522   3.502  -2.984  1.00  0.00     0.135 A 
ATOM     95  C   UNL     1       6.228   5.901  -5.301  1.00  0.00     0.001 A 
ATOM     96  C   UNL     1       6.796   2.782  -4.450  1.00  0.00     0.040 A 
ATOM     97  F   UNL     1       8.298   2.686  -2.251  1.00  0.00    -0.206 F 
ATOM     98  C   UNL     1       6.163   3.916  -5.715  1.00  0.00     0.003 A 
ENDBRANCH  89  92
ENDBRANCH  86  88
ENDBRANCH  84  86
ENDBRANCH  80  84
ENDBRANCH  74  77
ENDBRANCH  72  73
ENDBRANCH   1  72
TORSDOF 17
