REMARK SMILES Cn1cncc1COc1c(F)cc(C(=O)NCCCNC(=O)c2ccc(-c3c4nc(c(-c5cc(S(=O)(=O)[O-])ccc5F)c5ccc([nH]5)c(-c5cc(S(=O)(=O)[O-])ccc5F)c5nc(c(-c6cc(S(=O)(=O)[O-])ccc6F)c6ccc3[nH]6)C=C5)C=C4)cc2)cc1F
REMARK SMILES IDX 18 1 17 2 16 3 14 4 15 5 13 7 9 8 10 9 87 10 11 11 12 12
REMARK SMILES IDX 86 13 88 14 8 15 7 16 6 17 1 18 2 19 3 20 4 21 5 22 19 23
REMARK SMILES IDX 20 24 21 25 22 27 23 28 24 29 85 30 25 31 84 32 26 33 27 34
REMARK SMILES IDX 28 35 78 36 29 37 83 38 77 39 79 40 30 41 82 42 76 43 75 44
REMARK SMILES IDX 31 46 63 47 43 48 62 49 44 50 47 51 61 52 80 53 45 54 46 55
REMARK SMILES IDX 60 57 81 58 48 59 32 60 33 61 41 62 34 63 40 64 42 65 39 66
REMARK SMILES IDX 35 67 36 68 37 69 38 70 64 71 65 72 73 73 66 74 72 75 74 76
REMARK SMILES IDX 71 77 67 78 68 79 69 80 70 81 49 82 50 83 58 84 51 85 57 86
REMARK SMILES IDX 59 87 56 88 52 89 53 90 54 91 55 92
REMARK H PARENT 16 6 20 26 79 45 47 56
REMARK Flexibility Score: inf
ROOT
ATOM      1  C   UNL     1      -0.299   1.902   6.034  1.00  0.00     0.042 C 
ENDROOT
BRANCH   1   2
ATOM      2  C   UNL     1       1.018   1.127   6.013  1.00  0.00     0.118 C 
BRANCH   2   3
ATOM      3  N   UNL     1       0.956  -0.102   6.789  1.00  0.00    -0.352 N 
ATOM      4  C   UNL     1       0.834  -1.416   6.407  1.00  0.00     0.251 C 
ATOM      5  O   UNL     1       1.010  -2.292   7.252  1.00  0.00    -0.269 OA
ATOM      6  H   UNL     1       1.010   0.032   7.763  1.00  0.00     0.163 HD
BRANCH   4   7
ATOM      7  C   UNL     1       0.526  -1.827   5.010  1.00  0.00     0.045 A 
ATOM      8  C   UNL     1      -0.050  -2.718   2.397  1.00  0.00     0.191 A 
ATOM      9  C   UNL     1      -0.547  -1.510   2.870  1.00  0.00     0.168 A 
ATOM     10  C   UNL     1       0.678  -3.518   3.273  1.00  0.00     0.168 A 
ATOM     11  F   UNL     1      -1.341  -0.745   2.115  1.00  0.00    -0.203 F 
ATOM     12  C   UNL     1      -0.262  -1.065   4.154  1.00  0.00     0.057 A 
ATOM     13  C   UNL     1       0.968  -3.085   4.570  1.00  0.00     0.057 A 
ATOM     14  F   UNL     1       1.110  -4.725   2.880  1.00  0.00    -0.203 F 
BRANCH   8  15
ATOM     15  O   UNL     1      -0.370  -3.164   1.143  1.00  0.00    -0.481 OA
BRANCH  15  16
ATOM     16  C   UNL     1       0.516  -2.653   0.132  1.00  0.00     0.285 C 
BRANCH  16  17
ATOM     17  C   UNL     1       0.021  -1.330  -0.338  1.00  0.00     0.075 A 
ATOM     18  C   UNL     1       2.166  -0.019  -0.094  1.00  0.00     0.151 C 
ATOM     19  N   UNL     1       0.763  -0.173  -0.388  1.00  0.00    -0.335 N 
ATOM     20  C   UNL     1      -0.066   0.841  -0.777  1.00  0.00     0.199 A 
ATOM     21  N   UNL     1      -1.271   0.398  -1.048  1.00  0.00    -0.245 NA
ATOM     22  C   UNL     1      -1.233  -0.942  -0.771  1.00  0.00     0.138 A 
ENDBRANCH  16  17
ENDBRANCH  15  16
ENDBRANCH   8  15
ENDBRANCH   4   7
ENDBRANCH   2   3
ENDBRANCH   1   2
BRANCH   1  23
ATOM     23  C   UNL     1      -0.533   2.710   7.304  1.00  0.00     0.118 C 
BRANCH  23  24
ATOM     24  N   UNL     1       0.383   3.834   7.415  1.00  0.00    -0.352 N 
ATOM     25  C   UNL     1       0.128   5.180   7.511  1.00  0.00     0.251 C 
ATOM     26  H   UNL     1       1.337   3.591   7.423  1.00  0.00     0.163 HD
ATOM     27  O   UNL     1       1.059   5.966   7.359  1.00  0.00    -0.269 OA
BRANCH  25  28
ATOM     28  C   UNL     1      -1.240   5.688   7.777  1.00  0.00     0.039 A 
ATOM     29  C   UNL     1      -1.646   6.875   7.158  1.00  0.00     0.014 A 
ATOM     30  C   UNL     1      -2.103   5.042   8.666  1.00  0.00     0.014 A 
ATOM     31  C   UNL     1      -2.928   7.383   7.391  1.00  0.00     0.010 A 
ATOM     32  C   UNL     1      -3.406   5.507   8.838  1.00  0.00     0.010 A 
ATOM     33  C   UNL     1      -3.831   6.687   8.210  1.00  0.00    -0.014 A 
BRANCH  33  34
ATOM     34  C   UNL     1      -5.215   7.184   8.429  1.00  0.00     0.031 A 
ATOM     35  C   UNL     1      -5.664   7.592   9.807  1.00  0.00     0.074 A 
ATOM     36  C   UNL     1      -6.084   7.209   7.400  1.00  0.00     0.049 A 
ATOM     37  N   UNL     1      -6.848   7.973  10.216  1.00  0.00    -0.248 NA
ATOM     38  C   UNL     1      -4.653   7.531  10.872  1.00  0.00     0.031 C 
ATOM     39  C   UNL     1      -5.776   6.802   6.027  1.00  0.00     0.029 A 
ATOM     40  N   UNL     1      -7.403   7.582   7.346  1.00  0.00    -0.354 N 
ATOM     41  C   UNL     1      -6.728   8.183  11.586  1.00  0.00     0.074 A 
ATOM     42  C   UNL     1      -5.372   7.824  11.945  1.00  0.00     0.031 C 
ATOM     43  C   UNL     1      -6.867   6.968   5.264  1.00  0.00     0.029 A 
ATOM     44  C   UNL     1      -7.965   7.447   6.097  1.00  0.00     0.049 A 
ATOM     45  H   UNL     1      -7.901   7.915   8.127  1.00  0.00     0.167 HD
ATOM     46  C   UNL     1      -7.656   8.652  12.458  1.00  0.00     0.034 A 
ATOM     47  C   UNL     1      -9.226   7.668   5.674  1.00  0.00     0.034 A 
ATOM     48  C   UNL     1      -9.002   9.012  12.078  1.00  0.00     0.049 A 
ATOM     49  C   UNL     1     -10.248   8.165   6.664  1.00  0.00     0.074 A 
ATOM     50  C   UNL     1     -10.007   9.549  12.863  1.00  0.00     0.029 A 
ATOM     51  N   UNL     1      -9.536   8.862  10.803  1.00  0.00    -0.354 N 
ATOM     52  N   UNL     1     -10.106   8.407   7.947  1.00  0.00    -0.248 NA
ATOM     53  C   UNL     1     -11.595   8.429   6.146  1.00  0.00     0.031 C 
ATOM     54  C   UNL     1     -11.165   9.656  12.084  1.00  0.00     0.029 A 
ATOM     55  C   UNL     1     -10.863   9.264  10.790  1.00  0.00     0.049 A 
ATOM     56  H   UNL     1      -9.043   8.520  10.022  1.00  0.00     0.167 HD
ATOM     57  C   UNL     1     -11.341   8.880   8.383  1.00  0.00     0.074 A 
ATOM     58  C   UNL     1     -12.207   8.903   7.221  1.00  0.00     0.031 C 
ATOM     59  C   UNL     1     -11.722   9.266   9.627  1.00  0.00     0.034 A 
BRANCH  46  60
ATOM     60  C   UNL     1      -7.248   8.768  13.910  1.00  0.00     0.023 A 
ATOM     61  C   UNL     1      -6.196   9.608  14.318  1.00  0.00     0.031 A 
ATOM     62  C   UNL     1      -7.893   8.002  14.897  1.00  0.00     0.131 A 
ATOM     63  C   UNL     1      -5.762   9.593  15.652  1.00  0.00     0.055 A 
ATOM     64  C   UNL     1      -7.515   8.059  16.241  1.00  0.00     0.041 A 
ATOM     65  F   UNL     1      -8.892   7.166  14.571  1.00  0.00    -0.206 F 
ATOM     66  C   UNL     1      -6.431   8.844  16.622  1.00  0.00     0.022 A 
BRANCH  63  67
ATOM     67  S   UNL     1      -4.210  10.437  16.066  1.00  0.00     0.124 S 
ATOM     68  O   UNL     1      -3.265   9.769  15.174  1.00  0.00    -0.237 OA
ATOM     69  O   UNL     1      -4.513  11.828  15.751  1.00  0.00    -0.237 OA
ATOM     70  O   UNL     1      -4.028  10.143  17.486  1.00  0.00    -0.744 OA
ENDBRANCH  63  67
ENDBRANCH  46  60
BRANCH  47  71
ATOM     71  C   UNL     1      -9.597   7.414   4.253  1.00  0.00     0.023 A 
ATOM     72  C   UNL     1      -9.985   8.465   3.408  1.00  0.00     0.031 A 
ATOM     73  C   UNL     1      -9.592   6.110   3.725  1.00  0.00     0.131 A 
ATOM     74  C   UNL     1     -10.391   8.192   2.092  1.00  0.00     0.055 A 
ATOM     75  C   UNL     1      -9.947   5.850   2.400  1.00  0.00     0.041 A 
ATOM     76  F   UNL     1      -9.224   5.070   4.489  1.00  0.00    -0.206 F 
ATOM     77  C   UNL     1     -10.361   6.893   1.579  1.00  0.00     0.022 A 
BRANCH  74  78
ATOM     78  S   UNL     1     -11.031   9.555   1.081  1.00  0.00     0.124 S 
ATOM     79  O   UNL     1     -12.157  10.018   1.885  1.00  0.00    -0.237 OA
ATOM     80  O   UNL     1      -9.880  10.449   1.013  1.00  0.00    -0.237 OA
ATOM     81  O   UNL     1     -11.389   8.905  -0.179  1.00  0.00    -0.744 OA
ENDBRANCH  74  78
ENDBRANCH  47  71
BRANCH  59  82
ATOM     82  C   UNL     1     -13.132   9.785   9.781  1.00  0.00     0.023 A 
ATOM     83  C   UNL     1     -14.252   8.954   9.604  1.00  0.00     0.031 A 
ATOM     84  C   UNL     1     -13.355  11.138  10.095  1.00  0.00     0.131 A 
ATOM     85  C   UNL     1     -15.543   9.496   9.686  1.00  0.00     0.055 A 
ATOM     86  C   UNL     1     -14.642  11.657  10.238  1.00  0.00     0.041 A 
ATOM     87  F   UNL     1     -12.322  11.978  10.271  1.00  0.00    -0.206 F 
ATOM     88  C   UNL     1     -15.746  10.838  10.019  1.00  0.00     0.022 A 
BRANCH  85  89
ATOM     89  S   UNL     1     -16.958   8.445   9.258  1.00  0.00     0.124 S 
ATOM     90  O   UNL     1     -16.643   8.057   7.886  1.00  0.00    -0.237 OA
ATOM     91  O   UNL     1     -16.873   7.384  10.256  1.00  0.00    -0.237 OA
ATOM     92  O   UNL     1     -18.106   9.339   9.401  1.00  0.00    -0.744 OA
ENDBRANCH  85  89
ENDBRANCH  59  82
ENDBRANCH  33  34
ENDBRANCH  25  28
ENDBRANCH  23  24
ENDBRANCH   1  23
TORSDOF 16
