REMARK SMILES Nc1cc(F)c([C@H]([NH3+])C(=O)NCCCNC(=O)c2ccc(-c3c4nc(c(-c5cc(S(=O)(=O)[O-])ccc5F)c5ccc([nH]5)c(-c5cc(S(=O)(=O)[O-])ccc5F)c5nc(c(-c6cc(S(=O)(=O)[O-])ccc6F)c6ccc3[nH]6)C=C5)C=C4)cc2)cc1F
REMARK SMILES IDX 13 1 12 2 11 3 9 4 10 5 7 7 6 8 2 9 3 10 82 11 4 12 81 13
REMARK SMILES IDX 83 14 5 15 1 16 8 19 14 23 15 24 16 25 17 27 18 28 19 29
REMARK SMILES IDX 80 30 20 31 79 32 21 33 22 34 23 35 73 36 24 37 78 38 72 39
REMARK SMILES IDX 74 40 25 41 77 42 71 43 70 44 26 46 58 47 38 48 57 49 39 50
REMARK SMILES IDX 42 51 56 52 75 53 40 54 41 55 55 57 76 58 43 59 27 60 28 61
REMARK SMILES IDX 36 62 29 63 35 64 37 65 34 66 30 67 31 68 32 69 33 70 59 71
REMARK SMILES IDX 60 72 68 73 61 74 67 75 69 76 66 77 62 78 63 79 64 80 65 81
REMARK SMILES IDX 44 82 45 83 53 84 46 85 52 86 54 87 51 88 47 89 48 90 49 91
REMARK SMILES IDX 50 92
REMARK H PARENT 11 6 1 17 1 18 8 20 8 21 8 22 15 26 74 45 42 56
REMARK Flexibility Score: inf
ROOT
ATOM      1  C   UNL     1       1.140  -5.219  -0.768  1.00  0.00     0.042 C 
ENDROOT
BRANCH   1   2
ATOM      2  C   UNL     1       0.840  -5.236  -2.257  1.00  0.00     0.118 C 
BRANCH   2   3
ATOM      3  N   UNL     1      -0.577  -5.412  -2.526  1.00  0.00    -0.351 N 
ATOM      4  C   UNL     1      -1.357  -4.883  -3.511  1.00  0.00     0.283 C 
ATOM      5  O   UNL     1      -2.492  -5.355  -3.644  1.00  0.00    -0.268 OA
ATOM      6  H   UNL     1      -1.047  -6.007  -1.898  1.00  0.00     0.163 HD
BRANCH   4   7
ATOM      7  C   UNL     1      -0.900  -3.682  -4.367  1.00  0.00     0.305 C 
BRANCH   7   8
ATOM      8  C   UNL     1       0.247  -3.896  -5.337  1.00  0.00     0.058 A 
ATOM      9  C   UNL     1       2.378  -4.188  -7.206  1.00  0.00     0.071 A 
ATOM     10  C   UNL     1       1.883  -5.288  -6.511  1.00  0.00     0.068 A 
ATOM     11  C   UNL     1       1.748  -2.954  -7.008  1.00  0.00     0.146 A 
ATOM     12  C   UNL     1       0.826  -5.142  -5.608  1.00  0.00     0.135 A 
ATOM     13  C   UNL     1       0.717  -2.800  -6.083  1.00  0.00     0.055 A 
ATOM     14  F   UNL     1       2.147  -1.887  -7.718  1.00  0.00    -0.205 F 
ATOM     15  F   UNL     1       0.379  -6.253  -5.010  1.00  0.00    -0.206 F 
BRANCH   9  16
ATOM     16  N   UNL     1       3.364  -4.349  -8.173  1.00  0.00    -0.396 N 
ATOM     17  H   UNL     1       3.795  -5.226  -8.296  1.00  0.00     0.156 HD
ATOM     18  H   UNL     1       3.632  -3.586  -8.735  1.00  0.00     0.156 HD
ENDBRANCH   9  16
ENDBRANCH   7   8
BRANCH   7  19
ATOM     19  N   UNL     1      -0.691  -2.495  -3.499  1.00  0.00    -0.343 N 
ATOM     20  H   UNL     1       0.087  -2.672  -2.863  1.00  0.00     0.345 HD
ATOM     21  H   UNL     1      -1.538  -2.316  -2.959  1.00  0.00     0.345 HD
ATOM     22  H   UNL     1      -0.479  -1.683  -4.079  1.00  0.00     0.345 HD
ENDBRANCH   7  19
ENDBRANCH   4   7
ENDBRANCH   2   3
ENDBRANCH   1   2
BRANCH   1  23
ATOM     23  C   UNL     1       0.834  -6.534  -0.063  1.00  0.00     0.118 C 
BRANCH  23  24
ATOM     24  N   UNL     1       1.691  -7.635  -0.490  1.00  0.00    -0.352 N 
ATOM     25  C   UNL     1       2.548  -8.424   0.253  1.00  0.00     0.251 C 
ATOM     26  H   UNL     1       1.653  -7.848  -1.451  1.00  0.00     0.163 HD
ATOM     27  O   UNL     1       3.291  -9.214  -0.302  1.00  0.00    -0.269 OA
BRANCH  25  28
ATOM     28  C   UNL     1       2.581  -8.256   1.724  1.00  0.00     0.039 A 
ATOM     29  C   UNL     1       1.392  -8.157   2.444  1.00  0.00     0.014 A 
ATOM     30  C   UNL     1       3.811  -8.117   2.372  1.00  0.00     0.014 A 
ATOM     31  C   UNL     1       1.425  -7.685   3.749  1.00  0.00     0.010 A 
ATOM     32  C   UNL     1       3.841  -7.758   3.724  1.00  0.00     0.010 A 
ATOM     33  C   UNL     1       2.649  -7.469   4.405  1.00  0.00    -0.014 A 
BRANCH  33  34
ATOM     34  C   UNL     1       2.641  -6.934   5.795  1.00  0.00     0.031 A 
ATOM     35  C   UNL     1       3.275  -5.606   6.122  1.00  0.00     0.074 A 
ATOM     36  C   UNL     1       1.988  -7.621   6.753  1.00  0.00     0.049 A 
ATOM     37  N   UNL     1       3.317  -4.978   7.270  1.00  0.00    -0.248 NA
ATOM     38  C   UNL     1       3.956  -4.892   5.030  1.00  0.00     0.031 C 
ATOM     39  C   UNL     1       1.337  -8.916   6.550  1.00  0.00     0.029 A 
ATOM     40  N   UNL     1       1.732  -7.323   8.068  1.00  0.00    -0.354 N 
ATOM     41  C   UNL     1       4.049  -3.817   7.047  1.00  0.00     0.074 A 
ATOM     42  C   UNL     1       4.456  -3.837   5.660  1.00  0.00     0.031 C 
ATOM     43  C   UNL     1       0.695  -9.265   7.672  1.00  0.00     0.029 A 
ATOM     44  C   UNL     1       0.960  -8.268   8.705  1.00  0.00     0.049 A 
ATOM     45  H   UNL     1       2.067  -6.511   8.513  1.00  0.00     0.167 HD
ATOM     46  C   UNL     1       4.343  -2.821   7.918  1.00  0.00     0.034 A 
ATOM     47  C   UNL     1       0.523  -8.340   9.979  1.00  0.00     0.034 A 
ATOM     48  C   UNL     1       3.896  -2.796   9.288  1.00  0.00     0.049 A 
ATOM     49  C   UNL     1       0.865  -7.222  10.926  1.00  0.00     0.074 A 
ATOM     50  C   UNL     1       4.107  -1.808  10.235  1.00  0.00     0.029 A 
ATOM     51  N   UNL     1       3.147  -3.787   9.906  1.00  0.00    -0.354 N 
ATOM     52  N   UNL     1       1.526  -6.114  10.685  1.00  0.00    -0.248 NA
ATOM     53  C   UNL     1       0.411  -7.359  12.316  1.00  0.00     0.031 C 
ATOM     54  C   UNL     1       3.536  -2.227  11.438  1.00  0.00     0.029 A 
ATOM     55  C   UNL     1       2.912  -3.446  11.229  1.00  0.00     0.049 A 
ATOM     56  H   UNL     1       2.830  -4.610   9.470  1.00  0.00     0.167 HD
ATOM     57  C   UNL     1       1.565  -5.422  11.890  1.00  0.00     0.074 A 
ATOM     58  C   UNL     1       0.826  -6.217  12.849  1.00  0.00     0.031 C 
ATOM     59  C   UNL     1       2.171  -4.242  12.178  1.00  0.00     0.034 A 
BRANCH  46  60
ATOM     60  C   UNL     1       5.176  -1.657   7.440  1.00  0.00     0.023 A 
ATOM     61  C   UNL     1       6.441  -1.420   8.011  1.00  0.00     0.031 A 
ATOM     62  C   UNL     1       4.668  -0.711   6.533  1.00  0.00     0.131 A 
ATOM     63  C   UNL     1       7.140  -0.247   7.695  1.00  0.00     0.055 A 
ATOM     64  C   UNL     1       5.384   0.438   6.193  1.00  0.00     0.041 A 
ATOM     65  F   UNL     1       3.466  -0.892   5.961  1.00  0.00    -0.206 F 
ATOM     66  C   UNL     1       6.620   0.679   6.785  1.00  0.00     0.022 A 
BRANCH  63  67
ATOM     67  S   UNL     1       8.717   0.151   8.496  1.00  0.00     0.124 S 
ATOM     68  O   UNL     1       9.612   0.279   7.347  1.00  0.00    -0.237 OA
ATOM     69  O   UNL     1       8.403   1.401   9.184  1.00  0.00    -0.237 OA
ATOM     70  O   UNL     1       8.975  -0.997   9.357  1.00  0.00    -0.744 OA
ENDBRANCH  63  67
ENDBRANCH  46  60
BRANCH  47  71
ATOM     71  C   UNL     1      -0.307  -9.509  10.392  1.00  0.00     0.023 A 
ATOM     72  C   UNL     1       0.199 -10.819  10.296  1.00  0.00     0.031 A 
ATOM     73  C   UNL     1      -1.653  -9.346  10.757  1.00  0.00     0.131 A 
ATOM     74  C   UNL     1      -0.658 -11.913  10.472  1.00  0.00     0.055 A 
ATOM     75  C   UNL     1      -2.483 -10.440  11.011  1.00  0.00     0.041 A 
ATOM     76  F   UNL     1      -2.185  -8.118  10.850  1.00  0.00    -0.206 F 
ATOM     77  C   UNL     1      -1.992 -11.732  10.846  1.00  0.00     0.022 A 
BRANCH  74  78
ATOM     78  S   UNL     1      -0.110 -13.592  10.054  1.00  0.00     0.124 S 
ATOM     79  O   UNL     1      -0.186 -14.266  11.345  1.00  0.00    -0.237 OA
ATOM     80  O   UNL     1      -1.112 -13.997   9.069  1.00  0.00    -0.237 OA
ATOM     81  O   UNL     1       1.233 -13.393   9.520  1.00  0.00    -0.744 OA
ENDBRANCH  74  78
ENDBRANCH  47  71
BRANCH  59  82
ATOM     82  C   UNL     1       2.090  -3.721  13.592  1.00  0.00     0.023 A 
ATOM     83  C   UNL     1       1.436  -2.504  13.861  1.00  0.00     0.031 A 
ATOM     84  C   UNL     1       2.786  -4.350  14.639  1.00  0.00     0.131 A 
ATOM     85  C   UNL     1       1.524  -1.934  15.137  1.00  0.00     0.055 A 
ATOM     86  C   UNL     1       2.833  -3.801  15.920  1.00  0.00     0.041 A 
ATOM     87  F   UNL     1       3.433  -5.507  14.428  1.00  0.00    -0.206 F 
ATOM     88  C   UNL     1       2.212  -2.580  16.170  1.00  0.00     0.022 A 
BRANCH  85  89
ATOM     89  S   UNL     1       0.826  -0.295  15.480  1.00  0.00     0.124 S 
ATOM     90  O   UNL     1      -0.172  -0.601  16.503  1.00  0.00    -0.237 OA
ATOM     91  O   UNL     1       1.994   0.445  15.950  1.00  0.00    -0.237 OA
ATOM     92  O   UNL     1       0.287   0.135  14.194  1.00  0.00    -0.744 OA
ENDBRANCH  85  89
ENDBRANCH  59  82
ENDBRANCH  33  34
ENDBRANCH  25  28
ENDBRANCH  23  24
ENDBRANCH   1  23
TORSDOF 16
