REMARK SMILES CN(C)C(=O)C[NH+]1CCN(c2cc(C(=O)NCCCNC(=O)c3ccc(-c4c5nc(c(-c6cc(S(=O)(=O)[O-])ccc6F)c6ccc([nH]6)c(-c6cc(S(=O)(=O)[O-])ccc6F)c6nc(c(-c7cc(S(=O)(=O)[O-])ccc7F)c7ccc4[nH]7)C=C6)C=C5)cc3)c3cc(NC(=O)c4cccc(Cl)c4)ccc3n2)CC1
REMARK SMILES IDX 18 1 17 2 16 3 14 4 15 5 13 7 11 8 12 9 102 10 101 11 86 12
REMARK SMILES IDX 100 13 87 14 99 15 88 16 10 17 7 18 8 19 104 20 9 22 103 23
REMARK SMILES IDX 6 24 4 25 1 26 2 27 3 28 5 29 89 30 90 31 91 33 92 34 93 35
REMARK SMILES IDX 98 36 94 37 96 38 95 39 97 40 19 41 20 42 21 43 22 45 23 46
REMARK SMILES IDX 24 47 85 48 25 49 84 50 26 51 27 52 28 53 78 54 29 55 83 56
REMARK SMILES IDX 77 57 79 58 30 59 82 60 76 61 75 62 31 64 63 65 43 66 62 67
REMARK SMILES IDX 44 68 47 69 61 70 80 71 45 72 46 73 60 75 81 76 48 77 32 78
REMARK SMILES IDX 33 79 41 80 34 81 40 82 42 83 39 84 35 85 36 86 37 87 38 88
REMARK SMILES IDX 64 89 65 90 73 91 66 92 72 93 74 94 71 95 67 96 68 97 69 98
REMARK SMILES IDX 70 99 49 100 50 101 58 102 51 103 57 104 59 105 56 106
REMARK SMILES IDX 52 107 53 108 54 109 55 110
REMARK H PARENT 16 6 7 21 89 32 20 44 79 63 47 74
REMARK Flexibility Score: inf
ROOT
ATOM      1  C   UNL     1       9.548  -3.859  -0.935  1.00  0.00     0.042 C 
ENDROOT
BRANCH   1   2
ATOM      2  C   UNL     1       8.030  -3.840  -0.952  1.00  0.00     0.118 C 
BRANCH   2   3
ATOM      3  N   UNL     1       7.363  -2.762  -0.241  1.00  0.00    -0.352 N 
ATOM      4  C   UNL     1       6.107  -2.206  -0.400  1.00  0.00     0.252 C 
ATOM      5  O   UNL     1       5.729  -1.419   0.472  1.00  0.00    -0.269 OA
ATOM      6  H   UNL     1       7.899  -2.356   0.478  1.00  0.00     0.163 HD
BRANCH   4   7
ATOM      7  C   UNL     1       5.207  -2.427  -1.581  1.00  0.00     0.052 A 
ATOM      8  C   UNL     1       3.617  -1.378  -3.077  1.00  0.00     0.130 A 
ATOM      9  C   UNL     1       4.527  -1.283  -2.032  1.00  0.00     0.061 A 
ATOM     10  N   UNL     1       3.452  -2.545  -3.729  1.00  0.00    -0.231 NA
ATOM     11  C   UNL     1       4.072  -3.648  -3.314  1.00  0.00     0.074 A 
ATOM     12  C   UNL     1       4.901  -3.665  -2.188  1.00  0.00     0.015 A 
ATOM     13  C   UNL     1       3.835  -4.827  -4.010  1.00  0.00     0.031 A 
ATOM     14  C   UNL     1       5.302  -4.924  -1.717  1.00  0.00     0.037 A 
ATOM     15  C   UNL     1       4.331  -6.057  -3.571  1.00  0.00     0.028 A 
ATOM     16  C   UNL     1       5.015  -6.121  -2.368  1.00  0.00     0.042 A 
BRANCH   8  17
ATOM     17  N   UNL     1       2.808  -0.335  -3.486  1.00  0.00    -0.345 N 
ATOM     18  N   UNL     1       0.815   1.753  -4.127  1.00  0.00    -0.324 N 
ATOM     19  C   UNL     1       2.256   2.043  -3.986  1.00  0.00     0.284 C 
ATOM     20  C   UNL     1       0.615   0.342  -4.479  1.00  0.00     0.284 C 
ATOM     21  H   UNL     1       0.471   2.305  -4.913  1.00  0.00     0.348 HD
ATOM     22  C   UNL     1       3.101   1.055  -3.138  1.00  0.00     0.179 C 
ATOM     23  C   UNL     1       1.397  -0.703  -3.662  1.00  0.00     0.179 C 
BRANCH  18  24
ATOM     24  C   UNL     1      -0.048   2.275  -3.050  1.00  0.00     0.363 C 
BRANCH  24  25
ATOM     25  C   UNL     1       0.402   1.929  -1.627  1.00  0.00     0.277 C 
ATOM     26  C   UNL     1       0.483   0.303   0.192  1.00  0.00     0.146 C 
ATOM     27  N   UNL     1      -0.165   0.827  -1.000  1.00  0.00    -0.344 N 
ATOM     28  C   UNL     1      -1.443   0.249  -1.375  1.00  0.00     0.146 C 
ATOM     29  O   UNL     1       1.280   2.604  -1.080  1.00  0.00    -0.268 OA
ENDBRANCH  24  25
ENDBRANCH  18  24
ENDBRANCH   8  17
BRANCH  16  30
ATOM     30  N   UNL     1       5.394  -7.379  -1.870  1.00  0.00    -0.322 N 
ATOM     31  C   UNL     1       5.793  -7.785  -0.609  1.00  0.00     0.255 C 
ATOM     32  H   UNL     1       5.372  -8.101  -2.538  1.00  0.00     0.170 HD
ATOM     33  O   UNL     1       6.319  -8.886  -0.468  1.00  0.00    -0.269 OA
BRANCH  31  34
ATOM     34  C   UNL     1       5.570  -6.936   0.590  1.00  0.00     0.041 A 
ATOM     35  C   UNL     1       6.630  -6.762   1.480  1.00  0.00     0.014 A 
ATOM     36  C   UNL     1       4.371  -6.246   0.799  1.00  0.00     0.034 A 
ATOM     37  C   UNL     1       6.545  -5.812   2.502  1.00  0.00     0.002 A 
ATOM     38  C   UNL     1       4.310  -5.266   1.791  1.00  0.00     0.041 A 
ATOM     39  C   UNL     1       5.400  -5.030   2.628  1.00  0.00     0.020 A 
ATOM     40  Cl  UNL     1       2.900  -4.291   1.931  1.00  0.00    -0.084 Cl
ENDBRANCH  31  34
ENDBRANCH  16  30
ENDBRANCH   4   7
ENDBRANCH   2   3
ENDBRANCH   1   2
BRANCH   1  41
ATOM     41  C   UNL     1      10.200  -4.070   0.428  1.00  0.00     0.118 C 
BRANCH  41  42
ATOM     42  N   UNL     1       9.760  -5.255   1.170  1.00  0.00    -0.352 N 
ATOM     43  C   UNL     1      10.320  -6.499   1.372  1.00  0.00     0.251 C 
ATOM     44  H   UNL     1       8.889  -5.140   1.613  1.00  0.00     0.163 HD
ATOM     45  O   UNL     1       9.743  -7.340   2.058  1.00  0.00    -0.269 OA
BRANCH  43  46
ATOM     46  C   UNL     1      11.613  -6.835   0.771  1.00  0.00     0.039 A 
ATOM     47  C   UNL     1      11.814  -8.053   0.108  1.00  0.00     0.014 A 
ATOM     48  C   UNL     1      12.640  -5.910   0.883  1.00  0.00     0.014 A 
ATOM     49  C   UNL     1      13.031  -8.286  -0.536  1.00  0.00     0.010 A 
ATOM     50  C   UNL     1      13.771  -6.070   0.118  1.00  0.00     0.010 A 
ATOM     51  C   UNL     1      13.994  -7.268  -0.576  1.00  0.00    -0.014 A 
BRANCH  51  52
ATOM     52  C   UNL     1      15.296  -7.379  -1.269  1.00  0.00     0.031 A 
ATOM     53  C   UNL     1      16.539  -7.120  -0.459  1.00  0.00     0.074 A 
ATOM     54  C   UNL     1      15.326  -7.472  -2.610  1.00  0.00     0.049 A 
ATOM     55  N   UNL     1      17.732  -6.771  -0.853  1.00  0.00    -0.248 NA
ATOM     56  C   UNL     1      16.372  -7.147   1.006  1.00  0.00     0.031 C 
ATOM     57  C   UNL     1      14.159  -7.654  -3.478  1.00  0.00     0.029 A 
ATOM     58  N   UNL     1      16.375  -7.380  -3.484  1.00  0.00    -0.354 N 
ATOM     59  C   UNL     1      18.431  -6.465   0.312  1.00  0.00     0.074 A 
ATOM     60  C   UNL     1      17.498  -6.582   1.409  1.00  0.00     0.031 C 
ATOM     61  C   UNL     1      14.560  -7.677  -4.758  1.00  0.00     0.029 A 
ATOM     62  C   UNL     1      15.999  -7.454  -4.805  1.00  0.00     0.049 A 
ATOM     63  H   UNL     1      17.310  -7.271  -3.194  1.00  0.00     0.167 HD
ATOM     64  C   UNL     1      19.741  -6.142   0.444  1.00  0.00     0.034 A 
ATOM     65  C   UNL     1      16.743  -7.335  -5.921  1.00  0.00     0.034 A 
ATOM     66  C   UNL     1      20.638  -6.107  -0.684  1.00  0.00     0.049 A 
ATOM     67  C   UNL     1      18.216  -7.069  -5.751  1.00  0.00     0.074 A 
ATOM     68  C   UNL     1      22.004  -5.901  -0.704  1.00  0.00     0.029 A 
ATOM     69  N   UNL     1      20.244  -6.305  -2.006  1.00  0.00    -0.354 N 
ATOM     70  N   UNL     1      18.889  -6.830  -4.646  1.00  0.00    -0.248 NA
ATOM     71  C   UNL     1      19.033  -7.075  -6.968  1.00  0.00     0.031 C 
ATOM     72  C   UNL     1      22.427  -5.925  -2.038  1.00  0.00     0.029 A 
ATOM     73  C   UNL     1      21.338  -6.217  -2.848  1.00  0.00     0.049 A 
ATOM     74  H   UNL     1      19.321  -6.482  -2.298  1.00  0.00     0.167 HD
ATOM     75  C   UNL     1      20.217  -6.687  -5.032  1.00  0.00     0.074 A 
ATOM     76  C   UNL     1      20.246  -6.886  -6.470  1.00  0.00     0.031 C 
ATOM     77  C   UNL     1      21.315  -6.418  -4.279  1.00  0.00     0.034 A 
BRANCH  64  78
ATOM     78  C   UNL     1      20.250  -5.812   1.832  1.00  0.00     0.023 A 
ATOM     79  C   UNL     1      20.124  -6.718   2.902  1.00  0.00     0.031 A 
ATOM     80  C   UNL     1      20.810  -4.553   2.112  1.00  0.00     0.131 A 
ATOM     81  C   UNL     1      20.441  -6.316   4.209  1.00  0.00     0.055 A 
ATOM     82  C   UNL     1      21.222  -4.197   3.400  1.00  0.00     0.041 A 
ATOM     83  F   UNL     1      20.943  -3.632   1.145  1.00  0.00    -0.206 F 
ATOM     84  C   UNL     1      21.017  -5.072   4.462  1.00  0.00     0.022 A 
BRANCH  81  85
ATOM     85  S   UNL     1      19.922  -7.377   5.587  1.00  0.00     0.124 S 
ATOM     86  O   UNL     1      18.472  -7.402   5.406  1.00  0.00    -0.237 OA
ATOM     87  O   UNL     1      20.621  -8.626   5.306  1.00  0.00    -0.237 OA
ATOM     88  O   UNL     1      20.383  -6.654   6.770  1.00  0.00    -0.744 OA
ENDBRANCH  81  85
ENDBRANCH  64  78
BRANCH  65  89
ATOM     89  C   UNL     1      16.122  -7.507  -7.264  1.00  0.00     0.023 A 
ATOM     90  C   UNL     1      16.455  -8.611  -8.065  1.00  0.00     0.031 A 
ATOM     91  C   UNL     1      15.178  -6.593  -7.765  1.00  0.00     0.131 A 
ATOM     92  C   UNL     1      15.879  -8.757  -9.337  1.00  0.00     0.055 A 
ATOM     93  C   UNL     1      14.571  -6.767  -9.012  1.00  0.00     0.041 A 
ATOM     94  F   UNL     1      14.809  -5.529  -7.035  1.00  0.00    -0.206 F 
ATOM     95  C   UNL     1      14.929  -7.850  -9.810  1.00  0.00     0.022 A 
BRANCH  92  96
ATOM     96  S   UNL     1      16.440 -10.122 -10.390  1.00  0.00     0.124 S 
ATOM     97  O   UNL     1      17.876  -9.875 -10.459  1.00  0.00    -0.237 OA
ATOM     98  O   UNL     1      16.026 -11.289  -9.618  1.00  0.00    -0.237 OA
ATOM     99  O   UNL     1      15.709  -9.911 -11.638  1.00  0.00    -0.744 OA
ENDBRANCH  92  96
ENDBRANCH  65  89
BRANCH  77 100
ATOM    100  C   UNL     1      22.632  -6.371  -5.006  1.00  0.00     0.023 A 
ATOM    101  C   UNL     1      22.921  -5.357  -5.934  1.00  0.00     0.031 A 
ATOM    102  C   UNL     1      23.604  -7.358  -4.770  1.00  0.00     0.131 A 
ATOM    103  C   UNL     1      24.130  -5.389  -6.641  1.00  0.00     0.055 A 
ATOM    104  C   UNL     1      24.834  -7.344  -5.426  1.00  0.00     0.041 A 
ATOM    105  F   UNL     1      23.374  -8.348  -3.892  1.00  0.00    -0.206 F 
ATOM    106  C   UNL     1      25.096  -6.364  -6.379  1.00  0.00     0.022 A 
BRANCH 103 107
ATOM    107  S   UNL     1      24.375  -4.196  -7.983  1.00  0.00     0.124 S 
ATOM    108  O   UNL     1      23.250  -4.496  -8.862  1.00  0.00    -0.237 OA
ATOM    109  O   UNL     1      24.313  -2.918  -7.281  1.00  0.00    -0.237 OA
ATOM    110  O   UNL     1      25.690  -4.547  -8.516  1.00  0.00    -0.744 OA
ENDBRANCH 103 107
ENDBRANCH  77 100
ENDBRANCH  51  52
ENDBRANCH  43  46
ENDBRANCH  41  42
ENDBRANCH   1  41
TORSDOF 18
