REMARK SMILES Cc1ccc(C#N)cc1Nc1cc(C)c(N)c(C(=O)NCCCNC(=O)c2ccc(-c3c4nc(c(-c5cc(S(=O)(=O)[O-])ccc5F)c5ccc([nH]5)c(-c5cc(S(=O)(=O)[O-])ccc5F)c5nc(c(-c6cc(S(=O)(=O)[O-])ccc6F)c6ccc3[nH]6)C=C5)C=C4)cc2)c1
REMARK SMILES IDX 22 1 21 2 20 3 18 4 19 5 17 7 11 8 12 9 90 10 13 11 14 12
REMARK SMILES IDX 15 13 10 14 9 16 1 17 2 18 3 19 4 20 8 21 5 22 6 23 7 24
REMARK SMILES IDX 16 25 23 28 24 29 25 30 26 32 27 33 28 34 89 35 29 36 88 37
REMARK SMILES IDX 30 38 31 39 32 40 82 41 33 42 87 43 81 44 83 45 34 46 86 47
REMARK SMILES IDX 80 48 79 49 35 51 67 52 47 53 66 54 48 55 51 56 65 57 84 58
REMARK SMILES IDX 49 59 50 60 64 62 85 63 52 64 36 65 37 66 45 67 38 68 44 69
REMARK SMILES IDX 46 70 43 71 39 72 40 73 41 74 42 75 68 76 69 77 77 78 70 79
REMARK SMILES IDX 76 80 78 81 75 82 71 83 72 84 73 85 74 86 53 87 54 88 62 89
REMARK SMILES IDX 55 90 61 91 63 92 60 93 56 94 57 95 58 96 59 97
REMARK H PARENT 20 6 10 15 16 26 16 27 24 31 83 50 51 61
REMARK Flexibility Score: inf
ROOT
ATOM      1  C   UNL     1       2.543   2.890   5.469  1.00  0.00     0.042 C 
ENDROOT
BRANCH   1   2
ATOM      2  C   UNL     1       1.339   2.158   6.059  1.00  0.00     0.118 C 
BRANCH   2   3
ATOM      3  N   UNL     1       0.430   3.101   6.687  1.00  0.00    -0.352 N 
ATOM      4  C   UNL     1      -0.697   3.771   6.276  1.00  0.00     0.253 C 
ATOM      5  O   UNL     1      -1.173   4.561   7.097  1.00  0.00    -0.269 OA
ATOM      6  H   UNL     1       0.677   3.307   7.617  1.00  0.00     0.163 HD
BRANCH   4   7
ATOM      7  C   UNL     1      -1.384   3.559   4.955  1.00  0.00     0.065 A 
ATOM      8  C   UNL     1      -1.397   2.590   2.716  1.00  0.00     0.040 A 
ATOM      9  C   UNL     1      -2.724   2.970   2.558  1.00  0.00     0.031 A 
ATOM     10  C   UNL     1      -0.722   2.978   3.872  1.00  0.00     0.042 A 
ATOM     11  C   UNL     1      -3.404   3.669   3.574  1.00  0.00    -0.025 A 
ATOM     12  C   UNL     1      -4.834   4.046   3.291  1.00  0.00     0.047 C 
ATOM     13  C   UNL     1      -2.745   3.950   4.795  1.00  0.00     0.047 A 
BRANCH   8  14
ATOM     14  N   UNL     1      -0.793   1.674   1.833  1.00  0.00    -0.355 N 
ATOM     15  H   UNL     1      -0.588   2.000   0.927  1.00  0.00     0.167 HD
BRANCH  14  16
ATOM     16  C   UNL     1      -0.452   0.327   2.121  1.00  0.00     0.043 A 
ATOM     17  C   UNL     1       0.933   0.100  -0.034  1.00  0.00     0.046 C 
ATOM     18  C   UNL     1       0.358  -0.432   1.252  1.00  0.00    -0.027 A 
ATOM     19  C   UNL     1       0.682  -1.764   1.584  1.00  0.00     0.007 A 
ATOM     20  C   UNL     1       0.226  -2.348   2.765  1.00  0.00     0.020 A 
ATOM     21  C   UNL     1      -0.875  -0.277   3.325  1.00  0.00     0.045 A 
ATOM     22  C   UNL     1      -0.554  -1.602   3.641  1.00  0.00     0.054 A 
BRANCH  22  23
ATOM     23  C   UNL     1      -1.043  -2.193   4.854  1.00  0.00     0.099 C 
ATOM     24  N   UNL     1      -1.445  -2.682   5.825  1.00  0.00    -0.192 NA
ENDBRANCH  22  23
ENDBRANCH  14  16
ENDBRANCH   8  14
BRANCH  13  25
ATOM     25  N   UNL     1      -3.476   4.448   5.882  1.00  0.00    -0.398 N 
ATOM     26  H   UNL     1      -4.415   4.716   5.762  1.00  0.00     0.156 HD
ATOM     27  H   UNL     1      -3.050   4.529   6.766  1.00  0.00     0.156 HD
ENDBRANCH  13  25
ENDBRANCH   4   7
ENDBRANCH   2   3
ENDBRANCH   1   2
BRANCH   1  28
ATOM     28  C   UNL     1       3.538   3.321   6.543  1.00  0.00     0.118 C 
BRANCH  28  29
ATOM     29  N   UNL     1       4.170   2.177   7.194  1.00  0.00    -0.352 N 
ATOM     30  C   UNL     1       5.497   1.828   7.273  1.00  0.00     0.251 C 
ATOM     31  H   UNL     1       3.550   1.560   7.646  1.00  0.00     0.163 HD
ATOM     32  O   UNL     1       5.809   0.708   7.663  1.00  0.00    -0.269 OA
BRANCH  30  33
ATOM     33  C   UNL     1       6.529   2.797   6.855  1.00  0.00     0.039 A 
ATOM     34  C   UNL     1       6.411   4.143   7.205  1.00  0.00     0.014 A 
ATOM     35  C   UNL     1       7.596   2.363   6.067  1.00  0.00     0.014 A 
ATOM     36  C   UNL     1       7.229   5.082   6.594  1.00  0.00     0.010 A 
ATOM     37  C   UNL     1       8.484   3.302   5.539  1.00  0.00     0.010 A 
ATOM     38  C   UNL     1       8.265   4.675   5.741  1.00  0.00    -0.014 A 
BRANCH  38  39
ATOM     39  C   UNL     1       9.084   5.691   5.030  1.00  0.00     0.031 A 
ATOM     40  C   UNL     1       9.087   5.737   3.525  1.00  0.00     0.074 A 
ATOM     41  C   UNL     1       9.796   6.589   5.738  1.00  0.00     0.049 A 
ATOM     42  N   UNL     1       9.789   6.500   2.729  1.00  0.00    -0.248 NA
ATOM     43  C   UNL     1       8.193   4.803   2.817  1.00  0.00     0.031 C 
ATOM     44  C   UNL     1       9.840   6.657   7.200  1.00  0.00     0.029 A 
ATOM     45  N   UNL     1      10.615   7.615   5.334  1.00  0.00    -0.354 N 
ATOM     46  C   UNL     1       9.447   6.121   1.436  1.00  0.00     0.074 A 
ATOM     47  C   UNL     1       8.496   5.040   1.547  1.00  0.00     0.031 C 
ATOM     48  C   UNL     1      10.620   7.682   7.569  1.00  0.00     0.029 A 
ATOM     49  C   UNL     1      11.207   8.289   6.378  1.00  0.00     0.049 A 
ATOM     50  H   UNL     1      10.763   7.846   4.389  1.00  0.00     0.167 HD
ATOM     51  C   UNL     1       9.879   6.644   0.266  1.00  0.00     0.034 A 
ATOM     52  C   UNL     1      12.148   9.257   6.384  1.00  0.00     0.034 A 
ATOM     53  C   UNL     1      10.795   7.753   0.179  1.00  0.00     0.049 A 
ATOM     54  C   UNL     1      12.647   9.789   5.065  1.00  0.00     0.074 A 
ATOM     55  C   UNL     1      11.259   8.380  -0.963  1.00  0.00     0.029 A 
ATOM     56  N   UNL     1      11.377   8.401   1.258  1.00  0.00    -0.354 N 
ATOM     57  N   UNL     1      12.280   9.449   3.851  1.00  0.00    -0.248 NA
ATOM     58  C   UNL     1      13.676  10.836   5.103  1.00  0.00     0.031 C 
ATOM     59  C   UNL     1      12.190   9.341  -0.582  1.00  0.00     0.029 A 
ATOM     60  C   UNL     1      12.223   9.397   0.803  1.00  0.00     0.049 A 
ATOM     61  H   UNL     1      11.213   8.185   2.204  1.00  0.00     0.167 HD
ATOM     62  C   UNL     1      13.003  10.267   2.988  1.00  0.00     0.074 A 
ATOM     63  C   UNL     1      13.816  11.129   3.816  1.00  0.00     0.031 C 
ATOM     64  C   UNL     1      12.993  10.293   1.633  1.00  0.00     0.034 A 
BRANCH  51  65
ATOM     65  C   UNL     1       9.383   6.069  -1.038  1.00  0.00     0.023 A 
ATOM     66  C   UNL     1      10.312   5.534  -1.953  1.00  0.00     0.031 A 
ATOM     67  C   UNL     1       8.055   6.239  -1.462  1.00  0.00     0.131 A 
ATOM     68  C   UNL     1       9.917   5.264  -3.268  1.00  0.00     0.055 A 
ATOM     69  C   UNL     1       7.653   5.913  -2.758  1.00  0.00     0.041 A 
ATOM     70  F   UNL     1       7.131   6.743  -0.627  1.00  0.00    -0.206 F 
ATOM     71  C   UNL     1       8.591   5.445  -3.674  1.00  0.00     0.022 A 
BRANCH  68  72
ATOM     72  S   UNL     1      11.130   4.777  -4.525  1.00  0.00     0.124 S 
ATOM     73  O   UNL     1      10.573   3.514  -5.006  1.00  0.00    -0.237 OA
ATOM     74  O   UNL     1      11.055   5.890  -5.467  1.00  0.00    -0.237 OA
ATOM     75  O   UNL     1      12.379   4.659  -3.781  1.00  0.00    -0.744 OA
ENDBRANCH  68  72
ENDBRANCH  51  65
BRANCH  52  76
ATOM     76  C   UNL     1      12.660   9.770   7.689  1.00  0.00     0.023 A 
ATOM     77  C   UNL     1      13.257   8.898   8.620  1.00  0.00     0.031 A 
ATOM     78  C   UNL     1      12.484  11.111   8.068  1.00  0.00     0.131 A 
ATOM     79  C   UNL     1      13.583   9.356   9.902  1.00  0.00     0.055 A 
ATOM     80  C   UNL     1      12.893  11.585   9.316  1.00  0.00     0.041 A 
ATOM     81  F   UNL     1      11.905  11.982   7.226  1.00  0.00    -0.206 F 
ATOM     82  C   UNL     1      13.428  10.700  10.248  1.00  0.00     0.022 A 
BRANCH  79  83
ATOM     83  S   UNL     1      14.078   8.193  11.203  1.00  0.00     0.124 S 
ATOM     84  O   UNL     1      15.412   8.671  11.548  1.00  0.00    -0.237 OA
ATOM     85  O   UNL     1      13.045   8.419  12.212  1.00  0.00    -0.237 OA
ATOM     86  O   UNL     1      14.023   6.893  10.543  1.00  0.00    -0.744 OA
ENDBRANCH  79  83
ENDBRANCH  52  76
BRANCH  64  87
ATOM     87  C   UNL     1      13.838  11.310   0.904  1.00  0.00     0.023 A 
ATOM     88  C   UNL     1      13.210  12.234   0.045  1.00  0.00     0.031 A 
ATOM     89  C   UNL     1      15.239  11.224   0.879  1.00  0.00     0.131 A 
ATOM     90  C   UNL     1      13.975  12.972  -0.864  1.00  0.00     0.055 A 
ATOM     91  C   UNL     1      16.003  12.013   0.018  1.00  0.00     0.041 A 
ATOM     92  F   UNL     1      15.883  10.351   1.671  1.00  0.00    -0.206 F 
ATOM     93  C   UNL     1      15.370  12.873  -0.876  1.00  0.00     0.022 A 
BRANCH  90  94
ATOM     94  S   UNL     1      13.181  13.976  -2.151  1.00  0.00     0.124 S 
ATOM     95  O   UNL     1      13.737  15.301  -1.886  1.00  0.00    -0.237 OA
ATOM     96  O   UNL     1      13.654  13.334  -3.374  1.00  0.00    -0.237 OA
ATOM     97  O   UNL     1      11.755  13.836  -1.877  1.00  0.00    -0.744 OA
ENDBRANCH  90  94
ENDBRANCH  64  87
ENDBRANCH  38  39
ENDBRANCH  30  33
ENDBRANCH  28  29
ENDBRANCH   1  28
TORSDOF 17
