REMARK SMILES O=C(Cn1cccc1C(=O)NCCC(=O)NC1CC1)NCCCNC(=O)c1ccc(-c2c3nc(c(-c4cc(S(=O)(=O)[O-])ccc4F)c4ccc([nH]4)c(-c4cc(S(=O)(=O)[O-])ccc4F)c4nc(c(-c5cc(S(=O)(=O)[O-])ccc5F)c5ccc2[nH]5)C=C4)C=C3)cc1
REMARK SMILES IDX 1 1 2 2 20 3 3 5 4 6 5 7 8 8 6 9 7 10 9 11 10 12 11 13 12 15
REMARK SMILES IDX 13 16 14 17 15 18 16 19 17 21 18 22 19 23 21 24 22 25 23 26
REMARK SMILES IDX 24 27 25 28 26 30 27 31 28 32 89 33 29 34 88 35 30 36 31 37
REMARK SMILES IDX 32 38 82 39 33 40 87 41 81 42 83 43 34 44 86 45 80 46 79 47
REMARK SMILES IDX 35 49 67 50 47 51 66 52 48 53 51 54 65 55 84 56 49 57 50 58
REMARK SMILES IDX 64 60 85 61 52 62 36 63 37 64 45 65 38 66 44 67 46 68 43 69
REMARK SMILES IDX 39 70 40 71 41 72 42 73 68 74 69 75 77 76 70 77 76 78 78 79
REMARK SMILES IDX 75 80 71 81 72 82 73 83 74 84 53 85 54 86 62 87 55 88 61 89
REMARK SMILES IDX 63 90 60 91 56 92 57 93 58 94 59 95
REMARK H PARENT 20 4 11 14 16 20 24 29 83 48 51 59
REMARK Flexibility Score: inf
ROOT
ATOM      1  O   UNL     1       0.838   0.347  -0.655  1.00  0.00    -0.273 OA
ATOM      2  C   UNL     1       2.028   0.429  -0.362  1.00  0.00     0.239 C 
ATOM      3  N   UNL     1       2.626   1.595   0.059  1.00  0.00    -0.354 N 
ATOM      4  H   UNL     1       3.598   1.597   0.215  1.00  0.00     0.163 HD
ENDROOT
BRANCH   2   5
ATOM      5  C   UNL     1       2.925  -0.782  -0.303  1.00  0.00     0.222 C 
BRANCH   5   6
ATOM      6  N   UNL     1       3.828  -1.023  -1.412  1.00  0.00    -0.334 N 
ATOM      7  C   UNL     1       4.258  -0.032  -2.268  1.00  0.00     0.087 A 
ATOM      8  C   UNL     1       4.422  -2.238  -1.744  1.00  0.00     0.107 A 
ATOM      9  C   UNL     1       5.106  -0.581  -3.191  1.00  0.00     0.020 A 
ATOM     10  C   UNL     1       5.194  -1.946  -2.878  1.00  0.00     0.033 A 
BRANCH   8  11
ATOM     11  C   UNL     1       4.404  -3.598  -1.203  1.00  0.00     0.267 C 
ATOM     12  O   UNL     1       4.966  -4.510  -1.827  1.00  0.00    -0.268 OA
ATOM     13  N   UNL     1       3.849  -4.068  -0.049  1.00  0.00    -0.350 N 
ATOM     14  H   UNL     1       4.128  -5.001   0.096  1.00  0.00     0.163 HD
BRANCH  13  15
ATOM     15  C   UNL     1       2.982  -3.646   1.036  1.00  0.00     0.126 C 
BRANCH  15  16
ATOM     16  C   UNL     1       1.497  -3.692   0.684  1.00  0.00     0.121 C 
BRANCH  16  17
ATOM     17  C   UNL     1       0.831  -5.007   1.018  1.00  0.00     0.221 C 
ATOM     18  O   UNL     1       0.197  -5.151   2.064  1.00  0.00    -0.275 OA
ATOM     19  N   UNL     1       0.916  -6.046   0.134  1.00  0.00    -0.353 N 
ATOM     20  H   UNL     1       0.391  -6.847   0.361  1.00  0.00     0.163 HD
BRANCH  19  21
ATOM     21  C   UNL     1       1.667  -6.117  -1.074  1.00  0.00     0.082 C 
ATOM     22  C   UNL     1       1.072  -6.759  -2.297  1.00  0.00     0.027 C 
ATOM     23  C   UNL     1       1.347  -5.287  -2.286  1.00  0.00     0.027 C 
ENDBRANCH  19  21
ENDBRANCH  16  17
ENDBRANCH  15  16
ENDBRANCH  13  15
ENDBRANCH   8  11
ENDBRANCH   5   6
ENDBRANCH   2   5
BRANCH   3  24
ATOM     24  C   UNL     1       1.885   2.817   0.280  1.00  0.00     0.117 C 
BRANCH  24  25
ATOM     25  C   UNL     1       2.206   3.422   1.648  1.00  0.00     0.042 C 
BRANCH  25  26
ATOM     26  C   UNL     1       3.668   3.851   1.794  1.00  0.00     0.118 C 
BRANCH  26  27
ATOM     27  N   UNL     1       3.999   4.894   0.840  1.00  0.00    -0.352 N 
ATOM     28  C   UNL     1       5.133   5.648   0.686  1.00  0.00     0.251 C 
ATOM     29  H   UNL     1       3.285   5.095   0.192  1.00  0.00     0.163 HD
ATOM     30  O   UNL     1       5.041   6.694   0.053  1.00  0.00    -0.269 OA
BRANCH  28  31
ATOM     31  C   UNL     1       6.439   5.253   1.260  1.00  0.00     0.039 A 
ATOM     32  C   UNL     1       7.291   6.287   1.676  1.00  0.00     0.014 A 
ATOM     33  C   UNL     1       6.884   3.927   1.295  1.00  0.00     0.014 A 
ATOM     34  C   UNL     1       8.557   5.997   2.174  1.00  0.00     0.010 A 
ATOM     35  C   UNL     1       8.149   3.630   1.802  1.00  0.00     0.010 A 
ATOM     36  C   UNL     1       8.976   4.665   2.263  1.00  0.00    -0.014 A 
BRANCH  36  37
ATOM     37  C   UNL     1      10.173   4.350   3.080  1.00  0.00     0.031 A 
ATOM     38  C   UNL     1       9.796   4.292   4.596  1.00  0.00     0.074 A 
ATOM     39  C   UNL     1      11.358   4.170   2.409  1.00  0.00     0.049 A 
ATOM     40  N   UNL     1      10.532   4.403   5.660  1.00  0.00    -0.248 NA
ATOM     41  C   UNL     1       8.357   4.150   4.986  1.00  0.00     0.031 C 
ATOM     42  C   UNL     1      11.529   4.245   0.934  1.00  0.00     0.029 A 
ATOM     43  N   UNL     1      12.653   3.884   2.800  1.00  0.00    -0.354 N 
ATOM     44  C   UNL     1       9.726   4.067   6.783  1.00  0.00     0.074 A 
ATOM     45  C   UNL     1       8.378   4.069   6.317  1.00  0.00     0.031 C 
ATOM     46  C   UNL     1      12.828   4.094   0.576  1.00  0.00     0.029 A 
ATOM     47  C   UNL     1      13.637   3.868   1.758  1.00  0.00     0.049 A 
ATOM     48  H   UNL     1      12.886   3.702   3.739  1.00  0.00     0.167 HD
ATOM     49  C   UNL     1      10.239   3.645   7.980  1.00  0.00     0.034 A 
ATOM     50  C   UNL     1      15.000   3.702   1.857  1.00  0.00     0.034 A 
ATOM     51  C   UNL     1      11.659   3.705   7.925  1.00  0.00     0.049 A 
ATOM     52  C   UNL     1      15.190   3.288   3.252  1.00  0.00     0.074 A 
ATOM     53  C   UNL     1      12.538   4.751   7.859  1.00  0.00     0.029 A 
ATOM     54  N   UNL     1      12.310   2.541   7.587  1.00  0.00    -0.354 N 
ATOM     55  N   UNL     1      14.898   2.112   3.712  1.00  0.00    -0.248 NA
ATOM     56  C   UNL     1      15.707   4.265   4.218  1.00  0.00     0.031 C 
ATOM     57  C   UNL     1      13.510   4.272   6.962  1.00  0.00     0.029 A 
ATOM     58  C   UNL     1      13.323   2.900   6.741  1.00  0.00     0.049 A 
ATOM     59  H   UNL     1      12.090   1.631   7.893  1.00  0.00     0.167 HD
ATOM     60  C   UNL     1      14.883   2.323   5.064  1.00  0.00     0.074 A 
ATOM     61  C   UNL     1      15.694   3.500   5.307  1.00  0.00     0.031 C 
ATOM     62  C   UNL     1      13.799   1.930   5.780  1.00  0.00     0.034 A 
BRANCH  49  63
ATOM     63  C   UNL     1       9.657   2.922   9.175  1.00  0.00     0.023 A 
ATOM     64  C   UNL     1      10.523   2.771  10.292  1.00  0.00     0.031 A 
ATOM     65  C   UNL     1       8.518   2.109   9.166  1.00  0.00     0.131 A 
ATOM     66  C   UNL     1      10.347   1.746  11.230  1.00  0.00     0.055 A 
ATOM     67  C   UNL     1       8.298   1.135  10.156  1.00  0.00     0.041 A 
ATOM     68  F   UNL     1       7.626   2.158   8.169  1.00  0.00    -0.206 F 
ATOM     69  C   UNL     1       9.235   0.918  11.167  1.00  0.00     0.022 A 
BRANCH  66  70
ATOM     70  S   UNL     1      11.707   1.401  12.386  1.00  0.00     0.124 S 
ATOM     71  O   UNL     1      12.835   1.208  11.481  1.00  0.00    -0.237 OA
ATOM     72  O   UNL     1      11.737   2.616  13.193  1.00  0.00    -0.237 OA
ATOM     73  O   UNL     1      11.259   0.200  13.087  1.00  0.00    -0.744 OA
ENDBRANCH  66  70
ENDBRANCH  49  63
BRANCH  50  74
ATOM     74  C   UNL     1      16.306   3.808   1.059  1.00  0.00     0.023 A 
ATOM     75  C   UNL     1      16.462   4.133  -0.300  1.00  0.00     0.031 A 
ATOM     76  C   UNL     1      17.550   3.662   1.767  1.00  0.00     0.131 A 
ATOM     77  C   UNL     1      17.768   4.374  -0.836  1.00  0.00     0.055 A 
ATOM     78  C   UNL     1      18.807   3.997   1.267  1.00  0.00     0.041 A 
ATOM     79  F   UNL     1      17.616   3.177   3.014  1.00  0.00    -0.206 F 
ATOM     80  C   UNL     1      18.921   4.374  -0.044  1.00  0.00     0.022 A 
BRANCH  77  81
ATOM     81  S   UNL     1      18.043   4.712  -2.604  1.00  0.00     0.124 S 
ATOM     82  O   UNL     1      18.258   3.371  -3.137  1.00  0.00    -0.237 OA
ATOM     83  O   UNL     1      16.809   5.375  -3.008  1.00  0.00    -0.237 OA
ATOM     84  O   UNL     1      19.228   5.571  -2.600  1.00  0.00    -0.744 OA
ENDBRANCH  77  81
ENDBRANCH  50  74
BRANCH  62  85
ATOM     85  C   UNL     1      13.014   0.766   5.174  1.00  0.00     0.023 A 
ATOM     86  C   UNL     1      13.672  -0.438   4.851  1.00  0.00     0.031 A 
ATOM     87  C   UNL     1      11.659   0.837   4.799  1.00  0.00     0.131 A 
ATOM     88  C   UNL     1      13.004  -1.475   4.165  1.00  0.00     0.055 A 
ATOM     89  C   UNL     1      10.990  -0.192   4.121  1.00  0.00     0.041 A 
ATOM     90  F   UNL     1      10.928   1.917   5.066  1.00  0.00    -0.206 F 
ATOM     91  C   UNL     1      11.665  -1.357   3.795  1.00  0.00     0.022 A 
BRANCH  88  92
ATOM     92  S   UNL     1      13.898  -3.006   3.779  1.00  0.00     0.124 S 
ATOM     93  O   UNL     1      14.838  -2.579   2.749  1.00  0.00    -0.237 OA
ATOM     94  O   UNL     1      14.480  -3.365   5.069  1.00  0.00    -0.237 OA
ATOM     95  O   UNL     1      12.843  -3.909   3.315  1.00  0.00    -0.744 OA
ENDBRANCH  88  92
ENDBRANCH  62  85
ENDBRANCH  36  37
ENDBRANCH  28  31
ENDBRANCH  26  27
ENDBRANCH  25  26
ENDBRANCH  24  25
ENDBRANCH   3  24
TORSDOF 19
