REMARK SMILES O=C(CCC(=O)Nc1ccc(N2CCN(c3ccc(F)cc3)CC2)cc1)NCCCNC(=O)c1ccc(-c2c3nc(c(-c4cc(S(=O)(=O)[O-])ccc4F)c4ccc([nH]4)c(-c4cc(S(=O)(=O)[O-])ccc4F)c4nc(c(-c5cc(S(=O)(=O)[O-])ccc5F)c5ccc2[nH]5)C=C4)C=C3)cc1
REMARK SMILES IDX 28 1 27 2 1 3 2 4 3 6 4 7 5 8 6 9 7 10 8 12 9 13 26 14 10 15
REMARK SMILES IDX 25 16 11 17 12 18 13 19 24 20 14 21 23 22 15 23 16 24 17 25
REMARK SMILES IDX 22 26 18 27 21 28 19 29 20 30 29 31 30 32 31 33 32 34 33 36
REMARK SMILES IDX 34 37 35 38 96 39 36 40 95 41 37 42 38 43 39 44 89 45 40 46
REMARK SMILES IDX 94 47 88 48 90 49 41 50 93 51 87 52 86 53 42 55 74 56 54 57
REMARK SMILES IDX 73 58 55 59 58 60 72 61 91 62 56 63 57 64 71 66 92 67 59 68
REMARK SMILES IDX 43 69 44 70 52 71 45 72 51 73 53 74 50 75 46 76 47 77 48 78
REMARK SMILES IDX 49 79 75 80 76 81 84 82 77 83 83 84 85 85 82 86 78 87 79 88
REMARK SMILES IDX 80 89 81 90 60 91 61 92 69 93 62 94 68 95 70 96 67 97 63 98
REMARK SMILES IDX 64 99 65 100 66 101
REMARK H PARENT 27 5 7 11 31 35 90 54 58 65
REMARK Flexibility Score: inf
ROOT
ATOM      1  C   UNL     1       2.264   0.955  -2.155  1.00  0.00     0.117 C 
ENDROOT
BRANCH   1   2
ATOM      2  N   UNL     1       3.181   0.985  -1.032  1.00  0.00    -0.356 N 
ATOM      3  O   UNL     1       1.585   1.216   0.615  1.00  0.00    -0.275 OA
ATOM      4  C   UNL     1       2.748   1.026   0.274  1.00  0.00     0.220 C 
ATOM      5  H   UNL     1       4.149   0.976  -1.210  1.00  0.00     0.163 HD
BRANCH   4   6
ATOM      6  C   UNL     1       3.834   0.728   1.283  1.00  0.00     0.110 C 
BRANCH   6   7
ATOM      7  C   UNL     1       4.004  -0.765   1.549  1.00  0.00     0.110 C 
BRANCH   7   8
ATOM      8  C   UNL     1       4.595  -1.520   0.381  1.00  0.00     0.224 C 
ATOM      9  O   UNL     1       5.823  -1.492   0.223  1.00  0.00    -0.275 OA
ATOM     10  N   UNL     1       3.879  -2.194  -0.558  1.00  0.00    -0.326 N 
ATOM     11  H   UNL     1       4.453  -2.727  -1.155  1.00  0.00     0.169 HD
BRANCH  10  12
ATOM     12  C   UNL     1       2.514  -2.314  -0.882  1.00  0.00     0.041 A 
ATOM     13  C   UNL     1       2.223  -2.840  -2.150  1.00  0.00     0.028 A 
ATOM     14  C   UNL     1       1.452  -1.848  -0.119  1.00  0.00     0.028 A 
ATOM     15  C   UNL     1       0.926  -2.764  -2.680  1.00  0.00     0.028 A 
ATOM     16  C   UNL     1       0.163  -1.754  -0.661  1.00  0.00     0.028 A 
ATOM     17  C   UNL     1      -0.113  -2.175  -1.959  1.00  0.00     0.037 A 
BRANCH  17  18
ATOM     18  N   UNL     1      -1.357  -2.026  -2.549  1.00  0.00    -0.368 N 
ATOM     19  C   UNL     1      -2.403  -2.977  -2.137  1.00  0.00     0.138 C 
ATOM     20  C   UNL     1      -1.843  -0.658  -2.839  1.00  0.00     0.138 C 
ATOM     21  C   UNL     1      -3.246  -2.425  -0.966  1.00  0.00     0.138 C 
ATOM     22  C   UNL     1      -2.798  -0.103  -1.753  1.00  0.00     0.138 C 
ATOM     23  N   UNL     1      -3.797  -1.097  -1.307  1.00  0.00    -0.368 N 
BRANCH  23  24
ATOM     24  C   UNL     1      -5.127  -1.042  -1.679  1.00  0.00     0.037 A 
ATOM     25  C   UNL     1      -6.115  -1.469  -0.773  1.00  0.00     0.029 A 
ATOM     26  C   UNL     1      -5.549  -0.602  -2.941  1.00  0.00     0.029 A 
ATOM     27  C   UNL     1      -7.468  -1.481  -1.116  1.00  0.00     0.041 A 
ATOM     28  C   UNL     1      -6.902  -0.623  -3.297  1.00  0.00     0.041 A 
ATOM     29  C   UNL     1      -7.848  -1.065  -2.382  1.00  0.00     0.123 A 
ATOM     30  F   UNL     1      -9.142  -1.094  -2.725  1.00  0.00    -0.207 F 
ENDBRANCH  23  24
ENDBRANCH  17  18
ENDBRANCH  10  12
ENDBRANCH   7   8
ENDBRANCH   6   7
ENDBRANCH   4   6
ENDBRANCH   1   2
BRANCH   1  31
ATOM     31  C   UNL     1       2.676   1.842  -3.312  1.00  0.00     0.042 C 
BRANCH  31  32
ATOM     32  C   UNL     1       4.081   1.598  -3.842  1.00  0.00     0.118 C 
BRANCH  32  33
ATOM     33  N   UNL     1       4.305   0.280  -4.429  1.00  0.00    -0.352 N 
ATOM     34  C   UNL     1       5.018  -0.029  -5.572  1.00  0.00     0.251 C 
ATOM     35  H   UNL     1       3.900  -0.480  -3.953  1.00  0.00     0.163 HD
ATOM     36  O   UNL     1       5.094  -1.190  -5.964  1.00  0.00    -0.269 OA
BRANCH  34  37
ATOM     37  C   UNL     1       5.625   1.077  -6.349  1.00  0.00     0.039 A 
ATOM     38  C   UNL     1       5.284   1.229  -7.695  1.00  0.00     0.014 A 
ATOM     39  C   UNL     1       6.393   2.046  -5.702  1.00  0.00     0.014 A 
ATOM     40  C   UNL     1       5.598   2.423  -8.354  1.00  0.00     0.010 A 
ATOM     41  C   UNL     1       6.612   3.268  -6.328  1.00  0.00     0.010 A 
ATOM     42  C   UNL     1       6.194   3.483  -7.653  1.00  0.00    -0.014 A 
BRANCH  42  43
ATOM     43  C   UNL     1       6.373   4.838  -8.249  1.00  0.00     0.031 A 
ATOM     44  C   UNL     1       7.747   5.453  -8.294  1.00  0.00     0.074 A 
ATOM     45  C   UNL     1       5.300   5.567  -8.624  1.00  0.00     0.049 A 
ATOM     46  N   UNL     1       8.098   6.688  -8.542  1.00  0.00    -0.248 NA
ATOM     47  C   UNL     1       8.868   4.562  -7.961  1.00  0.00     0.031 C 
ATOM     48  C   UNL     1       3.908   5.112  -8.592  1.00  0.00     0.029 A 
ATOM     49  N   UNL     1       5.211   6.859  -9.083  1.00  0.00    -0.354 N 
ATOM     50  C   UNL     1       9.475   6.735  -8.348  1.00  0.00     0.074 A 
ATOM     51  C   UNL     1       9.879   5.415  -7.910  1.00  0.00     0.031 C 
ATOM     52  C   UNL     1       3.110   6.099  -9.030  1.00  0.00     0.029 A 
ATOM     53  C   UNL     1       3.920   7.278  -9.319  1.00  0.00     0.049 A 
ATOM     54  H   UNL     1       5.997   7.433  -9.230  1.00  0.00     0.167 HD
ATOM     55  C   UNL     1      10.326   7.774  -8.536  1.00  0.00     0.034 A 
ATOM     56  C   UNL     1       3.439   8.479  -9.699  1.00  0.00     0.034 A 
ATOM     57  C   UNL     1       9.915   9.070  -9.017  1.00  0.00     0.049 A 
ATOM     58  C   UNL     1       4.404   9.616  -9.925  1.00  0.00     0.074 A 
ATOM     59  C   UNL     1      10.699  10.175  -9.298  1.00  0.00     0.029 A 
ATOM     60  N   UNL     1       8.604   9.434  -9.298  1.00  0.00    -0.354 N 
ATOM     61  N   UNL     1       5.705   9.639  -9.754  1.00  0.00    -0.248 NA
ATOM     62  C   UNL     1       3.837  10.886 -10.400  1.00  0.00     0.031 C 
ATOM     63  C   UNL     1       9.860  11.219  -9.704  1.00  0.00     0.029 A 
ATOM     64  C   UNL     1       8.558  10.747  -9.738  1.00  0.00     0.049 A 
ATOM     65  H   UNL     1       7.821   8.844  -9.198  1.00  0.00     0.167 HD
ATOM     66  C   UNL     1       6.115  10.913 -10.137  1.00  0.00     0.074 A 
ATOM     67  C   UNL     1       4.925  11.628 -10.548  1.00  0.00     0.031 C 
ATOM     68  C   UNL     1       7.364  11.442 -10.155  1.00  0.00     0.034 A 
BRANCH  55  69
ATOM     69  C   UNL     1      11.779   7.547  -8.195  1.00  0.00     0.023 A 
ATOM     70  C   UNL     1      12.553   6.588  -8.871  1.00  0.00     0.031 A 
ATOM     71  C   UNL     1      12.386   8.263  -7.148  1.00  0.00     0.131 A 
ATOM     72  C   UNL     1      13.854   6.302  -8.432  1.00  0.00     0.055 A 
ATOM     73  C   UNL     1      13.713   8.038  -6.776  1.00  0.00     0.041 A 
ATOM     74  F   UNL     1      11.694   9.179  -6.454  1.00  0.00    -0.206 F 
ATOM     75  C   UNL     1      14.450   7.039  -7.407  1.00  0.00     0.022 A 
BRANCH  72  76
ATOM     76  S   UNL     1      14.691   4.846  -9.114  1.00  0.00     0.124 S 
ATOM     77  O   UNL     1      13.776   3.774  -8.727  1.00  0.00    -0.237 OA
ATOM     78  O   UNL     1      14.750   5.152 -10.538  1.00  0.00    -0.237 OA
ATOM     79  O   UNL     1      15.979   4.836  -8.422  1.00  0.00    -0.744 OA
ENDBRANCH  72  76
ENDBRANCH  55  69
BRANCH  56  80
ATOM     80  C   UNL     1       1.974   8.686  -9.882  1.00  0.00     0.023 A 
ATOM     81  C   UNL     1       1.437   8.947 -11.153  1.00  0.00     0.031 A 
ATOM     82  C   UNL     1       1.094   8.668  -8.785  1.00  0.00     0.131 A 
ATOM     83  C   UNL     1       0.068   9.226 -11.291  1.00  0.00     0.055 A 
ATOM     84  C   UNL     1      -0.275   8.899  -8.934  1.00  0.00     0.041 A 
ATOM     85  F   UNL     1       1.555   8.415  -7.550  1.00  0.00    -0.206 F 
ATOM     86  C   UNL     1      -0.793   9.193 -10.192  1.00  0.00     0.022 A 
BRANCH  83  87
ATOM     87  S   UNL     1      -0.558   9.711 -12.923  1.00  0.00     0.124 S 
ATOM     88  O   UNL     1       0.244  10.895 -13.209  1.00  0.00    -0.237 OA
ATOM     89  O   UNL     1      -0.264   8.527 -13.723  1.00  0.00    -0.237 OA
ATOM     90  O   UNL     1      -1.978   9.961 -12.681  1.00  0.00    -0.744 OA
ENDBRANCH  83  87
ENDBRANCH  56  80
BRANCH  68  91
ATOM     91  C   UNL     1       7.514  12.836 -10.707  1.00  0.00     0.023 A 
ATOM     92  C   UNL     1       7.043  13.965 -10.018  1.00  0.00     0.031 A 
ATOM     93  C   UNL     1       8.153  13.030 -11.945  1.00  0.00     0.131 A 
ATOM     94  C   UNL     1       7.183  15.239 -10.591  1.00  0.00     0.055 A 
ATOM     95  C   UNL     1       8.331  14.302 -12.488  1.00  0.00     0.041 A 
ATOM     96  F   UNL     1       8.620  11.982 -12.643  1.00  0.00    -0.206 F 
ATOM     97  C   UNL     1       7.836  15.415 -11.814  1.00  0.00     0.022 A 
BRANCH  94  98
ATOM     98  S   UNL     1       6.446  16.664  -9.744  1.00  0.00     0.124 S 
ATOM     99  O   UNL     1       5.031  16.305  -9.722  1.00  0.00    -0.237 OA
ATOM    100  O   UNL     1       7.128  16.649  -8.454  1.00  0.00    -0.237 OA
ATOM    101  O   UNL     1       6.786  17.791 -10.610  1.00  0.00    -0.744 OA
ENDBRANCH  94  98
ENDBRANCH  68  91
ENDBRANCH  42  43
ENDBRANCH  34  37
ENDBRANCH  32  33
ENDBRANCH  31  32
ENDBRANCH   1  31
TORSDOF 18
