REMARK SMILES C[C@H](C(=O)NCCCNC(=O)c1ccc(-c2c3nc(c(-c4cc(S(=O)(=O)[O-])ccc4F)c4ccc([nH]4)c(-c4cc(S(=O)(=O)[O-])ccc4F)c4nc(c(-c5cc(S(=O)(=O)[O-])ccc5F)c5ccc2[nH]5)C=C4)C=C3)cc1)c1ccc2c3cc(Cl)ccc3n(C(=O)c3cocn3)c2c1
REMARK SMILES IDX 7 1 6 2 5 3 3 4 4 5 2 7 1 8 75 9 76 10 95 11 77 12 94 13
REMARK SMILES IDX 78 14 86 15 79 16 85 17 80 18 84 19 81 20 83 21 82 22 87 23
REMARK SMILES IDX 88 24 89 25 90 26 93 27 91 28 92 29 8 30 9 31 10 32 11 34
REMARK SMILES IDX 12 35 13 36 74 37 14 38 73 39 15 40 16 41 17 42 67 43 18 44
REMARK SMILES IDX 72 45 66 46 68 47 19 48 71 49 65 50 64 51 20 53 52 54 32 55
REMARK SMILES IDX 51 56 33 57 36 58 50 59 69 60 34 61 35 62 49 64 70 65 37 66
REMARK SMILES IDX 21 67 22 68 30 69 23 70 29 71 31 72 28 73 24 74 25 75 26 76
REMARK SMILES IDX 27 77 53 78 54 79 62 80 55 81 61 82 63 83 60 84 56 85 57 86
REMARK SMILES IDX 58 87 59 88 38 89 39 90 47 91 40 92 46 93 48 94 45 95 41 96
REMARK SMILES IDX 42 97 43 98 44 99
REMARK H PARENT 5 6 9 33 68 52 36 63
REMARK Flexibility Score: inf
ROOT
ATOM      1  C   UNL     1      -1.547   1.650   1.868  1.00  0.00     0.042 C 
ENDROOT
BRANCH   1   2
ATOM      2  C   UNL     1      -1.060   0.937   0.623  1.00  0.00     0.117 C 
BRANCH   2   3
ATOM      3  N   UNL     1       0.383   0.882   0.462  1.00  0.00    -0.356 N 
ATOM      4  C   UNL     1       1.154   0.056  -0.299  1.00  0.00     0.227 C 
ATOM      5  O   UNL     1       2.321   0.429  -0.483  1.00  0.00    -0.274 OA
ATOM      6  H   UNL     1       0.883   1.549   0.985  1.00  0.00     0.163 HD
BRANCH   4   7
ATOM      7  C   UNL     1       0.724  -1.331  -0.813  1.00  0.00     0.105 C 
ATOM      8  C   UNL     1       1.325  -2.349   0.172  1.00  0.00     0.023 C 
BRANCH   7   9
ATOM      9  C   UNL     1      -0.753  -1.534  -1.135  1.00  0.00    -0.034 A 
ATOM     10  C   UNL     1      -1.401  -0.663  -2.021  1.00  0.00     0.005 A 
ATOM     11  C   UNL     1      -1.509  -2.538  -0.505  1.00  0.00     0.032 A 
ATOM     12  C   UNL     1      -2.800  -0.649  -2.126  1.00  0.00     0.011 A 
ATOM     13  C   UNL     1      -2.912  -2.527  -0.619  1.00  0.00     0.058 A 
ATOM     14  C   UNL     1      -3.569  -1.563  -1.376  1.00  0.00     0.008 A 
ATOM     15  N   UNL     1      -3.873  -3.393  -0.093  1.00  0.00    -0.274 N 
ATOM     16  C   UNL     1      -4.963  -1.704  -1.115  1.00  0.00     0.009 A 
ATOM     17  C   UNL     1      -5.135  -2.828  -0.298  1.00  0.00     0.057 A 
ATOM     18  C   UNL     1      -6.087  -0.920  -1.456  1.00  0.00     0.031 A 
ATOM     19  C   UNL     1      -6.400  -3.166   0.223  1.00  0.00     0.029 A 
ATOM     20  C   UNL     1      -7.339  -1.256  -0.939  1.00  0.00     0.041 A 
ATOM     21  C   UNL     1      -7.495  -2.360  -0.110  1.00  0.00     0.023 A 
ATOM     22  Cl  UNL     1      -8.698  -0.265  -1.304  1.00  0.00    -0.084 Cl
BRANCH  15  23
ATOM     23  C   UNL     1      -3.579  -4.613   0.562  1.00  0.00     0.284 C 
ATOM     24  O   UNL     1      -2.584  -4.610   1.292  1.00  0.00    -0.266 OA
BRANCH  23  25
ATOM     25  C   UNL     1      -4.319  -5.851   0.329  1.00  0.00     0.167 A 
ATOM     26  C   UNL     1      -5.230  -6.139  -0.666  1.00  0.00     0.231 A 
ATOM     27  N   UNL     1      -4.082  -7.013   1.052  1.00  0.00    -0.211 NA
ATOM     28  O   UNL     1      -5.574  -7.455  -0.572  1.00  0.00    -0.451 OA
ATOM     29  C   UNL     1      -4.840  -7.914   0.475  1.00  0.00     0.308 A 
ENDBRANCH  23  25
ENDBRANCH  15  23
ENDBRANCH   7   9
ENDBRANCH   4   7
ENDBRANCH   2   3
ENDBRANCH   1   2
BRANCH   1  30
ATOM     30  C   UNL     1      -1.083   3.087   2.026  1.00  0.00     0.118 C 
BRANCH  30  31
ATOM     31  N   UNL     1      -1.605   4.000   1.018  1.00  0.00    -0.352 N 
ATOM     32  C   UNL     1      -2.501   5.043   1.105  1.00  0.00     0.251 C 
ATOM     33  H   UNL     1      -1.255   3.844   0.112  1.00  0.00     0.163 HD
ATOM     34  O   UNL     1      -2.853   5.603   0.069  1.00  0.00    -0.269 OA
BRANCH  32  35
ATOM     35  C   UNL     1      -3.080   5.466   2.405  1.00  0.00     0.039 A 
ATOM     36  C   UNL     1      -4.403   5.920   2.446  1.00  0.00     0.014 A 
ATOM     37  C   UNL     1      -2.341   5.436   3.585  1.00  0.00     0.014 A 
ATOM     38  C   UNL     1      -4.994   6.255   3.671  1.00  0.00     0.010 A 
ATOM     39  C   UNL     1      -2.969   5.622   4.812  1.00  0.00     0.010 A 
ATOM     40  C   UNL     1      -4.297   6.064   4.874  1.00  0.00    -0.014 A 
BRANCH  40  41
ATOM     41  C   UNL     1      -4.900   6.378   6.200  1.00  0.00     0.031 A 
ATOM     42  C   UNL     1      -4.216   7.361   7.121  1.00  0.00     0.074 A 
ATOM     43  C   UNL     1      -6.012   5.736   6.612  1.00  0.00     0.049 A 
ATOM     44  N   UNL     1      -4.500   7.682   8.358  1.00  0.00    -0.248 NA
ATOM     45  C   UNL     1      -3.015   8.030   6.595  1.00  0.00     0.031 C 
ATOM     46  C   UNL     1      -6.735   4.715   5.848  1.00  0.00     0.029 A 
ATOM     47  N   UNL     1      -6.727   5.839   7.779  1.00  0.00    -0.354 N 
ATOM     48  C   UNL     1      -3.497   8.559   8.763  1.00  0.00     0.074 A 
ATOM     49  C   UNL     1      -2.551   8.642   7.672  1.00  0.00     0.031 C 
ATOM     50  C   UNL     1      -7.806   4.314   6.551  1.00  0.00     0.029 A 
ATOM     51  C   UNL     1      -7.826   5.012   7.832  1.00  0.00     0.049 A 
ATOM     52  H   UNL     1      -6.477   6.448   8.511  1.00  0.00     0.167 HD
ATOM     53  C   UNL     1      -3.392   9.264   9.917  1.00  0.00     0.034 A 
ATOM     54  C   UNL     1      -8.743   4.833   8.805  1.00  0.00     0.034 A 
ATOM     55  C   UNL     1      -4.366   9.202  10.978  1.00  0.00     0.049 A 
ATOM     56  C   UNL     1      -8.630   5.650  10.067  1.00  0.00     0.074 A 
ATOM     57  C   UNL     1      -4.395   9.906  12.169  1.00  0.00     0.029 A 
ATOM     58  N   UNL     1      -5.495   8.392  10.970  1.00  0.00    -0.354 N 
ATOM     59  N   UNL     1      -7.699   6.508  10.416  1.00  0.00    -0.248 NA
ATOM     60  C   UNL     1      -9.704   5.491  11.055  1.00  0.00     0.031 C 
ATOM     61  C   UNL     1      -5.509   9.483  12.903  1.00  0.00     0.029 A 
ATOM     62  C   UNL     1      -6.219   8.570  12.139  1.00  0.00     0.049 A 
ATOM     63  H   UNL     1      -5.745   7.780  10.240  1.00  0.00     0.167 HD
ATOM     64  C   UNL     1      -8.094   7.014  11.651  1.00  0.00     0.074 A 
ATOM     65  C   UNL     1      -9.355   6.378  11.974  1.00  0.00     0.031 C 
ATOM     66  C   UNL     1      -7.473   7.924  12.447  1.00  0.00     0.034 A 
BRANCH  53  67
ATOM     67  C   UNL     1      -2.176  10.150  10.079  1.00  0.00     0.023 A 
ATOM     68  C   UNL     1      -1.908  11.203   9.184  1.00  0.00     0.031 A 
ATOM     69  C   UNL     1      -1.242   9.909  11.101  1.00  0.00     0.131 A 
ATOM     70  C   UNL     1      -0.694  11.901   9.262  1.00  0.00     0.055 A 
ATOM     71  C   UNL     1      -0.080  10.674  11.234  1.00  0.00     0.041 A 
ATOM     72  F   UNL     1      -1.428   8.909  11.977  1.00  0.00    -0.206 F 
ATOM     73  C   UNL     1       0.210  11.664  10.299  1.00  0.00     0.022 A 
BRANCH  70  74
ATOM     74  S   UNL     1      -0.239  12.997   7.890  1.00  0.00     0.124 S 
ATOM     75  O   UNL     1      -0.230  12.066   6.763  1.00  0.00    -0.237 OA
ATOM     76  O   UNL     1      -1.316  13.979   7.899  1.00  0.00    -0.237 OA
ATOM     77  O   UNL     1       1.075  13.505   8.278  1.00  0.00    -0.744 OA
ENDBRANCH  70  74
ENDBRANCH  53  67
BRANCH  54  78
ATOM     78  C   UNL     1      -9.852   3.851   8.625  1.00  0.00     0.023 A 
ATOM     79  C   UNL     1     -11.188   4.274   8.540  1.00  0.00     0.031 A 
ATOM     80  C   UNL     1      -9.593   2.470   8.568  1.00  0.00     0.131 A 
ATOM     81  C   UNL     1     -12.219   3.325   8.449  1.00  0.00     0.055 A 
ATOM     82  C   UNL     1     -10.618   1.533   8.426  1.00  0.00     0.041 A 
ATOM     83  F   UNL     1      -8.333   2.012   8.635  1.00  0.00    -0.206 F 
ATOM     84  C   UNL     1     -11.942   1.958   8.379  1.00  0.00     0.022 A 
BRANCH  81  85
ATOM     85  S   UNL     1     -13.939   3.902   8.502  1.00  0.00     0.124 S 
ATOM     86  O   UNL     1     -13.979   4.601   9.781  1.00  0.00    -0.237 OA
ATOM     87  O   UNL     1     -14.014   4.739   7.310  1.00  0.00    -0.237 OA
ATOM     88  O   UNL     1     -14.714   2.664   8.443  1.00  0.00    -0.744 OA
ENDBRANCH  81  85
ENDBRANCH  54  78
BRANCH  66  89
ATOM     89  C   UNL     1      -8.185   8.320  13.717  1.00  0.00     0.023 A 
ATOM     90  C   UNL     1      -8.393   7.408  14.767  1.00  0.00     0.031 A 
ATOM     91  C   UNL     1      -8.681   9.628  13.869  1.00  0.00     0.131 A 
ATOM     92  C   UNL     1      -9.134   7.797  15.892  1.00  0.00     0.055 A 
ATOM     93  C   UNL     1      -9.361  10.027  15.019  1.00  0.00     0.041 A 
ATOM     94  F   UNL     1      -8.511  10.540  12.898  1.00  0.00    -0.206 F 
ATOM     95  C   UNL     1      -9.605   9.105  16.033  1.00  0.00     0.022 A 
BRANCH  92  96
ATOM     96  S   UNL     1      -9.569   6.538  17.124  1.00  0.00     0.124 S 
ATOM     97  O   UNL     1     -10.267   5.546  16.311  1.00  0.00    -0.237 OA
ATOM     98  O   UNL     1      -8.262   6.138  17.635  1.00  0.00    -0.237 OA
ATOM     99  O   UNL     1     -10.411   7.264  18.073  1.00  0.00    -0.744 OA
ENDBRANCH  92  96
ENDBRANCH  66  89
ENDBRANCH  40  41
ENDBRANCH  32  35
ENDBRANCH  30  31
ENDBRANCH   1  30
TORSDOF 16
