REMARK SMILES C[C@@]1(O)CC(NCCCNC(=O)c2ccc(-c3c4nc(c(-c5cc(S(=O)(=O)[O-])ccc5F)c5ccc([nH]5)c(-c5cc(S(=O)(=O)[O-])ccc5F)c5nc(c(-c6cc(S(=O)(=O)[O-])ccc6F)c6ccc3[nH]6)C=C5)C=C4)cc2)=C(C(=O)Nc2ccccc2)[C@H](c2ccccc2C(=O)[O-])[C@@H]1C(=O)Nc1ccccc1
REMARK SMILES IDX 8 1 7 2 6 3 5 5 1 6 2 7 4 8 96 9 86 10 76 11 3 12 97 14
REMARK SMILES IDX 98 15 99 16 100 18 101 19 105 20 102 21 104 22 103 23 87 24
REMARK SMILES IDX 88 25 92 26 89 27 91 28 90 29 93 30 94 31 95 32 77 33 78 34
REMARK SMILES IDX 79 35 80 37 81 38 85 39 82 40 84 41 83 42 9 43 10 44 11 45
REMARK SMILES IDX 12 47 13 48 14 49 75 50 15 51 74 52 16 53 17 54 18 55 68 56
REMARK SMILES IDX 19 57 73 58 67 59 69 60 20 61 72 62 66 63 65 64 21 66 53 67
REMARK SMILES IDX 33 68 52 69 34 70 37 71 51 72 70 73 35 74 36 75 50 77 71 78
REMARK SMILES IDX 38 79 22 80 23 81 31 82 24 83 30 84 32 85 29 86 25 87 26 88
REMARK SMILES IDX 27 89 28 90 54 91 55 92 63 93 56 94 62 95 64 96 61 97 57 98
REMARK SMILES IDX 58 99 59 100 60 101 39 102 40 103 48 104 41 105 47 106
REMARK SMILES IDX 49 107 46 108 42 109 43 110 44 111 45 112
REMARK H PARENT 6 4 3 13 99 17 79 36 10 46 69 65 37 76
REMARK Flexibility Score: inf
ROOT
ATOM      1  C   UNL     1      -0.521  -1.285  -5.131  1.00  0.00     0.042 C 
ENDROOT
BRANCH   1   2
ATOM      2  C   UNL     1      -1.171  -1.900  -3.910  1.00  0.00     0.114 C 
BRANCH   2   3
ATOM      3  N   UNL     1      -0.238  -2.753  -3.164  1.00  0.00    -0.388 N 
ATOM      4  H   UNL     1       0.186  -3.498  -3.647  1.00  0.00     0.160 HD
BRANCH   3   5
ATOM      5  C   UNL     1       0.092  -2.583  -1.814  1.00  0.00     0.023 C 
ATOM      6  C   UNL     1       1.990  -0.327  -0.158  1.00  0.00     0.043 C 
ATOM      7  C   UNL     1       0.502  -0.696  -0.090  1.00  0.00     0.080 C 
ATOM      8  C   UNL     1      -0.013  -1.127  -1.431  1.00  0.00     0.089 C 
ATOM      9  C   UNL     1       0.164  -1.752   0.988  1.00  0.00     0.123 C 
ATOM     10  C   UNL     1       0.259  -3.296   0.638  1.00  0.00     0.073 C 
ATOM     11  C   UNL     1       0.368  -3.581  -0.908  1.00  0.00     0.045 C 
BRANCH   7  12
ATOM     12  O   UNL     1      -0.117   0.584   0.194  1.00  0.00    -0.389 OA
ATOM     13  H   UNL     1       0.118   1.218  -0.502  1.00  0.00     0.211 HD
ENDBRANCH   7  12
BRANCH   9  14
ATOM     14  C   UNL     1      -1.001  -1.232   1.809  1.00  0.00     0.231 C 
ATOM     15  O   UNL     1      -0.727  -0.612   2.854  1.00  0.00    -0.274 OA
ATOM     16  N   UNL     1      -2.312  -1.218   1.483  1.00  0.00    -0.326 N 
ATOM     17  H   UNL     1      -2.837  -0.756   2.176  1.00  0.00     0.169 HD
BRANCH  16  18
ATOM     18  C   UNL     1      -3.145  -1.668   0.450  1.00  0.00     0.041 A 
ATOM     19  C   UNL     1      -4.397  -1.059   0.361  1.00  0.00     0.026 A 
ATOM     20  C   UNL     1      -2.861  -2.652  -0.479  1.00  0.00     0.026 A 
ATOM     21  C   UNL     1      -5.290  -1.387  -0.665  1.00  0.00     0.002 A 
ATOM     22  C   UNL     1      -3.746  -3.011  -1.497  1.00  0.00     0.002 A 
ATOM     23  C   UNL     1      -4.961  -2.361  -1.603  1.00  0.00     0.000 A 
ENDBRANCH  16  18
ENDBRANCH   9  14
BRANCH  10  24
ATOM     24  C   UNL     1      -0.741  -4.240   1.480  1.00  0.00    -0.030 A 
ATOM     25  C   UNL     1      -1.385  -5.338   0.839  1.00  0.00     0.005 A 
ATOM     26  C   UNL     1      -1.004  -4.163   2.883  1.00  0.00     0.001 A 
ATOM     27  C   UNL     1      -2.195  -6.274   1.506  1.00  0.00     0.000 A 
ATOM     28  C   UNL     1      -1.863  -5.088   3.533  1.00  0.00     0.010 A 
ATOM     29  C   UNL     1      -2.443  -6.146   2.857  1.00  0.00     0.001 A 
BRANCH  26  30
ATOM     30  C   UNL     1      -0.504  -3.173   3.857  1.00  0.00     0.072 C 
ATOM     31  O   UNL     1      -1.171  -2.692   4.761  1.00  0.00    -0.545 OA
ATOM     32  O   UNL     1       0.784  -2.862   3.685  1.00  0.00    -0.545 OA
ENDBRANCH  26  30
ENDBRANCH  10  24
BRANCH  11  33
ATOM     33  C   UNL     1       0.574  -4.959  -1.548  1.00  0.00     0.253 C 
ATOM     34  O   UNL     1      -0.072  -5.221  -2.583  1.00  0.00    -0.269 OA
ATOM     35  N   UNL     1       1.404  -5.983  -1.211  1.00  0.00    -0.322 N 
ATOM     36  H   UNL     1       1.613  -6.511  -2.015  1.00  0.00     0.170 HD
BRANCH  35  37
ATOM     37  C   UNL     1       2.064  -6.540  -0.103  1.00  0.00     0.041 A 
ATOM     38  C   UNL     1       2.881  -7.661  -0.324  1.00  0.00     0.026 A 
ATOM     39  C   UNL     1       1.864  -6.174   1.212  1.00  0.00     0.026 A 
ATOM     40  C   UNL     1       3.467  -8.356   0.748  1.00  0.00     0.002 A 
ATOM     41  C   UNL     1       2.421  -6.861   2.289  1.00  0.00     0.002 A 
ATOM     42  C   UNL     1       3.232  -7.955   2.059  1.00  0.00     0.000 A 
ENDBRANCH  35  37
ENDBRANCH  11  33
ENDBRANCH   3   5
ENDBRANCH   2   3
ENDBRANCH   1   2
BRANCH   1  43
ATOM     43  C   UNL     1      -0.728  -2.153  -6.354  1.00  0.00     0.118 C 
BRANCH  43  44
ATOM     44  N   UNL     1      -2.135  -2.215  -6.751  1.00  0.00    -0.352 N 
ATOM     45  C   UNL     1      -2.702  -2.023  -7.986  1.00  0.00     0.251 C 
ATOM     46  H   UNL     1      -2.768  -2.425  -6.027  1.00  0.00     0.163 HD
ATOM     47  O   UNL     1      -3.922  -1.941  -8.093  1.00  0.00    -0.269 OA
BRANCH  45  48
ATOM     48  C   UNL     1      -1.826  -1.883  -9.164  1.00  0.00     0.039 A 
ATOM     49  C   UNL     1      -2.107  -0.898 -10.110  1.00  0.00     0.014 A 
ATOM     50  C   UNL     1      -0.699  -2.697  -9.301  1.00  0.00     0.014 A 
ATOM     51  C   UNL     1      -1.213  -0.683 -11.159  1.00  0.00     0.010 A 
ATOM     52  C   UNL     1       0.244  -2.405 -10.274  1.00  0.00     0.010 A 
ATOM     53  C   UNL     1      -0.010  -1.406 -11.223  1.00  0.00    -0.014 A 
BRANCH  53  54
ATOM     54  C   UNL     1       0.990  -1.157 -12.289  1.00  0.00     0.031 A 
ATOM     55  C   UNL     1       1.355  -2.270 -13.234  1.00  0.00     0.074 A 
ATOM     56  C   UNL     1       1.614   0.036 -12.353  1.00  0.00     0.049 A 
ATOM     57  N   UNL     1       2.262  -2.290 -14.175  1.00  0.00    -0.248 NA
ATOM     58  C   UNL     1       0.629  -3.541 -13.075  1.00  0.00     0.031 C 
ATOM     59  C   UNL     1       1.370   1.169 -11.456  1.00  0.00     0.029 A 
ATOM     60  N   UNL     1       2.586   0.495 -13.206  1.00  0.00    -0.354 N 
ATOM     61  C   UNL     1       2.233  -3.578 -14.700  1.00  0.00     0.074 A 
ATOM     62  C   UNL     1       1.264  -4.326 -13.932  1.00  0.00     0.031 C 
ATOM     63  C   UNL     1       2.144   2.201 -11.830  1.00  0.00     0.029 A 
ATOM     64  C   UNL     1       2.979   1.789 -12.953  1.00  0.00     0.049 A 
ATOM     65  H   UNL     1       2.966  -0.051 -13.931  1.00  0.00     0.167 HD
ATOM     66  C   UNL     1       2.936  -4.080 -15.743  1.00  0.00     0.034 A 
ATOM     67  C   UNL     1       3.917   2.550 -13.552  1.00  0.00     0.034 A 
ATOM     68  C   UNL     1       3.874  -3.305 -16.514  1.00  0.00     0.049 A 
ATOM     69  C   UNL     1       4.697   1.958 -14.701  1.00  0.00     0.074 A 
ATOM     70  C   UNL     1       4.580  -3.684 -17.642  1.00  0.00     0.029 A 
ATOM     71  N   UNL     1       4.247  -1.997 -16.231  1.00  0.00    -0.354 N 
ATOM     72  N   UNL     1       4.604   0.760 -15.234  1.00  0.00    -0.248 NA
ATOM     73  C   UNL     1       5.699   2.822 -15.336  1.00  0.00     0.031 C 
ATOM     74  C   UNL     1       5.438  -2.637 -17.991  1.00  0.00     0.029 A 
ATOM     75  C   UNL     1       5.203  -1.570 -17.138  1.00  0.00     0.049 A 
ATOM     76  H   UNL     1       3.884  -1.453 -15.495  1.00  0.00     0.167 HD
ATOM     77  C   UNL     1       5.509   0.745 -16.292  1.00  0.00     0.074 A 
ATOM     78  C   UNL     1       6.123   2.056 -16.330  1.00  0.00     0.031 C 
ATOM     79  C   UNL     1       5.805  -0.257 -17.158  1.00  0.00     0.034 A 
BRANCH  66  80
ATOM     80  C   UNL     1       2.738  -5.536 -16.089  1.00  0.00     0.023 A 
ATOM     81  C   UNL     1       1.498  -6.040 -16.518  1.00  0.00     0.031 A 
ATOM     82  C   UNL     1       3.812  -6.438 -15.982  1.00  0.00     0.131 A 
ATOM     83  C   UNL     1       1.345  -7.413 -16.762  1.00  0.00     0.055 A 
ATOM     84  C   UNL     1       3.675  -7.789 -16.306  1.00  0.00     0.041 A 
ATOM     85  F   UNL     1       5.014  -6.022 -15.553  1.00  0.00    -0.206 F 
ATOM     86  C   UNL     1       2.433  -8.287 -16.686  1.00  0.00     0.022 A 
BRANCH  83  87
ATOM     87  S   UNL     1      -0.322  -8.064 -17.052  1.00  0.00     0.124 S 
ATOM     88  O   UNL     1      -1.007  -7.682 -15.819  1.00  0.00    -0.237 OA
ATOM     89  O   UNL     1      -0.733  -7.354 -18.258  1.00  0.00    -0.237 OA
ATOM     90  O   UNL     1      -0.106  -9.500 -17.216  1.00  0.00    -0.744 OA
ENDBRANCH  83  87
ENDBRANCH  66  80
BRANCH  67  91
ATOM     91  C   UNL     1       4.188   3.942 -13.087  1.00  0.00     0.023 A 
ATOM     92  C   UNL     1       4.002   5.037 -13.947  1.00  0.00     0.031 A 
ATOM     93  C   UNL     1       4.704   4.196 -11.804  1.00  0.00     0.131 A 
ATOM     94  C   UNL     1       4.392   6.322 -13.540  1.00  0.00     0.055 A 
ATOM     95  C   UNL     1       5.027   5.486 -11.380  1.00  0.00     0.041 A 
ATOM     96  F   UNL     1       4.901   3.189 -10.938  1.00  0.00    -0.206 F 
ATOM     97  C   UNL     1       4.890   6.557 -12.257  1.00  0.00     0.022 A 
BRANCH  94  98
ATOM     98  S   UNL     1       4.356   7.663 -14.761  1.00  0.00     0.124 S 
ATOM     99  O   UNL     1       5.193   7.119 -15.824  1.00  0.00    -0.237 OA
ATOM    100  O   UNL     1       2.930   7.766 -15.055  1.00  0.00    -0.237 OA
ATOM    101  O   UNL     1       4.925   8.797 -14.036  1.00  0.00    -0.744 OA
ENDBRANCH  94  98
ENDBRANCH  67  91
BRANCH  79 102
ATOM    102  C   UNL     1       6.796   0.051 -18.254  1.00  0.00     0.023 A 
ATOM    103  C   UNL     1       8.145   0.331 -17.977  1.00  0.00     0.031 A 
ATOM    104  C   UNL     1       6.378   0.067 -19.597  1.00  0.00     0.131 A 
ATOM    105  C   UNL     1       9.015   0.673 -19.023  1.00  0.00     0.055 A 
ATOM    106  C   UNL     1       7.263   0.340 -20.639  1.00  0.00     0.041 A 
ATOM    107  F   UNL     1       5.100  -0.190 -19.918  1.00  0.00    -0.206 F 
ATOM    108  C   UNL     1       8.587   0.660 -20.354  1.00  0.00     0.022 A 
BRANCH 105 109
ATOM    109  S   UNL     1      10.690   1.233 -18.614  1.00  0.00     0.124 S 
ATOM    110  O   UNL     1      10.425   2.385 -17.759  1.00  0.00    -0.237 OA
ATOM    111  O   UNL     1      11.257   0.063 -17.950  1.00  0.00    -0.237 OA
ATOM    112  O   UNL     1      11.274   1.548 -19.916  1.00  0.00    -0.744 OA
ENDBRANCH 105 109
ENDBRANCH  79 102
ENDBRANCH  53  54
ENDBRANCH  45  48
ENDBRANCH  43  44
ENDBRANCH   1  43
TORSDOF 20
