REMARK SMILES C[C@@H](C(=O)NCCCNC(=O)c1ccc(-c2c3nc(c(-c4cc(S(=O)(=O)[O-])ccc4F)c4ccc([nH]4)c(-c4cc(S(=O)(=O)[O-])ccc4F)c4nc(c(-c5cc(S(=O)(=O)[O-])ccc5F)c5ccc2[nH]5)C=C4)C=C3)cc1)[C@H](C)[N@@H+]1C[C@H]2C[NH2+]C[C@@H]2[C@@H]1C
REMARK SMILES IDX 7 1 6 2 5 3 3 4 4 5 2 7 1 8 75 9 76 10 77 11 78 12 84 13
REMARK SMILES IDX 79 15 83 16 85 17 80 18 82 19 81 20 8 23 9 24 10 25 11 27
REMARK SMILES IDX 12 28 13 29 74 30 14 31 73 32 15 33 16 34 17 35 67 36 18 37
REMARK SMILES IDX 72 38 66 39 68 40 19 41 71 42 65 43 64 44 20 46 52 47 32 48
REMARK SMILES IDX 51 49 33 50 36 51 50 52 69 53 34 54 35 55 49 57 70 58 37 59
REMARK SMILES IDX 21 60 22 61 30 62 23 63 29 64 31 65 28 66 24 67 25 68 26 69
REMARK SMILES IDX 27 70 53 71 54 72 62 73 55 74 61 75 63 76 60 77 56 78 57 79
REMARK SMILES IDX 58 80 59 81 38 82 39 83 47 84 40 85 46 86 48 87 45 88 41 89
REMARK SMILES IDX 42 90 43 91 44 92
REMARK H PARENT 5 6 77 14 81 21 81 22 9 26 68 45 36 56
REMARK Flexibility Score: inf
ROOT
ATOM      1  C   UNL     1      -3.488  -1.278   4.172  1.00  0.00     0.042 C 
ENDROOT
BRANCH   1   2
ATOM      2  C   UNL     1      -2.305  -1.469   3.220  1.00  0.00     0.117 C 
BRANCH   2   3
ATOM      3  N   UNL     1      -2.662  -1.269   1.824  1.00  0.00    -0.356 N 
ATOM      4  C   UNL     1      -2.375  -0.245   0.962  1.00  0.00     0.228 C 
ATOM      5  O   UNL     1      -2.754  -0.389  -0.202  1.00  0.00    -0.275 OA
ATOM      6  H   UNL     1      -3.202  -1.993   1.433  1.00  0.00     0.163 HD
BRANCH   4   7
ATOM      7  C   UNL     1      -1.595   0.991   1.450  1.00  0.00     0.133 C 
ATOM      8  C   UNL     1      -2.414   1.732   2.500  1.00  0.00     0.024 C 
BRANCH   7   9
ATOM      9  C   UNL     1      -1.111   1.894   0.247  1.00  0.00     0.193 C 
ATOM     10  C   UNL     1       0.410   1.721   0.057  1.00  0.00     0.076 C 
BRANCH   9  11
ATOM     11  N   UNL     1      -1.532   3.301   0.205  1.00  0.00    -0.329 N 
ATOM     12  C   UNL     1      -1.510   3.950  -1.131  1.00  0.00     0.272 C 
ATOM     13  C   UNL     1      -1.323   4.301   1.275  1.00  0.00     0.190 C 
ATOM     14  H   UNL     1      -2.450   2.979   0.512  1.00  0.00     0.348 HD
ATOM     15  C   UNL     1      -1.108   5.367  -0.806  1.00  0.00     0.114 C 
ATOM     16  C   UNL     1      -1.750   5.552   0.539  1.00  0.00     0.116 C 
ATOM     17  C   UNL     1       0.068   4.353   1.894  1.00  0.00     0.076 C 
ATOM     18  C   UNL     1      -1.605   6.597  -1.513  1.00  0.00     0.270 C 
ATOM     19  C   UNL     1      -1.378   6.970   0.860  1.00  0.00     0.271 C 
ATOM     20  N   UNL     1      -1.510   7.652  -0.460  1.00  0.00    -0.345 N 
ATOM     21  H   UNL     1      -2.352   8.228  -0.470  1.00  0.00     0.346 HD
ATOM     22  H   UNL     1      -0.705   8.254  -0.631  1.00  0.00     0.346 HD
ENDBRANCH   9  11
ENDBRANCH   7   9
ENDBRANCH   4   7
ENDBRANCH   2   3
ENDBRANCH   1   2
BRANCH   1  23
ATOM     23  C   UNL     1      -4.584  -2.328   4.047  1.00  0.00     0.118 C 
BRANCH  23  24
ATOM     24  N   UNL     1      -4.156  -3.635   4.517  1.00  0.00    -0.352 N 
ATOM     25  C   UNL     1      -4.547  -4.351   5.621  1.00  0.00     0.251 C 
ATOM     26  H   UNL     1      -3.479  -4.076   3.955  1.00  0.00     0.163 HD
ATOM     27  O   UNL     1      -3.890  -5.341   5.948  1.00  0.00    -0.269 OA
BRANCH  25  28
ATOM     28  C   UNL     1      -5.716  -3.938   6.433  1.00  0.00     0.039 A 
ATOM     29  C   UNL     1      -5.627  -4.024   7.826  1.00  0.00     0.014 A 
ATOM     30  C   UNL     1      -6.902  -3.490   5.844  1.00  0.00     0.014 A 
ATOM     31  C   UNL     1      -6.686  -3.580   8.623  1.00  0.00     0.010 A 
ATOM     32  C   UNL     1      -7.929  -2.979   6.640  1.00  0.00     0.010 A 
ATOM     33  C   UNL     1      -7.825  -3.002   8.039  1.00  0.00    -0.014 A 
BRANCH  33  34
ATOM     34  C   UNL     1      -8.879  -2.364   8.875  1.00  0.00     0.031 A 
ATOM     35  C   UNL     1     -10.285  -2.900   8.885  1.00  0.00     0.074 A 
ATOM     36  C   UNL     1      -8.575  -1.251   9.576  1.00  0.00     0.049 A 
ATOM     37  N   UNL     1     -11.344  -2.425   9.490  1.00  0.00    -0.248 NA
ATOM     38  C   UNL     1     -10.540  -4.119   8.101  1.00  0.00     0.031 C 
ATOM     39  C   UNL     1      -7.253  -0.618   9.620  1.00  0.00     0.029 A 
ATOM     40  N   UNL     1      -9.349  -0.444  10.373  1.00  0.00    -0.354 N 
ATOM     41  C   UNL     1     -12.392  -3.275   9.153  1.00  0.00     0.074 A 
ATOM     42  C   UNL     1     -11.848  -4.276   8.260  1.00  0.00     0.031 C 
ATOM     43  C   UNL     1      -7.306   0.463  10.412  1.00  0.00     0.029 A 
ATOM     44  C   UNL     1      -8.674   0.642  10.886  1.00  0.00     0.049 A 
ATOM     45  H   UNL     1     -10.298  -0.624  10.561  1.00  0.00     0.167 HD
ATOM     46  C   UNL     1     -13.684  -3.226   9.560  1.00  0.00     0.034 A 
ATOM     47  C   UNL     1      -9.110   1.682  11.627  1.00  0.00     0.034 A 
ATOM     48  C   UNL     1     -14.208  -2.229  10.463  1.00  0.00     0.049 A 
ATOM     49  C   UNL     1     -10.566   1.732  12.021  1.00  0.00     0.074 A 
ATOM     50  C   UNL     1     -15.481  -2.145  11.002  1.00  0.00     0.029 A 
ATOM     51  N   UNL     1     -13.502  -1.135  10.944  1.00  0.00    -0.354 N 
ATOM     52  N   UNL     1     -11.523   0.871  11.757  1.00  0.00    -0.248 NA
ATOM     53  C   UNL     1     -11.002   2.889  12.814  1.00  0.00     0.031 C 
ATOM     54  C   UNL     1     -15.570  -0.957  11.734  1.00  0.00     0.029 A 
ATOM     55  C   UNL     1     -14.329  -0.343  11.726  1.00  0.00     0.049 A 
ATOM     56  H   UNL     1     -12.553  -0.950  10.757  1.00  0.00     0.167 HD
ATOM     57  C   UNL     1     -12.665   1.375  12.374  1.00  0.00     0.074 A 
ATOM     58  C   UNL     1     -12.271   2.594  13.048  1.00  0.00     0.031 C 
ATOM     59  C   UNL     1     -13.928   0.879  12.381  1.00  0.00     0.034 A 
BRANCH  46  60
ATOM     60  C   UNL     1     -14.643  -4.257   9.016  1.00  0.00     0.023 A 
ATOM     61  C   UNL     1     -14.532  -5.620   9.339  1.00  0.00     0.031 A 
ATOM     62  C   UNL     1     -15.717  -3.857   8.200  1.00  0.00     0.131 A 
ATOM     63  C   UNL     1     -15.458  -6.538   8.820  1.00  0.00     0.055 A 
ATOM     64  C   UNL     1     -16.673  -4.765   7.742  1.00  0.00     0.041 A 
ATOM     65  F   UNL     1     -15.861  -2.571   7.844  1.00  0.00    -0.206 F 
ATOM     66  C   UNL     1     -16.543  -6.117   8.046  1.00  0.00     0.022 A 
BRANCH  63  67
ATOM     67  S   UNL     1     -15.177  -8.309   9.095  1.00  0.00     0.124 S 
ATOM     68  O   UNL     1     -13.877  -8.504   8.459  1.00  0.00    -0.237 OA
ATOM     69  O   UNL     1     -15.197  -8.409  10.550  1.00  0.00    -0.237 OA
ATOM     70  O   UNL     1     -16.300  -8.945   8.411  1.00  0.00    -0.744 OA
ENDBRANCH  63  67
ENDBRANCH  46  60
BRANCH  47  71
ATOM     71  C   UNL     1      -8.187   2.793  12.010  1.00  0.00     0.023 A 
ATOM     72  C   UNL     1      -7.956   3.108  13.358  1.00  0.00     0.031 A 
ATOM     73  C   UNL     1      -7.595   3.615  11.034  1.00  0.00     0.131 A 
ATOM     74  C   UNL     1      -7.221   4.256  13.693  1.00  0.00     0.055 A 
ATOM     75  C   UNL     1      -6.802   4.713  11.373  1.00  0.00     0.041 A 
ATOM     76  F   UNL     1      -7.782   3.365   9.728  1.00  0.00    -0.206 F 
ATOM     77  C   UNL     1      -6.628   5.051  12.710  1.00  0.00     0.022 A 
BRANCH  74  78
ATOM     78  S   UNL     1      -7.171   4.775  15.431  1.00  0.00     0.124 S 
ATOM     79  O   UNL     1      -8.591   4.861  15.754  1.00  0.00    -0.237 OA
ATOM     80  O   UNL     1      -6.437   3.677  16.052  1.00  0.00    -0.237 OA
ATOM     81  O   UNL     1      -6.462   6.051  15.384  1.00  0.00    -0.744 OA
ENDBRANCH  74  78
ENDBRANCH  47  71
BRANCH  59  82
ATOM     82  C   UNL     1     -14.963   1.647  13.165  1.00  0.00     0.023 A 
ATOM     83  C   UNL     1     -15.369   2.937  12.781  1.00  0.00     0.031 A 
ATOM     84  C   UNL     1     -15.544   1.087  14.317  1.00  0.00     0.131 A 
ATOM     85  C   UNL     1     -16.285   3.646  13.572  1.00  0.00     0.055 A 
ATOM     86  C   UNL     1     -16.505   1.771  15.062  1.00  0.00     0.041 A 
ATOM     87  F   UNL     1     -15.190  -0.140  14.734  1.00  0.00    -0.206 F 
ATOM     88  C   UNL     1     -16.871   3.064  14.699  1.00  0.00     0.022 A 
BRANCH  85  89
ATOM     89  S   UNL     1     -16.634   5.377  13.158  1.00  0.00     0.124 S 
ATOM     90  O   UNL     1     -15.312   5.987  13.267  1.00  0.00    -0.237 OA
ATOM     91  O   UNL     1     -17.179   5.273  11.809  1.00  0.00    -0.237 OA
ATOM     92  O   UNL     1     -17.593   5.788  14.182  1.00  0.00    -0.744 OA
ENDBRANCH  85  89
ENDBRANCH  59  82
ENDBRANCH  33  34
ENDBRANCH  25  28
ENDBRANCH  23  24
ENDBRANCH   1  23
TORSDOF 15
