REMARK SMILES CC[N@@H+]1CCO[C@H](C[NH2+][C@@H]2CCC[C@H](C(=O)NCCCNC(=O)c3ccc(-c4c5nc(c(-c6cc(S(=O)(=O)[O-])ccc6F)c6ccc([nH]6)c(-c6cc(S(=O)(=O)[O-])ccc6F)c6nc(c(-c7cc(S(=O)(=O)[O-])ccc7F)c7ccc4[nH]7)C=C6)C=C5)cc3)C2)C1
REMARK SMILES IDX 18 1 17 2 15 3 16 4 14 6 10 7 11 8 87 9 12 10 13 11 9 12
REMARK SMILES IDX 8 15 7 16 3 17 4 18 88 19 5 21 6 22 2 23 1 24 19 25 20 26
REMARK SMILES IDX 21 27 22 28 23 30 24 31 25 32 86 33 26 34 85 35 27 36 28 37
REMARK SMILES IDX 29 38 79 39 30 40 84 41 78 42 80 43 31 44 83 45 77 46 76 47
REMARK SMILES IDX 32 49 64 50 44 51 63 52 45 53 48 54 62 55 81 56 46 57 47 58
REMARK SMILES IDX 61 60 82 61 49 62 33 63 34 64 42 65 35 66 41 67 43 68 40 69
REMARK SMILES IDX 36 70 37 71 38 72 39 73 65 74 66 75 74 76 67 77 73 78 75 79
REMARK SMILES IDX 72 80 68 81 69 82 70 83 71 84 50 85 51 86 59 87 52 88 58 89
REMARK SMILES IDX 60 90 57 91 53 92 54 93 55 94 56 95
REMARK H PARENT 17 5 9 13 9 14 3 20 21 29 80 48 48 59
REMARK Flexibility Score: inf
ROOT
ATOM      1  C   UNL     1      -1.434  -3.634   1.342  1.00  0.00     0.117 C 
ENDROOT
BRANCH   1   2
ATOM      2  N   UNL     1      -0.906  -4.668   0.471  1.00  0.00    -0.356 N 
ATOM      3  C   UNL     1      -0.508  -4.631  -0.831  1.00  0.00     0.223 C 
ATOM      4  O   UNL     1       0.008  -5.652  -1.294  1.00  0.00    -0.275 OA
ATOM      5  H   UNL     1      -0.821  -5.552   0.896  1.00  0.00     0.163 HD
BRANCH   3   6
ATOM      6  C   UNL     1      -0.657  -3.383  -1.702  1.00  0.00     0.084 C 
ATOM      7  C   UNL     1       0.067  -0.900  -1.906  1.00  0.00     0.183 C 
ATOM      8  C   UNL     1      -1.435  -0.558  -1.886  1.00  0.00     0.065 C 
ATOM      9  C   UNL     1       0.321  -2.276  -1.264  1.00  0.00     0.078 C 
ATOM     10  C   UNL     1      -2.288  -1.629  -2.543  1.00  0.00     0.007 C 
ATOM     11  C   UNL     1      -2.124  -2.967  -1.843  1.00  0.00     0.014 C 
BRANCH   7  12
ATOM     12  N   UNL     1       0.729   0.240  -1.257  1.00  0.00    -0.341 N 
ATOM     13  H   UNL     1       0.652   1.031  -1.897  1.00  0.00     0.346 HD
ATOM     14  H   UNL     1       0.245   0.320  -0.362  1.00  0.00     0.346 HD
BRANCH  12  15
ATOM     15  C   UNL     1       2.134   0.136  -0.878  1.00  0.00     0.299 C 
BRANCH  15  16
ATOM     16  C   UNL     1       2.701   1.289   0.030  1.00  0.00     0.227 C 
ATOM     17  N   UNL     1       1.545   1.393   2.298  1.00  0.00    -0.331 N 
ATOM     18  C   UNL     1       0.973   2.671   1.919  1.00  0.00     0.291 C 
ATOM     19  C   UNL     1       2.733   1.014   1.557  1.00  0.00     0.300 C 
ATOM     20  H   UNL     1       1.963   1.582   3.209  1.00  0.00     0.348 HD
ATOM     21  C   UNL     1       0.972   2.942   0.408  1.00  0.00     0.222 C 
ATOM     22  O   UNL     1       2.191   2.605  -0.264  1.00  0.00    -0.361 OA
BRANCH  17  23
ATOM     23  C   UNL     1       0.715   0.401   2.938  1.00  0.00     0.258 C 
ATOM     24  C   UNL     1       0.341  -0.768   2.058  1.00  0.00     0.071 C 
ENDBRANCH  17  23
ENDBRANCH  15  16
ENDBRANCH  12  15
ENDBRANCH   7  12
ENDBRANCH   3   6
ENDBRANCH   1   2
BRANCH   1  25
ATOM     25  C   UNL     1      -2.845  -3.917   1.840  1.00  0.00     0.042 C 
BRANCH  25  26
ATOM     26  C   UNL     1      -2.936  -5.064   2.839  1.00  0.00     0.118 C 
BRANCH  26  27
ATOM     27  N   UNL     1      -2.232  -4.785   4.085  1.00  0.00    -0.352 N 
ATOM     28  C   UNL     1      -2.681  -4.769   5.381  1.00  0.00     0.251 C 
ATOM     29  H   UNL     1      -1.277  -4.572   3.978  1.00  0.00     0.163 HD
ATOM     30  O   UNL     1      -1.934  -4.326   6.258  1.00  0.00    -0.269 OA
BRANCH  28  31
ATOM     31  C   UNL     1      -4.040  -5.241   5.735  1.00  0.00     0.039 A 
ATOM     32  C   UNL     1      -4.743  -4.570   6.739  1.00  0.00     0.014 A 
ATOM     33  C   UNL     1      -4.620  -6.348   5.110  1.00  0.00     0.014 A 
ATOM     34  C   UNL     1      -6.044  -4.963   7.062  1.00  0.00     0.010 A 
ATOM     35  C   UNL     1      -5.950  -6.678   5.364  1.00  0.00     0.010 A 
ATOM     36  C   UNL     1      -6.678  -5.992   6.346  1.00  0.00    -0.014 A 
BRANCH  36  37
ATOM     37  C   UNL     1      -8.100  -6.343   6.614  1.00  0.00     0.031 A 
ATOM     38  C   UNL     1      -8.474  -7.717   7.104  1.00  0.00     0.074 A 
ATOM     39  C   UNL     1      -9.060  -5.426   6.376  1.00  0.00     0.049 A 
ATOM     40  N   UNL     1      -9.657  -8.200   7.386  1.00  0.00    -0.248 NA
ATOM     41  C   UNL     1      -7.378  -8.683   7.271  1.00  0.00     0.031 C 
ATOM     42  C   UNL     1      -8.828  -4.081   5.843  1.00  0.00     0.029 A 
ATOM     43  N   UNL     1     -10.420  -5.480   6.551  1.00  0.00    -0.354 N 
ATOM     44  C   UNL     1      -9.450  -9.526   7.755  1.00  0.00     0.074 A 
ATOM     45  C   UNL     1      -8.036  -9.786   7.593  1.00  0.00     0.031 C 
ATOM     46  C   UNL     1      -9.997  -3.426   5.775  1.00  0.00     0.029 A 
ATOM     47  C   UNL     1     -11.069  -4.315   6.210  1.00  0.00     0.049 A 
ATOM     48  H   UNL     1     -10.888  -6.277   6.889  1.00  0.00     0.167 HD
ATOM     49  C   UNL     1     -10.352 -10.432   8.210  1.00  0.00     0.034 A 
ATOM     50  C   UNL     1     -12.378  -3.998   6.237  1.00  0.00     0.034 A 
ATOM     51  C   UNL     1     -11.759 -10.152   8.369  1.00  0.00     0.049 A 
ATOM     52  C   UNL     1     -13.361  -5.025   6.737  1.00  0.00     0.074 A 
ATOM     53  C   UNL     1     -12.750 -10.975   8.878  1.00  0.00     0.029 A 
ATOM     54  N   UNL     1     -12.383  -8.963   8.008  1.00  0.00    -0.354 N 
ATOM     55  N   UNL     1     -13.138  -6.251   7.152  1.00  0.00    -0.248 NA
ATOM     56  C   UNL     1     -14.770  -4.618   6.788  1.00  0.00     0.031 C 
ATOM     57  C   UNL     1     -13.978 -10.317   8.749  1.00  0.00     0.029 A 
ATOM     58  C   UNL     1     -13.748  -9.047   8.246  1.00  0.00     0.049 A 
ATOM     59  H   UNL     1     -11.923  -8.176   7.637  1.00  0.00     0.167 HD
ATOM     60  C   UNL     1     -14.379  -6.753   7.537  1.00  0.00     0.074 A 
ATOM     61  C   UNL     1     -15.335  -5.683   7.334  1.00  0.00     0.031 C 
ATOM     62  C   UNL     1     -14.699  -7.984   8.014  1.00  0.00     0.034 A 
BRANCH  49  63
ATOM     63  C   UNL     1      -9.842 -11.819   8.538  1.00  0.00     0.023 A 
ATOM     64  C   UNL     1      -8.876 -12.038   9.537  1.00  0.00     0.031 A 
ATOM     65  C   UNL     1     -10.313 -12.938   7.828  1.00  0.00     0.131 A 
ATOM     66  C   UNL     1      -8.356 -13.325   9.742  1.00  0.00     0.055 A 
ATOM     67  C   UNL     1      -9.855 -14.229   8.098  1.00  0.00     0.041 A 
ATOM     68  F   UNL     1     -11.218 -12.794   6.847  1.00  0.00    -0.206 F 
ATOM     69  C   UNL     1      -8.859 -14.427   9.049  1.00  0.00     0.022 A 
BRANCH  66  70
ATOM     70  S   UNL     1      -6.906 -13.513  10.816  1.00  0.00     0.124 S 
ATOM     71  O   UNL     1      -5.941 -12.630  10.165  1.00  0.00    -0.237 OA
ATOM     72  O   UNL     1      -7.410 -13.066  12.109  1.00  0.00    -0.237 OA
ATOM     73  O   UNL     1      -6.594 -14.938  10.725  1.00  0.00    -0.744 OA
ENDBRANCH  66  70
ENDBRANCH  49  63
BRANCH  50  74
ATOM     74  C   UNL     1     -12.842  -2.657   5.772  1.00  0.00     0.023 A 
ATOM     75  C   UNL     1     -13.469  -1.759   6.650  1.00  0.00     0.031 A 
ATOM     76  C   UNL     1     -12.699  -2.272   4.427  1.00  0.00     0.131 A 
ATOM     77  C   UNL     1     -13.975  -0.542   6.163  1.00  0.00     0.055 A 
ATOM     78  C   UNL     1     -13.150  -1.036   3.961  1.00  0.00     0.041 A 
ATOM     79  F   UNL     1     -12.103  -3.090   3.545  1.00  0.00    -0.206 F 
ATOM     80  C   UNL     1     -13.806  -0.169   4.829  1.00  0.00     0.022 A 
BRANCH  77  81
ATOM     81  S   UNL     1     -14.940   0.508   7.284  1.00  0.00     0.124 S 
ATOM     82  O   UNL     1     -16.013  -0.393   7.686  1.00  0.00    -0.237 OA
ATOM     83  O   UNL     1     -13.958   0.837   8.312  1.00  0.00    -0.237 OA
ATOM     84  O   UNL     1     -15.347   1.626   6.434  1.00  0.00    -0.744 OA
ENDBRANCH  77  81
ENDBRANCH  50  74
BRANCH  62  85
ATOM     85  C   UNL     1     -16.149  -8.217   8.374  1.00  0.00     0.023 A 
ATOM     86  C   UNL     1     -17.169  -8.158   7.408  1.00  0.00     0.031 A 
ATOM     87  C   UNL     1     -16.521  -8.453   9.710  1.00  0.00     0.131 A 
ATOM     88  C   UNL     1     -18.513  -8.244   7.802  1.00  0.00     0.055 A 
ATOM     89  C   UNL     1     -17.856  -8.619  10.084  1.00  0.00     0.041 A 
ATOM     90  F   UNL     1     -15.594  -8.516  10.679  1.00  0.00    -0.206 F 
ATOM     91  C   UNL     1     -18.862  -8.494   9.131  1.00  0.00     0.022 A 
BRANCH  88  92
ATOM     92  S   UNL     1     -19.800  -7.879   6.577  1.00  0.00     0.124 S 
ATOM     93  O   UNL     1     -19.418  -6.545   6.125  1.00  0.00    -0.237 OA
ATOM     94  O   UNL     1     -19.623  -8.956   5.608  1.00  0.00    -0.237 OA
ATOM     95  O   UNL     1     -21.038  -7.941   7.352  1.00  0.00    -0.744 OA
ENDBRANCH  88  92
ENDBRANCH  62  85
ENDBRANCH  36  37
ENDBRANCH  28  31
ENDBRANCH  26  27
ENDBRANCH  25  26
ENDBRANCH   1  25
TORSDOF 17
