REMARK SMILES COc1ccc(-c2sc(C(=O)NCCCNC(=O)c3ccc(-c4c5nc(c(-c6cc(S(=O)(=O)[O-])ccc6F)c6ccc([nH]6)c(-c6cc(S(=O)(=O)[O-])ccc6F)c6nc(c(-c7cc(S(=O)(=O)[O-])ccc7F)c7ccc4[nH]7)C=C6)C=C5)cc3)cc2C)c(OC)c1
REMARK SMILES IDX 14 1 13 2 12 3 10 4 11 5 9 7 7 8 8 9 83 10 82 11 84 12 6 13
REMARK SMILES IDX 3 14 4 15 88 16 5 17 85 18 2 19 1 20 86 21 87 22 15 23 16 24
REMARK SMILES IDX 17 25 18 27 19 28 20 29 81 30 21 31 80 32 22 33 23 34 24 35
REMARK SMILES IDX 74 36 25 37 79 38 73 39 75 40 26 41 78 42 72 43 71 44 27 46
REMARK SMILES IDX 59 47 39 48 58 49 40 50 43 51 57 52 76 53 41 54 42 55 56 57
REMARK SMILES IDX 77 58 44 59 28 60 29 61 37 62 30 63 36 64 38 65 35 66 31 67
REMARK SMILES IDX 32 68 33 69 34 70 60 71 61 72 69 73 62 74 68 75 70 76 67 77
REMARK SMILES IDX 63 78 64 79 65 80 66 81 45 82 46 83 54 84 47 85 53 86 55 87
REMARK SMILES IDX 52 88 48 89 49 90 50 91 51 92
REMARK H PARENT 12 6 16 26 75 45 43 56
REMARK Flexibility Score: inf
ROOT
ATOM      1  C   UNL     1      -0.118   8.664  -4.163  1.00  0.00     0.042 C 
ENDROOT
BRANCH   1   2
ATOM      2  C   UNL     1      -0.203   7.931  -5.501  1.00  0.00     0.118 C 
BRANCH   2   3
ATOM      3  N   UNL     1       0.986   8.138  -6.308  1.00  0.00    -0.351 N 
ATOM      4  C   UNL     1       2.085   7.359  -6.579  1.00  0.00     0.261 C 
ATOM      5  O   UNL     1       2.863   7.841  -7.412  1.00  0.00    -0.268 OA
ATOM      6  H   UNL     1       1.010   9.016  -6.751  1.00  0.00     0.163 HD
BRANCH   4   7
ATOM      7  C   UNL     1       2.321   6.041  -6.005  1.00  0.00     0.093 A 
ATOM      8  C   UNL     1       2.315   3.891  -4.759  1.00  0.00     0.042 A 
ATOM      9  S   UNL     1       1.657   5.459  -4.550  1.00  0.00    -0.130 S 
ATOM     10  C   UNL     1       3.209   3.854  -5.817  1.00  0.00    -0.031 A 
ATOM     11  C   UNL     1       3.203   5.104  -6.521  1.00  0.00     0.029 A 
ATOM     12  C   UNL     1       4.055   2.695  -6.224  1.00  0.00     0.046 C 
BRANCH   8  13
ATOM     13  C   UNL     1       1.885   2.831  -3.833  1.00  0.00     0.034 A 
ATOM     14  C   UNL     1       0.930   0.855  -2.085  1.00  0.00     0.122 A 
ATOM     15  C   UNL     1       0.073   1.421  -3.022  1.00  0.00     0.047 A 
ATOM     16  C   UNL     1       2.276   1.235  -2.045  1.00  0.00     0.093 A 
ATOM     17  C   UNL     1       0.544   2.408  -3.884  1.00  0.00     0.017 A 
ATOM     18  C   UNL     1       2.764   2.220  -2.917  1.00  0.00     0.131 A 
BRANCH  14  19
ATOM     19  O   UNL     1       0.382  -0.107  -1.280  1.00  0.00    -0.497 OA
ATOM     20  C   UNL     1       0.794  -0.026   0.083  1.00  0.00     0.278 C 
ENDBRANCH  14  19
BRANCH  18  21
ATOM     21  O   UNL     1       4.067   2.651  -2.940  1.00  0.00    -0.496 OA
ATOM     22  C   UNL     1       5.008   1.956  -2.135  1.00  0.00     0.278 C 
ENDBRANCH  18  21
ENDBRANCH   8  13
ENDBRANCH   4   7
ENDBRANCH   2   3
ENDBRANCH   1   2
BRANCH   1  23
ATOM     23  C   UNL     1      -0.269  10.182  -4.287  1.00  0.00     0.118 C 
BRANCH  23  24
ATOM     24  N   UNL     1      -1.594  10.559  -4.753  1.00  0.00    -0.352 N 
ATOM     25  C   UNL     1      -2.532  11.398  -4.210  1.00  0.00     0.251 C 
ATOM     26  H   UNL     1      -1.863  10.141  -5.603  1.00  0.00     0.163 HD
ATOM     27  O   UNL     1      -3.675  11.365  -4.667  1.00  0.00    -0.269 OA
BRANCH  25  28
ATOM     28  C   UNL     1      -2.205  12.331  -3.106  1.00  0.00     0.039 A 
ATOM     29  C   UNL     1      -3.203  12.621  -2.170  1.00  0.00     0.014 A 
ATOM     30  C   UNL     1      -0.979  12.997  -3.036  1.00  0.00     0.014 A 
ATOM     31  C   UNL     1      -2.970  13.561  -1.162  1.00  0.00     0.010 A 
ATOM     32  C   UNL     1      -0.723  13.888  -1.991  1.00  0.00     0.010 A 
ATOM     33  C   UNL     1      -1.724  14.198  -1.059  1.00  0.00    -0.014 A 
BRANCH  33  34
ATOM     34  C   UNL     1      -1.485  15.229  -0.013  1.00  0.00     0.031 A 
ATOM     35  C   UNL     1      -1.266  16.667  -0.407  1.00  0.00     0.074 A 
ATOM     36  C   UNL     1      -1.443  14.868   1.284  1.00  0.00     0.049 A 
ATOM     37  N   UNL     1      -1.027  17.707   0.351  1.00  0.00    -0.248 NA
ATOM     38  C   UNL     1      -1.293  16.969  -1.846  1.00  0.00     0.031 C 
ATOM     39  C   UNL     1      -1.602  13.501   1.787  1.00  0.00     0.029 A 
ATOM     40  N   UNL     1      -1.255  15.617   2.418  1.00  0.00    -0.354 N 
ATOM     41  C   UNL     1      -0.852  18.780  -0.518  1.00  0.00     0.074 A 
ATOM     42  C   UNL     1      -0.964  18.252  -1.861  1.00  0.00     0.031 C 
ATOM     43  C   UNL     1      -1.534  13.515   3.128  1.00  0.00     0.029 A 
ATOM     44  C   UNL     1      -1.295  14.882   3.580  1.00  0.00     0.049 A 
ATOM     45  H   UNL     1      -1.106  16.590   2.402  1.00  0.00     0.167 HD
ATOM     46  C   UNL     1      -0.638  20.087  -0.223  1.00  0.00     0.034 A 
ATOM     47  C   UNL     1      -1.155  15.268   4.864  1.00  0.00     0.034 A 
ATOM     48  C   UNL     1      -0.564  20.605   1.121  1.00  0.00     0.049 A 
ATOM     49  C   UNL     1      -0.934  16.729   5.165  1.00  0.00     0.074 A 
ATOM     50  C   UNL     1      -0.429  21.919   1.534  1.00  0.00     0.029 A 
ATOM     51  N   UNL     1      -0.617  19.832   2.274  1.00  0.00    -0.354 N 
ATOM     52  N   UNL     1      -0.835  17.740   4.332  1.00  0.00    -0.248 NA
ATOM     53  C   UNL     1      -0.823  17.101   6.581  1.00  0.00     0.031 C 
ATOM     54  C   UNL     1      -0.343  21.935   2.932  1.00  0.00     0.029 A 
ATOM     55  C   UNL     1      -0.489  20.638   3.396  1.00  0.00     0.049 A 
ATOM     56  H   UNL     1      -0.729  18.854   2.292  1.00  0.00     0.167 HD
ATOM     57  C   UNL     1      -0.680  18.871   5.129  1.00  0.00     0.074 A 
ATOM     58  C   UNL     1      -0.720  18.419   6.504  1.00  0.00     0.031 C 
ATOM     59  C   UNL     1      -0.519  20.168   4.760  1.00  0.00     0.034 A 
BRANCH  46  60
ATOM     60  C   UNL     1      -0.442  21.039  -1.380  1.00  0.00     0.023 A 
ATOM     61  C   UNL     1      -1.464  21.297  -2.311  1.00  0.00     0.031 A 
ATOM     62  C   UNL     1       0.795  21.681  -1.567  1.00  0.00     0.131 A 
ATOM     63  C   UNL     1      -1.208  22.111  -3.425  1.00  0.00     0.055 A 
ATOM     64  C   UNL     1       1.019  22.553  -2.635  1.00  0.00     0.041 A 
ATOM     65  F   UNL     1       1.814  21.461  -0.721  1.00  0.00    -0.206 F 
ATOM     66  C   UNL     1       0.019  22.761  -3.580  1.00  0.00     0.022 A 
BRANCH  63  67
ATOM     67  S   UNL     1      -2.458  22.206  -4.735  1.00  0.00     0.124 S 
ATOM     68  O   UNL     1      -2.543  20.811  -5.162  1.00  0.00    -0.237 OA
ATOM     69  O   UNL     1      -3.620  22.730  -4.027  1.00  0.00    -0.237 OA
ATOM     70  O   UNL     1      -1.861  23.114  -5.713  1.00  0.00    -0.744 OA
ENDBRANCH  63  67
ENDBRANCH  46  60
BRANCH  47  71
ATOM     71  C   UNL     1      -1.224  14.272   5.970  1.00  0.00     0.023 A 
ATOM     72  C   UNL     1      -2.258  14.319   6.919  1.00  0.00     0.031 A 
ATOM     73  C   UNL     1      -0.225  13.296   6.131  1.00  0.00     0.131 A 
ATOM     74  C   UNL     1      -2.241  13.446   8.017  1.00  0.00     0.055 A 
ATOM     75  C   UNL     1      -0.240  12.396   7.198  1.00  0.00     0.041 A 
ATOM     76  F   UNL     1       0.783  13.203   5.248  1.00  0.00    -0.206 F 
ATOM     77  C   UNL     1      -1.244  12.478   8.158  1.00  0.00     0.022 A 
BRANCH  74  78
ATOM     78  S   UNL     1      -3.493  13.658   9.312  1.00  0.00     0.124 S 
ATOM     79  O   UNL     1      -3.295  15.052   9.694  1.00  0.00    -0.237 OA
ATOM     80  O   UNL     1      -4.726  13.359   8.592  1.00  0.00    -0.237 OA
ATOM     81  O   UNL     1      -3.108  12.673  10.321  1.00  0.00    -0.744 OA
ENDBRANCH  74  78
ENDBRANCH  47  71
BRANCH  59  82
ATOM     82  C   UNL     1      -0.416  21.181   5.873  1.00  0.00     0.023 A 
ATOM     83  C   UNL     1       0.684  21.202   6.749  1.00  0.00     0.031 A 
ATOM     84  C   UNL     1      -1.450  22.109   6.084  1.00  0.00     0.131 A 
ATOM     85  C   UNL     1       0.694  22.088   7.836  1.00  0.00     0.055 A 
ATOM     86  C   UNL     1      -1.406  23.029   7.133  1.00  0.00     0.041 A 
ATOM     87  F   UNL     1      -2.524  22.132   5.279  1.00  0.00    -0.206 F 
ATOM     88  C   UNL     1      -0.339  23.011   8.026  1.00  0.00     0.022 A 
BRANCH  85  89
ATOM     89  S   UNL     1       2.022  21.943   9.063  1.00  0.00     0.124 S 
ATOM     90  O   UNL     1       1.894  20.553   9.488  1.00  0.00    -0.237 OA
ATOM     91  O   UNL     1       3.208  22.263   8.277  1.00  0.00    -0.237 OA
ATOM     92  O   UNL     1       1.663  22.936  10.075  1.00  0.00    -0.744 OA
ENDBRANCH  85  89
ENDBRANCH  59  82
ENDBRANCH  33  34
ENDBRANCH  25  28
ENDBRANCH  23  24
ENDBRANCH   1  23
TORSDOF 16
