REMARK SMILES Cc1cccc(CS[C@@H]2CC[C@]([NH3+])(C(=O)NCCCNC(=O)c3ccc(-c4c5nc(c(-c6cc(S(=O)(=O)[O-])ccc6F)c6ccc([nH]6)c(-c6cc(S(=O)(=O)[O-])ccc6F)c6nc(c(-c7cc(S(=O)(=O)[O-])ccc7F)c7ccc4[nH]7)C=C6)C=C5)cc3)C2)c1
REMARK SMILES IDX 18 1 17 2 16 3 14 4 15 5 12 7 9 8 10 9 86 10 11 11 8 12 7 13
REMARK SMILES IDX 6 14 1 15 2 16 3 17 87 18 4 19 5 20 13 21 19 25 20 26 21 27
REMARK SMILES IDX 22 29 23 30 24 31 85 32 25 33 84 34 26 35 27 36 28 37 78 38
REMARK SMILES IDX 29 39 83 40 77 41 79 42 30 43 82 44 76 45 75 46 31 48 63 49
REMARK SMILES IDX 43 50 62 51 44 52 47 53 61 54 80 55 45 56 46 57 60 59 81 60
REMARK SMILES IDX 48 61 32 62 33 63 41 64 34 65 40 66 42 67 39 68 35 69 36 70
REMARK SMILES IDX 37 71 38 72 64 73 65 74 73 75 66 76 72 77 74 78 71 79 67 80
REMARK SMILES IDX 68 81 69 82 70 83 49 84 50 85 58 86 51 87 57 88 59 89 56 90
REMARK SMILES IDX 52 91 53 92 54 93 55 94
REMARK H PARENT 16 6 13 22 13 23 13 24 20 28 79 47 47 58
REMARK Flexibility Score: inf
ROOT
ATOM      1  C   UNL     1       2.429   0.967  -6.107  1.00  0.00     0.042 C 
ENDROOT
BRANCH   1   2
ATOM      2  C   UNL     1       2.117   0.840  -4.625  1.00  0.00     0.118 C 
BRANCH   2   3
ATOM      3  N   UNL     1       2.214   2.111  -3.929  1.00  0.00    -0.351 N 
ATOM      4  C   UNL     1       1.261   2.971  -3.482  1.00  0.00     0.281 C 
ATOM      5  O   UNL     1       1.643   4.045  -2.995  1.00  0.00    -0.268 OA
ATOM      6  H   UNL     1       3.137   2.401  -3.747  1.00  0.00     0.163 HD
BRANCH   4   7
ATOM      7  C   UNL     1      -0.268   2.709  -3.664  1.00  0.00     0.175 C 
ATOM      8  C   UNL     1      -2.401   2.894  -2.455  1.00  0.00     0.054 C 
ATOM      9  C   UNL     1      -2.228   1.448  -2.903  1.00  0.00     0.022 C 
ATOM     10  C   UNL     1      -1.042   3.571  -2.627  1.00  0.00     0.093 C 
ATOM     11  C   UNL     1      -0.768   1.306  -3.310  1.00  0.00     0.080 C 
BRANCH   8  12
ATOM     12  S   UNL     1      -3.275   3.072  -0.852  1.00  0.00    -0.154 SA
BRANCH  12  13
ATOM     13  C   UNL     1      -1.983   2.767   0.401  1.00  0.00     0.105 C 
BRANCH  13  14
ATOM     14  C   UNL     1      -1.320   1.415   0.379  1.00  0.00    -0.038 A 
ATOM     15  C   UNL     1       2.221   0.005   0.142  1.00  0.00     0.044 C 
ATOM     16  C   UNL     1       0.729   0.091   0.286  1.00  0.00    -0.051 A 
ATOM     17  C   UNL     1      -0.030  -1.081   0.349  1.00  0.00     0.003 A 
ATOM     18  C   UNL     1       0.080   1.331   0.306  1.00  0.00     0.008 A 
ATOM     19  C   UNL     1      -1.418  -1.014   0.451  1.00  0.00     0.001 A 
ATOM     20  C   UNL     1      -2.059   0.226   0.480  1.00  0.00     0.004 A 
ENDBRANCH  13  14
ENDBRANCH  12  13
ENDBRANCH   8  12
BRANCH   7  21
ATOM     21  N   UNL     1      -0.657   3.068  -5.049  1.00  0.00    -0.345 N 
ATOM     22  H   UNL     1      -1.655   2.900  -5.176  1.00  0.00     0.345 HD
ATOM     23  H   UNL     1      -0.129   2.498  -5.710  1.00  0.00     0.345 HD
ATOM     24  H   UNL     1      -0.455   4.054  -5.214  1.00  0.00     0.345 HD
ENDBRANCH   7  21
ENDBRANCH   4   7
ENDBRANCH   2   3
ENDBRANCH   1   2
BRANCH   1  25
ATOM     25  C   UNL     1       3.862   0.561  -6.426  1.00  0.00     0.118 C 
BRANCH  25  26
ATOM     26  N   UNL     1       4.019  -0.869  -6.663  1.00  0.00    -0.352 N 
ATOM     27  C   UNL     1       5.108  -1.538  -7.243  1.00  0.00     0.251 C 
ATOM     28  H   UNL     1       3.265  -1.437  -6.382  1.00  0.00     0.163 HD
ATOM     29  O   UNL     1       5.143  -2.734  -7.390  1.00  0.00    -0.269 OA
BRANCH  27  30
ATOM     30  C   UNL     1       6.278  -0.699  -7.580  1.00  0.00     0.039 A 
ATOM     31  C   UNL     1       7.387  -0.808  -6.739  1.00  0.00     0.014 A 
ATOM     32  C   UNL     1       6.109   0.390  -8.424  1.00  0.00     0.014 A 
ATOM     33  C   UNL     1       8.197   0.308  -6.553  1.00  0.00     0.010 A 
ATOM     34  C   UNL     1       6.849   1.529  -8.160  1.00  0.00     0.010 A 
ATOM     35  C   UNL     1       7.840   1.510  -7.168  1.00  0.00    -0.014 A 
BRANCH  35  36
ATOM     36  C   UNL     1       8.331   2.804  -6.690  1.00  0.00     0.031 A 
ATOM     37  C   UNL     1       9.210   3.639  -7.533  1.00  0.00     0.074 A 
ATOM     38  C   UNL     1       7.971   3.266  -5.471  1.00  0.00     0.049 A 
ATOM     39  N   UNL     1      10.014   4.546  -7.085  1.00  0.00    -0.248 NA
ATOM     40  C   UNL     1       9.293   3.462  -8.975  1.00  0.00     0.031 C 
ATOM     41  C   UNL     1       8.180   4.607  -4.933  1.00  0.00     0.029 A 
ATOM     42  N   UNL     1       7.595   2.503  -4.364  1.00  0.00    -0.354 N 
ATOM     43  C   UNL     1      10.489   5.257  -8.163  1.00  0.00     0.074 A 
ATOM     44  C   UNL     1      10.074   4.489  -9.313  1.00  0.00     0.031 C 
ATOM     45  C   UNL     1       8.224   4.532  -3.595  1.00  0.00     0.029 A 
ATOM     46  C   UNL     1       8.163   3.128  -3.234  1.00  0.00     0.049 A 
ATOM     47  H   UNL     1       7.041   1.689  -4.371  1.00  0.00     0.167 HD
ATOM     48  C   UNL     1      11.065   6.479  -7.961  1.00  0.00     0.034 A 
ATOM     49  C   UNL     1       9.051   2.462  -2.440  1.00  0.00     0.034 A 
ATOM     50  C   UNL     1      11.274   6.761  -6.535  1.00  0.00     0.049 A 
ATOM     51  C   UNL     1      10.424   3.096  -2.373  1.00  0.00     0.074 A 
ATOM     52  C   UNL     1      10.657   7.571  -5.595  1.00  0.00     0.029 A 
ATOM     53  N   UNL     1      12.137   5.947  -5.818  1.00  0.00    -0.354 N 
ATOM     54  N   UNL     1      10.773   4.183  -3.006  1.00  0.00    -0.248 NA
ATOM     55  C   UNL     1      11.547   2.482  -1.662  1.00  0.00     0.031 C 
ATOM     56  C   UNL     1      11.135   7.198  -4.302  1.00  0.00     0.029 A 
ATOM     57  C   UNL     1      12.053   6.175  -4.458  1.00  0.00     0.049 A 
ATOM     58  H   UNL     1      12.738   5.285  -6.229  1.00  0.00     0.167 HD
ATOM     59  C   UNL     1      12.127   4.356  -2.889  1.00  0.00     0.074 A 
ATOM     60  C   UNL     1      12.567   3.274  -2.027  1.00  0.00     0.031 C 
ATOM     61  C   UNL     1      12.817   5.329  -3.553  1.00  0.00     0.034 A 
BRANCH  48  62
ATOM     62  C   UNL     1      11.201   7.533  -9.045  1.00  0.00     0.023 A 
ATOM     63  C   UNL     1      11.222   8.896  -8.679  1.00  0.00     0.031 A 
ATOM     64  C   UNL     1      11.247   7.294 -10.433  1.00  0.00     0.131 A 
ATOM     65  C   UNL     1      11.167   9.921  -9.644  1.00  0.00     0.055 A 
ATOM     66  C   UNL     1      11.120   8.307 -11.393  1.00  0.00     0.041 A 
ATOM     67  F   UNL     1      11.492   6.080 -10.937  1.00  0.00    -0.206 F 
ATOM     68  C   UNL     1      11.065   9.632 -11.000  1.00  0.00     0.022 A 
BRANCH  65  69
ATOM     69  S   UNL     1      11.245  11.650  -9.104  1.00  0.00     0.124 S 
ATOM     70  O   UNL     1      10.082  11.756  -8.231  1.00  0.00    -0.237 OA
ATOM     71  O   UNL     1      12.551  11.709  -8.456  1.00  0.00    -0.237 OA
ATOM     72  O   UNL     1      11.147  12.400 -10.357  1.00  0.00    -0.744 OA
ENDBRANCH  65  69
ENDBRANCH  48  62
BRANCH  49  73
ATOM     73  C   UNL     1       8.762   1.000  -2.346  1.00  0.00     0.023 A 
ATOM     74  C   UNL     1       7.466   0.637  -1.925  1.00  0.00     0.031 A 
ATOM     75  C   UNL     1       9.537   0.029  -2.992  1.00  0.00     0.131 A 
ATOM     76  C   UNL     1       6.914  -0.586  -2.325  1.00  0.00     0.055 A 
ATOM     77  C   UNL     1       9.013  -1.233  -3.300  1.00  0.00     0.041 A 
ATOM     78  F   UNL     1      10.761   0.320  -3.455  1.00  0.00    -0.206 F 
ATOM     79  C   UNL     1       7.681  -1.526  -3.012  1.00  0.00     0.022 A 
BRANCH  76  80
ATOM     80  S   UNL     1       5.117  -0.800  -2.220  1.00  0.00     0.124 S 
ATOM     81  O   UNL     1       4.967  -1.517  -0.960  1.00  0.00    -0.237 OA
ATOM     82  O   UNL     1       4.620   0.576  -2.237  1.00  0.00    -0.237 OA
ATOM     83  O   UNL     1       4.792  -1.559  -3.425  1.00  0.00    -0.744 OA
ENDBRANCH  76  80
ENDBRANCH  49  73
BRANCH  61  84
ATOM     84  C   UNL     1      14.304   5.495  -3.400  1.00  0.00     0.023 A 
ATOM     85  C   UNL     1      14.925   5.414  -2.142  1.00  0.00     0.031 A 
ATOM     86  C   UNL     1      15.139   5.790  -4.498  1.00  0.00     0.131 A 
ATOM     87  C   UNL     1      16.319   5.540  -2.021  1.00  0.00     0.055 A 
ATOM     88  C   UNL     1      16.513   6.003  -4.361  1.00  0.00     0.041 A 
ATOM     89  F   UNL     1      14.662   5.833  -5.751  1.00  0.00    -0.206 F 
ATOM     90  C   UNL     1      17.115   5.864  -3.118  1.00  0.00     0.022 A 
BRANCH  87  91
ATOM     91  S   UNL     1      17.085   5.179  -0.420  1.00  0.00     0.124 S 
ATOM     92  O   UNL     1      16.351   6.049   0.492  1.00  0.00    -0.237 OA
ATOM     93  O   UNL     1      16.822   3.748  -0.283  1.00  0.00    -0.237 OA
ATOM     94  O   UNL     1      18.489   5.532  -0.622  1.00  0.00    -0.744 OA
ENDBRANCH  87  91
ENDBRANCH  61  84
ENDBRANCH  35  36
ENDBRANCH  27  30
ENDBRANCH  25  26
ENDBRANCH   1  25
TORSDOF 17
