REMARK SMILES O=C(C[NH2+][C@H]1CCCC[C@H]1[N@@H+](Cc1ccccc1)C1CC1)NCCCNC(=O)c1ccc(-c2c3nc(c(-c4cc(S(=O)(=O)[O-])ccc4F)c4ccc([nH]4)c(-c4cc(S(=O)(=O)[O-])ccc4F)c4nc(c(-c5cc(S(=O)(=O)[O-])ccc5F)c5ccc2[nH]5)C=C4)C=C3)cc1
REMARK SMILES IDX 23 1 22 2 1 3 2 4 3 6 4 7 5 10 6 11 10 12 7 13 9 14 8 15
REMARK SMILES IDX 11 16 12 18 13 19 14 20 18 21 15 22 17 23 16 24 19 25 20 26
REMARK SMILES IDX 21 27 24 28 25 29 26 30 27 31 28 33 29 34 30 35 91 36 31 37
REMARK SMILES IDX 90 38 32 39 33 40 34 41 84 42 35 43 89 44 83 45 85 46 36 47
REMARK SMILES IDX 88 48 82 49 81 50 37 52 69 53 49 54 68 55 50 56 53 57 67 58
REMARK SMILES IDX 86 59 51 60 52 61 66 63 87 64 54 65 38 66 39 67 47 68 40 69
REMARK SMILES IDX 46 70 48 71 45 72 41 73 42 74 43 75 44 76 70 77 71 78 79 79
REMARK SMILES IDX 72 80 78 81 80 82 77 83 73 84 74 85 75 86 76 87 55 88 56 89
REMARK SMILES IDX 64 90 57 91 63 92 65 93 62 94 58 95 59 96 60 97 61 98
REMARK H PARENT 22 5 4 8 4 9 11 17 26 32 85 51 53 62
REMARK Flexibility Score: inf
ROOT
ATOM      1  C   UNL     1       9.668   1.558  -0.845  1.00  0.00     0.118 C 
ENDROOT
BRANCH   1   2
ATOM      2  N   UNL     1       8.422   1.378  -0.116  1.00  0.00    -0.351 N 
ATOM      3  O   UNL     1       8.217  -0.900  -0.281  1.00  0.00    -0.269 OA
ATOM      4  C   UNL     1       7.788   0.179   0.123  1.00  0.00     0.275 C 
ATOM      5  H   UNL     1       7.992   2.189   0.239  1.00  0.00     0.163 HD
BRANCH   4   6
ATOM      6  C   UNL     1       6.441   0.269   0.897  1.00  0.00     0.362 C 
BRANCH   6   7
ATOM      7  N   UNL     1       6.231   1.592   1.557  1.00  0.00    -0.331 N 
ATOM      8  H   UNL     1       6.554   2.327   0.928  1.00  0.00     0.347 HD
ATOM      9  H   UNL     1       6.758   1.591   2.431  1.00  0.00     0.347 HD
BRANCH   7  10
ATOM     10  C   UNL     1       4.798   1.838   1.889  1.00  0.00     0.241 C 
ATOM     11  C   UNL     1       4.589   1.446   3.382  1.00  0.00     0.071 C 
ATOM     12  C   UNL     1       4.176   3.313   1.635  1.00  0.00     0.243 C 
ATOM     13  C   UNL     1       5.119   2.493   4.363  1.00  0.00     0.007 C 
ATOM     14  C   UNL     1       4.574   4.311   2.745  1.00  0.00     0.071 C 
ATOM     15  C   UNL     1       4.382   3.799   4.163  1.00  0.00     0.007 C 
BRANCH  12  16
ATOM     16  N   UNL     1       4.119   3.916   0.261  1.00  0.00    -0.321 N 
ATOM     17  H   UNL     1       3.795   3.018  -0.099  1.00  0.00     0.349 HD
BRANCH  16  18
ATOM     18  C   UNL     1       3.176   5.055   0.107  1.00  0.00     0.299 C 
BRANCH  18  19
ATOM     19  C   UNL     1       3.703   6.484   0.290  1.00  0.00     0.006 A 
ATOM     20  C   UNL     1       4.931   6.814   0.887  1.00  0.00     0.009 A 
ATOM     21  C   UNL     1       2.900   7.552  -0.137  1.00  0.00     0.009 A 
ATOM     22  C   UNL     1       5.301   8.131   1.155  1.00  0.00     0.001 A 
ATOM     23  C   UNL     1       3.281   8.879   0.095  1.00  0.00     0.001 A 
ATOM     24  C   UNL     1       4.466   9.167   0.769  1.00  0.00     0.000 A 
ENDBRANCH  18  19
ENDBRANCH  16  18
BRANCH  16  25
ATOM     25  C   UNL     1       5.265   4.130  -0.629  1.00  0.00     0.185 C 
ATOM     26  C   UNL     1       6.680   4.003  -0.208  1.00  0.00     0.071 C 
ATOM     27  C   UNL     1       6.051   2.996  -1.159  1.00  0.00     0.071 C 
ENDBRANCH  16  25
ENDBRANCH  12  16
ENDBRANCH   7  10
ENDBRANCH   6   7
ENDBRANCH   4   6
ENDBRANCH   1   2
BRANCH   1  28
ATOM     28  C   UNL     1       9.550   2.017  -2.309  1.00  0.00     0.042 C 
BRANCH  28  29
ATOM     29  C   UNL     1       9.241   3.485  -2.641  1.00  0.00     0.118 C 
BRANCH  29  30
ATOM     30  N   UNL     1      10.073   4.490  -2.006  1.00  0.00    -0.352 N 
ATOM     31  C   UNL     1      10.521   5.700  -2.491  1.00  0.00     0.251 C 
ATOM     32  H   UNL     1      10.361   4.275  -1.090  1.00  0.00     0.163 HD
ATOM     33  O   UNL     1      11.191   6.419  -1.744  1.00  0.00    -0.269 OA
BRANCH  31  34
ATOM     34  C   UNL     1      10.277   6.137  -3.893  1.00  0.00     0.039 A 
ATOM     35  C   UNL     1      11.356   6.672  -4.609  1.00  0.00     0.014 A 
ATOM     36  C   UNL     1       9.023   6.072  -4.507  1.00  0.00     0.014 A 
ATOM     37  C   UNL     1      11.203   7.055  -5.948  1.00  0.00     0.010 A 
ATOM     38  C   UNL     1       8.882   6.413  -5.863  1.00  0.00     0.010 A 
ATOM     39  C   UNL     1       9.976   6.886  -6.609  1.00  0.00    -0.014 A 
BRANCH  39  40
ATOM     40  C   UNL     1       9.854   7.146  -8.078  1.00  0.00     0.031 A 
ATOM     41  C   UNL     1       8.962   8.238  -8.611  1.00  0.00     0.074 A 
ATOM     42  C   UNL     1      10.526   6.364  -8.951  1.00  0.00     0.049 A 
ATOM     43  N   UNL     1       8.697   8.559  -9.854  1.00  0.00    -0.248 NA
ATOM     44  C   UNL     1       8.266   9.064  -7.617  1.00  0.00     0.031 C 
ATOM     45  C   UNL     1      11.413   5.260  -8.580  1.00  0.00     0.029 A 
ATOM     46  N   UNL     1      10.565   6.367 -10.326  1.00  0.00    -0.354 N 
ATOM     47  C   UNL     1       7.799   9.621  -9.795  1.00  0.00     0.074 A 
ATOM     48  C   UNL     1       7.530   9.852  -8.389  1.00  0.00     0.031 C 
ATOM     49  C   UNL     1      11.923   4.709  -9.693  1.00  0.00     0.029 A 
ATOM     50  C   UNL     1      11.360   5.378 -10.863  1.00  0.00     0.049 A 
ATOM     51  H   UNL     1      10.071   7.017 -10.877  1.00  0.00     0.167 HD
ATOM     52  C   UNL     1       7.262  10.345 -10.812  1.00  0.00     0.034 A 
ATOM     53  C   UNL     1      11.597   5.027 -12.144  1.00  0.00     0.034 A 
ATOM     54  C   UNL     1       7.532  10.106 -12.212  1.00  0.00     0.049 A 
ATOM     55  C   UNL     1      10.938   5.805 -13.257  1.00  0.00     0.074 A 
ATOM     56  C   UNL     1       7.071  10.814 -13.311  1.00  0.00     0.029 A 
ATOM     57  N   UNL     1       8.319   9.077 -12.714  1.00  0.00    -0.354 N 
ATOM     58  N   UNL     1      10.124   6.832 -13.178  1.00  0.00    -0.248 NA
ATOM     59  C   UNL     1      11.238   5.382 -14.632  1.00  0.00     0.031 C 
ATOM     60  C   UNL     1       7.506  10.166 -14.472  1.00  0.00     0.029 A 
ATOM     61  C   UNL     1       8.320   9.108 -14.103  1.00  0.00     0.049 A 
ATOM     62  H   UNL     1       8.805   8.420 -12.165  1.00  0.00     0.167 HD
ATOM     63  C   UNL     1       9.845   7.197 -14.494  1.00  0.00     0.074 A 
ATOM     64  C   UNL     1      10.589   6.291 -15.343  1.00  0.00     0.031 C 
ATOM     65  C   UNL     1       9.051   8.197 -14.954  1.00  0.00     0.034 A 
BRANCH  52  66
ATOM     66  C   UNL     1       6.292  11.448 -10.448  1.00  0.00     0.023 A 
ATOM     67  C   UNL     1       6.686  12.558  -9.681  1.00  0.00     0.031 A 
ATOM     68  C   UNL     1       4.952  11.389 -10.872  1.00  0.00     0.131 A 
ATOM     69  C   UNL     1       5.738  13.520  -9.298  1.00  0.00     0.055 A 
ATOM     70  C   UNL     1       4.033  12.393 -10.561  1.00  0.00     0.041 A 
ATOM     71  F   UNL     1       4.508  10.347 -11.593  1.00  0.00    -0.206 F 
ATOM     72  C   UNL     1       4.420  13.459  -9.755  1.00  0.00     0.022 A 
BRANCH  69  73
ATOM     73  S   UNL     1       6.216  14.767  -8.071  1.00  0.00     0.124 S 
ATOM     74  O   UNL     1       6.641  13.931  -6.950  1.00  0.00    -0.237 OA
ATOM     75  O   UNL     1       7.274  15.498  -8.759  1.00  0.00    -0.237 OA
ATOM     76  O   UNL     1       4.982  15.517  -7.845  1.00  0.00    -0.744 OA
ENDBRANCH  69  73
ENDBRANCH  52  66
BRANCH  53  77
ATOM     77  C   UNL     1      12.477   3.862 -12.460  1.00  0.00     0.023 A 
ATOM     78  C   UNL     1      13.669   4.026 -13.183  1.00  0.00     0.031 A 
ATOM     79  C   UNL     1      12.108   2.555 -12.090  1.00  0.00     0.131 A 
ATOM     80  C   UNL     1      14.422   2.902 -13.558  1.00  0.00     0.055 A 
ATOM     81  C   UNL     1      12.892   1.446 -12.411  1.00  0.00     0.041 A 
ATOM     82  F   UNL     1      10.976   2.339 -11.400  1.00  0.00    -0.206 F 
ATOM     83  C   UNL     1      14.051   1.615 -13.162  1.00  0.00     0.022 A 
BRANCH  80  84
ATOM     84  S   UNL     1      15.844   3.135 -14.661  1.00  0.00     0.124 S 
ATOM     85  O   UNL     1      15.220   3.765 -15.819  1.00  0.00    -0.237 OA
ATOM     86  O   UNL     1      16.714   3.987 -13.857  1.00  0.00    -0.237 OA
ATOM     87  O   UNL     1      16.334   1.776 -14.877  1.00  0.00    -0.744 OA
ENDBRANCH  80  84
ENDBRANCH  53  77
BRANCH  65  88
ATOM     88  C   UNL     1       8.986   8.398 -16.452  1.00  0.00     0.023 A 
ATOM     89  C   UNL     1       8.434   7.432 -17.312  1.00  0.00     0.031 A 
ATOM     90  C   UNL     1       9.499   9.575 -17.028  1.00  0.00     0.131 A 
ATOM     91  C   UNL     1       8.459   7.634 -18.702  1.00  0.00     0.055 A 
ATOM     92  C   UNL     1       9.461   9.799 -18.406  1.00  0.00     0.041 A 
ATOM     93  F   UNL     1      10.046  10.531 -16.260  1.00  0.00    -0.206 F 
ATOM     94  C   UNL     1       8.952   8.820 -19.252  1.00  0.00     0.022 A 
BRANCH  91  95
ATOM     95  S   UNL     1       7.931   6.282 -19.791  1.00  0.00     0.124 S 
ATOM     96  O   UNL     1       8.835   5.205 -19.399  1.00  0.00    -0.237 OA
ATOM     97  O   UNL     1       6.532   6.108 -19.418  1.00  0.00    -0.237 OA
ATOM     98  O   UNL     1       8.152   6.817 -21.134  1.00  0.00    -0.744 OA
ENDBRANCH  91  95
ENDBRANCH  65  88
ENDBRANCH  39  40
ENDBRANCH  31  34
ENDBRANCH  29  30
ENDBRANCH  28  29
ENDBRANCH   1  28
TORSDOF 19
