REMARK SMILES CC(C)CN(C)c1cc2c(cc1Cl)C=C(C(=O)NCCCNC(=O)c1ccc(-c3c4nc(c(-c5cc(S(=O)(=O)[O-])ccc5F)c5ccc([nH]5)c(-c5cc(S(=O)(=O)[O-])ccc5F)c5nc(c(-c6cc(S(=O)(=O)[O-])ccc6F)c6ccc3[nH]6)C=C5)C=C4)cc1)[C@H](C(F)(F)F)O2
REMARK SMILES IDX 20 1 19 2 18 3 16 4 17 5 15 7 7 8 8 9 12 10 9 11 11 12 13 13
REMARK SMILES IDX 10 14 93 15 14 16 88 17 5 18 6 19 4 20 2 21 1 22 3 23 89 24
REMARK SMILES IDX 90 25 91 26 92 27 21 28 22 29 23 30 24 32 25 33 26 34 87 35
REMARK SMILES IDX 27 36 86 37 28 38 29 39 30 40 80 41 31 42 85 43 79 44 81 45
REMARK SMILES IDX 32 46 84 47 78 48 77 49 33 51 65 52 45 53 64 54 46 55 49 56
REMARK SMILES IDX 63 57 82 58 47 59 48 60 62 62 83 63 50 64 34 65 35 66 43 67
REMARK SMILES IDX 36 68 42 69 44 70 41 71 37 72 38 73 39 74 40 75 66 76 67 77
REMARK SMILES IDX 75 78 68 79 74 80 76 81 73 82 69 83 70 84 71 85 72 86 51 87
REMARK SMILES IDX 52 88 60 89 53 90 59 91 61 92 58 93 54 94 55 95 56 96 57 97
REMARK H PARENT 18 6 22 31 81 50 49 61
REMARK Flexibility Score: inf
ROOT
ATOM      1  C   UNL     1      -4.397   4.535   7.254  1.00  0.00     0.042 C 
ENDROOT
BRANCH   1   2
ATOM      2  C   UNL     1      -3.381   5.321   6.434  1.00  0.00     0.118 C 
BRANCH   2   3
ATOM      3  N   UNL     1      -2.038   4.796   6.612  1.00  0.00    -0.352 N 
ATOM      4  C   UNL     1      -1.171   4.088   5.853  1.00  0.00     0.251 C 
ATOM      5  O   UNL     1      -0.053   3.898   6.338  1.00  0.00    -0.270 OA
ATOM      6  H   UNL     1      -1.670   5.006   7.500  1.00  0.00     0.163 HD
BRANCH   4   7
ATOM      7  C   UNL     1      -1.481   3.576   4.489  1.00  0.00     0.067 C 
ATOM      8  C   UNL     1      -0.921   1.791  -0.214  1.00  0.00     0.059 A 
ATOM      9  C   UNL     1      -1.998   1.939   0.674  1.00  0.00     0.074 A 
ATOM     10  C   UNL     1       0.318   2.341   0.178  1.00  0.00     0.065 A 
ATOM     11  C   UNL     1      -1.834   2.538   1.923  1.00  0.00     0.130 A 
ATOM     12  C   UNL     1       0.497   2.878   1.459  1.00  0.00     0.034 A 
ATOM     13  Cl  UNL     1       1.674   2.412  -0.896  1.00  0.00    -0.082 Cl
ATOM     14  C   UNL     1      -0.580   2.961   2.341  1.00  0.00     0.019 A 
ATOM     15  O   UNL     1      -2.966   2.686   2.663  1.00  0.00    -0.475 OA
ATOM     16  C   UNL     1      -0.410   3.493   3.681  1.00  0.00     0.025 C 
ATOM     17  C   UNL     1      -2.845   3.105   4.050  1.00  0.00     0.314 C 
BRANCH   8  18
ATOM     18  N   UNL     1      -1.087   1.073  -1.411  1.00  0.00    -0.373 N 
ATOM     19  C   UNL     1      -2.160   1.558  -2.280  1.00  0.00     0.143 C 
BRANCH  18  20
ATOM     20  C   UNL     1      -0.962  -0.400  -1.289  1.00  0.00     0.119 C 
BRANCH  20  21
ATOM     21  C   UNL     1       0.507  -0.872  -1.257  1.00  0.00     0.002 C 
ATOM     22  C   UNL     1       1.037  -1.041   0.171  1.00  0.00     0.009 C 
ATOM     23  C   UNL     1       0.678  -2.203  -1.996  1.00  0.00     0.009 C 
ENDBRANCH  20  21
ENDBRANCH  18  20
ENDBRANCH   8  18
BRANCH  17  24
ATOM     24  C   UNL     1      -3.467   1.999   4.920  1.00  0.00     0.429 C 
ATOM     25  F   UNL     1      -3.397   0.781   4.336  1.00  0.00    -0.167 F 
ATOM     26  F   UNL     1      -2.889   1.889   6.135  1.00  0.00    -0.167 F 
ATOM     27  F   UNL     1      -4.782   2.268   5.128  1.00  0.00    -0.167 F 
ENDBRANCH  17  24
ENDBRANCH   4   7
ENDBRANCH   2   3
ENDBRANCH   1   2
BRANCH   1  28
ATOM     28  C   UNL     1      -4.349   4.870   8.738  1.00  0.00     0.118 C 
BRANCH  28  29
ATOM     29  N   UNL     1      -4.916   6.183   9.025  1.00  0.00    -0.352 N 
ATOM     30  C   UNL     1      -6.011   6.519   9.787  1.00  0.00     0.251 C 
ATOM     31  H   UNL     1      -4.445   6.942   8.611  1.00  0.00     0.163 HD
ATOM     32  O   UNL     1      -6.463   7.662   9.720  1.00  0.00    -0.269 OA
BRANCH  30  33
ATOM     33  C   UNL     1      -6.656   5.506  10.651  1.00  0.00     0.039 A 
ATOM     34  C   UNL     1      -5.884   4.582  11.354  1.00  0.00     0.014 A 
ATOM     35  C   UNL     1      -8.050   5.456  10.740  1.00  0.00     0.014 A 
ATOM     36  C   UNL     1      -6.495   3.485  11.946  1.00  0.00     0.010 A 
ATOM     37  C   UNL     1      -8.665   4.419  11.451  1.00  0.00     0.010 A 
ATOM     38  C   UNL     1      -7.894   3.384  12.003  1.00  0.00    -0.014 A 
BRANCH  38  39
ATOM     39  C   UNL     1      -8.511   2.181  12.632  1.00  0.00     0.031 A 
ATOM     40  C   UNL     1      -9.411   1.268  11.839  1.00  0.00     0.074 A 
ATOM     41  C   UNL     1      -8.195   1.872  13.907  1.00  0.00     0.049 A 
ATOM     42  N   UNL     1      -9.990   0.157  12.215  1.00  0.00    -0.248 NA
ATOM     43  C   UNL     1      -9.710   1.650  10.449  1.00  0.00     0.031 C 
ATOM     44  C   UNL     1      -7.333   2.679  14.772  1.00  0.00     0.029 A 
ATOM     45  N   UNL     1      -8.526   0.792  14.688  1.00  0.00    -0.354 N 
ATOM     46  C   UNL     1     -10.734  -0.279  11.123  1.00  0.00     0.074 A 
ATOM     47  C   UNL     1     -10.570   0.709  10.083  1.00  0.00     0.031 C 
ATOM     48  C   UNL     1      -7.144   2.036  15.931  1.00  0.00     0.029 A 
ATOM     49  C   UNL     1      -7.941   0.813  15.935  1.00  0.00     0.049 A 
ATOM     50  H   UNL     1      -9.124   0.071  14.386  1.00  0.00     0.167 HD
ATOM     51  C   UNL     1     -11.470  -1.409  10.997  1.00  0.00     0.034 A 
ATOM     52  C   UNL     1      -8.039  -0.042  16.974  1.00  0.00     0.034 A 
ATOM     53  C   UNL     1     -11.595  -2.402  12.035  1.00  0.00     0.049 A 
ATOM     54  C   UNL     1      -8.875  -1.285  16.811  1.00  0.00     0.074 A 
ATOM     55  C   UNL     1     -12.297  -3.594  11.993  1.00  0.00     0.029 A 
ATOM     56  N   UNL     1     -11.004  -2.332  13.289  1.00  0.00    -0.354 N 
ATOM     57  N   UNL     1      -9.540  -1.696  15.757  1.00  0.00    -0.248 NA
ATOM     58  C   UNL     1      -8.971  -2.187  17.966  1.00  0.00     0.031 C 
ATOM     59  C   UNL     1     -12.196  -4.204  13.241  1.00  0.00     0.029 A 
ATOM     60  C   UNL     1     -11.346  -3.449  14.033  1.00  0.00     0.049 A 
ATOM     61  H   UNL     1     -10.428  -1.598  13.602  1.00  0.00     0.167 HD
ATOM     62  C   UNL     1     -10.100  -2.921  16.110  1.00  0.00     0.074 A 
ATOM     63  C   UNL     1      -9.680  -3.192  17.468  1.00  0.00     0.031 C 
ATOM     64  C   UNL     1     -10.892  -3.739  15.373  1.00  0.00     0.034 A 
BRANCH  51  65
ATOM     65  C   UNL     1     -12.196  -1.672   9.698  1.00  0.00     0.023 A 
ATOM     66  C   UNL     1     -13.598  -1.807   9.697  1.00  0.00     0.031 A 
ATOM     67  C   UNL     1     -11.504  -1.947   8.506  1.00  0.00     0.131 A 
ATOM     68  C   UNL     1     -14.256  -2.257   8.545  1.00  0.00     0.055 A 
ATOM     69  C   UNL     1     -12.170  -2.344   7.345  1.00  0.00     0.041 A 
ATOM     70  F   UNL     1     -10.166  -1.836   8.452  1.00  0.00    -0.206 F 
ATOM     71  C   UNL     1     -13.551  -2.517   7.366  1.00  0.00     0.022 A 
BRANCH  68  72
ATOM     72  S   UNL     1     -16.036  -2.606   8.558  1.00  0.00     0.124 S 
ATOM     73  O   UNL     1     -16.521  -1.729   7.494  1.00  0.00    -0.237 OA
ATOM     74  O   UNL     1     -16.069  -4.033   8.253  1.00  0.00    -0.237 OA
ATOM     75  O   UNL     1     -16.457  -2.237   9.905  1.00  0.00    -0.744 OA
ENDBRANCH  68  72
ENDBRANCH  51  65
BRANCH  52  76
ATOM     76  C   UNL     1      -7.284   0.247  18.230  1.00  0.00     0.023 A 
ATOM     77  C   UNL     1      -7.505   1.440  18.945  1.00  0.00     0.031 A 
ATOM     78  C   UNL     1      -6.259  -0.604  18.675  1.00  0.00     0.131 A 
ATOM     79  C   UNL     1      -6.664   1.784  20.009  1.00  0.00     0.055 A 
ATOM     80  C   UNL     1      -5.478  -0.298  19.792  1.00  0.00     0.041 A 
ATOM     81  F   UNL     1      -5.995  -1.746  18.021  1.00  0.00    -0.206 F 
ATOM     82  C   UNL     1      -5.665   0.913  20.452  1.00  0.00     0.022 A 
BRANCH  79  83
ATOM     83  S   UNL     1      -6.739   3.438  20.753  1.00  0.00     0.124 S 
ATOM     84  O   UNL     1      -7.063   3.133  22.143  1.00  0.00    -0.237 OA
ATOM     85  O   UNL     1      -5.386   3.934  20.513  1.00  0.00    -0.237 OA
ATOM     86  O   UNL     1      -7.788   4.110  19.992  1.00  0.00    -0.744 OA
ENDBRANCH  79  83
ENDBRANCH  52  76
BRANCH  64  87
ATOM     87  C   UNL     1     -11.345  -5.051  15.969  1.00  0.00     0.023 A 
ATOM     88  C   UNL     1     -11.000  -6.258  15.328  1.00  0.00     0.031 A 
ATOM     89  C   UNL     1     -12.248  -5.107  17.045  1.00  0.00     0.131 A 
ATOM     90  C   UNL     1     -11.597  -7.459  15.729  1.00  0.00     0.055 A 
ATOM     91  C   UNL     1     -12.793  -6.316  17.481  1.00  0.00     0.041 A 
ATOM     92  F   UNL     1     -12.622  -3.985  17.680  1.00  0.00    -0.206 F 
ATOM     93  C   UNL     1     -12.482  -7.496  16.810  1.00  0.00     0.022 A 
BRANCH  90  94
ATOM     94  S   UNL     1     -11.336  -8.990  14.792  1.00  0.00     0.124 S 
ATOM     95  O   UNL     1     -10.720  -9.856  15.795  1.00  0.00    -0.237 OA
ATOM     96  O   UNL     1     -12.698  -9.351  14.409  1.00  0.00    -0.237 OA
ATOM     97  O   UNL     1     -10.461  -8.589  13.696  1.00  0.00    -0.744 OA
ENDBRANCH  90  94
ENDBRANCH  64  87
ENDBRANCH  38  39
ENDBRANCH  30  33
ENDBRANCH  28  29
ENDBRANCH   1  28
TORSDOF 17
