REMARK SMILES O=C(NCCCNC(=O)c1ccc2c(=O)n(CCC[NH+]3CCOCC3)c(=O)[nH]c2c1)c1ccc(-c2c3nc(c(-c4cc(S(=O)(=O)[O-])ccc4F)c4ccc([nH]4)c(-c4cc(S(=O)(=O)[O-])ccc4F)c4nc(c(-c5cc(S(=O)(=O)[O-])ccc5F)c5ccc2[nH]5)C=C4)C=C3)cc1
REMARK SMILES IDX 5 1 4 2 3 3 1 4 2 5 31 7 32 8 93 9 33 10 92 11 34 12 35 13
REMARK SMILES IDX 36 14 86 15 37 16 91 17 85 18 87 19 38 20 90 21 84 22 83 23
REMARK SMILES IDX 39 25 71 26 51 27 70 28 52 29 55 30 69 31 88 32 53 33 54 34
REMARK SMILES IDX 68 36 89 37 56 38 40 39 41 40 49 41 42 42 48 43 50 44 47 45
REMARK SMILES IDX 43 46 44 47 45 48 46 49 72 50 73 51 81 52 74 53 80 54 82 55
REMARK SMILES IDX 79 56 75 57 76 58 77 59 78 60 57 61 58 62 66 63 59 64 65 65
REMARK SMILES IDX 67 66 64 67 60 68 61 69 62 70 63 71 6 72 7 73 8 74 9 76
REMARK SMILES IDX 10 77 11 78 30 79 12 80 29 81 13 82 28 83 14 84 26 85 15 87
REMARK SMILES IDX 16 88 27 89 17 90 18 91 19 92 20 93 21 94 25 95 22 97 24 98
REMARK SMILES IDX 23 99
REMARK H PARENT 3 6 87 24 55 35 7 75 28 86 20 96
REMARK Flexibility Score: inf
ROOT
ATOM      1  C   UNL     1       4.958   2.439  -0.439  1.00  0.00     0.042 C 
ENDROOT
BRANCH   1   2
ATOM      2  C   UNL     1       4.553   1.196   0.340  1.00  0.00     0.118 C 
BRANCH   2   3
ATOM      3  N   UNL     1       3.109   1.021   0.390  1.00  0.00    -0.352 N 
ATOM      4  O   UNL     1       1.112   0.136  -0.125  1.00  0.00    -0.269 OA
ATOM      5  C   UNL     1       2.331  -0.011  -0.068  1.00  0.00     0.251 C 
ATOM      6  H   UNL     1       2.615   1.757   0.820  1.00  0.00     0.163 HD
BRANCH   5   7
ATOM      7  C   UNL     1       2.946  -1.289  -0.486  1.00  0.00     0.039 A 
ATOM      8  C   UNL     1       2.402  -1.977  -1.574  1.00  0.00     0.014 A 
ATOM      9  C   UNL     1       4.017  -1.840   0.223  1.00  0.00     0.014 A 
ATOM     10  C   UNL     1       2.941  -3.207  -1.956  1.00  0.00     0.010 A 
ATOM     11  C   UNL     1       4.615  -3.014  -0.219  1.00  0.00     0.010 A 
ATOM     12  C   UNL     1       4.058  -3.732  -1.285  1.00  0.00    -0.014 A 
BRANCH  12  13
ATOM     13  C   UNL     1       4.613  -5.065  -1.630  1.00  0.00     0.031 A 
ATOM     14  C   UNL     1       4.589  -6.170  -0.609  1.00  0.00     0.074 A 
ATOM     15  C   UNL     1       5.176  -5.269  -2.835  1.00  0.00     0.049 A 
ATOM     16  N   UNL     1       5.068  -7.383  -0.695  1.00  0.00    -0.248 NA
ATOM     17  C   UNL     1       3.971  -5.862   0.692  1.00  0.00     0.031 C 
ATOM     18  C   UNL     1       5.287  -4.262  -3.888  1.00  0.00     0.029 A 
ATOM     19  N   UNL     1       5.764  -6.386  -3.375  1.00  0.00    -0.354 N 
ATOM     20  C   UNL     1       4.829  -7.972   0.542  1.00  0.00     0.074 A 
ATOM     21  C   UNL     1       4.227  -6.963   1.382  1.00  0.00     0.031 C 
ATOM     22  C   UNL     1       5.877  -4.814  -4.959  1.00  0.00     0.029 A 
ATOM     23  C   UNL     1       6.235  -6.198  -4.653  1.00  0.00     0.049 A 
ATOM     24  H   UNL     1       5.841  -7.241  -2.893  1.00  0.00     0.167 HD
ATOM     25  C   UNL     1       5.060  -9.248   0.929  1.00  0.00     0.034 A 
ATOM     26  C   UNL     1       6.887  -7.039  -5.484  1.00  0.00     0.034 A 
ATOM     27  C   UNL     1       5.628 -10.248   0.063  1.00  0.00     0.049 A 
ATOM     28  C   UNL     1       7.142  -8.456  -5.035  1.00  0.00     0.074 A 
ATOM     29  C   UNL     1       5.831 -11.589   0.332  1.00  0.00     0.029 A 
ATOM     30  N   UNL     1       6.084 -10.025  -1.229  1.00  0.00    -0.354 N 
ATOM     31  N   UNL     1       6.823  -9.028  -3.897  1.00  0.00    -0.248 NA
ATOM     32  C   UNL     1       7.832  -9.346  -5.978  1.00  0.00     0.031 C 
ATOM     33  C   UNL     1       6.487 -12.156  -0.760  1.00  0.00     0.029 A 
ATOM     34  C   UNL     1       6.608 -11.195  -1.753  1.00  0.00     0.049 A 
ATOM     35  H   UNL     1       6.041  -9.163  -1.702  1.00  0.00     0.167 HD
ATOM     36  C   UNL     1       7.253 -10.349  -3.995  1.00  0.00     0.074 A 
ATOM     37  C   UNL     1       7.833 -10.496  -5.314  1.00  0.00     0.031 C 
ATOM     38  C   UNL     1       7.178 -11.343  -3.073  1.00  0.00     0.034 A 
BRANCH  25  39
ATOM     39  C   UNL     1       4.690  -9.658   2.335  1.00  0.00     0.023 A 
ATOM     40  C   UNL     1       5.679 -10.159   3.201  1.00  0.00     0.031 A 
ATOM     41  C   UNL     1       3.354  -9.671   2.778  1.00  0.00     0.131 A 
ATOM     42  C   UNL     1       5.316 -10.681   4.448  1.00  0.00     0.055 A 
ATOM     43  C   UNL     1       3.004 -10.140   4.045  1.00  0.00     0.041 A 
ATOM     44  F   UNL     1       2.368  -9.212   1.990  1.00  0.00    -0.206 F 
ATOM     45  C   UNL     1       3.986 -10.663   4.880  1.00  0.00     0.022 A 
BRANCH  42  46
ATOM     46  S   UNL     1       6.539 -11.479   5.522  1.00  0.00     0.124 S 
ATOM     47  O   UNL     1       6.470 -10.649   6.723  1.00  0.00    -0.237 OA
ATOM     48  O   UNL     1       5.989 -12.825   5.663  1.00  0.00    -0.237 OA
ATOM     49  O   UNL     1       7.785 -11.382   4.770  1.00  0.00    -0.744 OA
ENDBRANCH  42  46
ENDBRANCH  25  39
BRANCH  26  50
ATOM     50  C   UNL     1       7.263  -6.550  -6.843  1.00  0.00     0.023 A 
ATOM     51  C   UNL     1       8.140  -5.461  -6.999  1.00  0.00     0.031 A 
ATOM     52  C   UNL     1       6.631  -7.060  -7.989  1.00  0.00     0.131 A 
ATOM     53  C   UNL     1       8.283  -4.856  -8.255  1.00  0.00     0.055 A 
ATOM     54  C   UNL     1       6.841  -6.505  -9.253  1.00  0.00     0.041 A 
ATOM     55  F   UNL     1       5.777  -8.089  -7.889  1.00  0.00    -0.206 F 
ATOM     56  C   UNL     1       7.653  -5.382  -9.387  1.00  0.00     0.022 A 
BRANCH  53  57
ATOM     57  S   UNL     1       9.159  -3.276  -8.428  1.00  0.00     0.124 S 
ATOM     58  O   UNL     1      10.165  -3.591  -9.437  1.00  0.00    -0.237 OA
ATOM     59  O   UNL     1       8.083  -2.389  -8.865  1.00  0.00    -0.237 OA
ATOM     60  O   UNL     1       9.670  -3.015  -7.087  1.00  0.00    -0.744 OA
ENDBRANCH  53  57
ENDBRANCH  26  50
BRANCH  38  61
ATOM     61  C   UNL     1       7.731 -12.706  -3.419  1.00  0.00     0.023 A 
ATOM     62  C   UNL     1       6.883 -13.832  -3.406  1.00  0.00     0.031 A 
ATOM     63  C   UNL     1       9.112 -12.919  -3.572  1.00  0.00     0.131 A 
ATOM     64  C   UNL     1       7.429 -15.119  -3.479  1.00  0.00     0.055 A 
ATOM     65  C   UNL     1       9.645 -14.202  -3.705  1.00  0.00     0.041 A 
ATOM     66  F   UNL     1       9.965 -11.882  -3.578  1.00  0.00    -0.206 F 
ATOM     67  C   UNL     1       8.805 -15.310  -3.639  1.00  0.00     0.022 A 
BRANCH  64  68
ATOM     68  S   UNL     1       6.391 -16.590  -3.254  1.00  0.00     0.124 S 
ATOM     69  O   UNL     1       6.598 -17.302  -4.513  1.00  0.00    -0.237 OA
ATOM     70  O   UNL     1       6.993 -17.214  -2.079  1.00  0.00    -0.237 OA
ATOM     71  O   UNL     1       5.050 -16.049  -3.060  1.00  0.00    -0.744 OA
ENDBRANCH  64  68
ENDBRANCH  38  61
ENDBRANCH  12  13
ENDBRANCH   5   7
ENDBRANCH   2   3
ENDBRANCH   1   2
BRANCH   1  72
ATOM     72  C   UNL     1       4.418   3.736   0.149  1.00  0.00     0.118 C 
BRANCH  72  73
ATOM     73  N   UNL     1       4.928   3.976   1.492  1.00  0.00    -0.352 N 
ATOM     74  C   UNL     1       5.797   4.945   1.912  1.00  0.00     0.251 C 
ATOM     75  H   UNL     1       4.605   3.360   2.189  1.00  0.00     0.163 HD
ATOM     76  O   UNL     1       6.304   4.915   3.030  1.00  0.00    -0.269 OA
BRANCH  74  77
ATOM     77  C   UNL     1       6.115   6.052   1.001  1.00  0.00     0.041 A 
ATOM     78  C   UNL     1       5.083   6.886   0.550  1.00  0.00     0.015 A 
ATOM     79  C   UNL     1       7.441   6.242   0.597  1.00  0.00     0.040 A 
ATOM     80  C   UNL     1       5.378   7.922  -0.326  1.00  0.00     0.017 A 
ATOM     81  C   UNL     1       7.717   7.257  -0.312  1.00  0.00     0.056 A 
ATOM     82  C   UNL     1       6.699   8.103  -0.741  1.00  0.00     0.064 A 
ATOM     83  N   UNL     1       8.999   7.415  -0.834  1.00  0.00    -0.307 N 
ATOM     84  C   UNL     1       7.045   9.201  -1.647  1.00  0.00     0.264 A 
ATOM     85  C   UNL     1       9.296   8.277  -1.857  1.00  0.00     0.328 A 
ATOM     86  H   UNL     1       9.729   6.879  -0.448  1.00  0.00     0.171 HD
ATOM     87  O   UNL     1       6.272  10.149  -1.746  1.00  0.00    -0.268 OA
ATOM     88  N   UNL     1       8.263   9.088  -2.304  1.00  0.00    -0.260 N 
ATOM     89  O   UNL     1      10.439   8.299  -2.312  1.00  0.00    -0.248 OA
BRANCH  88  90
ATOM     90  C   UNL     1       8.496   9.976  -3.431  1.00  0.00     0.137 C 
BRANCH  90  91
ATOM     91  C   UNL     1       8.054   9.371  -4.772  1.00  0.00     0.083 C 
BRANCH  91  92
ATOM     92  C   UNL     1       6.559   9.049  -4.955  1.00  0.00     0.264 C 
BRANCH  92  93
ATOM     93  N   UNL     1       5.571  10.119  -4.763  1.00  0.00    -0.331 N 
ATOM     94  C   UNL     1       4.252   9.742  -5.326  1.00  0.00     0.291 C 
ATOM     95  C   UNL     1       5.923  11.447  -5.291  1.00  0.00     0.291 C 
ATOM     96  H   UNL     1       5.545  10.213  -3.748  1.00  0.00     0.348 HD
ATOM     97  C   UNL     1       4.180   9.878  -6.862  1.00  0.00     0.221 C 
ATOM     98  C   UNL     1       5.854  11.538  -6.819  1.00  0.00     0.221 C 
ATOM     99  O   UNL     1       4.548  11.195  -7.297  1.00  0.00    -0.370 OA
ENDBRANCH  92  93
ENDBRANCH  91  92
ENDBRANCH  90  91
ENDBRANCH  88  90
ENDBRANCH  74  77
ENDBRANCH  72  73
ENDBRANCH   1  72
TORSDOF 17
