REMARK SMILES CC(C)(C)OC(=O)Nc1ccc(-c2cccc(Cl)c2C(=O)NCCCNC(=O)c2ccc(-c3c4nc(c(-c5cc(S(=O)(=O)[O-])ccc5F)c5ccc([nH]5)c(-c5cc(S(=O)(=O)[O-])ccc5F)c5nc(c(-c6cc(S(=O)(=O)[O-])ccc6F)c6ccc3[nH]6)C=C5)C=C4)cc2)cc1
REMARK SMILES IDX 23 1 22 2 20 3 21 4 19 6 13 7 14 8 15 9 17 10 16 11 18 12
REMARK SMILES IDX 12 13 9 14 10 15 93 16 11 17 92 18 8 19 6 20 7 21 5 23 2 24
REMARK SMILES IDX 1 25 3 26 4 27 24 28 25 29 26 30 27 31 28 33 29 34 30 35
REMARK SMILES IDX 91 36 31 37 90 38 32 39 33 40 34 41 84 42 35 43 89 44 83 45
REMARK SMILES IDX 85 46 36 47 88 48 82 49 81 50 37 52 69 53 49 54 68 55 50 56
REMARK SMILES IDX 53 57 67 58 86 59 51 60 52 61 66 63 87 64 54 65 38 66 39 67
REMARK SMILES IDX 47 68 40 69 46 70 48 71 45 72 41 73 42 74 43 75 44 76 70 77
REMARK SMILES IDX 71 78 79 79 72 80 78 81 80 82 77 83 73 84 74 85 75 86 76 87
REMARK SMILES IDX 55 88 56 89 64 90 57 91 63 92 65 93 62 94 58 95 59 96 60 97
REMARK SMILES IDX 61 98
REMARK H PARENT 22 5 8 22 26 32 85 51 53 62
REMARK Flexibility Score: inf
ROOT
ATOM      1  C   UNL     1       5.224   1.894   4.777  1.00  0.00     0.118 C 
ENDROOT
BRANCH   1   2
ATOM      2  N   UNL     1       6.279   1.394   5.621  1.00  0.00    -0.352 N 
ATOM      3  C   UNL     1       6.509   0.042   5.751  1.00  0.00     0.253 C 
ATOM      4  O   UNL     1       7.490  -0.429   5.174  1.00  0.00    -0.269 OA
ATOM      5  H   UNL     1       6.846   2.030   6.115  1.00  0.00     0.163 HD
BRANCH   3   6
ATOM      6  C   UNL     1       5.751  -0.811   6.724  1.00  0.00     0.066 A 
ATOM      7  C   UNL     1       4.365  -1.142   6.681  1.00  0.00    -0.004 A 
ATOM      8  C   UNL     1       3.895  -2.179   7.525  1.00  0.00     0.009 A 
ATOM      9  C   UNL     1       4.727  -2.858   8.406  1.00  0.00     0.002 A 
ATOM     10  C   UNL     1       6.564  -1.468   7.685  1.00  0.00     0.054 A 
ATOM     11  C   UNL     1       6.056  -2.485   8.503  1.00  0.00     0.021 A 
ATOM     12  Cl  UNL     1       8.219  -1.033   8.006  1.00  0.00    -0.083 Cl
BRANCH   7  13
ATOM     13  C   UNL     1       3.302  -0.468   5.915  1.00  0.00    -0.017 A 
ATOM     14  C   UNL     1       1.372   1.064   4.494  1.00  0.00     0.044 A 
ATOM     15  C   UNL     1       1.487   1.171   5.883  1.00  0.00     0.027 A 
ATOM     16  C   UNL     1       2.141   0.095   3.841  1.00  0.00     0.027 A 
ATOM     17  C   UNL     1       2.443   0.425   6.581  1.00  0.00     0.011 A 
ATOM     18  C   UNL     1       3.078  -0.688   4.549  1.00  0.00     0.011 A 
BRANCH  14  19
ATOM     19  N   UNL     1       0.525   1.999   3.869  1.00  0.00    -0.291 N 
ATOM     20  C   UNL     1       0.175   2.199   2.562  1.00  0.00     0.412 C 
ATOM     21  O   UNL     1      -0.571   3.132   2.267  1.00  0.00    -0.224 OA
ATOM     22  H   UNL     1       0.104   2.633   4.494  1.00  0.00     0.173 HD
BRANCH  20  23
ATOM     23  O   UNL     1       0.648   1.283   1.696  1.00  0.00    -0.444 OA
BRANCH  23  24
ATOM     24  C   UNL     1       0.196   1.233   0.320  1.00  0.00     0.106 C 
ATOM     25  C   UNL     1       0.812  -0.067  -0.215  1.00  0.00     0.056 C 
ATOM     26  C   UNL     1       0.722   2.405  -0.511  1.00  0.00     0.056 C 
ATOM     27  C   UNL     1      -1.332   1.129   0.234  1.00  0.00     0.056 C 
ENDBRANCH  23  24
ENDBRANCH  20  23
ENDBRANCH  14  19
ENDBRANCH   7  13
ENDBRANCH   3   6
ENDBRANCH   1   2
BRANCH   1  28
ATOM     28  C   UNL     1       4.593   3.176   5.268  1.00  0.00     0.042 C 
BRANCH  28  29
ATOM     29  C   UNL     1       4.612   4.282   4.230  1.00  0.00     0.118 C 
BRANCH  29  30
ATOM     30  N   UNL     1       4.119   3.900   2.912  1.00  0.00    -0.352 N 
ATOM     31  C   UNL     1       3.264   4.532   2.043  1.00  0.00     0.251 C 
ATOM     32  H   UNL     1       4.459   3.035   2.587  1.00  0.00     0.163 HD
ATOM     33  O   UNL     1       3.049   4.016   0.950  1.00  0.00    -0.269 OA
BRANCH  31  34
ATOM     34  C   UNL     1       2.576   5.781   2.424  1.00  0.00     0.039 A 
ATOM     35  C   UNL     1       1.252   5.970   2.018  1.00  0.00     0.014 A 
ATOM     36  C   UNL     1       3.211   6.756   3.190  1.00  0.00     0.014 A 
ATOM     37  C   UNL     1       0.547   7.092   2.453  1.00  0.00     0.010 A 
ATOM     38  C   UNL     1       2.474   7.795   3.735  1.00  0.00     0.010 A 
ATOM     39  C   UNL     1       1.142   7.988   3.351  1.00  0.00    -0.014 A 
BRANCH  39  40
ATOM     40  C   UNL     1       0.415   9.176   3.853  1.00  0.00     0.031 A 
ATOM     41  C   UNL     1       0.947  10.546   3.533  1.00  0.00     0.074 A 
ATOM     42  C   UNL     1      -0.672   9.011   4.630  1.00  0.00     0.049 A 
ATOM     43  N   UNL     1       0.516  11.714   3.930  1.00  0.00    -0.248 NA
ATOM     44  C   UNL     1       2.150  10.611   2.685  1.00  0.00     0.031 C 
ATOM     45  C   UNL     1      -1.239   7.719   5.030  1.00  0.00     0.029 A 
ATOM     46  N   UNL     1      -1.494   9.930   5.229  1.00  0.00    -0.354 N 
ATOM     47  C   UNL     1       1.402  12.643   3.396  1.00  0.00     0.074 A 
ATOM     48  C   UNL     1       2.436  11.902   2.711  1.00  0.00     0.031 C 
ATOM     49  C   UNL     1      -2.331   7.931   5.782  1.00  0.00     0.029 A 
ATOM     50  C   UNL     1      -2.515   9.367   5.960  1.00  0.00     0.049 A 
ATOM     51  H   UNL     1      -1.366  10.902   5.144  1.00  0.00     0.167 HD
ATOM     52  C   UNL     1       1.339  13.995   3.451  1.00  0.00     0.034 A 
ATOM     53  C   UNL     1      -3.481   9.949   6.697  1.00  0.00     0.034 A 
ATOM     54  C   UNL     1       0.282  14.705   4.122  1.00  0.00     0.049 A 
ATOM     55  C   UNL     1      -3.522  11.457   6.748  1.00  0.00     0.074 A 
ATOM     56  C   UNL     1       0.072  16.070   4.194  1.00  0.00     0.029 A 
ATOM     57  N   UNL     1      -0.742  14.105   4.846  1.00  0.00    -0.354 N 
ATOM     58  N   UNL     1      -2.714  12.326   6.182  1.00  0.00    -0.248 NA
ATOM     59  C   UNL     1      -4.612  12.062   7.522  1.00  0.00     0.031 C 
ATOM     60  C   UNL     1      -1.027  16.297   5.029  1.00  0.00     0.029 A 
ATOM     61  C   UNL     1      -1.561  15.073   5.403  1.00  0.00     0.049 A 
ATOM     62  H   UNL     1      -0.867  13.134   4.949  1.00  0.00     0.167 HD
ATOM     63  C   UNL     1      -3.217  13.581   6.511  1.00  0.00     0.074 A 
ATOM     64  C   UNL     1      -4.413  13.351   7.297  1.00  0.00     0.031 C 
ATOM     65  C   UNL     1      -2.739  14.814   6.198  1.00  0.00     0.034 A 
BRANCH  52  66
ATOM     66  C   UNL     1       2.454  14.777   2.798  1.00  0.00     0.023 A 
ATOM     67  C   UNL     1       2.705  14.706   1.416  1.00  0.00     0.031 A 
ATOM     68  C   UNL     1       3.293  15.593   3.576  1.00  0.00     0.131 A 
ATOM     69  C   UNL     1       3.804  15.385   0.867  1.00  0.00     0.055 A 
ATOM     70  C   UNL     1       4.334  16.332   3.011  1.00  0.00     0.041 A 
ATOM     71  F   UNL     1       3.123  15.678   4.905  1.00  0.00    -0.206 F 
ATOM     72  C   UNL     1       4.603  16.221   1.651  1.00  0.00     0.022 A 
BRANCH  69  73
ATOM     73  S   UNL     1       4.258  15.055  -0.858  1.00  0.00     0.124 S 
ATOM     74  O   UNL     1       4.515  13.618  -0.826  1.00  0.00    -0.237 OA
ATOM     75  O   UNL     1       3.065  15.475  -1.584  1.00  0.00    -0.237 OA
ATOM     76  O   UNL     1       5.441  15.888  -1.067  1.00  0.00    -0.744 OA
ENDBRANCH  69  73
ENDBRANCH  52  66
BRANCH  53  77
ATOM     77  C   UNL     1      -4.468   9.123   7.454  1.00  0.00     0.023 A 
ATOM     78  C   UNL     1      -5.844   9.202   7.183  1.00  0.00     0.031 A 
ATOM     79  C   UNL     1      -4.054   8.280   8.501  1.00  0.00     0.131 A 
ATOM     80  C   UNL     1      -6.759   8.501   7.986  1.00  0.00     0.055 A 
ATOM     81  C   UNL     1      -4.963   7.534   9.255  1.00  0.00     0.041 A 
ATOM     82  F   UNL     1      -2.752   8.161   8.804  1.00  0.00    -0.206 F 
ATOM     83  C   UNL     1      -6.326   7.656   9.010  1.00  0.00     0.022 A 
BRANCH  80  84
ATOM     84  S   UNL     1      -8.533   8.799   7.747  1.00  0.00     0.124 S 
ATOM     85  O   UNL     1      -8.616  10.245   7.914  1.00  0.00    -0.237 OA
ATOM     86  O   UNL     1      -8.744   8.296   6.394  1.00  0.00    -0.237 OA
ATOM     87  O   UNL     1      -9.155   8.010   8.807  1.00  0.00    -0.744 OA
ENDBRANCH  80  84
ENDBRANCH  53  77
BRANCH  65  88
ATOM     88  C   UNL     1      -3.539  15.997   6.687  1.00  0.00     0.023 A 
ATOM     89  C   UNL     1      -3.698  16.261   8.058  1.00  0.00     0.031 A 
ATOM     90  C   UNL     1      -4.170  16.855   5.769  1.00  0.00     0.131 A 
ATOM     91  C   UNL     1      -4.533  17.307   8.474  1.00  0.00     0.055 A 
ATOM     92  C   UNL     1      -4.934  17.944   6.189  1.00  0.00     0.041 A 
ATOM     93  F   UNL     1      -4.054  16.649   4.448  1.00  0.00    -0.206 F 
ATOM     94  C   UNL     1      -5.134  18.164   7.549  1.00  0.00     0.022 A 
BRANCH  91  95
ATOM     95  S   UNL     1      -4.926  17.451  10.238  1.00  0.00     0.124 S 
ATOM     96  O   UNL     1      -5.497  16.139  10.527  1.00  0.00    -0.237 OA
ATOM     97  O   UNL     1      -3.619  17.721  10.828  1.00  0.00    -0.237 OA
ATOM     98  O   UNL     1      -5.872  18.564  10.288  1.00  0.00    -0.744 OA
ENDBRANCH  91  95
ENDBRANCH  65  88
ENDBRANCH  39  40
ENDBRANCH  31  34
ENDBRANCH  29  30
ENDBRANCH  28  29
ENDBRANCH   1  28
TORSDOF 17
