REMARK SMILES C[C@H]([C@@H](C)O)[N@H+]1CC[C@@](C)(C(=O)NCCCNC(=O)c2ccc(-c3c4nc(c(-c5cc(S(=O)(=O)[O-])ccc5F)c5ccc([nH]5)c(-c5cc(S(=O)(=O)[O-])ccc5F)c5nc(c(-c6cc(S(=O)(=O)[O-])ccc6F)c6ccc3[nH]6)C=C5)C=C4)cc2)C1
REMARK SMILES IDX 15 1 14 2 13 3 11 4 12 5 9 7 6 8 7 9 83 10 8 12 10 13 2 14
REMARK SMILES IDX 1 15 3 16 4 17 5 18 16 20 17 21 18 22 19 24 20 25 21 26
REMARK SMILES IDX 82 27 22 28 81 29 23 30 24 31 25 32 75 33 26 34 80 35 74 36
REMARK SMILES IDX 76 37 27 38 79 39 73 40 72 41 28 43 60 44 40 45 59 46 41 47
REMARK SMILES IDX 44 48 58 49 77 50 42 51 43 52 57 54 78 55 45 56 29 57 30 58
REMARK SMILES IDX 38 59 31 60 37 61 39 62 36 63 32 64 33 65 34 66 35 67 61 68
REMARK SMILES IDX 62 69 70 70 63 71 69 72 71 73 68 74 64 75 65 76 66 77 67 78
REMARK SMILES IDX 46 79 47 80 55 81 48 82 54 83 56 84 53 85 49 86 50 87 51 88
REMARK SMILES IDX 52 89
REMARK H PARENT 13 6 6 11 5 19 17 23 76 42 44 53
REMARK Flexibility Score: inf
ROOT
ATOM      1  C   UNL     1      -5.012  -0.694   2.640  1.00  0.00     0.042 C 
ENDROOT
BRANCH   1   2
ATOM      2  C   UNL     1      -4.992   0.651   1.921  1.00  0.00     0.117 C 
BRANCH   2   3
ATOM      3  N   UNL     1      -3.715   1.317   2.104  1.00  0.00    -0.355 N 
ATOM      4  C   UNL     1      -2.691   1.567   1.245  1.00  0.00     0.231 C 
ATOM      5  O   UNL     1      -1.701   2.109   1.744  1.00  0.00    -0.274 OA
ATOM      6  H   UNL     1      -3.562   1.648   3.018  1.00  0.00     0.163 HD
BRANCH   4   7
ATOM      7  C   UNL     1      -2.800   1.269  -0.265  1.00  0.00     0.100 C 
ATOM      8  N   UNL     1      -0.886   0.199  -1.312  1.00  0.00    -0.330 N 
ATOM      9  C   UNL     1      -1.652  -0.815  -0.612  1.00  0.00     0.263 C 
ATOM     10  C   UNL     1      -1.421   1.517  -0.937  1.00  0.00     0.279 C 
ATOM     11  H   UNL     1      -1.024   0.029  -2.308  1.00  0.00     0.348 HD
ATOM     12  C   UNL     1      -3.044  -0.216  -0.579  1.00  0.00     0.084 C 
ATOM     13  C   UNL     1      -3.884   2.181  -0.868  1.00  0.00     0.028 C 
BRANCH   8  14
ATOM     14  C   UNL     1       0.582   0.103  -1.264  1.00  0.00     0.209 C 
ATOM     15  C   UNL     1       1.029  -1.005  -2.232  1.00  0.00     0.078 C 
BRANCH  14  16
ATOM     16  C   UNL     1       1.308   0.016   0.123  1.00  0.00     0.169 C 
ATOM     17  C   UNL     1       1.184  -1.288   0.913  1.00  0.00     0.045 C 
BRANCH  16  18
ATOM     18  O   UNL     1       2.712   0.266  -0.080  1.00  0.00    -0.387 OA
ATOM     19  H   UNL     1       3.090  -0.440  -0.628  1.00  0.00     0.211 HD
ENDBRANCH  16  18
ENDBRANCH  14  16
ENDBRANCH   8  14
ENDBRANCH   4   7
ENDBRANCH   2   3
ENDBRANCH   1   2
BRANCH   1  20
ATOM     20  C   UNL     1      -4.987  -0.566   4.160  1.00  0.00     0.118 C 
BRANCH  20  21
ATOM     21  N   UNL     1      -6.205   0.041   4.681  1.00  0.00    -0.352 N 
ATOM     22  C   UNL     1      -7.162  -0.497   5.507  1.00  0.00     0.251 C 
ATOM     23  H   UNL     1      -6.366   0.970   4.399  1.00  0.00     0.163 HD
ATOM     24  O   UNL     1      -8.237   0.080   5.648  1.00  0.00    -0.269 OA
BRANCH  22  25
ATOM     25  C   UNL     1      -6.898  -1.775   6.200  1.00  0.00     0.039 A 
ATOM     26  C   UNL     1      -7.886  -2.761   6.218  1.00  0.00     0.014 A 
ATOM     27  C   UNL     1      -5.668  -2.000   6.824  1.00  0.00     0.014 A 
ATOM     28  C   UNL     1      -7.612  -4.003   6.796  1.00  0.00     0.010 A 
ATOM     29  C   UNL     1      -5.369  -3.262   7.326  1.00  0.00     0.010 A 
ATOM     30  C   UNL     1      -6.337  -4.279   7.316  1.00  0.00    -0.014 A 
BRANCH  30  31
ATOM     31  C   UNL     1      -5.982  -5.615   7.861  1.00  0.00     0.031 A 
ATOM     32  C   UNL     1      -5.584  -5.749   9.305  1.00  0.00     0.074 A 
ATOM     33  C   UNL     1      -5.932  -6.684   7.040  1.00  0.00     0.049 A 
ATOM     34  N   UNL     1      -5.095  -6.784   9.938  1.00  0.00    -0.248 NA
ATOM     35  C   UNL     1      -5.723  -4.545  10.138  1.00  0.00     0.031 C 
ATOM     36  C   UNL     1      -6.273  -6.674   5.616  1.00  0.00     0.029 A 
ATOM     37  N   UNL     1      -5.557  -7.982   7.280  1.00  0.00    -0.354 N 
ATOM     38  C   UNL     1      -4.851  -6.352  11.237  1.00  0.00     0.074 A 
ATOM     39  C   UNL     1      -5.189  -4.945  11.281  1.00  0.00     0.031 C 
ATOM     40  C   UNL     1      -6.107  -7.909   5.115  1.00  0.00     0.029 A 
ATOM     41  C   UNL     1      -5.593  -8.785   6.162  1.00  0.00     0.049 A 
ATOM     42  H   UNL     1      -5.287  -8.309   8.168  1.00  0.00     0.167 HD
ATOM     43  C   UNL     1      -4.406  -7.068  12.299  1.00  0.00     0.034 A 
ATOM     44  C   UNL     1      -5.231 -10.073   5.995  1.00  0.00     0.034 A 
ATOM     45  C   UNL     1      -4.086  -8.473  12.238  1.00  0.00     0.049 A 
ATOM     46  C   UNL     1      -4.694 -10.838   7.180  1.00  0.00     0.074 A 
ATOM     47  C   UNL     1      -3.673  -9.308  13.262  1.00  0.00     0.029 A 
ATOM     48  N   UNL     1      -4.137  -9.252  11.089  1.00  0.00    -0.354 N 
ATOM     49  N   UNL     1      -4.500 -10.424   8.411  1.00  0.00    -0.248 NA
ATOM     50  C   UNL     1      -4.332 -12.244   6.955  1.00  0.00     0.031 C 
ATOM     51  C   UNL     1      -3.405 -10.569  12.720  1.00  0.00     0.029 A 
ATOM     52  C   UNL     1      -3.732 -10.547  11.373  1.00  0.00     0.049 A 
ATOM     53  H   UNL     1      -4.418  -8.931  10.202  1.00  0.00     0.167 HD
ATOM     54  C   UNL     1      -4.031 -11.531   9.114  1.00  0.00     0.074 A 
ATOM     55  C   UNL     1      -3.978 -12.629   8.172  1.00  0.00     0.031 C 
ATOM     56  C   UNL     1      -3.684 -11.633  10.422  1.00  0.00     0.034 A 
BRANCH  43  57
ATOM     57  C   UNL     1      -4.216  -6.333  13.605  1.00  0.00     0.023 A 
ATOM     58  C   UNL     1      -5.294  -5.725  14.273  1.00  0.00     0.031 A 
ATOM     59  C   UNL     1      -2.938  -6.215  14.179  1.00  0.00     0.131 A 
ATOM     60  C   UNL     1      -5.063  -4.963  15.428  1.00  0.00     0.055 A 
ATOM     61  C   UNL     1      -2.728  -5.529  15.377  1.00  0.00     0.041 A 
ATOM     62  F   UNL     1      -1.866  -6.755  13.578  1.00  0.00    -0.206 F 
ATOM     63  C   UNL     1      -3.792  -4.883  16.000  1.00  0.00     0.022 A 
BRANCH  60  64
ATOM     64  S   UNL     1      -6.422  -3.956  16.083  1.00  0.00     0.124 S 
ATOM     65  O   UNL     1      -6.732  -3.101  14.940  1.00  0.00    -0.237 OA
ATOM     66  O   UNL     1      -7.424  -4.960  16.421  1.00  0.00    -0.237 OA
ATOM     67  O   UNL     1      -5.818  -3.267  17.222  1.00  0.00    -0.744 OA
ENDBRANCH  60  64
ENDBRANCH  43  57
BRANCH  44  68
ATOM     68  C   UNL     1      -5.339 -10.723   4.656  1.00  0.00     0.023 A 
ATOM     69  C   UNL     1      -6.198 -11.815   4.453  1.00  0.00     0.031 A 
ATOM     70  C   UNL     1      -4.550 -10.296   3.573  1.00  0.00     0.131 A 
ATOM     71  C   UNL     1      -6.210 -12.476   3.214  1.00  0.00     0.055 A 
ATOM     72  C   UNL     1      -4.609 -10.920   2.325  1.00  0.00     0.041 A 
ATOM     73  F   UNL     1      -3.713  -9.255   3.710  1.00  0.00    -0.206 F 
ATOM     74  C   UNL     1      -5.432 -12.027   2.145  1.00  0.00     0.022 A 
BRANCH  71  75
ATOM     75  S   UNL     1      -7.187 -13.995   3.052  1.00  0.00     0.124 S 
ATOM     76  O   UNL     1      -6.615 -14.828   4.104  1.00  0.00    -0.237 OA
ATOM     77  O   UNL     1      -8.543 -13.508   3.283  1.00  0.00    -0.237 OA
ATOM     78  O   UNL     1      -6.908 -14.433   1.686  1.00  0.00    -0.744 OA
ENDBRANCH  71  75
ENDBRANCH  44  68
BRANCH  56  79
ATOM     79  C   UNL     1      -3.276 -12.995  10.926  1.00  0.00     0.023 A 
ATOM     80  C   UNL     1      -2.085 -13.617  10.512  1.00  0.00     0.031 A 
ATOM     81  C   UNL     1      -4.090 -13.674  11.850  1.00  0.00     0.131 A 
ATOM     82  C   UNL     1      -1.764 -14.897  10.989  1.00  0.00     0.055 A 
ATOM     83  C   UNL     1      -3.736 -14.921  12.366  1.00  0.00     0.041 A 
ATOM     84  F   UNL     1      -5.240 -13.128  12.277  1.00  0.00    -0.206 F 
ATOM     85  C   UNL     1      -2.572 -15.544  11.928  1.00  0.00     0.022 A 
BRANCH  82  86
ATOM     86  S   UNL     1      -0.309 -15.741  10.311  1.00  0.00     0.124 S 
ATOM     87  O   UNL     1      -0.636 -15.817   8.891  1.00  0.00    -0.237 OA
ATOM     88  O   UNL     1       0.775 -14.832  10.668  1.00  0.00    -0.237 OA
ATOM     89  O   UNL     1      -0.297 -17.023  11.014  1.00  0.00    -0.744 OA
ENDBRANCH  82  86
ENDBRANCH  56  79
ENDBRANCH  30  31
ENDBRANCH  22  25
ENDBRANCH  20  21
ENDBRANCH   1  20
TORSDOF 16
