REMARK SMILES NS(=O)(=O)c1ccc(NS(=O)(=O)c2cccc(C(=O)NCCCNC(=O)c3ccc(-c4c5nc(c(-c6cc(S(=O)(=O)[O-])ccc6F)c6ccc([nH]6)c(-c6cc(S(=O)(=O)[O-])ccc6F)c6nc(c(-c7cc(S(=O)(=O)[O-])ccc7F)c7ccc4[nH]7)C=C6)C=C5)cc3)c2)cc1
REMARK SMILES IDX 21 1 20 2 18 3 19 4 17 6 13 7 14 8 90 9 15 10 16 11 10 12
REMARK SMILES IDX 11 13 12 14 9 15 8 17 5 18 6 19 92 20 7 21 91 22 2 23 3 24
REMARK SMILES IDX 4 25 1 26 22 29 23 30 24 31 25 32 26 34 27 35 28 36 89 37
REMARK SMILES IDX 29 38 88 39 30 40 31 41 32 42 82 43 33 44 87 45 81 46 83 47
REMARK SMILES IDX 34 48 86 49 80 50 79 51 35 53 67 54 47 55 66 56 48 57 51 58
REMARK SMILES IDX 65 59 84 60 49 61 50 62 64 64 85 65 52 66 36 67 37 68 45 69
REMARK SMILES IDX 38 70 44 71 46 72 43 73 39 74 40 75 41 76 42 77 68 78 69 79
REMARK SMILES IDX 77 80 70 81 76 82 78 83 75 84 71 85 72 86 73 87 74 88 53 89
REMARK SMILES IDX 54 90 62 91 55 92 61 93 63 94 60 95 56 96 57 97 58 98 59 99
REMARK H PARENT 20 5 9 16 1 27 1 28 24 33 83 52 51 63
REMARK Flexibility Score: inf
ROOT
ATOM      1  C   UNL     1       2.136  -8.700   4.814  1.00  0.00     0.118 C 
ENDROOT
BRANCH   1   2
ATOM      2  N   UNL     1       1.774  -8.749   3.398  1.00  0.00    -0.352 N 
ATOM      3  C   UNL     1       1.232  -7.836   2.522  1.00  0.00     0.251 C 
ATOM      4  O   UNL     1       1.037  -8.176   1.355  1.00  0.00    -0.269 OA
ATOM      5  H   UNL     1       1.959  -9.622   2.981  1.00  0.00     0.163 HD
BRANCH   3   6
ATOM      6  C   UNL     1       0.806  -6.481   2.953  1.00  0.00     0.041 A 
ATOM      7  C   UNL     1       0.842  -4.703   4.587  1.00  0.00     0.088 A 
ATOM      8  C   UNL     1      -0.298  -4.130   4.024  1.00  0.00     0.022 A 
ATOM      9  C   UNL     1       1.446  -5.800   3.975  1.00  0.00     0.036 A 
ATOM     10  C   UNL     1      -0.816  -4.677   2.844  1.00  0.00     0.002 A 
ATOM     11  C   UNL     1      -0.286  -5.867   2.328  1.00  0.00     0.014 A 
BRANCH   7  12
ATOM     12  S   UNL     1       1.661  -4.083   6.041  1.00  0.00     0.261 S 
ATOM     13  O   UNL     1       3.075  -4.349   5.884  1.00  0.00    -0.201 OA
ATOM     14  O   UNL     1       0.922  -4.598   7.173  1.00  0.00    -0.201 OA
BRANCH  12  15
ATOM     15  N   UNL     1       1.466  -2.436   6.072  1.00  0.00    -0.280 N 
ATOM     16  H   UNL     1       1.153  -2.041   6.917  1.00  0.00     0.180 HD
BRANCH  15  17
ATOM     17  C   UNL     1       1.706  -1.544   4.999  1.00  0.00     0.049 A 
ATOM     18  C   UNL     1       1.310   0.151   2.840  1.00  0.00     0.082 A 
ATOM     19  C   UNL     1       1.812  -1.130   2.623  1.00  0.00     0.024 A 
ATOM     20  C   UNL     1       1.157   0.645   4.137  1.00  0.00     0.024 A 
ATOM     21  C   UNL     1       2.061  -1.959   3.715  1.00  0.00     0.028 A 
ATOM     22  C   UNL     1       1.351  -0.211   5.218  1.00  0.00     0.028 A 
BRANCH  18  23
ATOM     23  S   UNL     1       0.755   1.153   1.499  1.00  0.00     0.238 S 
ATOM     24  O   UNL     1       1.435   2.425   1.566  1.00  0.00    -0.207 OA
ATOM     25  O   UNL     1      -0.680   1.032   1.420  1.00  0.00    -0.207 OA
BRANCH  23  26
ATOM     26  N   UNL     1       1.352   0.390   0.128  1.00  0.00    -0.225 NA
ATOM     27  H   UNL     1       1.072   0.913  -0.701  1.00  0.00     0.137 HD
ATOM     28  H   UNL     1       0.978  -0.557   0.076  1.00  0.00     0.137 HD
ENDBRANCH  23  26
ENDBRANCH  18  23
ENDBRANCH  15  17
ENDBRANCH  12  15
ENDBRANCH   7  12
ENDBRANCH   3   6
ENDBRANCH   1   2
BRANCH   1  29
ATOM     29  C   UNL     1       1.192  -9.458   5.729  1.00  0.00     0.042 C 
BRANCH  29  30
ATOM     30  C   UNL     1       1.300 -10.966   5.599  1.00  0.00     0.118 C 
BRANCH  30  31
ATOM     31  N   UNL     1       2.653 -11.452   5.853  1.00  0.00    -0.352 N 
ATOM     32  C   UNL     1       3.170 -12.175   6.899  1.00  0.00     0.251 C 
ATOM     33  H   UNL     1       3.307 -11.221   5.154  1.00  0.00     0.163 HD
ATOM     34  O   UNL     1       4.390 -12.251   7.024  1.00  0.00    -0.269 OA
BRANCH  32  35
ATOM     35  C   UNL     1       2.277 -12.846   7.867  1.00  0.00     0.039 A 
ATOM     36  C   UNL     1       2.663 -12.938   9.206  1.00  0.00     0.014 A 
ATOM     37  C   UNL     1       1.075 -13.422   7.451  1.00  0.00     0.014 A 
ATOM     38  C   UNL     1       1.817 -13.556  10.130  1.00  0.00     0.010 A 
ATOM     39  C   UNL     1       0.182 -13.924   8.388  1.00  0.00     0.010 A 
ATOM     40  C   UNL     1       0.553 -14.023   9.735  1.00  0.00    -0.014 A 
BRANCH  40  41
ATOM     41  C   UNL     1      -0.376 -14.668  10.698  1.00  0.00     0.031 A 
ATOM     42  C   UNL     1      -0.819 -16.091  10.470  1.00  0.00     0.074 A 
ATOM     43  C   UNL     1      -0.858 -13.963  11.740  1.00  0.00     0.049 A 
ATOM     44  N   UNL     1      -1.685 -16.807  11.140  1.00  0.00    -0.248 NA
ATOM     45  C   UNL     1      -0.239 -16.786   9.309  1.00  0.00     0.031 C 
ATOM     46  C   UNL     1      -0.537 -12.564  12.035  1.00  0.00     0.029 A 
ATOM     47  N   UNL     1      -1.725 -14.321  12.741  1.00  0.00    -0.354 N 
ATOM     48  C   UNL     1      -1.758 -18.029  10.477  1.00  0.00     0.074 A 
ATOM     49  C   UNL     1      -0.918 -17.922   9.305  1.00  0.00     0.031 C 
ATOM     50  C   UNL     1      -1.171 -12.196  13.160  1.00  0.00     0.029 A 
ATOM     51  C   UNL     1      -1.984 -13.309  13.636  1.00  0.00     0.049 A 
ATOM     52  H   UNL     1      -2.124 -15.218  12.812  1.00  0.00     0.167 HD
ATOM     53  C   UNL     1      -2.434 -19.149  10.833  1.00  0.00     0.034 A 
ATOM     54  C   UNL     1      -2.796 -13.279  14.712  1.00  0.00     0.034 A 
ATOM     55  C   UNL     1      -3.260 -19.238  12.012  1.00  0.00     0.049 A 
ATOM     56  C   UNL     1      -3.559 -14.528  15.076  1.00  0.00     0.074 A 
ATOM     57  C   UNL     1      -3.970 -20.327  12.487  1.00  0.00     0.029 A 
ATOM     58  N   UNL     1      -3.489 -18.196  12.902  1.00  0.00    -0.354 N 
ATOM     59  N   UNL     1      -3.589 -15.688  14.459  1.00  0.00    -0.248 NA
ATOM     60  C   UNL     1      -4.380 -14.471  16.290  1.00  0.00     0.031 C 
ATOM     61  C   UNL     1      -4.682 -19.923  13.621  1.00  0.00     0.029 A 
ATOM     62  C   UNL     1      -4.346 -18.610  13.910  1.00  0.00     0.049 A 
ATOM     63  H   UNL     1      -3.100 -17.295  12.828  1.00  0.00     0.167 HD
ATOM     64  C   UNL     1      -4.401 -16.510  15.237  1.00  0.00     0.074 A 
ATOM     65  C   UNL     1      -4.824 -15.716  16.372  1.00  0.00     0.031 C 
ATOM     66  C   UNL     1      -4.761 -17.805  15.036  1.00  0.00     0.034 A 
BRANCH  53  67
ATOM     67  C   UNL     1      -2.313 -20.351   9.924  1.00  0.00     0.023 A 
ATOM     68  C   UNL     1      -1.071 -20.965   9.675  1.00  0.00     0.031 A 
ATOM     69  C   UNL     1      -3.443 -20.873   9.270  1.00  0.00     0.131 A 
ATOM     70  C   UNL     1      -0.976 -22.003   8.736  1.00  0.00     0.055 A 
ATOM     71  C   UNL     1      -3.356 -21.967   8.407  1.00  0.00     0.041 A 
ATOM     72  F   UNL     1      -4.652 -20.317   9.446  1.00  0.00    -0.206 F 
ATOM     73  C   UNL     1      -2.115 -22.529   8.122  1.00  0.00     0.022 A 
BRANCH  70  74
ATOM     74  S   UNL     1       0.673 -22.546   8.211  1.00  0.00     0.124 S 
ATOM     75  O   UNL     1       1.235 -21.306   7.680  1.00  0.00    -0.237 OA
ATOM     76  O   UNL     1       1.257 -23.032   9.455  1.00  0.00    -0.237 OA
ATOM     77  O   UNL     1       0.393 -23.572   7.209  1.00  0.00    -0.744 OA
ENDBRANCH  70  74
ENDBRANCH  53  67
BRANCH  54  78
ATOM     78  C   UNL     1      -2.939 -12.031  15.519  1.00  0.00     0.023 A 
ATOM     79  C   UNL     1      -2.555 -11.988  16.869  1.00  0.00     0.031 A 
ATOM     80  C   UNL     1      -3.508 -10.872  14.961  1.00  0.00     0.131 A 
ATOM     81  C   UNL     1      -2.798 -10.834  17.630  1.00  0.00     0.055 A 
ATOM     82  C   UNL     1      -3.688  -9.705  15.705  1.00  0.00     0.041 A 
ATOM     83  F   UNL     1      -3.891 -10.854  13.674  1.00  0.00    -0.206 F 
ATOM     84  C   UNL     1      -3.347  -9.687  17.053  1.00  0.00     0.022 A 
BRANCH  81  85
ATOM     85  S   UNL     1      -2.483 -10.889  19.416  1.00  0.00     0.124 S 
ATOM     86  O   UNL     1      -3.320 -12.009  19.829  1.00  0.00    -0.237 OA
ATOM     87  O   UNL     1      -1.042 -11.112  19.463  1.00  0.00    -0.237 OA
ATOM     88  O   UNL     1      -2.925  -9.575  19.879  1.00  0.00    -0.744 OA
ENDBRANCH  81  85
ENDBRANCH  54  78
BRANCH  66  89
ATOM     89  C   UNL     1      -5.603 -18.458  16.106  1.00  0.00     0.023 A 
ATOM     90  C   UNL     1      -6.905 -18.020  16.403  1.00  0.00     0.031 A 
ATOM     91  C   UNL     1      -5.080 -19.527  16.857  1.00  0.00     0.131 A 
ATOM     92  C   UNL     1      -7.610 -18.596  17.470  1.00  0.00     0.055 A 
ATOM     93  C   UNL     1      -5.816 -20.147  17.867  1.00  0.00     0.041 A 
ATOM     94  F   UNL     1      -3.841 -19.986  16.621  1.00  0.00    -0.206 F 
ATOM     95  C   UNL     1      -7.082 -19.670  18.191  1.00  0.00     0.022 A 
BRANCH  92  96
ATOM     96  S   UNL     1      -9.175 -17.838  17.988  1.00  0.00     0.124 S 
ATOM     97  O   UNL     1      -8.772 -16.461  18.251  1.00  0.00    -0.237 OA
ATOM     98  O   UNL     1     -10.022 -18.042  16.817  1.00  0.00    -0.237 OA
ATOM     99  O   UNL     1      -9.555 -18.610  19.170  1.00  0.00    -0.744 OA
ENDBRANCH  92  96
ENDBRANCH  66  89
ENDBRANCH  40  41
ENDBRANCH  32  35
ENDBRANCH  30  31
ENDBRANCH  29  30
ENDBRANCH   1  29
TORSDOF 18
