REMARK SMILES CC[C@@H](NC(=O)N[C@H]1CCCCC[C@@H]1C(=O)NCCCNC(=O)c1ccc(-c2c3nc(c(-c4cc(S(=O)(=O)[O-])ccc4F)c4ccc([nH]4)c(-c4cc(S(=O)(=O)[O-])ccc4F)c4nc(c(-c5cc(S(=O)(=O)[O-])ccc5F)c5ccc2[nH]5)C=C4)C=C3)cc1)C(C)C
REMARK SMILES IDX 18 1 17 2 15 3 16 4 14 6 8 7 7 8 4 9 5 10 6 12 3 14 2 15
REMARK SMILES IDX 1 16 87 17 88 18 89 19 9 20 10 21 11 22 13 24 12 25 19 27
REMARK SMILES IDX 20 28 21 29 22 30 23 32 24 33 25 34 86 35 26 36 85 37 27 38
REMARK SMILES IDX 28 39 29 40 79 41 30 42 84 43 78 44 80 45 31 46 83 47 77 48
REMARK SMILES IDX 76 49 32 51 64 52 44 53 63 54 45 55 48 56 62 57 81 58 46 59
REMARK SMILES IDX 47 60 61 62 82 63 49 64 33 65 34 66 42 67 35 68 41 69 43 70
REMARK SMILES IDX 40 71 36 72 37 73 38 74 39 75 65 76 66 77 74 78 67 79 73 80
REMARK SMILES IDX 75 81 72 82 68 83 69 84 70 85 71 86 50 87 51 88 59 89 52 90
REMARK SMILES IDX 58 91 60 92 57 93 53 94 54 95 55 96 56 97
REMARK H PARENT 17 5 4 11 7 13 21 31 80 50 48 61
REMARK Flexibility Score: 90.00
ROOT
ATOM      1  C   UNL     1      -2.032  -1.215  -5.707  1.00  0.00     0.117 C 
ENDROOT
BRANCH   1   2
ATOM      2  N   UNL     1      -1.688  -0.828  -7.079  1.00  0.00    -0.356 N 
ATOM      3  C   UNL     1      -0.572  -0.265  -7.653  1.00  0.00     0.225 C 
ATOM      4  O   UNL     1      -0.442  -0.458  -8.870  1.00  0.00    -0.275 OA
ATOM      5  H   UNL     1      -2.408  -1.010  -7.726  1.00  0.00     0.163 HD
BRANCH   3   6
ATOM      6  C   UNL     1       0.379   0.757  -6.961  1.00  0.00     0.101 C 
BRANCH   6   7
ATOM      7  C   UNL     1       0.667   0.316  -5.497  1.00  0.00     0.096 C 
BRANCH   7   8
ATOM      8  N   UNL     1       1.958   0.146  -4.849  1.00  0.00    -0.335 N 
ATOM      9  N   UNL     1       1.473   0.403  -2.449  1.00  0.00    -0.335 N 
ATOM     10  C   UNL     1       2.229   0.061  -3.521  1.00  0.00     0.315 C 
ATOM     11  H   UNL     1       1.849  -0.167  -1.741  1.00  0.00     0.165 HD
ATOM     12  O   UNL     1       3.354  -0.380  -3.237  1.00  0.00    -0.249 OA
ATOM     13  H   UNL     1       2.735   0.085  -5.451  1.00  0.00     0.165 HD
BRANCH   9  14
ATOM     14  C   UNL     1       0.292   1.216  -1.643  1.00  0.00     0.086 C 
BRANCH  14  15
ATOM     15  C   UNL     1       0.504   0.669  -0.193  1.00  0.00     0.022 C 
ATOM     16  C   UNL     1       1.691   1.268   0.542  1.00  0.00     0.006 C 
ENDBRANCH  14  15
BRANCH  14  17
ATOM     17  C   UNL     1      -1.354   1.179  -1.923  1.00  0.00     0.005 C 
ATOM     18  C   UNL     1      -2.202   1.601  -0.691  1.00  0.00     0.009 C 
ATOM     19  C   UNL     1      -2.054   2.117  -2.959  1.00  0.00     0.009 C 
ENDBRANCH  14  17
ENDBRANCH   9  14
ENDBRANCH   7   8
BRANCH   7  20
ATOM     20  C   UNL     1       0.030   1.382  -4.717  1.00  0.00     0.026 C 
BRANCH  20  21
ATOM     21  C   UNL     1       0.959   2.609  -4.629  1.00  0.00     0.002 C 
BRANCH  21  22
ATOM     22  C   UNL     1       0.313   3.802  -5.252  1.00  0.00     0.000 CG0
ATOM     23  G   UNL     1      -0.022   3.545  -6.716  1.00  0.00     0.000 G0
ENDBRANCH  21  22
ENDBRANCH  20  21
ENDBRANCH   7  20
ENDBRANCH   6   7
BRANCH   6  24
ATOM     24  C   UNL     1      -0.424   2.135  -7.235  1.00  0.00     0.015 C 
BRANCH  24  25
ATOM     25  C   UNL     1      -0.022   3.545  -6.716  1.00  0.00     0.001 CG0
ATOM     26  G   UNL     1       0.313   3.802  -5.252  1.00  0.00     0.000 G0
ENDBRANCH  24  25
ENDBRANCH   6  24
ENDBRANCH   3   6
ENDBRANCH   1   2
BRANCH   1  27
ATOM     27  C   UNL     1      -3.511  -1.182  -5.339  1.00  0.00     0.042 C 
BRANCH  27  28
ATOM     28  C   UNL     1      -4.412  -2.197  -6.026  1.00  0.00     0.118 C 
BRANCH  28  29
ATOM     29  N   UNL     1      -4.034  -3.578  -5.771  1.00  0.00    -0.352 N 
ATOM     30  C   UNL     1      -4.784  -4.658  -5.372  1.00  0.00     0.251 C 
ATOM     31  H   UNL     1      -3.078  -3.773  -5.908  1.00  0.00     0.163 HD
ATOM     32  O   UNL     1      -4.191  -5.710  -5.109  1.00  0.00    -0.269 OA
BRANCH  30  33
ATOM     33  C   UNL     1      -6.258  -4.591  -5.221  1.00  0.00     0.039 A 
ATOM     34  C   UNL     1      -6.857  -5.343  -4.202  1.00  0.00     0.014 A 
ATOM     35  C   UNL     1      -7.069  -3.847  -6.082  1.00  0.00     0.014 A 
ATOM     36  C   UNL     1      -8.242  -5.297  -4.012  1.00  0.00     0.010 A 
ATOM     37  C   UNL     1      -8.441  -3.736  -5.840  1.00  0.00     0.010 A 
ATOM     38  C   UNL     1      -9.046  -4.461  -4.803  1.00  0.00    -0.014 A 
BRANCH  38  39
ATOM     39  C   UNL     1     -10.508  -4.334  -4.539  1.00  0.00     0.031 A 
ATOM     40  C   UNL     1     -11.519  -4.750  -5.576  1.00  0.00     0.074 A 
ATOM     41  C   UNL     1     -10.925  -3.808  -3.369  1.00  0.00     0.049 A 
ATOM     42  N   UNL     1     -12.826  -4.699  -5.525  1.00  0.00    -0.248 NA
ATOM     43  C   UNL     1     -10.991  -5.265  -6.848  1.00  0.00     0.031 C 
ATOM     44  C   UNL     1     -10.044  -3.321  -2.303  1.00  0.00     0.029 A 
ATOM     45  N   UNL     1     -12.188  -3.595  -2.873  1.00  0.00    -0.354 N 
ATOM     46  C   UNL     1     -13.277  -5.168  -6.755  1.00  0.00     0.074 A 
ATOM     47  C   UNL     1     -12.099  -5.435  -7.554  1.00  0.00     0.031 C 
ATOM     48  C   UNL     1     -10.791  -2.906  -1.269  1.00  0.00     0.029 A 
ATOM     49  C   UNL     1     -12.203  -3.047  -1.610  1.00  0.00     0.049 A 
ATOM     50  H   UNL     1     -13.006  -3.814  -3.374  1.00  0.00     0.167 HD
ATOM     51  C   UNL     1     -14.551  -5.380  -7.172  1.00  0.00     0.034 A 
ATOM     52  C   UNL     1     -13.233  -2.693  -0.816  1.00  0.00     0.034 A 
ATOM     53  C   UNL     1     -15.716  -5.115  -6.360  1.00  0.00     0.049 A 
ATOM     54  C   UNL     1     -14.640  -2.923  -1.308  1.00  0.00     0.074 A 
ATOM     55  C   UNL     1     -17.048  -5.344  -6.662  1.00  0.00     0.029 A 
ATOM     56  N   UNL     1     -15.693  -4.553  -5.089  1.00  0.00    -0.354 N 
ATOM     57  N   UNL     1     -15.045  -3.426  -2.452  1.00  0.00    -0.248 NA
ATOM     58  C   UNL     1     -15.728  -2.551  -0.396  1.00  0.00     0.031 C 
ATOM     59  C   UNL     1     -17.830  -4.851  -5.612  1.00  0.00     0.029 A 
ATOM     60  C   UNL     1     -16.987  -4.395  -4.612  1.00  0.00     0.049 A 
ATOM     61  H   UNL     1     -14.877  -4.304  -4.598  1.00  0.00     0.167 HD
ATOM     62  C   UNL     1     -16.435  -3.457  -2.381  1.00  0.00     0.074 A 
ATOM     63  C   UNL     1     -16.793  -2.950  -1.073  1.00  0.00     0.031 C 
ATOM     64  C   UNL     1     -17.335  -3.868  -3.312  1.00  0.00     0.034 A 
BRANCH  51  65
ATOM     65  C   UNL     1     -14.751  -5.901  -8.578  1.00  0.00     0.023 A 
ATOM     66  C   UNL     1     -14.252  -7.153  -8.982  1.00  0.00     0.031 A 
ATOM     67  C   UNL     1     -15.437  -5.131  -9.534  1.00  0.00     0.131 A 
ATOM     68  C   UNL     1     -14.382  -7.564 -10.317  1.00  0.00     0.055 A 
ATOM     69  C   UNL     1     -15.638  -5.583 -10.841  1.00  0.00     0.041 A 
ATOM     70  F   UNL     1     -15.919  -3.919  -9.218  1.00  0.00    -0.206 F 
ATOM     71  C   UNL     1     -15.095  -6.800 -11.243  1.00  0.00     0.022 A 
BRANCH  68  72
ATOM     72  S   UNL     1     -13.480  -9.040 -10.861  1.00  0.00     0.124 S 
ATOM     73  O   UNL     1     -12.100  -8.675 -10.548  1.00  0.00    -0.237 OA
ATOM     74  O   UNL     1     -14.066 -10.090 -10.036  1.00  0.00    -0.237 OA
ATOM     75  O   UNL     1     -13.786  -9.123 -12.288  1.00  0.00    -0.744 OA
ENDBRANCH  68  72
ENDBRANCH  51  65
BRANCH  52  76
ATOM     76  C   UNL     1     -12.986  -2.079   0.522  1.00  0.00     0.023 A 
ATOM     77  C   UNL     1     -13.405  -2.714   1.702  1.00  0.00     0.031 A 
ATOM     78  C   UNL     1     -12.370  -0.820   0.637  1.00  0.00     0.131 A 
ATOM     79  C   UNL     1     -13.253  -2.067   2.939  1.00  0.00     0.055 A 
ATOM     80  C   UNL     1     -12.165  -0.207   1.875  1.00  0.00     0.041 A 
ATOM     81  F   UNL     1     -11.946  -0.167  -0.457  1.00  0.00    -0.206 F 
ATOM     82  C   UNL     1     -12.622  -0.825   3.035  1.00  0.00     0.022 A 
BRANCH  79  83
ATOM     83  S   UNL     1     -13.983  -2.829   4.415  1.00  0.00     0.124 S 
ATOM     84  O   UNL     1     -15.384  -2.943   4.027  1.00  0.00    -0.237 OA
ATOM     85  O   UNL     1     -13.238  -4.080   4.508  1.00  0.00    -0.237 OA
ATOM     86  O   UNL     1     -13.703  -1.859   5.471  1.00  0.00    -0.744 OA
ENDBRANCH  79  83
ENDBRANCH  52  76
BRANCH  64  87
ATOM     87  C   UNL     1     -18.794  -3.813  -2.922  1.00  0.00     0.023 A 
ATOM     88  C   UNL     1     -19.438  -2.596  -2.637  1.00  0.00     0.031 A 
ATOM     89  C   UNL     1     -19.540  -4.999  -2.793  1.00  0.00     0.131 A 
ATOM     90  C   UNL     1     -20.758  -2.597  -2.162  1.00  0.00     0.055 A 
ATOM     91  C   UNL     1     -20.877  -4.987  -2.393  1.00  0.00     0.041 A 
ATOM     92  F   UNL     1     -18.979  -6.192  -3.047  1.00  0.00    -0.206 F 
ATOM     93  C   UNL     1     -21.488  -3.783  -2.056  1.00  0.00     0.022 A 
BRANCH  90  94
ATOM     94  S   UNL     1     -21.464  -1.039  -1.557  1.00  0.00     0.124 S 
ATOM     95  O   UNL     1     -20.498  -0.646  -0.535  1.00  0.00    -0.237 OA
ATOM     96  O   UNL     1     -21.486  -0.218  -2.763  1.00  0.00    -0.237 OA
ATOM     97  O   UNL     1     -22.778  -1.431  -1.050  1.00  0.00    -0.744 OA
ENDBRANCH  90  94
ENDBRANCH  64  87
ENDBRANCH  38  39
ENDBRANCH  30  33
ENDBRANCH  28  29
ENDBRANCH  27  28
ENDBRANCH   1  27
TORSDOF 17
