REMARK SMILES C[C@@H]1CCC[C@](CCSc2ccccc2)(C(=O)NCCCNC(=O)c2ccc(-c3c4nc(c(-c5cc(S(=O)(=O)[O-])ccc5F)c5ccc([nH]5)c(-c5cc(S(=O)(=O)[O-])ccc5F)c5nc(c(-c6cc(S(=O)(=O)[O-])ccc6F)c6ccc3[nH]6)C=C5)C=C4)cc2)C1
REMARK SMILES IDX 19 1 18 2 16 3 17 4 6 6 1 7 2 8 3 9 88 10 4 11 5 12 7 13
REMARK SMILES IDX 8 14 9 15 10 16 11 17 15 18 12 19 14 20 13 21 20 22 21 23
REMARK SMILES IDX 22 24 23 25 24 27 25 28 26 29 87 30 27 31 86 32 28 33 29 34
REMARK SMILES IDX 30 35 80 36 31 37 85 38 79 39 81 40 32 41 84 42 78 43 77 44
REMARK SMILES IDX 33 46 65 47 45 48 64 49 46 50 49 51 63 52 82 53 47 54 48 55
REMARK SMILES IDX 62 57 83 58 50 59 34 60 35 61 43 62 36 63 42 64 44 65 41 66
REMARK SMILES IDX 37 67 38 68 39 69 40 70 66 71 67 72 75 73 68 74 74 75 76 76
REMARK SMILES IDX 73 77 69 78 70 79 71 80 72 81 51 82 52 83 60 84 53 85 59 86
REMARK SMILES IDX 61 87 58 88 54 89 55 90 56 91 57 92
REMARK H PARENT 18 5 22 26 81 45 49 56
REMARK Flexibility Score: inf
ROOT
ATOM      1  C   UNL     1      -0.490   1.205   2.235  1.00  0.00     0.117 C 
ENDROOT
BRANCH   1   2
ATOM      2  N   UNL     1      -1.543   0.229   2.318  1.00  0.00    -0.356 N 
ATOM      3  C   UNL     1      -2.035  -0.679   1.455  1.00  0.00     0.226 C 
ATOM      4  O   UNL     1      -3.114  -1.162   1.827  1.00  0.00    -0.274 OA
ATOM      5  H   UNL     1      -2.000   0.224   3.190  1.00  0.00     0.163 HD
BRANCH   3   6
ATOM      6  C   UNL     1      -1.424  -1.063   0.076  1.00  0.00     0.050 C 
ATOM      7  C   UNL     1       2.166   0.275   0.244  1.00  0.00     0.007 C 
ATOM      8  C   UNL     1       0.968  -0.063  -0.666  1.00  0.00    -0.013 C 
ATOM      9  C   UNL     1       0.252   1.173  -1.226  1.00  0.00     0.003 C 
ATOM     10  C   UNL     1       0.107  -1.181  -0.052  1.00  0.00     0.020 C 
ATOM     11  C   UNL     1      -1.267   1.244  -1.079  1.00  0.00     0.001 C 
ATOM     12  C   UNL     1      -1.976  -0.101  -0.999  1.00  0.00     0.017 C 
BRANCH   6  13
ATOM     13  C   UNL     1      -2.022  -2.508  -0.219  1.00  0.00     0.028 C 
BRANCH  13  14
ATOM     14  C   UNL     1      -1.379  -3.742   0.467  1.00  0.00     0.076 C 
BRANCH  14  15
ATOM     15  S   UNL     1      -1.616  -4.009   2.266  1.00  0.00    -0.126 SA
BRANCH  15  16
ATOM     16  C   UNL     1      -0.227  -3.167   3.008  1.00  0.00     0.007 A 
ATOM     17  C   UNL     1      -0.473  -2.288   4.070  1.00  0.00     0.015 A 
ATOM     18  C   UNL     1       1.094  -3.367   2.597  1.00  0.00     0.015 A 
ATOM     19  C   UNL     1       0.566  -1.556   4.651  1.00  0.00     0.001 A 
ATOM     20  C   UNL     1       2.136  -2.629   3.170  1.00  0.00     0.001 A 
ATOM     21  C   UNL     1       1.869  -1.712   4.186  1.00  0.00     0.000 A 
ENDBRANCH  15  16
ENDBRANCH  14  15
ENDBRANCH  13  14
ENDBRANCH   6  13
ENDBRANCH   3   6
ENDBRANCH   1   2
BRANCH   1  22
ATOM     22  C   UNL     1      -1.005   2.588   2.596  1.00  0.00     0.042 C 
BRANCH  22  23
ATOM     23  C   UNL     1      -1.086   2.777   4.101  1.00  0.00     0.118 C 
BRANCH  23  24
ATOM     24  N   UNL     1       0.237   2.966   4.691  1.00  0.00    -0.352 N 
ATOM     25  C   UNL     1       0.816   4.115   5.178  1.00  0.00     0.251 C 
ATOM     26  H   UNL     1       0.793   2.155   4.747  1.00  0.00     0.163 HD
ATOM     27  O   UNL     1       2.024   4.149   5.395  1.00  0.00    -0.269 OA
BRANCH  25  28
ATOM     28  C   UNL     1      -0.027   5.307   5.404  1.00  0.00     0.039 A 
ATOM     29  C   UNL     1       0.408   6.559   4.966  1.00  0.00     0.014 A 
ATOM     30  C   UNL     1      -1.280   5.167   6.003  1.00  0.00     0.014 A 
ATOM     31  C   UNL     1      -0.460   7.652   5.038  1.00  0.00     0.010 A 
ATOM     32  C   UNL     1      -2.179   6.223   5.964  1.00  0.00     0.010 A 
ATOM     33  C   UNL     1      -1.782   7.479   5.482  1.00  0.00    -0.014 A 
BRANCH  33  34
ATOM     34  C   UNL     1      -2.778   8.584   5.457  1.00  0.00     0.031 A 
ATOM     35  C   UNL     1      -3.463   8.994   6.735  1.00  0.00     0.074 A 
ATOM     36  C   UNL     1      -3.145   9.129   4.278  1.00  0.00     0.049 A 
ATOM     37  N   UNL     1      -4.469   9.811   6.910  1.00  0.00    -0.248 NA
ATOM     38  C   UNL     1      -2.985   8.361   7.976  1.00  0.00     0.031 C 
ATOM     39  C   UNL     1      -2.598   8.765   2.967  1.00  0.00     0.029 A 
ATOM     40  N   UNL     1      -4.082  10.089   3.983  1.00  0.00    -0.354 N 
ATOM     41  C   UNL     1      -4.771   9.754   8.267  1.00  0.00     0.074 A 
ATOM     42  C   UNL     1      -3.877   8.784   8.858  1.00  0.00     0.031 C 
ATOM     43  C   UNL     1      -3.192   9.505   2.017  1.00  0.00     0.029 A 
ATOM     44  C   UNL     1      -4.202  10.355   2.637  1.00  0.00     0.049 A 
ATOM     45  H   UNL     1      -4.619  10.545   4.671  1.00  0.00     0.167 HD
ATOM     46  C   UNL     1      -5.696  10.463   8.958  1.00  0.00     0.034 A 
ATOM     47  C   UNL     1      -5.047  11.172   1.975  1.00  0.00     0.034 A 
ATOM     48  C   UNL     1      -6.534  11.469   8.357  1.00  0.00     0.049 A 
ATOM     49  C   UNL     1      -6.051  11.968   2.774  1.00  0.00     0.074 A 
ATOM     50  C   UNL     1      -7.414  12.337   8.978  1.00  0.00     0.029 A 
ATOM     51  N   UNL     1      -6.602  11.737   6.997  1.00  0.00    -0.354 N 
ATOM     52  N   UNL     1      -6.257  11.970   4.071  1.00  0.00    -0.248 NA
ATOM     53  C   UNL     1      -6.932  12.872   2.024  1.00  0.00     0.031 C 
ATOM     54  C   UNL     1      -8.066  13.079   7.989  1.00  0.00     0.029 A 
ATOM     55  C   UNL     1      -7.540  12.727   6.755  1.00  0.00     0.049 A 
ATOM     56  H   UNL     1      -6.062  11.290   6.305  1.00  0.00     0.167 HD
ATOM     57  C   UNL     1      -7.276  12.893   4.291  1.00  0.00     0.074 A 
ATOM     58  C   UNL     1      -7.624  13.444   2.998  1.00  0.00     0.031 C 
ATOM     59  C   UNL     1      -7.874  13.254   5.455  1.00  0.00     0.034 A 
BRANCH  46  60
ATOM     60  C   UNL     1      -5.860  10.169  10.429  1.00  0.00     0.023 A 
ATOM     61  C   UNL     1      -4.829  10.399  11.355  1.00  0.00     0.031 A 
ATOM     62  C   UNL     1      -7.075   9.651  10.912  1.00  0.00     0.131 A 
ATOM     63  C   UNL     1      -5.007  10.053  12.703  1.00  0.00     0.055 A 
ATOM     64  C   UNL     1      -7.273   9.380  12.268  1.00  0.00     0.041 A 
ATOM     65  F   UNL     1      -8.090   9.392  10.073  1.00  0.00    -0.206 F 
ATOM     66  C   UNL     1      -6.231   9.569  13.170  1.00  0.00     0.022 A 
BRANCH  63  67
ATOM     67  S   UNL     1      -3.577  10.133  13.815  1.00  0.00     0.124 S 
ATOM     68  O   UNL     1      -2.663   9.181  13.187  1.00  0.00    -0.237 OA
ATOM     69  O   UNL     1      -3.192  11.537  13.733  1.00  0.00    -0.237 OA
ATOM     70  O   UNL     1      -4.120   9.708  15.103  1.00  0.00    -0.744 OA
ENDBRANCH  63  67
ENDBRANCH  46  60
BRANCH  47  71
ATOM     71  C   UNL     1      -5.013  11.269   0.485  1.00  0.00     0.023 A 
ATOM     72  C   UNL     1      -4.713  12.483  -0.154  1.00  0.00     0.031 A 
ATOM     73  C   UNL     1      -5.345  10.167  -0.324  1.00  0.00     0.131 A 
ATOM     74  C   UNL     1      -4.810  12.584  -1.552  1.00  0.00     0.055 A 
ATOM     75  C   UNL     1      -5.380  10.256  -1.717  1.00  0.00     0.041 A 
ATOM     76  F   UNL     1      -5.638   8.980   0.231  1.00  0.00    -0.206 F 
ATOM     77  C   UNL     1      -5.129  11.475  -2.338  1.00  0.00     0.022 A 
BRANCH  74  78
ATOM     78  S   UNL     1      -4.626  14.218  -2.319  1.00  0.00     0.124 S 
ATOM     79  O   UNL     1      -5.627  14.998  -1.600  1.00  0.00    -0.237 OA
ATOM     80  O   UNL     1      -3.233  14.534  -2.024  1.00  0.00    -0.237 OA
ATOM     81  O   UNL     1      -4.922  13.967  -3.728  1.00  0.00    -0.744 OA
ENDBRANCH  74  78
ENDBRANCH  47  71
BRANCH  59  82
ATOM     82  C   UNL     1      -8.941  14.315   5.376  1.00  0.00     0.023 A 
ATOM     83  C   UNL     1     -10.175  14.070   4.751  1.00  0.00     0.031 A 
ATOM     84  C   UNL     1      -8.721  15.583   5.941  1.00  0.00     0.131 A 
ATOM     85  C   UNL     1     -11.128  15.094   4.667  1.00  0.00     0.055 A 
ATOM     86  C   UNL     1      -9.697  16.580   5.907  1.00  0.00     0.041 A 
ATOM     87  F   UNL     1      -7.558  15.869   6.549  1.00  0.00    -0.206 F 
ATOM     88  C   UNL     1     -10.905  16.341   5.257  1.00  0.00     0.022 A 
BRANCH  85  89
ATOM     89  S   UNL     1     -12.640  14.799   3.710  1.00  0.00     0.124 S 
ATOM     90  O   UNL     1     -12.108  14.540   2.376  1.00  0.00    -0.237 OA
ATOM     91  O   UNL     1     -13.226  13.652   4.396  1.00  0.00    -0.237 OA
ATOM     92  O   UNL     1     -13.384  16.050   3.850  1.00  0.00    -0.744 OA
ENDBRANCH  85  89
ENDBRANCH  59  82
ENDBRANCH  33  34
ENDBRANCH  25  28
ENDBRANCH  23  24
ENDBRANCH  22  23
ENDBRANCH   1  22
TORSDOF 17
