REMARK SMILES CC(C)[C@@H](CO)NC(=O)CC(C)(C)CC(=O)NCCCNC(=O)c1ccc(-c2c3nc(c(-c4cc(S(=O)(=O)[O-])ccc4F)c4ccc([nH]4)c(-c4cc(S(=O)(=O)[O-])ccc4F)c4nc(c(-c5cc(S(=O)(=O)[O-])ccc5F)c5ccc2[nH]5)C=C4)C=C3)cc1
REMARK SMILES IDX 15 1 16 2 17 3 14 5 11 6 12 7 13 8 10 9 8 10 7 11 9 13 4 14
REMARK SMILES IDX 2 15 1 16 3 17 5 18 6 19 18 21 19 22 20 23 21 24 22 25 23 27
REMARK SMILES IDX 24 28 25 29 86 30 26 31 85 32 27 33 28 34 29 35 79 36 30 37
REMARK SMILES IDX 84 38 78 39 80 40 31 41 83 42 77 43 76 44 32 46 64 47 44 48
REMARK SMILES IDX 63 49 45 50 48 51 62 52 81 53 46 54 47 55 61 57 82 58 49 59
REMARK SMILES IDX 33 60 34 61 42 62 35 63 41 64 43 65 40 66 36 67 37 68 38 69
REMARK SMILES IDX 39 70 65 71 66 72 74 73 67 74 73 75 75 76 72 77 68 78 69 79
REMARK SMILES IDX 70 80 71 81 50 82 51 83 59 84 52 85 58 86 60 87 57 88 53 89
REMARK SMILES IDX 54 90 55 91 56 92
REMARK H PARENT 17 4 7 12 6 20 21 26 80 45 48 56
REMARK Flexibility Score: inf
ROOT
ATOM      1  C   UNL     1      -1.827  -3.093   4.924  1.00  0.00     0.220 C 
ATOM      2  O   UNL     1      -2.425  -4.119   4.606  1.00  0.00    -0.275 OA
ATOM      3  N   UNL     1      -1.953  -2.653   6.207  1.00  0.00    -0.356 N 
ATOM      4  H   UNL     1      -2.470  -3.252   6.792  1.00  0.00     0.163 HD
ENDROOT
BRANCH   1   5
ATOM      5  C   UNL     1      -0.947  -2.345   3.946  1.00  0.00     0.107 C 
BRANCH   5   6
ATOM      6  C   UNL     1      -1.646  -1.321   3.016  1.00  0.00    -0.018 C 
ATOM      7  C   UNL     1      -0.560  -0.335   2.553  1.00  0.00     0.012 C 
ATOM      8  C   UNL     1      -2.675  -0.439   3.742  1.00  0.00     0.012 C 
BRANCH   6   9
ATOM      9  C   UNL     1      -2.418  -1.988   1.843  1.00  0.00     0.107 C 
BRANCH   9  10
ATOM     10  C   UNL     1      -1.767  -3.097   1.030  1.00  0.00     0.220 C 
ATOM     11  N   UNL     1      -1.035  -2.807  -0.079  1.00  0.00    -0.351 N 
ATOM     12  H   UNL     1      -0.788  -3.586  -0.627  1.00  0.00     0.163 HD
ATOM     13  O   UNL     1      -1.927  -4.283   1.315  1.00  0.00    -0.275 OA
BRANCH  11  14
ATOM     14  C   UNL     1      -0.557  -1.527  -0.583  1.00  0.00     0.110 C 
BRANCH  14  15
ATOM     15  C   UNL     1       0.990  -1.548  -0.767  1.00  0.00     0.007 C 
ATOM     16  C   UNL     1       1.544  -0.119  -0.757  1.00  0.00     0.009 C 
ATOM     17  C   UNL     1       1.760  -2.388   0.268  1.00  0.00     0.009 C 
ENDBRANCH  14  15
BRANCH  14  18
ATOM     18  C   UNL     1      -1.322  -1.132  -1.865  1.00  0.00     0.181 C 
BRANCH  18  19
ATOM     19  O   UNL     1      -0.977  -1.963  -2.970  1.00  0.00    -0.394 OA
ATOM     20  H   UNL     1      -0.030  -1.871  -3.161  1.00  0.00     0.210 HD
ENDBRANCH  18  19
ENDBRANCH  14  18
ENDBRANCH  11  14
ENDBRANCH   9  10
ENDBRANCH   6   9
ENDBRANCH   5   6
ENDBRANCH   1   5
BRANCH   3  21
ATOM     21  C   UNL     1      -1.458  -1.452   6.865  1.00  0.00     0.117 C 
BRANCH  21  22
ATOM     22  C   UNL     1      -2.575  -0.457   7.168  1.00  0.00     0.042 C 
BRANCH  22  23
ATOM     23  C   UNL     1      -3.658  -1.003   8.084  1.00  0.00     0.118 C 
BRANCH  23  24
ATOM     24  N   UNL     1      -3.370  -0.708   9.474  1.00  0.00    -0.352 N 
ATOM     25  C   UNL     1      -3.865   0.300  10.262  1.00  0.00     0.251 C 
ATOM     26  H   UNL     1      -2.732  -1.315   9.913  1.00  0.00     0.163 HD
ATOM     27  O   UNL     1      -3.268   0.584  11.304  1.00  0.00    -0.269 OA
BRANCH  25  28
ATOM     28  C   UNL     1      -5.079   1.058   9.872  1.00  0.00     0.039 A 
ATOM     29  C   UNL     1      -5.152   2.421  10.173  1.00  0.00     0.014 A 
ATOM     30  C   UNL     1      -6.175   0.429   9.273  1.00  0.00     0.014 A 
ATOM     31  C   UNL     1      -6.302   3.150   9.853  1.00  0.00     0.010 A 
ATOM     32  C   UNL     1      -7.278   1.175   8.863  1.00  0.00     0.010 A 
ATOM     33  C   UNL     1      -7.372   2.538   9.181  1.00  0.00    -0.014 A 
BRANCH  33  34
ATOM     34  C   UNL     1      -8.621   3.285   8.870  1.00  0.00     0.031 A 
ATOM     35  C   UNL     1      -9.930   2.847   9.477  1.00  0.00     0.074 A 
ATOM     36  C   UNL     1      -8.595   4.316   8.003  1.00  0.00     0.049 A 
ATOM     37  N   UNL     1     -11.137   3.316   9.283  1.00  0.00    -0.248 NA
ATOM     38  C   UNL     1      -9.878   1.698  10.394  1.00  0.00     0.031 C 
ATOM     39  C   UNL     1      -7.404   4.800   7.302  1.00  0.00     0.029 A 
ATOM     40  N   UNL     1      -9.601   5.134   7.553  1.00  0.00    -0.354 N 
ATOM     41  C   UNL     1     -11.986   2.502  10.026  1.00  0.00     0.074 A 
ATOM     42  C   UNL     1     -11.162   1.471  10.618  1.00  0.00     0.031 C 
ATOM     43  C   UNL     1      -7.745   5.838   6.523  1.00  0.00     0.029 A 
ATOM     44  C   UNL     1      -9.182   6.072   6.639  1.00  0.00     0.049 A 
ATOM     45  H   UNL     1     -10.534   5.056   7.856  1.00  0.00     0.167 HD
ATOM     46  C   UNL     1     -13.325   2.617  10.220  1.00  0.00     0.034 A 
ATOM     47  C   UNL     1      -9.876   7.008   5.961  1.00  0.00     0.034 A 
ATOM     48  C   UNL     1     -14.126   3.672   9.648  1.00  0.00     0.049 A 
ATOM     49  C   UNL     1     -11.356   7.139   6.206  1.00  0.00     0.074 A 
ATOM     50  C   UNL     1     -15.467   3.945   9.851  1.00  0.00     0.029 A 
ATOM     51  N   UNL     1     -13.660   4.625   8.749  1.00  0.00    -0.354 N 
ATOM     52  N   UNL     1     -12.134   6.410   6.973  1.00  0.00    -0.248 NA
ATOM     53  C   UNL     1     -12.048   8.229   5.506  1.00  0.00     0.031 C 
ATOM     54  C   UNL     1     -15.827   5.018   9.026  1.00  0.00     0.029 A 
ATOM     55  C   UNL     1     -14.695   5.463   8.362  1.00  0.00     0.049 A 
ATOM     56  H   UNL     1     -12.731   4.694   8.433  1.00  0.00     0.167 HD
ATOM     57  C   UNL     1     -13.405   6.965   6.861  1.00  0.00     0.074 A 
ATOM     58  C   UNL     1     -13.284   8.100   5.967  1.00  0.00     0.031 C 
ATOM     59  C   UNL     1     -14.566   6.576   7.449  1.00  0.00     0.034 A 
BRANCH  46  60
ATOM     60  C   UNL     1     -13.999   1.555  11.061  1.00  0.00     0.023 A 
ATOM     61  C   UNL     1     -13.643   1.335  12.404  1.00  0.00     0.031 A 
ATOM     62  C   UNL     1     -14.971   0.711  10.496  1.00  0.00     0.131 A 
ATOM     63  C   UNL     1     -14.175   0.240  13.102  1.00  0.00     0.055 A 
ATOM     64  C   UNL     1     -15.566  -0.322  11.226  1.00  0.00     0.041 A 
ATOM     65  F   UNL     1     -15.343   0.857   9.215  1.00  0.00    -0.206 F 
ATOM     66  C   UNL     1     -15.153  -0.576  12.530  1.00  0.00     0.022 A 
BRANCH  63  67
ATOM     67  S   UNL     1     -13.436  -0.209  14.698  1.00  0.00     0.124 S 
ATOM     68  O   UNL     1     -12.032  -0.386  14.333  1.00  0.00    -0.237 OA
ATOM     69  O   UNL     1     -13.740   0.954  15.523  1.00  0.00    -0.237 OA
ATOM     70  O   UNL     1     -14.135  -1.438  15.066  1.00  0.00    -0.744 OA
ENDBRANCH  63  67
ENDBRANCH  46  60
BRANCH  47  71
ATOM     71  C   UNL     1      -9.178   7.882   4.978  1.00  0.00     0.023 A 
ATOM     72  C   UNL     1      -9.001   9.253   5.218  1.00  0.00     0.031 A 
ATOM     73  C   UNL     1      -8.672   7.349   3.779  1.00  0.00     0.131 A 
ATOM     74  C   UNL     1      -8.359  10.052   4.259  1.00  0.00     0.055 A 
ATOM     75  C   UNL     1      -7.999   8.139   2.847  1.00  0.00     0.041 A 
ATOM     76  F   UNL     1      -8.805   6.040   3.509  1.00  0.00    -0.206 F 
ATOM     77  C   UNL     1      -7.846   9.502   3.081  1.00  0.00     0.022 A 
BRANCH  74  78
ATOM     78  S   UNL     1      -8.234  11.838   4.553  1.00  0.00     0.124 S 
ATOM     79  O   UNL     1      -9.638  12.228   4.620  1.00  0.00    -0.237 OA
ATOM     80  O   UNL     1      -7.493  11.887   5.810  1.00  0.00    -0.237 OA
ATOM     81  O   UNL     1      -7.504  12.325   3.385  1.00  0.00    -0.744 OA
ENDBRANCH  74  78
ENDBRANCH  47  71
BRANCH  59  82
ATOM     82  C   UNL     1     -15.792   7.407   7.159  1.00  0.00     0.023 A 
ATOM     83  C   UNL     1     -16.374   7.442   5.879  1.00  0.00     0.031 A 
ATOM     84  C   UNL     1     -16.381   8.179   8.175  1.00  0.00     0.131 A 
ATOM     85  C   UNL     1     -17.477   8.274   5.637  1.00  0.00     0.055 A 
ATOM     86  C   UNL     1     -17.513   8.960   7.943  1.00  0.00     0.041 A 
ATOM     87  F   UNL     1     -15.864   8.185   9.415  1.00  0.00    -0.206 F 
ATOM     88  C   UNL     1     -18.060   9.021   6.664  1.00  0.00     0.022 A 
BRANCH  85  89
ATOM     89  S   UNL     1     -18.088   8.439   3.937  1.00  0.00     0.124 S 
ATOM     90  O   UNL     1     -16.907   8.932   3.236  1.00  0.00    -0.237 OA
ATOM     91  O   UNL     1     -18.495   7.074   3.618  1.00  0.00    -0.237 OA
ATOM     92  O   UNL     1     -19.184   9.399   4.057  1.00  0.00    -0.744 OA
ENDBRANCH  85  89
ENDBRANCH  59  82
ENDBRANCH  33  34
ENDBRANCH  25  28
ENDBRANCH  23  24
ENDBRANCH  22  23
ENDBRANCH  21  22
ENDBRANCH   3  21
TORSDOF 20
