REMARK SMILES O=C1C[C@@H](C(=O)NCCCNC(=O)c2ccc(-c3c4nc(c(-c5cc(S(=O)(=O)[O-])ccc5F)c5ccc([nH]5)c(-c5cc(S(=O)(=O)[O-])ccc5F)c5nc(c(-c6cc(S(=O)(=O)[O-])ccc6F)c6ccc3[nH]6)C=C5)C=C4)cc2)C2(CC[NH+](Cc3c[nH]nc3-c3ccc(Cl)cc3)CC2)N1
REMARK SMILES IDX 9 1 8 2 7 3 5 4 6 5 4 7 1 8 2 9 3 10 96 11 77 12 78 14 95 15
REMARK SMILES IDX 79 16 94 17 80 18 81 20 82 21 83 22 86 23 84 24 85 25 87 27
REMARK SMILES IDX 88 28 93 29 89 30 92 31 90 32 91 33 10 34 11 35 12 36 13 38
REMARK SMILES IDX 14 39 15 40 76 41 16 42 75 43 17 44 18 45 19 46 69 47 20 48
REMARK SMILES IDX 74 49 68 50 70 51 21 52 73 53 67 54 66 55 22 57 54 58 34 59
REMARK SMILES IDX 53 60 35 61 38 62 52 63 71 64 36 65 37 66 51 68 72 69 39 70
REMARK SMILES IDX 23 71 24 72 32 73 25 74 31 75 33 76 30 77 26 78 27 79 28 80
REMARK SMILES IDX 29 81 55 82 56 83 64 84 57 85 63 86 65 87 62 88 58 89 59 90
REMARK SMILES IDX 60 91 61 92 40 93 41 94 49 95 42 96 48 97 50 98 47 99 43 100
REMARK SMILES IDX 44 101 45 102 46 103
REMARK H PARENT 7 6 96 13 80 19 84 26 11 37 70 56 38 67
REMARK Flexibility Score: inf
ROOT
ATOM      1  C   UNL     1       1.556   3.081  -0.895  1.00  0.00     0.042 C 
ENDROOT
BRANCH   1   2
ATOM      2  C   UNL     1       1.567   1.766  -1.673  1.00  0.00     0.117 C 
BRANCH   2   3
ATOM      3  N   UNL     1       2.683   1.627  -2.599  1.00  0.00    -0.356 N 
ATOM      4  C   UNL     1       3.812   0.874  -2.609  1.00  0.00     0.226 C 
ATOM      5  O   UNL     1       4.539   0.995  -3.602  1.00  0.00    -0.275 OA
ATOM      6  H   UNL     1       2.600   2.207  -3.391  1.00  0.00     0.163 HD
BRANCH   4   7
ATOM      7  C   UNL     1       4.266  -0.052  -1.481  1.00  0.00     0.114 C 
ATOM      8  O   UNL     1       1.771  -1.218   0.799  1.00  0.00    -0.275 OA
ATOM      9  C   UNL     1       2.700  -0.712   0.202  1.00  0.00     0.221 C 
ATOM     10  C   UNL     1       3.242  -1.141  -1.137  1.00  0.00     0.116 C 
ATOM     11  N   UNL     1       3.425   0.377   0.634  1.00  0.00    -0.349 N 
ATOM     12  C   UNL     1       4.641   0.602  -0.134  1.00  0.00     0.063 C 
ATOM     13  H   UNL     1       3.148   0.947   1.387  1.00  0.00     0.164 HD
ATOM     14  C   UNL     1       4.968   2.101  -0.227  1.00  0.00     0.091 C 
ATOM     15  C   UNL     1       5.755  -0.213   0.593  1.00  0.00     0.091 C 
ATOM     16  C   UNL     1       6.440   2.404  -0.451  1.00  0.00     0.264 C 
ATOM     17  C   UNL     1       7.176   0.342   0.510  1.00  0.00     0.264 C 
ATOM     18  N   UNL     1       7.288   1.789   0.550  1.00  0.00    -0.331 N 
ATOM     19  H   UNL     1       8.254   1.970   0.277  1.00  0.00     0.348 HD
BRANCH  18  20
ATOM     20  C   UNL     1       7.391   2.467   1.853  1.00  0.00     0.303 C 
BRANCH  20  21
ATOM     21  C   UNL     1       6.158   2.460   2.704  1.00  0.00     0.052 A 
ATOM     22  C   UNL     1       5.697   1.414   3.485  1.00  0.00     0.115 A 
ATOM     23  C   UNL     1       5.261   3.541   3.032  1.00  0.00     0.101 A 
ATOM     24  N   UNL     1       4.534   1.827   4.052  1.00  0.00    -0.285 N 
ATOM     25  N   UNL     1       4.243   3.100   3.790  1.00  0.00    -0.175 NA
ATOM     26  H   UNL     1       3.962   1.243   4.601  1.00  0.00     0.189 HD
BRANCH  23  27
ATOM     27  C   UNL     1       5.337   4.968   2.712  1.00  0.00     0.003 A 
ATOM     28  C   UNL     1       5.325   5.895   3.766  1.00  0.00     0.012 A 
ATOM     29  C   UNL     1       5.388   5.448   1.400  1.00  0.00     0.012 A 
ATOM     30  C   UNL     1       5.407   7.268   3.515  1.00  0.00     0.021 A 
ATOM     31  C   UNL     1       5.479   6.821   1.144  1.00  0.00     0.021 A 
ATOM     32  C   UNL     1       5.498   7.724   2.204  1.00  0.00     0.041 A 
ATOM     33  Cl  UNL     1       5.636   9.407   1.885  1.00  0.00    -0.084 Cl
ENDBRANCH  23  27
ENDBRANCH  20  21
ENDBRANCH  18  20
ENDBRANCH   4   7
ENDBRANCH   2   3
ENDBRANCH   1   2
BRANCH   1  34
ATOM     34  C   UNL     1       1.362   4.312  -1.773  1.00  0.00     0.118 C 
BRANCH  34  35
ATOM     35  N   UNL     1       0.076   4.279  -2.454  1.00  0.00    -0.352 N 
ATOM     36  C   UNL     1      -1.054   5.027  -2.241  1.00  0.00     0.251 C 
ATOM     37  H   UNL     1       0.007   3.618  -3.180  1.00  0.00     0.163 HD
ATOM     38  O   UNL     1      -2.127   4.611  -2.670  1.00  0.00    -0.269 OA
BRANCH  36  39
ATOM     39  C   UNL     1      -0.987   6.317  -1.519  1.00  0.00     0.039 A 
ATOM     40  C   UNL     1      -2.071   6.704  -0.726  1.00  0.00     0.014 A 
ATOM     41  C   UNL     1       0.101   7.180  -1.675  1.00  0.00     0.014 A 
ATOM     42  C   UNL     1      -2.046   7.936  -0.069  1.00  0.00     0.010 A 
ATOM     43  C   UNL     1       0.166   8.365  -0.946  1.00  0.00     0.010 A 
ATOM     44  C   UNL     1      -0.917   8.768  -0.153  1.00  0.00    -0.014 A 
BRANCH  44  45
ATOM     45  C   UNL     1      -0.872  10.073   0.557  1.00  0.00     0.031 A 
ATOM     46  C   UNL     1      -0.758  11.357  -0.225  1.00  0.00     0.074 A 
ATOM     47  C   UNL     1      -0.905  10.099   1.905  1.00  0.00     0.049 A 
ATOM     48  N   UNL     1      -0.680  12.588   0.212  1.00  0.00    -0.248 NA
ATOM     49  C   UNL     1      -0.696  11.240  -1.691  1.00  0.00     0.031 C 
ATOM     50  C   UNL     1      -0.980   8.918   2.769  1.00  0.00     0.029 A 
ATOM     51  N   UNL     1      -0.884  11.150   2.787  1.00  0.00    -0.354 N 
ATOM     52  C   UNL     1      -0.544  13.386  -0.920  1.00  0.00     0.074 A 
ATOM     53  C   UNL     1      -0.489  12.495  -2.058  1.00  0.00     0.031 C 
ATOM     54  C   UNL     1      -1.043   9.312   4.050  1.00  0.00     0.029 A 
ATOM     55  C   UNL     1      -0.956  10.767   4.107  1.00  0.00     0.049 A 
ATOM     56  H   UNL     1      -0.824  12.090   2.501  1.00  0.00     0.167 HD
ATOM     57  C   UNL     1      -0.492  14.739  -1.002  1.00  0.00     0.034 A 
ATOM     58  C   UNL     1      -0.944  11.506   5.235  1.00  0.00     0.034 A 
ATOM     59  C   UNL     1      -0.567  15.611   0.144  1.00  0.00     0.049 A 
ATOM     60  C   UNL     1      -0.853  13.008   5.114  1.00  0.00     0.074 A 
ATOM     61  C   UNL     1      -0.591  16.995   0.172  1.00  0.00     0.029 A 
ATOM     62  N   UNL     1      -0.619  15.187   1.466  1.00  0.00    -0.354 N 
ATOM     63  N   UNL     1      -0.791  13.749   4.031  1.00  0.00    -0.248 NA
ATOM     64  C   UNL     1      -0.841  13.773   6.367  1.00  0.00     0.031 C 
ATOM     65  C   UNL     1      -0.570  17.407   1.507  1.00  0.00     0.029 A 
ATOM     66  C   UNL     1      -0.631  16.283   2.316  1.00  0.00     0.049 A 
ATOM     67  H   UNL     1      -0.642  14.247   1.757  1.00  0.00     0.167 HD
ATOM     68  C   UNL     1      -0.774  15.069   4.476  1.00  0.00     0.074 A 
ATOM     69  C   UNL     1      -0.850  15.020   5.921  1.00  0.00     0.031 C 
ATOM     70  C   UNL     1      -0.705  16.218   3.757  1.00  0.00     0.034 A 
BRANCH  57  71
ATOM     71  C   UNL     1      -0.316  15.356  -2.370  1.00  0.00     0.023 A 
ATOM     72  C   UNL     1      -1.277  15.205  -3.385  1.00  0.00     0.031 A 
ATOM     73  C   UNL     1       0.833  16.113  -2.663  1.00  0.00     0.131 A 
ATOM     74  C   UNL     1      -1.043  15.746  -4.659  1.00  0.00     0.055 A 
ATOM     75  C   UNL     1       1.022  16.717  -3.906  1.00  0.00     0.041 A 
ATOM     76  F   UNL     1       1.798  16.273  -1.743  1.00  0.00    -0.206 F 
ATOM     77  C   UNL     1       0.086  16.525  -4.918  1.00  0.00     0.022 A 
BRANCH  74  78
ATOM     78  S   UNL     1      -2.170  15.305  -6.010  1.00  0.00     0.124 S 
ATOM     79  O   UNL     1      -2.051  13.849  -6.031  1.00  0.00    -0.237 OA
ATOM     80  O   UNL     1      -3.446  15.835  -5.544  1.00  0.00    -0.237 OA
ATOM     81  O   UNL     1      -1.597  15.985  -7.170  1.00  0.00    -0.744 OA
ENDBRANCH  74  78
ENDBRANCH  57  71
BRANCH  58  82
ATOM     82  C   UNL     1      -1.012  10.855   6.577  1.00  0.00     0.023 A 
ATOM     83  C   UNL     1      -2.069  11.131   7.460  1.00  0.00     0.031 A 
ATOM     84  C   UNL     1       0.013  10.005   7.028  1.00  0.00     0.131 A 
ATOM     85  C   UNL     1      -2.044  10.620   8.766  1.00  0.00     0.055 A 
ATOM     86  C   UNL     1      -0.002   9.441   8.305  1.00  0.00     0.041 A 
ATOM     87  F   UNL     1       1.050   9.706   6.229  1.00  0.00    -0.206 F 
ATOM     88  C   UNL     1      -1.026   9.764   9.190  1.00  0.00     0.022 A 
BRANCH  85  89
ATOM     89  S   UNL     1      -3.296  11.196   9.947  1.00  0.00     0.124 S 
ATOM     90  O   UNL     1      -3.107  12.641   9.895  1.00  0.00    -0.237 OA
ATOM     91  O   UNL     1      -4.528  10.688   9.354  1.00  0.00    -0.237 OA
ATOM     92  O   UNL     1      -2.899  10.558  11.200  1.00  0.00    -0.744 OA
ENDBRANCH  85  89
ENDBRANCH  58  82
BRANCH  70  93
ATOM     93  C   UNL     1      -0.770  17.517   4.525  1.00  0.00     0.023 A 
ATOM     94  C   UNL     1       0.240  17.900   5.425  1.00  0.00     0.031 A 
ATOM     95  C   UNL     1      -1.867  18.380   4.357  1.00  0.00     0.131 A 
ATOM     96  C   UNL     1       0.101  19.082   6.168  1.00  0.00     0.055 A 
ATOM     97  C   UNL     1      -1.964  19.590   5.046  1.00  0.00     0.041 A 
ATOM     98  F   UNL     1      -2.864  18.064   3.515  1.00  0.00    -0.206 F 
ATOM     99  C   UNL     1      -0.984  19.939   5.969  1.00  0.00     0.022 A 
BRANCH  96 100
ATOM    100  S   UNL     1       1.306  19.433   7.478  1.00  0.00     0.124 S 
ATOM    101  O   UNL     1       1.181  18.253   8.329  1.00  0.00    -0.237 OA
ATOM    102  O   UNL     1       2.554  19.550   6.732  1.00  0.00    -0.237 OA
ATOM    103  O   UNL     1       0.818  20.678   8.068  1.00  0.00    -0.744 OA
ENDBRANCH  96 100
ENDBRANCH  70  93
ENDBRANCH  44  45
ENDBRANCH  36  39
ENDBRANCH  34  35
ENDBRANCH   1  34
TORSDOF 16
