REMARK SMILES CC(=O)Nc1ccc2sc(C(=O)NCCCNC(=O)c3ccc(-c4c5nc(c(-c6cc(S(=O)(=O)[O-])ccc6F)c6ccc([nH]6)c(-c6cc(S(=O)(=O)[O-])ccc6F)c6nc(c(-c7cc(S(=O)(=O)[O-])ccc7F)c7ccc4[nH]7)C=C6)C=C5)cc3)cc2c1
REMARK SMILES IDX 16 1 15 2 14 3 13 4 11 5 12 6 10 8 5 9 6 10 85 11 7 12 84 13
REMARK SMILES IDX 8 14 83 15 9 16 4 17 1 18 2 19 3 20 17 22 18 23 19 25 20 26
REMARK SMILES IDX 21 27 82 28 22 29 81 30 23 31 24 32 25 33 75 34 26 35 80 36
REMARK SMILES IDX 74 37 76 38 27 39 79 40 73 41 72 42 28 44 60 45 40 46 59 47
REMARK SMILES IDX 41 48 44 49 58 50 77 51 42 52 43 53 57 55 78 56 45 57 29 58
REMARK SMILES IDX 30 59 38 60 31 61 37 62 39 63 36 64 32 65 33 66 34 67 35 68
REMARK SMILES IDX 61 69 62 70 70 71 63 72 69 73 71 74 68 75 64 76 65 77 66 78
REMARK SMILES IDX 67 79 46 80 47 81 55 82 48 83 54 84 56 85 53 86 49 87 50 88
REMARK SMILES IDX 51 89 52 90
REMARK H PARENT 13 7 4 21 17 24 76 43 44 54
REMARK Flexibility Score: inf
ROOT
ATOM      1  C   UNL     1       6.742   8.402  -5.345  1.00  0.00     0.118 C 
ENDROOT
BRANCH   1   2
ATOM      2  C   UNL     1       6.259   7.243  -4.473  1.00  0.00     0.042 C 
BRANCH   2   3
ATOM      3  C   UNL     1       4.841   7.441  -3.942  1.00  0.00     0.118 C 
BRANCH   3   4
ATOM      4  N   UNL     1       3.847   7.265  -4.986  1.00  0.00    -0.351 N 
ATOM      5  C   UNL     1       3.022   6.224  -5.332  1.00  0.00     0.261 C 
ATOM      6  O   UNL     1       2.227   6.478  -6.245  1.00  0.00    -0.268 OA
ATOM      7  H   UNL     1       3.744   8.055  -5.565  1.00  0.00     0.163 HD
BRANCH   5   8
ATOM      8  C   UNL     1       3.001   4.932  -4.660  1.00  0.00     0.093 A 
ATOM      9  C   UNL     1       1.562   0.838  -2.676  1.00  0.00     0.041 A 
ATOM     10  C   UNL     1       2.773   0.924  -2.000  1.00  0.00     0.027 A 
ATOM     11  C   UNL     1       1.258   1.774  -3.673  1.00  0.00     0.035 A 
ATOM     12  C   UNL     1       3.682   1.950  -2.279  1.00  0.00     0.022 A 
ATOM     13  C   UNL     1       2.122   2.868  -3.918  1.00  0.00    -0.005 A 
ATOM     14  C   UNL     1       3.331   2.923  -3.229  1.00  0.00     0.035 A 
ATOM     15  C   UNL     1       1.966   4.015  -4.760  1.00  0.00     0.034 A 
ATOM     16  S   UNL     1       4.263   4.273  -3.727  1.00  0.00    -0.130 S 
BRANCH   9  17
ATOM     17  N   UNL     1       0.624  -0.178  -2.441  1.00  0.00    -0.326 N 
ATOM     18  C   UNL     1       0.797  -0.317   0.034  1.00  0.00     0.114 C 
ATOM     19  C   UNL     1       0.325  -0.855  -1.292  1.00  0.00     0.221 C 
ATOM     20  O   UNL     1      -0.402  -1.848  -1.347  1.00  0.00    -0.275 OA
ATOM     21  H   UNL     1       0.099  -0.448  -3.229  1.00  0.00     0.169 HD
ENDBRANCH   9  17
ENDBRANCH   5   8
ENDBRANCH   3   4
ENDBRANCH   2   3
ENDBRANCH   1   2
BRANCH   1  22
ATOM     22  N   UNL     1       6.883   9.637  -4.583  1.00  0.00    -0.352 N 
ATOM     23  C   UNL     1       7.992  10.403  -4.332  1.00  0.00     0.251 C 
ATOM     24  H   UNL     1       6.048   9.975  -4.185  1.00  0.00     0.163 HD
ATOM     25  O   UNL     1       7.932  11.266  -3.455  1.00  0.00    -0.269 OA
BRANCH  23  26
ATOM     26  C   UNL     1       9.245  10.200  -5.089  1.00  0.00     0.039 A 
ATOM     27  C   UNL     1      10.466  10.299  -4.415  1.00  0.00     0.014 A 
ATOM     28  C   UNL     1       9.228   9.962  -6.466  1.00  0.00     0.014 A 
ATOM     29  C   UNL     1      11.662  10.100  -5.109  1.00  0.00     0.010 A 
ATOM     30  C   UNL     1      10.417   9.694  -7.142  1.00  0.00     0.010 A 
ATOM     31  C   UNL     1      11.647   9.762  -6.471  1.00  0.00    -0.014 A 
BRANCH  31  32
ATOM     32  C   UNL     1      12.905   9.482  -7.213  1.00  0.00     0.031 A 
ATOM     33  C   UNL     1      13.318  10.370  -8.357  1.00  0.00     0.074 A 
ATOM     34  C   UNL     1      13.639   8.397  -6.897  1.00  0.00     0.049 A 
ATOM     35  N   UNL     1      14.312  10.230  -9.197  1.00  0.00    -0.248 NA
ATOM     36  C   UNL     1      12.486  11.557  -8.604  1.00  0.00     0.031 C 
ATOM     37  C   UNL     1      13.323   7.447  -5.828  1.00  0.00     0.029 A 
ATOM     38  N   UNL     1      14.793   7.899  -7.450  1.00  0.00    -0.354 N 
ATOM     39  C   UNL     1      14.224  11.307 -10.072  1.00  0.00     0.074 A 
ATOM     40  C   UNL     1      13.040  12.053  -9.700  1.00  0.00     0.031 C 
ATOM     41  C   UNL     1      14.264   6.489  -5.797  1.00  0.00     0.029 A 
ATOM     42  C   UNL     1      15.222   6.726  -6.872  1.00  0.00     0.049 A 
ATOM     43  H   UNL     1      15.268   8.340  -8.191  1.00  0.00     0.167 HD
ATOM     44  C   UNL     1      15.068  11.658 -11.075  1.00  0.00     0.034 A 
ATOM     45  C   UNL     1      16.256   5.920  -7.188  1.00  0.00     0.034 A 
ATOM     46  C   UNL     1      16.246  10.907 -11.432  1.00  0.00     0.049 A 
ATOM     47  C   UNL     1      17.158   6.311  -8.333  1.00  0.00     0.074 A 
ATOM     48  C   UNL     1      17.178  11.179 -12.418  1.00  0.00     0.029 A 
ATOM     49  N   UNL     1      16.657   9.732 -10.814  1.00  0.00    -0.354 N 
ATOM     50  N   UNL     1      17.075   7.350  -9.133  1.00  0.00    -0.248 NA
ATOM     51  C   UNL     1      18.299   5.429  -8.611  1.00  0.00     0.031 C 
ATOM     52  C   UNL     1      18.118  10.143 -12.435  1.00  0.00     0.029 A 
ATOM     53  C   UNL     1      17.817   9.261 -11.410  1.00  0.00     0.049 A 
ATOM     54  H   UNL     1      16.193   9.298 -10.063  1.00  0.00     0.167 HD
ATOM     55  C   UNL     1      18.173   7.262  -9.984  1.00  0.00     0.074 A 
ATOM     56  C   UNL     1      18.912   6.081  -9.587  1.00  0.00     0.031 C 
ATOM     57  C   UNL     1      18.541   8.081 -11.001  1.00  0.00     0.034 A 
BRANCH  44  58
ATOM     58  C   UNL     1      14.734  12.904 -11.859  1.00  0.00     0.023 A 
ATOM     59  C   UNL     1      14.716  14.171 -11.249  1.00  0.00     0.031 A 
ATOM     60  C   UNL     1      14.418  12.830 -13.227  1.00  0.00     0.131 A 
ATOM     61  C   UNL     1      14.324  15.299 -11.984  1.00  0.00     0.055 A 
ATOM     62  C   UNL     1      14.107  13.969 -13.974  1.00  0.00     0.041 A 
ATOM     63  F   UNL     1      14.399  11.647 -13.861  1.00  0.00    -0.206 F 
ATOM     64  C   UNL     1      14.045  15.211 -13.350  1.00  0.00     0.022 A 
BRANCH  61  65
ATOM     65  S   UNL     1      14.061  16.860 -11.099  1.00  0.00     0.124 S 
ATOM     66  O   UNL     1      12.998  16.493 -10.167  1.00  0.00    -0.237 OA
ATOM     67  O   UNL     1      15.370  17.113 -10.508  1.00  0.00    -0.237 OA
ATOM     68  O   UNL     1      13.662  17.789 -12.155  1.00  0.00    -0.744 OA
ENDBRANCH  61  65
ENDBRANCH  44  58
BRANCH  45  69
ATOM     69  C   UNL     1      16.490   4.652  -6.437  1.00  0.00     0.023 A 
ATOM     70  C   UNL     1      17.674   4.446  -5.712  1.00  0.00     0.031 A 
ATOM     71  C   UNL     1      15.561   3.597  -6.490  1.00  0.00     0.131 A 
ATOM     72  C   UNL     1      17.930   3.196  -5.127  1.00  0.00     0.055 A 
ATOM     73  C   UNL     1      15.790   2.377  -5.851  1.00  0.00     0.041 A 
ATOM     74  F   UNL     1      14.409   3.739  -7.164  1.00  0.00    -0.206 F 
ATOM     75  C   UNL     1      16.990   2.165  -5.180  1.00  0.00     0.022 A 
BRANCH  72  76
ATOM     76  S   UNL     1      19.564   2.899  -4.398  1.00  0.00     0.124 S 
ATOM     77  O   UNL     1      20.449   3.225  -5.510  1.00  0.00    -0.237 OA
ATOM     78  O   UNL     1      19.569   3.834  -3.278  1.00  0.00    -0.237 OA
ATOM     79  O   UNL     1      19.519   1.486  -4.029  1.00  0.00    -0.744 OA
ENDBRANCH  72  76
ENDBRANCH  45  69
BRANCH  57  80
ATOM     80  C   UNL     1      19.829   7.752 -11.715  1.00  0.00     0.023 A 
ATOM     81  C   UNL     1      19.966   6.594 -12.500  1.00  0.00     0.031 A 
ATOM     82  C   UNL     1      20.939   8.606 -11.595  1.00  0.00     0.131 A 
ATOM     83  C   UNL     1      21.203   6.293 -13.089  1.00  0.00     0.055 A 
ATOM     84  C   UNL     1      22.149   8.332 -12.233  1.00  0.00     0.041 A 
ATOM     85  F   UNL     1      20.864   9.725 -10.857  1.00  0.00    -0.206 F 
ATOM     86  C   UNL     1      22.290   7.163 -12.975  1.00  0.00     0.022 A 
BRANCH  83  87
ATOM     87  S   UNL     1      21.399   4.701 -13.937  1.00  0.00     0.124 S 
ATOM     88  O   UNL     1      21.097   3.751 -12.871  1.00  0.00    -0.237 OA
ATOM     89  O   UNL     1      20.412   4.793 -15.007  1.00  0.00    -0.237 OA
ATOM     90  O   UNL     1      22.793   4.716 -14.377  1.00  0.00    -0.744 OA
ENDBRANCH  83  87
ENDBRANCH  57  80
ENDBRANCH  31  32
ENDBRANCH  23  26
ENDBRANCH   1  22
TORSDOF 14
