REMARK SMILES O=C(C[C@@H]1C(=O)NC(=S)N1c1ccccc1)NCCCNC(=O)c1ccc(-c2c3nc(c(-c4cc(S(=O)(=O)[O-])ccc4F)c4ccc([nH]4)c(-c4cc(S(=O)(=O)[O-])ccc4F)c4nc(c(-c5cc(S(=O)(=O)[O-])ccc5F)c5ccc2[nH]5)C=C4)C=C3)cc1
REMARK SMILES IDX 19 1 18 2 17 3 1 4 2 5 3 7 4 8 5 9 10 10 6 11 7 12 8 13 9 15
REMARK SMILES IDX 11 16 12 17 16 18 13 19 15 20 14 21 20 22 21 23 22 24 23 26
REMARK SMILES IDX 24 27 25 28 86 29 26 30 85 31 27 32 28 33 29 34 79 35 30 36
REMARK SMILES IDX 84 37 78 38 80 39 31 40 83 41 77 42 76 43 32 45 64 46 44 47
REMARK SMILES IDX 63 48 45 49 48 50 62 51 81 52 46 53 47 54 61 56 82 57 49 58
REMARK SMILES IDX 33 59 34 60 42 61 35 62 41 63 43 64 40 65 36 66 37 67 38 68
REMARK SMILES IDX 39 69 65 70 66 71 74 72 67 73 73 74 75 75 72 76 68 77 69 78
REMARK SMILES IDX 70 79 71 80 50 81 51 82 59 83 52 84 58 85 60 86 57 87 53 88
REMARK SMILES IDX 54 89 55 90 56 91
REMARK H PARENT 17 6 7 14 21 25 80 44 48 55
REMARK Flexibility Score: inf
ROOT
ATOM      1  C   UNL     1       2.466   3.446   0.251  1.00  0.00     0.042 C 
ENDROOT
BRANCH   1   2
ATOM      2  C   UNL     1       2.132   2.280  -0.667  1.00  0.00     0.117 C 
BRANCH   2   3
ATOM      3  N   UNL     1       2.765   1.042  -0.248  1.00  0.00    -0.356 N 
ATOM      4  O   UNL     1       0.821  -0.172  -0.150  1.00  0.00    -0.275 OA
ATOM      5  C   UNL     1       2.045  -0.112  -0.069  1.00  0.00     0.222 C 
ATOM      6  H   UNL     1       3.736   1.031  -0.087  1.00  0.00     0.163 HD
BRANCH   5   7
ATOM      7  C   UNL     1       2.851  -1.334   0.307  1.00  0.00     0.135 C 
BRANCH   7   8
ATOM      8  C   UNL     1       3.825  -1.891  -0.728  1.00  0.00     0.188 C 
ATOM      9  C   UNL     1       3.613  -1.343  -2.142  1.00  0.00     0.249 C 
ATOM     10  N   UNL     1       3.687  -3.331  -1.000  1.00  0.00    -0.306 N 
ATOM     11  O   UNL     1       3.794  -0.192  -2.503  1.00  0.00    -0.272 OA
ATOM     12  N   UNL     1       3.199  -2.348  -2.953  1.00  0.00    -0.301 N 
ATOM     13  C   UNL     1       3.253  -3.549  -2.319  1.00  0.00     0.180 C 
ATOM     14  H   UNL     1       2.897  -2.224  -3.882  1.00  0.00     0.172 HD
ATOM     15  S   UNL     1       2.802  -4.948  -3.096  1.00  0.00    -0.040 S 
BRANCH  10  16
ATOM     16  C   UNL     1       4.149  -4.324  -0.093  1.00  0.00     0.044 A 
ATOM     17  C   UNL     1       4.971  -5.367  -0.541  1.00  0.00     0.026 A 
ATOM     18  C   UNL     1       3.788  -4.307   1.259  1.00  0.00     0.026 A 
ATOM     19  C   UNL     1       5.372  -6.394   0.320  1.00  0.00     0.002 A 
ATOM     20  C   UNL     1       4.166  -5.347   2.116  1.00  0.00     0.002 A 
ATOM     21  C   UNL     1       4.950  -6.394   1.645  1.00  0.00     0.000 A 
ENDBRANCH  10  16
ENDBRANCH   7   8
ENDBRANCH   5   7
ENDBRANCH   2   3
ENDBRANCH   1   2
BRANCH   1  22
ATOM     22  C   UNL     1       3.948   3.802   0.315  1.00  0.00     0.118 C 
BRANCH  22  23
ATOM     23  N   UNL     1       4.485   4.241  -0.963  1.00  0.00    -0.352 N 
ATOM     24  C   UNL     1       5.155   5.394  -1.296  1.00  0.00     0.251 C 
ATOM     25  H   UNL     1       4.348   3.612  -1.708  1.00  0.00     0.163 HD
ATOM     26  O   UNL     1       5.371   5.630  -2.482  1.00  0.00    -0.269 OA
BRANCH  24  27
ATOM     27  C   UNL     1       5.595   6.357  -0.258  1.00  0.00     0.039 A 
ATOM     28  C   UNL     1       5.533   7.723  -0.547  1.00  0.00     0.014 A 
ATOM     29  C   UNL     1       6.109   5.937   0.972  1.00  0.00     0.014 A 
ATOM     30  C   UNL     1       5.946   8.660   0.404  1.00  0.00     0.010 A 
ATOM     31  C   UNL     1       6.434   6.874   1.954  1.00  0.00     0.010 A 
ATOM     32  C   UNL     1       6.378   8.247   1.675  1.00  0.00    -0.014 A 
BRANCH  32  33
ATOM     33  C   UNL     1       6.811   9.244   2.693  1.00  0.00     0.031 A 
ATOM     34  C   UNL     1       8.233   9.251   3.195  1.00  0.00     0.074 A 
ATOM     35  C   UNL     1       5.924  10.137   3.176  1.00  0.00     0.049 A 
ATOM     36  N   UNL     1       8.800  10.043   4.070  1.00  0.00    -0.248 NA
ATOM     37  C   UNL     1       9.128   8.212   2.664  1.00  0.00     0.031 C 
ATOM     38  C   UNL     1       4.509  10.206   2.805  1.00  0.00     0.029 A 
ATOM     39  N   UNL     1       6.078  11.163   4.076  1.00  0.00    -0.354 N 
ATOM     40  C   UNL     1      10.112   9.596   4.196  1.00  0.00     0.074 A 
ATOM     41  C   UNL     1      10.230   8.416   3.367  1.00  0.00     0.031 C 
ATOM     42  C   UNL     1       3.938  11.244   3.437  1.00  0.00     0.029 A 
ATOM     43  C   UNL     1       4.929  11.889   4.292  1.00  0.00     0.049 A 
ATOM     44  H   UNL     1       6.932  11.360   4.525  1.00  0.00     0.167 HD
ATOM     45  C   UNL     1      11.132  10.134   4.912  1.00  0.00     0.034 A 
ATOM     46  C   UNL     1       4.699  12.952   5.088  1.00  0.00     0.034 A 
ATOM     47  C   UNL     1      11.000  11.315   5.731  1.00  0.00     0.049 A 
ATOM     48  C   UNL     1       5.843  13.524   5.888  1.00  0.00     0.074 A 
ATOM     49  C   UNL     1      11.973  11.967   6.468  1.00  0.00     0.029 A 
ATOM     50  N   UNL     1       9.819  12.021   5.928  1.00  0.00    -0.354 N 
ATOM     51  N   UNL     1       7.091  13.118   5.956  1.00  0.00    -0.248 NA
ATOM     52  C   UNL     1       5.552  14.712   6.698  1.00  0.00     0.031 C 
ATOM     53  C   UNL     1      11.368  13.017   7.168  1.00  0.00     0.029 A 
ATOM     54  C   UNL     1      10.035  13.083   6.794  1.00  0.00     0.049 A 
ATOM     55  H   UNL     1       8.954  11.800   5.512  1.00  0.00     0.167 HD
ATOM     56  C   UNL     1       7.741  14.030   6.785  1.00  0.00     0.074 A 
ATOM     57  C   UNL     1       6.751  15.013   7.172  1.00  0.00     0.031 C 
ATOM     58  C   UNL     1       9.040  14.056   7.183  1.00  0.00     0.034 A 
BRANCH  45  59
ATOM     59  C   UNL     1      12.469   9.428   4.858  1.00  0.00     0.023 A 
ATOM     60  C   UNL     1      13.176   9.271   3.651  1.00  0.00     0.031 A 
ATOM     61  C   UNL     1      13.034   8.877   6.022  1.00  0.00     0.131 A 
ATOM     62  C   UNL     1      14.357   8.514   3.622  1.00  0.00     0.055 A 
ATOM     63  C   UNL     1      14.257   8.204   6.002  1.00  0.00     0.041 A 
ATOM     64  F   UNL     1      12.398   8.971   7.201  1.00  0.00    -0.206 F 
ATOM     65  C   UNL     1      14.918   8.004   4.794  1.00  0.00     0.022 A 
BRANCH  62  66
ATOM     66  S   UNL     1      15.061   8.069   2.010  1.00  0.00     0.124 S 
ATOM     67  O   UNL     1      13.948   7.353   1.391  1.00  0.00    -0.237 OA
ATOM     68  O   UNL     1      15.383   9.370   1.436  1.00  0.00    -0.237 OA
ATOM     69  O   UNL     1      16.211   7.236   2.357  1.00  0.00    -0.744 OA
ENDBRANCH  62  66
ENDBRANCH  45  59
BRANCH  46  70
ATOM     70  C   UNL     1       3.336  13.557   5.172  1.00  0.00     0.023 A 
ATOM     71  C   UNL     1       3.100  14.880   4.765  1.00  0.00     0.031 A 
ATOM     72  C   UNL     1       2.257  12.834   5.713  1.00  0.00     0.131 A 
ATOM     73  C   UNL     1       1.836  15.459   4.959  1.00  0.00     0.055 A 
ATOM     74  C   UNL     1       0.985  13.393   5.845  1.00  0.00     0.041 A 
ATOM     75  F   UNL     1       2.424  11.564   6.115  1.00  0.00    -0.206 F 
ATOM     76  C   UNL     1       0.773  14.719   5.482  1.00  0.00     0.022 A 
BRANCH  73  77
ATOM     77  S   UNL     1       1.626  17.227   4.611  1.00  0.00     0.124 S 
ATOM     78  O   UNL     1       2.629  17.822   5.486  1.00  0.00    -0.237 OA
ATOM     79  O   UNL     1       1.903  17.289   3.180  1.00  0.00    -0.237 OA
ATOM     80  O   UNL     1       0.237  17.484   4.987  1.00  0.00    -0.744 OA
ENDBRANCH  73  77
ENDBRANCH  46  70
BRANCH  58  81
ATOM     81  C   UNL     1       9.473  15.229   8.035  1.00  0.00     0.023 A 
ATOM     82  C   UNL     1       8.928  15.469   9.309  1.00  0.00     0.031 A 
ATOM     83  C   UNL     1      10.417  16.148   7.541  1.00  0.00     0.131 A 
ATOM     84  C   UNL     1       9.263  16.640  10.005  1.00  0.00     0.055 A 
ATOM     85  C   UNL     1      10.808  17.270   8.274  1.00  0.00     0.041 A 
ATOM     86  F   UNL     1      10.972  15.976   6.330  1.00  0.00    -0.206 F 
ATOM     87  C   UNL     1      10.214  17.533   9.504  1.00  0.00     0.022 A 
BRANCH  84  88
ATOM     88  S   UNL     1       8.330  17.057  11.504  1.00  0.00     0.124 S 
ATOM     89  O   UNL     1       6.953  17.021  11.024  1.00  0.00    -0.237 OA
ATOM     90  O   UNL     1       8.715  15.985  12.417  1.00  0.00    -0.237 OA
ATOM     91  O   UNL     1       8.829  18.384  11.861  1.00  0.00    -0.744 OA
ENDBRANCH  84  88
ENDBRANCH  58  81
ENDBRANCH  32  33
ENDBRANCH  24  27
ENDBRANCH  22  23
ENDBRANCH   1  22
TORSDOF 15
