REMARK SMILES Cc1nn(C(C)C)c(C)c1S(=O)(=O)Nc1cccc(C(=O)NCCCNC(=O)c2ccc(-c3c4nc(c(-c5cc(S(=O)(=O)[O-])ccc5F)c5ccc([nH]5)c(-c5cc(S(=O)(=O)[O-])ccc5F)c5nc(c(-c6cc(S(=O)(=O)[O-])ccc6F)c6ccc3[nH]6)C=C5)C=C4)cc2)c1C
REMARK SMILES IDX 23 1 22 2 20 3 21 4 19 6 15 7 16 8 92 9 17 10 93 11 18 12
REMARK SMILES IDX 14 13 11 15 12 16 13 17 10 18 1 19 2 20 3 21 4 22 8 23 9 24
REMARK SMILES IDX 5 25 6 26 7 27 24 28 25 29 26 30 27 31 28 33 29 34 30 35
REMARK SMILES IDX 91 36 31 37 90 38 32 39 33 40 34 41 84 42 35 43 89 44 83 45
REMARK SMILES IDX 85 46 36 47 88 48 82 49 81 50 37 52 69 53 49 54 68 55 50 56
REMARK SMILES IDX 53 57 67 58 86 59 51 60 52 61 66 63 87 64 54 65 38 66 39 67
REMARK SMILES IDX 47 68 40 69 46 70 48 71 45 72 41 73 42 74 43 75 44 76 70 77
REMARK SMILES IDX 71 78 79 79 72 80 78 81 80 82 77 83 73 84 74 85 75 86 76 87
REMARK SMILES IDX 55 88 56 89 64 90 57 91 63 92 65 93 62 94 58 95 59 96 60 97
REMARK SMILES IDX 61 98
REMARK H PARENT 22 5 14 14 26 32 85 51 53 62
REMARK Flexibility Score: inf
ROOT
ATOM      1  C   UNL     1      -0.535  -3.807   1.543  1.00  0.00     0.118 C 
ENDROOT
BRANCH   1   2
ATOM      2  N   UNL     1      -0.367  -3.288   2.896  1.00  0.00    -0.352 N 
ATOM      3  C   UNL     1       0.373  -2.239   3.388  1.00  0.00     0.251 C 
ATOM      4  O   UNL     1       0.383  -2.008   4.594  1.00  0.00    -0.269 OA
ATOM      5  H   UNL     1      -0.875  -3.779   3.582  1.00  0.00     0.163 HD
BRANCH   3   6
ATOM      6  C   UNL     1       1.169  -1.362   2.487  1.00  0.00     0.044 A 
ATOM      7  C   UNL     1       1.721   0.797   1.513  1.00  0.00     0.053 A 
ATOM      8  C   UNL     1       2.724   0.199   0.748  1.00  0.00     0.027 A 
ATOM      9  C   UNL     1       1.000   0.041   2.471  1.00  0.00    -0.014 A 
ATOM     10  C   UNL     1       2.941  -1.172   0.835  1.00  0.00     0.003 A 
ATOM     11  C   UNL     1       0.059   0.762   3.409  1.00  0.00     0.047 C 
ATOM     12  C   UNL     1       2.160  -1.946   1.689  1.00  0.00     0.014 A 
BRANCH   7  13
ATOM     13  N   UNL     1       1.382   2.176   1.387  1.00  0.00    -0.279 N 
ATOM     14  H   UNL     1       1.022   2.623   2.187  1.00  0.00     0.180 HD
BRANCH  13  15
ATOM     15  S   UNL     1       1.537   3.099   0.010  1.00  0.00     0.265 S 
ATOM     16  O   UNL     1       2.906   3.038  -0.460  1.00  0.00    -0.201 OA
ATOM     17  O   UNL     1       0.960   4.382   0.366  1.00  0.00    -0.201 OA
BRANCH  15  18
ATOM     18  C   UNL     1       0.612   2.610  -1.365  1.00  0.00     0.131 A 
ATOM     19  C   UNL     1      -0.217   0.128  -0.890  1.00  0.00     0.070 C 
ATOM     20  C   UNL     1      -0.027   1.378  -1.658  1.00  0.00     0.080 A 
ATOM     21  N   UNL     1      -0.541   1.387  -2.895  1.00  0.00    -0.176 NA
ATOM     22  N   UNL     1      -0.299   2.614  -3.369  1.00  0.00    -0.266 N 
ATOM     23  C   UNL     1       0.382   3.409  -2.484  1.00  0.00     0.056 A 
ATOM     24  C   UNL     1       0.743   4.820  -2.777  1.00  0.00     0.068 C 
BRANCH  22  25
ATOM     25  C   UNL     1      -0.739   2.932  -4.726  1.00  0.00     0.101 C 
ATOM     26  C   UNL     1       0.116   2.195  -5.758  1.00  0.00     0.033 C 
ATOM     27  C   UNL     1      -2.226   2.630  -4.921  1.00  0.00     0.033 C 
ENDBRANCH  22  25
ENDBRANCH  15  18
ENDBRANCH  13  15
ENDBRANCH   7  13
ENDBRANCH   3   6
ENDBRANCH   1   2
BRANCH   1  28
ATOM     28  C   UNL     1       0.373  -5.007   1.266  1.00  0.00     0.042 C 
BRANCH  28  29
ATOM     29  C   UNL     1      -0.083  -6.299   1.943  1.00  0.00     0.118 C 
BRANCH  29  30
ATOM     30  N   UNL     1      -0.241  -7.403   0.991  1.00  0.00    -0.352 N 
ATOM     31  C   UNL     1      -0.378  -8.759   1.237  1.00  0.00     0.251 C 
ATOM     32  H   UNL     1      -0.251  -7.143   0.041  1.00  0.00     0.163 HD
ATOM     33  O   UNL     1      -0.551  -9.561   0.335  1.00  0.00    -0.269 OA
BRANCH  31  34
ATOM     34  C   UNL     1      -0.401  -9.207   2.643  1.00  0.00     0.039 A 
ATOM     35  C   UNL     1      -1.573  -9.803   3.119  1.00  0.00     0.014 A 
ATOM     36  C   UNL     1       0.612  -8.811   3.512  1.00  0.00     0.014 A 
ATOM     37  C   UNL     1      -1.831  -9.788   4.486  1.00  0.00     0.010 A 
ATOM     38  C   UNL     1       0.315  -8.710   4.856  1.00  0.00     0.010 A 
ATOM     39  C   UNL     1      -0.933  -9.135   5.330  1.00  0.00    -0.014 A 
BRANCH  39  40
ATOM     40  C   UNL     1      -1.273  -8.725   6.687  1.00  0.00     0.031 A 
ATOM     41  C   UNL     1      -0.649  -9.391   7.848  1.00  0.00     0.074 A 
ATOM     42  C   UNL     1      -2.114  -7.684   6.881  1.00  0.00     0.049 A 
ATOM     43  N   UNL     1      -1.090  -9.295   9.056  1.00  0.00    -0.248 NA
ATOM     44  C   UNL     1       0.480 -10.310   7.727  1.00  0.00     0.031 C 
ATOM     45  C   UNL     1      -2.331  -6.932   8.114  1.00  0.00     0.029 A 
ATOM     46  N   UNL     1      -3.155  -7.284   6.042  1.00  0.00    -0.354 N 
ATOM     47  C   UNL     1      -0.147  -9.845   9.887  1.00  0.00     0.074 A 
ATOM     48  C   UNL     1       0.717 -10.593   9.012  1.00  0.00     0.031 C 
ATOM     49  C   UNL     1      -3.549  -6.372   8.072  1.00  0.00     0.029 A 
ATOM     50  C   UNL     1      -4.208  -6.867   6.879  1.00  0.00     0.049 A 
ATOM     51  H   UNL     1      -3.153  -7.291   5.057  1.00  0.00     0.167 HD
ATOM     52  C   UNL     1      -0.131  -9.466  11.194  1.00  0.00     0.034 A 
ATOM     53  C   UNL     1      -5.421  -7.490   6.856  1.00  0.00     0.034 A 
ATOM     54  C   UNL     1      -1.395  -8.821  11.569  1.00  0.00     0.049 A 
ATOM     55  C   UNL     1      -5.825  -8.083   8.187  1.00  0.00     0.074 A 
ATOM     56  C   UNL     1      -1.758  -7.524  11.886  1.00  0.00     0.029 A 
ATOM     57  N   UNL     1      -2.586  -9.530  11.410  1.00  0.00    -0.354 N 
ATOM     58  N   UNL     1      -5.002  -8.296   9.178  1.00  0.00    -0.248 NA
ATOM     59  C   UNL     1      -7.190  -8.485   8.504  1.00  0.00     0.031 C 
ATOM     60  C   UNL     1      -3.179  -7.442  11.828  1.00  0.00     0.029 A 
ATOM     61  C   UNL     1      -3.681  -8.698  11.528  1.00  0.00     0.049 A 
ATOM     62  H   UNL     1      -2.638 -10.498  11.237  1.00  0.00     0.167 HD
ATOM     63  C   UNL     1      -5.678  -8.862  10.232  1.00  0.00     0.074 A 
ATOM     64  C   UNL     1      -7.052  -8.934   9.764  1.00  0.00     0.031 C 
ATOM     65  C   UNL     1      -5.036  -9.228  11.386  1.00  0.00     0.034 A 
BRANCH  52  66
ATOM     66  C   UNL     1       1.098  -9.482  12.093  1.00  0.00     0.023 A 
ATOM     67  C   UNL     1       0.997  -8.944  13.397  1.00  0.00     0.031 A 
ATOM     68  C   UNL     1       2.407  -9.856  11.709  1.00  0.00     0.131 A 
ATOM     69  C   UNL     1       2.132  -8.785  14.222  1.00  0.00     0.055 A 
ATOM     70  C   UNL     1       3.522  -9.751  12.550  1.00  0.00     0.041 A 
ATOM     71  F   UNL     1       2.712 -10.285  10.481  1.00  0.00    -0.206 F 
ATOM     72  C   UNL     1       3.393  -9.204  13.811  1.00  0.00     0.022 A 
BRANCH  69  73
ATOM     73  S   UNL     1       1.968  -7.939  15.819  1.00  0.00     0.124 S 
ATOM     74  O   UNL     1       1.518  -6.610  15.418  1.00  0.00    -0.237 OA
ATOM     75  O   UNL     1       0.996  -8.773  16.515  1.00  0.00    -0.237 OA
ATOM     76  O   UNL     1       3.324  -7.986  16.368  1.00  0.00    -0.744 OA
ENDBRANCH  69  73
ENDBRANCH  52  66
BRANCH  53  77
ATOM     77  C   UNL     1      -5.778  -8.020   5.509  1.00  0.00     0.023 A 
ATOM     78  C   UNL     1      -5.816  -7.086   4.450  1.00  0.00     0.031 A 
ATOM     79  C   UNL     1      -5.653  -9.376   5.183  1.00  0.00     0.131 A 
ATOM     80  C   UNL     1      -5.541  -7.493   3.138  1.00  0.00     0.055 A 
ATOM     81  C   UNL     1      -5.463  -9.788   3.856  1.00  0.00     0.041 A 
ATOM     82  F   UNL     1      -5.576 -10.307   6.145  1.00  0.00    -0.206 F 
ATOM     83  C   UNL     1      -5.358  -8.842   2.833  1.00  0.00     0.022 A 
BRANCH  80  84
ATOM     84  S   UNL     1      -5.131  -6.214   1.910  1.00  0.00     0.124 S 
ATOM     85  O   UNL     1      -6.451  -5.795   1.454  1.00  0.00    -0.237 OA
ATOM     86  O   UNL     1      -4.385  -5.235   2.700  1.00  0.00    -0.237 OA
ATOM     87  O   UNL     1      -4.320  -6.926   0.926  1.00  0.00    -0.744 OA
ENDBRANCH  80  84
ENDBRANCH  53  77
BRANCH  65  88
ATOM     88  C   UNL     1      -5.626 -10.053  12.524  1.00  0.00     0.023 A 
ATOM     89  C   UNL     1      -6.860 -10.717  12.458  1.00  0.00     0.031 A 
ATOM     90  C   UNL     1      -4.903 -10.254  13.729  1.00  0.00     0.131 A 
ATOM     91  C   UNL     1      -7.365 -11.451  13.551  1.00  0.00     0.055 A 
ATOM     92  C   UNL     1      -5.371 -11.043  14.786  1.00  0.00     0.041 A 
ATOM     93  F   UNL     1      -3.696  -9.705  13.932  1.00  0.00    -0.206 F 
ATOM     94  C   UNL     1      -6.619 -11.635  14.710  1.00  0.00     0.022 A 
BRANCH  91  95
ATOM     95  S   UNL     1      -9.049 -12.113  13.438  1.00  0.00     0.124 S 
ATOM     96  O   UNL     1      -9.844 -10.895  13.307  1.00  0.00    -0.237 OA
ATOM     97  O   UNL     1      -8.977 -12.952  12.247  1.00  0.00    -0.237 OA
ATOM     98  O   UNL     1      -9.224 -12.834  14.697  1.00  0.00    -0.744 OA
ENDBRANCH  91  95
ENDBRANCH  65  88
ENDBRANCH  39  40
ENDBRANCH  31  34
ENDBRANCH  29  30
ENDBRANCH  28  29
ENDBRANCH   1  28
TORSDOF 17
