REMARK SMILES Cc1ccc2[nH]c3c(=O)n(CC(=O)NCCCNC(=O)c4ccc(-c5c6nc(c(-c7cc(S(=O)(=O)[O-])ccc7F)c7ccc([nH]7)c(-c7cc(S(=O)(=O)[O-])ccc7F)c7nc(c(-c8cc(S(=O)(=O)[O-])ccc8F)c8ccc5[nH]8)C=C7)C=C6)cc4)cnc3c2c1
REMARK SMILES IDX 17 1 16 2 15 3 14 4 12 5 13 6 11 8 10 9 1 10 2 11 3 12 88 13
REMARK SMILES IDX 4 14 87 15 5 16 86 17 6 18 7 19 85 20 8 22 84 23 9 24 18 25
REMARK SMILES IDX 19 26 20 28 21 29 22 30 83 31 23 32 82 33 24 34 25 35 26 36
REMARK SMILES IDX 76 37 27 38 81 39 75 40 77 41 28 42 80 43 74 44 73 45 29 47
REMARK SMILES IDX 61 48 41 49 60 50 42 51 45 52 59 53 78 54 43 55 44 56 58 58
REMARK SMILES IDX 79 59 46 60 30 61 31 62 39 63 32 64 38 65 40 66 37 67 33 68
REMARK SMILES IDX 34 69 35 70 36 71 62 72 63 73 71 74 64 75 70 76 72 77 69 78
REMARK SMILES IDX 65 79 66 80 67 81 68 82 47 83 48 84 56 85 49 86 55 87 57 88
REMARK SMILES IDX 54 89 50 90 51 91 52 92 53 93
REMARK H PARENT 14 7 6 21 18 27 77 46 45 57
REMARK Flexibility Score: inf
ROOT
ATOM      1  C   UNL     1      -2.582  -8.123   2.235  1.00  0.00     0.118 C 
ENDROOT
BRANCH   1   2
ATOM      2  C   UNL     1      -1.106  -7.762   2.047  1.00  0.00     0.042 C 
BRANCH   2   3
ATOM      3  C   UNL     1      -0.188  -8.968   1.853  1.00  0.00     0.117 C 
BRANCH   3   4
ATOM      4  N   UNL     1      -0.515  -9.752   0.675  1.00  0.00    -0.354 N 
ATOM      5  C   UNL     1       0.188  -9.973  -0.470  1.00  0.00     0.240 C 
ATOM      6  O   UNL     1      -0.177 -10.913  -1.183  1.00  0.00    -0.273 OA
ATOM      7  H   UNL     1      -1.392 -10.199   0.710  1.00  0.00     0.163 HD
BRANCH   5   8
ATOM      8  C   UNL     1       1.473  -9.205  -0.790  1.00  0.00     0.226 C 
BRANCH   8   9
ATOM      9  N   UNL     1       1.302  -7.763  -0.777  1.00  0.00    -0.288 N 
ATOM     10  C   UNL     1       1.071  -0.038   0.152  1.00  0.00     0.044 C 
ATOM     11  C   UNL     1       0.660  -1.289  -0.573  1.00  0.00    -0.050 A 
ATOM     12  C   UNL     1      -0.235  -1.236  -1.647  1.00  0.00     0.005 A 
ATOM     13  C   UNL     1       1.167  -2.528  -0.146  1.00  0.00     0.016 A 
ATOM     14  C   UNL     1      -0.633  -2.393  -2.328  1.00  0.00     0.027 A 
ATOM     15  C   UNL     1       0.786  -3.705  -0.817  1.00  0.00     0.026 A 
ATOM     16  C   UNL     1      -0.104  -3.613  -1.894  1.00  0.00     0.048 A 
ATOM     17  C   UNL     1       1.091  -5.075  -0.682  1.00  0.00     0.103 A 
ATOM     18  N   UNL     1      -0.310  -4.893  -2.372  1.00  0.00    -0.349 N 
ATOM     19  C   UNL     1       0.419  -5.781  -1.634  1.00  0.00     0.132 A 
ATOM     20  N   UNL     1       1.947  -5.680   0.240  1.00  0.00    -0.236 NA
ATOM     21  H   UNL     1      -0.893  -5.129  -3.129  1.00  0.00     0.167 HD
ATOM     22  C   UNL     1       0.508  -7.197  -1.774  1.00  0.00     0.278 A 
ATOM     23  C   UNL     1       1.996  -6.971   0.125  1.00  0.00     0.203 A 
ATOM     24  O   UNL     1      -0.045  -7.821  -2.662  1.00  0.00    -0.267 OA
ENDBRANCH   8   9
ENDBRANCH   5   8
ENDBRANCH   3   4
ENDBRANCH   2   3
ENDBRANCH   1   2
BRANCH   1  25
ATOM     25  N   UNL     1      -2.835  -9.069   3.304  1.00  0.00    -0.352 N 
ATOM     26  C   UNL     1      -3.096  -8.982   4.643  1.00  0.00     0.251 C 
ATOM     27  H   UNL     1      -2.814 -10.002   2.989  1.00  0.00     0.163 HD
ATOM     28  O   UNL     1      -3.400 -10.048   5.188  1.00  0.00    -0.269 OA
BRANCH  26  29
ATOM     29  C   UNL     1      -2.972  -7.757   5.478  1.00  0.00     0.039 A 
ATOM     30  C   UNL     1      -2.661  -6.480   5.013  1.00  0.00     0.014 A 
ATOM     31  C   UNL     1      -3.120  -7.948   6.867  1.00  0.00     0.014 A 
ATOM     32  C   UNL     1      -2.391  -5.452   5.916  1.00  0.00     0.010 A 
ATOM     33  C   UNL     1      -2.867  -6.922   7.771  1.00  0.00     0.010 A 
ATOM     34  C   UNL     1      -2.445  -5.689   7.294  1.00  0.00    -0.014 A 
BRANCH  34  35
ATOM     35  C   UNL     1      -2.118  -4.587   8.197  1.00  0.00     0.031 A 
ATOM     36  C   UNL     1      -3.036  -3.419   8.104  1.00  0.00     0.074 A 
ATOM     37  C   UNL     1      -1.123  -4.637   9.107  1.00  0.00     0.049 A 
ATOM     38  N   UNL     1      -2.785  -2.245   7.624  1.00  0.00    -0.248 NA
ATOM     39  C   UNL     1      -4.449  -3.630   8.450  1.00  0.00     0.031 C 
ATOM     40  C   UNL     1      -0.349  -5.812   9.523  1.00  0.00     0.029 A 
ATOM     41  N   UNL     1      -0.654  -3.656   9.932  1.00  0.00    -0.354 N 
ATOM     42  C   UNL     1      -3.952  -1.497   7.800  1.00  0.00     0.074 A 
ATOM     43  C   UNL     1      -4.979  -2.443   8.151  1.00  0.00     0.031 C 
ATOM     44  C   UNL     1       0.309  -5.531  10.671  1.00  0.00     0.029 A 
ATOM     45  C   UNL     1       0.140  -4.120  10.973  1.00  0.00     0.049 A 
ATOM     46  H   UNL     1      -0.860  -2.703   9.800  1.00  0.00     0.167 HD
ATOM     47  C   UNL     1      -3.919  -0.133   7.862  1.00  0.00     0.034 A 
ATOM     48  C   UNL     1       0.582  -3.412  12.041  1.00  0.00     0.034 A 
ATOM     49  C   UNL     1      -2.633   0.362   7.453  1.00  0.00     0.049 A 
ATOM     50  C   UNL     1       0.513  -1.976  11.702  1.00  0.00     0.074 A 
ATOM     51  C   UNL     1      -1.935   0.490   6.275  1.00  0.00     0.029 A 
ATOM     52  N   UNL     1      -1.738   0.525   8.478  1.00  0.00    -0.354 N 
ATOM     53  N   UNL     1       1.280  -1.395  10.824  1.00  0.00    -0.248 NA
ATOM     54  C   UNL     1      -0.673  -1.226  12.089  1.00  0.00     0.031 C 
ATOM     55  C   UNL     1      -0.560   0.423   6.641  1.00  0.00     0.029 A 
ATOM     56  C   UNL     1      -0.469   0.298   8.030  1.00  0.00     0.049 A 
ATOM     57  H   UNL     1      -1.976   0.769   9.401  1.00  0.00     0.167 HD
ATOM     58  C   UNL     1       0.457  -0.463  10.219  1.00  0.00     0.074 A 
ATOM     59  C   UNL     1      -0.654  -0.281  11.146  1.00  0.00     0.031 C 
ATOM     60  C   UNL     1       0.602  -0.162   8.896  1.00  0.00     0.034 A 
BRANCH  47  61
ATOM     61  C   UNL     1      -4.845   0.726   8.707  1.00  0.00     0.023 A 
ATOM     62  C   UNL     1      -5.784   0.201   9.610  1.00  0.00     0.031 A 
ATOM     63  C   UNL     1      -4.603   2.117   8.819  1.00  0.00     0.131 A 
ATOM     64  C   UNL     1      -6.399   1.005  10.582  1.00  0.00     0.055 A 
ATOM     65  C   UNL     1      -5.170   2.907   9.827  1.00  0.00     0.041 A 
ATOM     66  F   UNL     1      -3.750   2.743   7.992  1.00  0.00    -0.206 F 
ATOM     67  C   UNL     1      -6.066   2.348  10.725  1.00  0.00     0.022 A 
BRANCH  64  68
ATOM     68  S   UNL     1      -7.628   0.298  11.713  1.00  0.00     0.124 S 
ATOM     69  O   UNL     1      -7.013   0.534  13.014  1.00  0.00    -0.237 OA
ATOM     70  O   UNL     1      -8.805   1.110  11.412  1.00  0.00    -0.237 OA
ATOM     71  O   UNL     1      -7.715  -1.097  11.292  1.00  0.00    -0.744 OA
ENDBRANCH  64  68
ENDBRANCH  47  61
BRANCH  48  72
ATOM     72  C   UNL     1       0.626  -3.863  13.451  1.00  0.00     0.023 A 
ATOM     73  C   UNL     1      -0.340  -4.778  13.907  1.00  0.00     0.031 A 
ATOM     74  C   UNL     1       1.366  -3.163  14.421  1.00  0.00     0.131 A 
ATOM     75  C   UNL     1      -0.590  -4.921  15.278  1.00  0.00     0.055 A 
ATOM     76  C   UNL     1       1.130  -3.325  15.792  1.00  0.00     0.041 A 
ATOM     77  F   UNL     1       2.279  -2.251  14.053  1.00  0.00    -0.206 F 
ATOM     78  C   UNL     1       0.133  -4.194  16.226  1.00  0.00     0.022 A 
BRANCH  75  79
ATOM     79  S   UNL     1      -1.946  -5.979  15.855  1.00  0.00     0.124 S 
ATOM     80  O   UNL     1      -1.288  -6.788  16.879  1.00  0.00    -0.237 OA
ATOM     81  O   UNL     1      -2.901  -4.993  16.351  1.00  0.00    -0.237 OA
ATOM     82  O   UNL     1      -2.346  -6.707  14.655  1.00  0.00    -0.744 OA
ENDBRANCH  75  79
ENDBRANCH  48  72
BRANCH  60  83
ATOM     83  C   UNL     1       1.899  -0.513   8.215  1.00  0.00     0.023 A 
ATOM     84  C   UNL     1       2.542   0.529   7.524  1.00  0.00     0.031 A 
ATOM     85  C   UNL     1       2.399  -1.817   8.047  1.00  0.00     0.131 A 
ATOM     86  C   UNL     1       3.598   0.254   6.653  1.00  0.00     0.055 A 
ATOM     87  C   UNL     1       3.509  -2.077   7.236  1.00  0.00     0.041 A 
ATOM     88  F   UNL     1       1.788  -2.879   8.588  1.00  0.00    -0.206 F 
ATOM     89  C   UNL     1       4.101  -1.042   6.518  1.00  0.00     0.022 A 
BRANCH  86  90
ATOM     90  S   UNL     1       4.219   1.547   5.549  1.00  0.00     0.124 S 
ATOM     91  O   UNL     1       5.596   1.709   6.006  1.00  0.00    -0.237 OA
ATOM     92  O   UNL     1       4.062   0.932   4.232  1.00  0.00    -0.237 OA
ATOM     93  O   UNL     1       3.338   2.684   5.803  1.00  0.00    -0.744 OA
ENDBRANCH  86  90
ENDBRANCH  60  83
ENDBRANCH  34  35
ENDBRANCH  26  29
ENDBRANCH   1  25
TORSDOF 14
