REMARK SMILES COc1ccc(NC(=O)[C@@H]2[C@@H](C(=O)NCCCNC(=O)c3ccc(-c4c5nc(c(-c6cc(S(=O)(=O)[O-])ccc6F)c6ccc([nH]6)c(-c6cc(S(=O)(=O)[O-])ccc6F)c6nc(c(-c7cc(S(=O)(=O)[O-])ccc7F)c7ccc4[nH]7)C=C6)C=C5)cc3)[C@@H]3CC[C@H]2C3=C(C)C)cc1
REMARK SMILES IDX 16 1 15 2 14 3 12 4 13 5 11 7 10 8 87 9 84 10 86 11 88 12
REMARK SMILES IDX 85 13 89 14 90 15 91 16 8 17 7 18 9 20 6 21 3 22 4 23 93 24
REMARK SMILES IDX 5 25 92 26 2 27 1 28 17 29 18 30 19 31 20 33 21 34 22 35
REMARK SMILES IDX 83 36 23 37 82 38 24 39 25 40 26 41 76 42 27 43 81 44 75 45
REMARK SMILES IDX 77 46 28 47 80 48 74 49 73 50 29 52 61 53 41 54 60 55 42 56
REMARK SMILES IDX 45 57 59 58 78 59 43 60 44 61 58 63 79 64 46 65 30 66 31 67
REMARK SMILES IDX 39 68 32 69 38 70 40 71 37 72 33 73 34 74 35 75 36 76 62 77
REMARK SMILES IDX 63 78 71 79 64 80 70 81 72 82 69 83 65 84 66 85 67 86 68 87
REMARK SMILES IDX 47 88 48 89 56 90 49 91 55 92 57 93 54 94 50 95 51 96 52 97
REMARK SMILES IDX 53 98
REMARK H PARENT 14 6 7 19 18 32 77 51 45 62
REMARK Flexibility Score: inf
ROOT
ATOM      1  C   UNL     1      -1.530   7.708  -6.088  1.00  0.00     0.042 C 
ENDROOT
BRANCH   1   2
ATOM      2  C   UNL     1      -1.076   7.380  -4.666  1.00  0.00     0.117 C 
BRANCH   2   3
ATOM      3  N   UNL     1      -2.070   6.566  -3.998  1.00  0.00    -0.356 N 
ATOM      4  C   UNL     1      -2.286   5.226  -4.002  1.00  0.00     0.224 C 
ATOM      5  O   UNL     1      -3.350   4.858  -3.493  1.00  0.00    -0.275 OA
ATOM      6  H   UNL     1      -2.703   7.076  -3.443  1.00  0.00     0.163 HD
BRANCH   4   7
ATOM      7  C   UNL     1      -1.186   4.209  -4.355  1.00  0.00     0.098 C 
ATOM      8  C   UNL     1      -0.290   4.400  -5.563  1.00  0.00     0.099 C 
ATOM      9  C   UNL     1      -0.774   3.348  -6.586  1.00  0.00     0.028 C 
ATOM     10  C   UNL     1      -1.847   2.829  -4.658  1.00  0.00     0.028 C 
ATOM     11  C   UNL     1      -0.196   1.979  -6.265  1.00  0.00     0.009 C 
ATOM     12  C   UNL     1      -2.191   3.122  -6.093  1.00  0.00    -0.064 C 
ATOM     13  C   UNL     1      -0.980   1.594  -5.007  1.00  0.00     0.009 C 
ATOM     14  C   UNL     1      -3.395   3.114  -6.685  1.00  0.00    -0.077 C 
ATOM     15  C   UNL     1      -4.664   2.778  -5.940  1.00  0.00     0.039 C 
ATOM     16  C   UNL     1      -3.569   3.398  -8.146  1.00  0.00     0.039 C 
BRANCH   8  17
ATOM     17  C   UNL     1       1.217   4.481  -5.275  1.00  0.00     0.228 C 
ATOM     18  N   UNL     1       1.993   3.827  -4.369  1.00  0.00    -0.326 N 
ATOM     19  H   UNL     1       2.931   4.093  -4.508  1.00  0.00     0.169 HD
ATOM     20  O   UNL     1       1.874   5.232  -6.022  1.00  0.00    -0.274 OA
BRANCH  18  21
ATOM     21  C   UNL     1       1.938   2.901  -3.300  1.00  0.00     0.041 A 
ATOM     22  C   UNL     1       2.080   0.834  -1.338  1.00  0.00     0.119 A 
ATOM     23  C   UNL     1       0.874   1.414  -1.667  1.00  0.00     0.048 A 
ATOM     24  C   UNL     1       3.232   1.301  -1.959  1.00  0.00     0.048 A 
ATOM     25  C   UNL     1       0.827   2.460  -2.593  1.00  0.00     0.030 A 
ATOM     26  C   UNL     1       3.163   2.332  -2.913  1.00  0.00     0.030 A 
BRANCH  22  27
ATOM     27  O   UNL     1       2.202  -0.213  -0.476  1.00  0.00    -0.497 OA
ATOM     28  C   UNL     1       1.377  -0.138   0.686  1.00  0.00     0.278 C 
ENDBRANCH  22  27
ENDBRANCH  18  21
ENDBRANCH   8  17
ENDBRANCH   4   7
ENDBRANCH   2   3
ENDBRANCH   1   2
BRANCH   1  29
ATOM     29  C   UNL     1      -2.741   8.628  -6.123  1.00  0.00     0.118 C 
BRANCH  29  30
ATOM     30  N   UNL     1      -2.412   9.970  -5.669  1.00  0.00    -0.352 N 
ATOM     31  C   UNL     1      -2.547  11.156  -6.342  1.00  0.00     0.251 C 
ATOM     32  H   UNL     1      -2.044  10.034  -4.759  1.00  0.00     0.163 HD
ATOM     33  O   UNL     1      -1.985  12.165  -5.916  1.00  0.00    -0.269 OA
BRANCH  31  34
ATOM     34  C   UNL     1      -3.351  11.207  -7.580  1.00  0.00     0.039 A 
ATOM     35  C   UNL     1      -2.870  11.925  -8.676  1.00  0.00     0.014 A 
ATOM     36  C   UNL     1      -4.579  10.540  -7.656  1.00  0.00     0.014 A 
ATOM     37  C   UNL     1      -3.600  11.937  -9.866  1.00  0.00     0.010 A 
ATOM     38  C   UNL     1      -5.258  10.480  -8.867  1.00  0.00     0.010 A 
ATOM     39  C   UNL     1      -4.784  11.191  -9.980  1.00  0.00    -0.014 A 
BRANCH  39  40
ATOM     40  C   UNL     1      -5.567  11.164 -11.242  1.00  0.00     0.031 A 
ATOM     41  C   UNL     1      -6.971  11.706 -11.256  1.00  0.00     0.074 A 
ATOM     42  C   UNL     1      -5.042  10.599 -12.346  1.00  0.00     0.049 A 
ATOM     43  N   UNL     1      -7.860  11.680 -12.214  1.00  0.00    -0.248 NA
ATOM     44  C   UNL     1      -7.448  12.330 -10.011  1.00  0.00     0.031 C 
ATOM     45  C   UNL     1      -3.700  10.019 -12.442  1.00  0.00     0.029 A 
ATOM     46  N   UNL     1      -5.574  10.409 -13.596  1.00  0.00    -0.354 N 
ATOM     47  C   UNL     1      -9.004  12.268 -11.685  1.00  0.00     0.074 A 
ATOM     48  C   UNL     1      -8.715  12.578 -10.302  1.00  0.00     0.031 C 
ATOM     49  C   UNL     1      -3.508   9.561 -13.689  1.00  0.00     0.029 A 
ATOM     50  C   UNL     1      -4.728   9.760 -14.466  1.00  0.00     0.049 A 
ATOM     51  H   UNL     1      -6.478  10.709 -13.848  1.00  0.00     0.167 HD
ATOM     52  C   UNL     1     -10.178  12.544 -12.304  1.00  0.00     0.034 A 
ATOM     53  C   UNL     1      -4.921   9.354 -15.736  1.00  0.00     0.034 A 
ATOM     54  C   UNL     1     -10.440  12.235 -13.688  1.00  0.00     0.049 A 
ATOM     55  C   UNL     1      -6.252   9.632 -16.392  1.00  0.00     0.074 A 
ATOM     56  C   UNL     1     -11.574  12.509 -14.432  1.00  0.00     0.029 A 
ATOM     57  N   UNL     1      -9.560  11.572 -14.536  1.00  0.00    -0.354 N 
ATOM     58  N   UNL     1      -7.312  10.224 -15.890  1.00  0.00    -0.248 NA
ATOM     59  C   UNL     1      -6.409   9.196 -17.785  1.00  0.00     0.031 C 
ATOM     60  C   UNL     1     -11.412  11.945 -15.701  1.00  0.00     0.029 A 
ATOM     61  C   UNL     1     -10.140  11.400 -15.783  1.00  0.00     0.049 A 
ATOM     62  H   UNL     1      -8.657  11.270 -14.287  1.00  0.00     0.167 HD
ATOM     63  C   UNL     1      -8.246  10.267 -16.922  1.00  0.00     0.074 A 
ATOM     64  C   UNL     1      -7.621   9.648 -18.073  1.00  0.00     0.031 C 
ATOM     65  C   UNL     1      -9.503  10.779 -16.922  1.00  0.00     0.034 A 
BRANCH  52  66
ATOM     66  C   UNL     1     -11.269  13.184 -11.478  1.00  0.00     0.023 A 
ATOM     67  C   UNL     1     -11.103  14.447 -10.883  1.00  0.00     0.031 A 
ATOM     68  C   UNL     1     -12.484  12.512 -11.259  1.00  0.00     0.131 A 
ATOM     69  C   UNL     1     -12.096  14.960 -10.036  1.00  0.00     0.055 A 
ATOM     70  C   UNL     1     -13.507  13.068 -10.488  1.00  0.00     0.041 A 
ATOM     71  F   UNL     1     -12.695  11.293 -11.780  1.00  0.00    -0.206 F 
ATOM     72  C   UNL     1     -13.310  14.293  -9.857  1.00  0.00     0.022 A 
BRANCH  69  73
ATOM     73  S   UNL     1     -11.717  16.435  -9.050  1.00  0.00     0.124 S 
ATOM     74  O   UNL     1     -10.546  15.992  -8.296  1.00  0.00    -0.237 OA
ATOM     75  O   UNL     1     -11.472  17.445 -10.073  1.00  0.00    -0.237 OA
ATOM     76  O   UNL     1     -12.924  16.634  -8.252  1.00  0.00    -0.744 OA
ENDBRANCH  69  73
ENDBRANCH  52  66
BRANCH  53  77
ATOM     77  C   UNL     1      -3.844   8.629 -16.472  1.00  0.00     0.023 A 
ATOM     78  C   UNL     1      -3.265   9.174 -17.628  1.00  0.00     0.031 A 
ATOM     79  C   UNL     1      -3.408   7.358 -16.055  1.00  0.00     0.131 A 
ATOM     80  C   UNL     1      -2.323   8.431 -18.357  1.00  0.00     0.055 A 
ATOM     81  C   UNL     1      -2.425   6.649 -16.748  1.00  0.00     0.041 A 
ATOM     82  F   UNL     1      -3.926   6.789 -14.954  1.00  0.00    -0.206 F 
ATOM     83  C   UNL     1      -1.888   7.180 -17.916  1.00  0.00     0.022 A 
BRANCH  80  84
ATOM     84  S   UNL     1      -1.749   9.083 -19.950  1.00  0.00     0.124 S 
ATOM     85  O   UNL     1      -3.003   9.231 -20.678  1.00  0.00    -0.237 OA
ATOM     86  O   UNL     1      -1.088  10.320 -19.550  1.00  0.00    -0.237 OA
ATOM     87  O   UNL     1      -0.859   8.034 -20.445  1.00  0.00    -0.744 OA
ENDBRANCH  80  84
ENDBRANCH  53  77
BRANCH  65  88
ATOM     88  C   UNL     1     -10.263  10.751 -18.226  1.00  0.00     0.023 A 
ATOM     89  C   UNL     1     -10.680   9.548 -18.822  1.00  0.00     0.031 A 
ATOM     90  C   UNL     1     -10.584  11.957 -18.875  1.00  0.00     0.131 A 
ATOM     91  C   UNL     1     -11.352   9.576 -20.053  1.00  0.00     0.055 A 
ATOM     92  C   UNL     1     -11.310  11.981 -20.066  1.00  0.00     0.041 A 
ATOM     93  F   UNL     1     -10.207  13.136 -18.354  1.00  0.00    -0.206 F 
ATOM     94  C   UNL     1     -11.688  10.786 -20.668  1.00  0.00     0.022 A 
BRANCH  91  95
ATOM     95  S   UNL     1     -11.709   8.006 -20.889  1.00  0.00     0.124 S 
ATOM     96  O   UNL     1     -10.375   7.436 -21.046  1.00  0.00    -0.237 OA
ATOM     97  O   UNL     1     -12.581   7.333 -19.931  1.00  0.00    -0.237 OA
ATOM     98  O   UNL     1     -12.358   8.419 -22.132  1.00  0.00    -0.744 OA
ENDBRANCH  91  95
ENDBRANCH  65  88
ENDBRANCH  39  40
ENDBRANCH  31  34
ENDBRANCH  29  30
ENDBRANCH   1  29
TORSDOF 16
