REMARK SMILES O=C(NCCCNC(=O)c1cnccc1C(=O)N1CCC(Cc2ccccc2)CC1)c1ccc(-c2c3nc(c(-c4cc(S(=O)(=O)[O-])ccc4F)c4ccc([nH]4)c(-c4cc(S(=O)(=O)[O-])ccc4F)c4nc(c(-c5cc(S(=O)(=O)[O-])ccc5F)c5ccc2[nH]5)C=C4)C=C3)cc1
REMARK SMILES IDX 5 1 4 2 3 3 1 4 2 5 31 7 32 8 93 9 33 10 92 11 34 12 35 13
REMARK SMILES IDX 36 14 86 15 37 16 91 17 85 18 87 19 38 20 90 21 84 22 83 23
REMARK SMILES IDX 39 25 71 26 51 27 70 28 52 29 55 30 69 31 88 32 53 33 54 34
REMARK SMILES IDX 68 36 89 37 56 38 40 39 41 40 49 41 42 42 48 43 50 44 47 45
REMARK SMILES IDX 43 46 44 47 45 48 46 49 72 50 73 51 81 52 74 53 80 54 82 55
REMARK SMILES IDX 79 56 75 57 76 58 77 59 78 60 57 61 58 62 66 63 59 64 65 65
REMARK SMILES IDX 67 66 64 67 60 68 61 69 62 70 63 71 6 72 7 73 8 74 9 76
REMARK SMILES IDX 10 77 11 78 15 79 12 80 14 81 13 82 16 83 17 84 18 85 19 86
REMARK SMILES IDX 30 87 20 88 29 89 21 90 22 91 23 92 24 93 28 94 25 95 27 96
REMARK SMILES IDX 26 97
REMARK H PARENT 3 6 87 24 55 35 7 75
REMARK Flexibility Score: inf
ROOT
ATOM      1  C   UNL     1       5.579  -1.886   0.772  1.00  0.00     0.042 C 
ENDROOT
BRANCH   1   2
ATOM      2  C   UNL     1       4.954  -1.138  -0.406  1.00  0.00     0.118 C 
BRANCH   2   3
ATOM      3  N   UNL     1       3.499  -1.060  -0.399  1.00  0.00    -0.352 N 
ATOM      4  O   UNL     1       1.454  -0.336   0.203  1.00  0.00    -0.269 OA
ATOM      5  C   UNL     1       2.643  -0.088   0.070  1.00  0.00     0.251 C 
ATOM      6  H   UNL     1       3.049  -1.838  -0.800  1.00  0.00     0.163 HD
BRANCH   5   7
ATOM      7  C   UNL     1       3.166   1.245   0.426  1.00  0.00     0.039 A 
ATOM      8  C   UNL     1       4.179   1.820  -0.333  1.00  0.00     0.014 A 
ATOM      9  C   UNL     1       2.650   1.923   1.533  1.00  0.00     0.014 A 
ATOM     10  C   UNL     1       4.872   2.905   0.168  1.00  0.00     0.010 A 
ATOM     11  C   UNL     1       3.246   3.117   1.945  1.00  0.00     0.010 A 
ATOM     12  C   UNL     1       4.406   3.578   1.306  1.00  0.00    -0.014 A 
BRANCH  12  13
ATOM     13  C   UNL     1       5.159   4.764   1.782  1.00  0.00     0.031 A 
ATOM     14  C   UNL     1       5.777   4.782   3.152  1.00  0.00     0.074 A 
ATOM     15  C   UNL     1       5.342   5.792   0.930  1.00  0.00     0.049 A 
ATOM     16  N   UNL     1       6.490   5.718   3.723  1.00  0.00    -0.248 NA
ATOM     17  C   UNL     1       5.553   3.600   3.998  1.00  0.00     0.031 C 
ATOM     18  C   UNL     1       4.799   5.860  -0.432  1.00  0.00     0.029 A 
ATOM     19  N   UNL     1       6.060   6.950   1.055  1.00  0.00    -0.354 N 
ATOM     20  C   UNL     1       6.773   5.256   5.005  1.00  0.00     0.074 A 
ATOM     21  C   UNL     1       6.120   3.970   5.136  1.00  0.00     0.031 C 
ATOM     22  C   UNL     1       5.271   6.956  -1.040  1.00  0.00     0.029 A 
ATOM     23  C   UNL     1       6.059   7.720  -0.084  1.00  0.00     0.049 A 
ATOM     24  H   UNL     1       6.532   7.207   1.881  1.00  0.00     0.167 HD
ATOM     25  C   UNL     1       7.513   5.851   5.974  1.00  0.00     0.034 A 
ATOM     26  C   UNL     1       6.611   8.923  -0.326  1.00  0.00     0.034 A 
ATOM     27  C   UNL     1       8.153   7.136   5.807  1.00  0.00     0.049 A 
ATOM     28  C   UNL     1       7.379   9.586   0.781  1.00  0.00     0.074 A 
ATOM     29  C   UNL     1       8.940   7.833   6.706  1.00  0.00     0.029 A 
ATOM     30  N   UNL     1       8.071   7.923   4.662  1.00  0.00    -0.354 N 
ATOM     31  N   UNL     1       7.631   9.142   1.991  1.00  0.00    -0.248 NA
ATOM     32  C   UNL     1       7.933  10.911   0.492  1.00  0.00     0.031 C 
ATOM     33  C   UNL     1       9.264   9.071   6.139  1.00  0.00     0.029 A 
ATOM     34  C   UNL     1       8.761   9.113   4.848  1.00  0.00     0.049 A 
ATOM     35  H   UNL     1       7.592   7.672   3.839  1.00  0.00     0.167 HD
ATOM     36  C   UNL     1       8.400  10.126   2.602  1.00  0.00     0.074 A 
ATOM     37  C   UNL     1       8.581  11.176   1.617  1.00  0.00     0.031 C 
ATOM     38  C   UNL     1       8.915  10.157   3.858  1.00  0.00     0.034 A 
BRANCH  25  39
ATOM     39  C   UNL     1       7.601   5.147   7.312  1.00  0.00     0.023 A 
ATOM     40  C   UNL     1       8.157   3.861   7.444  1.00  0.00     0.031 A 
ATOM     41  C   UNL     1       7.062   5.746   8.465  1.00  0.00     0.131 A 
ATOM     42  C   UNL     1       8.072   3.182   8.670  1.00  0.00     0.055 A 
ATOM     43  C   UNL     1       7.067   5.102   9.705  1.00  0.00     0.041 A 
ATOM     44  F   UNL     1       6.496   6.962   8.403  1.00  0.00    -0.206 F 
ATOM     45  C   UNL     1       7.555   3.804   9.809  1.00  0.00     0.022 A 
BRANCH  42  46
ATOM     46  S   UNL     1       8.474   1.412   8.708  1.00  0.00     0.124 S 
ATOM     47  O   UNL     1       7.581   0.884   7.679  1.00  0.00    -0.237 OA
ATOM     48  O   UNL     1       9.896   1.405   8.383  1.00  0.00    -0.237 OA
ATOM     49  O   UNL     1       8.142   1.013  10.074  1.00  0.00    -0.744 OA
ENDBRANCH  42  46
ENDBRANCH  25  39
BRANCH  26  50
ATOM     50  C   UNL     1       6.429   9.574  -1.653  1.00  0.00     0.023 A 
ATOM     51  C   UNL     1       7.525   9.830  -2.490  1.00  0.00     0.031 A 
ATOM     52  C   UNL     1       5.150   9.948  -2.107  1.00  0.00     0.131 A 
ATOM     53  C   UNL     1       7.326  10.467  -3.724  1.00  0.00     0.055 A 
ATOM     54  C   UNL     1       4.951  10.530  -3.359  1.00  0.00     0.041 A 
ATOM     55  F   UNL     1       4.066   9.719  -1.348  1.00  0.00    -0.206 F 
ATOM     56  C   UNL     1       6.046  10.803  -4.172  1.00  0.00     0.022 A 
BRANCH  53  57
ATOM     57  S   UNL     1       8.778  10.912  -4.714  1.00  0.00     0.124 S 
ATOM     58  O   UNL     1       9.508  11.780  -3.797  1.00  0.00    -0.237 OA
ATOM     59  O   UNL     1       9.377   9.607  -4.977  1.00  0.00    -0.237 OA
ATOM     60  O   UNL     1       8.203  11.578  -5.881  1.00  0.00    -0.744 OA
ENDBRANCH  53  57
ENDBRANCH  26  50
BRANCH  38  61
ATOM     61  C   UNL     1       9.766  11.352   4.210  1.00  0.00     0.023 A 
ATOM     62  C   UNL     1       9.232  12.650   4.281  1.00  0.00     0.031 A 
ATOM     63  C   UNL     1      11.143  11.189   4.447  1.00  0.00     0.131 A 
ATOM     64  C   UNL     1      10.081  13.742   4.513  1.00  0.00     0.055 A 
ATOM     65  C   UNL     1      11.969  12.271   4.749  1.00  0.00     0.041 A 
ATOM     66  F   UNL     1      11.708   9.973   4.386  1.00  0.00    -0.206 F 
ATOM     67  C   UNL     1      11.442  13.559   4.767  1.00  0.00     0.022 A 
BRANCH  64  68
ATOM     68  S   UNL     1       9.404  15.418   4.359  1.00  0.00     0.124 S 
ATOM     69  O   UNL     1       8.889  15.412   2.994  1.00  0.00    -0.237 OA
ATOM     70  O   UNL     1       8.401  15.447   5.419  1.00  0.00    -0.237 OA
ATOM     71  O   UNL     1      10.565  16.278   4.580  1.00  0.00    -0.744 OA
ENDBRANCH  64  68
ENDBRANCH  38  61
ENDBRANCH  12  13
ENDBRANCH   5   7
ENDBRANCH   2   3
ENDBRANCH   1   2
BRANCH   1  72
ATOM     72  C   UNL     1       5.776  -3.396   0.645  1.00  0.00     0.118 C 
BRANCH  72  73
ATOM     73  N   UNL     1       5.951  -3.881  -0.711  1.00  0.00    -0.352 N 
ATOM     74  C   UNL     1       5.999  -5.169  -1.161  1.00  0.00     0.253 C 
ATOM     75  H   UNL     1       6.048  -3.186  -1.402  1.00  0.00     0.163 HD
ATOM     76  O   UNL     1       6.129  -5.404  -2.360  1.00  0.00    -0.269 OA
BRANCH  74  77
ATOM     77  C   UNL     1       6.028  -6.287  -0.227  1.00  0.00     0.070 A 
ATOM     78  C   UNL     1       7.280  -6.902  -0.157  1.00  0.00     0.125 A 
ATOM     79  C   UNL     1       5.001  -6.763   0.585  1.00  0.00     0.055 A 
ATOM     80  N   UNL     1       7.600  -7.902   0.694  1.00  0.00    -0.264 NA
ATOM     81  C   UNL     1       5.333  -7.801   1.482  1.00  0.00     0.035 A 
ATOM     82  C   UNL     1       6.620  -8.316   1.513  1.00  0.00     0.112 A 
BRANCH  79  83
ATOM     83  C   UNL     1       3.645  -6.174   0.796  1.00  0.00     0.254 C 
ATOM     84  O   UNL     1       3.175  -6.335   1.929  1.00  0.00    -0.269 OA
ATOM     85  N   UNL     1       2.949  -5.401  -0.131  1.00  0.00    -0.339 N 
ATOM     86  C   UNL     1       2.206  -4.276   0.435  1.00  0.00     0.120 C 
ATOM     87  C   UNL     1       3.009  -5.487  -1.591  1.00  0.00     0.120 C 
ATOM     88  C   UNL     1       0.895  -3.953  -0.257  1.00  0.00     0.025 C 
ATOM     89  C   UNL     1       1.643  -5.240  -2.247  1.00  0.00     0.025 C 
ATOM     90  C   UNL     1       1.052  -3.895  -1.781  1.00  0.00    -0.003 C 
BRANCH  90  91
ATOM     91  C   UNL     1      -0.287  -3.582  -2.478  1.00  0.00     0.039 C 
BRANCH  91  92
ATOM     92  C   UNL     1      -0.834  -2.208  -2.151  1.00  0.00    -0.048 A 
ATOM     93  C   UNL     1      -1.909  -2.062  -1.262  1.00  0.00     0.004 A 
ATOM     94  C   UNL     1      -0.251  -1.054  -2.696  1.00  0.00     0.004 A 
ATOM     95  C   UNL     1      -2.386  -0.793  -0.922  1.00  0.00     0.000 A 
ATOM     96  C   UNL     1      -0.730   0.214  -2.355  1.00  0.00     0.000 A 
ATOM     97  C   UNL     1      -1.796   0.344  -1.468  1.00  0.00     0.000 A 
ENDBRANCH  91  92
ENDBRANCH  90  91
ENDBRANCH  79  83
ENDBRANCH  74  77
ENDBRANCH  72  73
ENDBRANCH   1  72
TORSDOF 16
