REMARK SMILES COc1cc(/C=C2/C(=O)N(c3ccccc3)C(=O)[NH+]=C2NCCCNC(=O)c2ccc(-c3c4nc(c(-c5cc(S(=O)(=O)[O-])ccc5F)c5ccc([nH]5)c(-c5cc(S(=O)(=O)[O-])ccc5F)c5nc(c(-c6cc(S(=O)(=O)[O-])ccc6F)c6ccc3[nH]6)C=C5)C=C4)cc2)ccc1OCC(=O)[O-]
REMARK SMILES IDX 23 1 22 2 21 3 6 4 7 5 8 6 20 7 9 8 10 9 19 10 17 11 18 14
REMARK SMILES IDX 5 15 3 16 4 17 93 18 92 19 91 20 2 21 1 22 94 23 95 24 96 25
REMARK SMILES IDX 97 26 98 27 11 28 12 29 16 30 13 31 15 32 14 33 24 34 25 35
REMARK SMILES IDX 26 36 27 38 28 39 29 40 90 41 30 42 89 43 31 44 32 45 33 46
REMARK SMILES IDX 83 47 34 48 88 49 82 50 84 51 35 52 87 53 81 54 80 55 36 57
REMARK SMILES IDX 68 58 48 59 67 60 49 61 52 62 66 63 85 64 50 65 51 66 65 68
REMARK SMILES IDX 86 69 53 70 37 71 38 72 46 73 39 74 45 75 47 76 44 77 40 78
REMARK SMILES IDX 41 79 42 80 43 81 69 82 70 83 78 84 71 85 77 86 79 87 76 88
REMARK SMILES IDX 72 89 73 90 74 91 75 92 54 93 55 94 63 95 56 96 62 97 64 98
REMARK SMILES IDX 61 99 57 100 58 101 59 102 60 103
REMARK H PARENT 19 12 21 13 25 37 84 56 52 67
REMARK Flexibility Score: inf
ROOT
ATOM      1  C   UNL     1       0.961  -0.690   3.471  1.00  0.00     0.059 C 
ENDROOT
BRANCH   1   2
ATOM      2  C   UNL     1       0.504   1.421   3.872  1.00  0.00     0.195 C 
BRANCH   2   3
ATOM      3  N   UNL     1      -0.913   2.189   3.875  1.00  0.00    -0.305 N 
ATOM      4  C   UNL     1      -1.196   0.212   6.157  1.00  0.00     0.030 C 
ATOM      5  C   UNL     1      -1.895   1.353   6.065  1.00  0.00     0.129 C 
ATOM      6  C   UNL     1      -2.735   1.844   7.173  1.00  0.00     0.328 C 
ATOM      7  C   UNL     1      -1.931   2.146   4.809  1.00  0.00     0.236 C 
ATOM      8  O   UNL     1      -2.465   1.564   8.339  1.00  0.00    -0.249 OA
ATOM      9  N   UNL     1      -3.829   2.571   6.728  1.00  0.00    -0.155 N 
ATOM     10  N   UNL     1      -3.019   2.796   4.514  1.00  0.00    -0.209 N 
ATOM     11  C   UNL     1      -4.099   2.721   5.366  1.00  0.00     0.448 C 
ATOM     12  H   UNL     1      -3.069   3.336   3.692  1.00  0.00     0.270 HD
ATOM     13  H   UNL     1      -1.077   2.774   3.100  1.00  0.00     0.256 HD
ATOM     14  O   UNL     1      -5.239   2.810   4.915  1.00  0.00    -0.212 OA
BRANCH   4  15
ATOM     15  C   UNL     1      -0.328  -0.102   5.027  1.00  0.00    -0.021 A 
ATOM     16  C   UNL     1       0.101   0.580   1.990  1.00  0.00     0.161 A 
ATOM     17  C   UNL     1      -0.982   0.002   3.313  1.00  0.00     0.058 A 
ATOM     18  C   UNL     1       1.841   0.871   2.307  1.00  0.00     0.161 A 
ATOM     19  C   UNL     1       2.497   0.695   3.973  1.00  0.00     0.051 A 
ATOM     20  C   UNL     1       1.426   0.186   5.340  1.00  0.00     0.012 A 
BRANCH  16  21
ATOM     21  O   UNL     1      -0.381   1.450   1.024  1.00  0.00    -0.493 OA
ATOM     22  C   UNL     1      -1.375   0.965   0.142  1.00  0.00     0.278 C 
ENDBRANCH  16  21
BRANCH  18  23
ATOM     23  O   UNL     1       2.770   1.211   1.362  1.00  0.00    -0.484 OA
BRANCH  23  24
ATOM     24  C   UNL     1       2.419   1.672   0.070  1.00  0.00     0.282 C 
BRANCH  24  25
ATOM     25  C   UNL     1       1.792   0.879  -1.099  1.00  0.00     0.079 C 
ATOM     26  O   UNL     1       1.716   1.311  -2.241  1.00  0.00    -0.546 OA
ATOM     27  O   UNL     1       1.259  -0.307  -0.765  1.00  0.00    -0.546 OA
ENDBRANCH  24  25
ENDBRANCH  23  24
ENDBRANCH  18  23
ENDBRANCH   4  15
BRANCH   9  28
ATOM     28  C   UNL     1      -4.773   3.026   7.685  1.00  0.00     0.111 A 
ATOM     29  C   UNL     1      -6.088   2.552   7.702  1.00  0.00     0.044 A 
ATOM     30  C   UNL     1      -4.377   4.002   8.610  1.00  0.00     0.044 A 
ATOM     31  C   UNL     1      -6.995   3.043   8.643  1.00  0.00     0.004 A 
ATOM     32  C   UNL     1      -5.295   4.516   9.524  1.00  0.00     0.004 A 
ATOM     33  C   UNL     1      -6.602   4.031   9.545  1.00  0.00     0.000 A 
ENDBRANCH   9  28
ENDBRANCH   2   3
ENDBRANCH   1   2
BRANCH   1  34
ATOM     34  C   UNL     1       1.257  -1.694   2.145  1.00  0.00     0.119 C 
BRANCH  34  35
ATOM     35  N   UNL     1       2.572  -1.512   1.528  1.00  0.00    -0.352 N 
ATOM     36  C   UNL     1       3.250  -2.013   0.456  1.00  0.00     0.251 C 
ATOM     37  H   UNL     1       3.112  -0.850   2.018  1.00  0.00     0.163 HD
ATOM     38  O   UNL     1       4.333  -1.494   0.192  1.00  0.00    -0.269 OA
BRANCH  36  39
ATOM     39  C   UNL     1       2.757  -3.158  -0.316  1.00  0.00     0.039 A 
ATOM     40  C   UNL     1       3.749  -3.980  -0.860  1.00  0.00     0.014 A 
ATOM     41  C   UNL     1       1.410  -3.514  -0.400  1.00  0.00     0.014 A 
ATOM     42  C   UNL     1       3.410  -5.237  -1.316  1.00  0.00     0.010 A 
ATOM     43  C   UNL     1       1.073  -4.794  -0.790  1.00  0.00     0.010 A 
ATOM     44  C   UNL     1       2.087  -5.671  -1.176  1.00  0.00    -0.014 A 
BRANCH  44  45
ATOM     45  C   UNL     1       1.805  -7.105  -1.248  1.00  0.00     0.031 A 
ATOM     46  C   UNL     1       1.084  -7.651  -2.425  1.00  0.00     0.074 A 
ATOM     47  C   UNL     1       2.220  -7.849  -0.205  1.00  0.00     0.049 A 
ATOM     48  N   UNL     1       0.856  -8.894  -2.733  1.00  0.00    -0.248 NA
ATOM     49  C   UNL     1       0.525  -6.670  -3.369  1.00  0.00     0.031 C 
ATOM     50  C   UNL     1       2.857  -7.311   1.008  1.00  0.00     0.029 A 
ATOM     51  N   UNL     1       2.203  -9.196   0.007  1.00  0.00    -0.354 N 
ATOM     52  C   UNL     1       0.146  -8.853  -3.923  1.00  0.00     0.074 A 
ATOM     53  C   UNL     1      -0.088  -7.460  -4.237  1.00  0.00     0.031 C 
ATOM     54  C   UNL     1       3.229  -8.326   1.800  1.00  0.00     0.029 A 
ATOM     55  C   UNL     1       2.833  -9.576   1.171  1.00  0.00     0.049 A 
ATOM     56  H   UNL     1       1.780  -9.834  -0.612  1.00  0.00     0.167 HD
ATOM     57  C   UNL     1      -0.242  -9.903  -4.683  1.00  0.00     0.034 A 
ATOM     58  C   UNL     1       3.081 -10.810   1.646  1.00  0.00     0.034 A 
ATOM     59  C   UNL     1      -0.002 -11.267  -4.280  1.00  0.00     0.049 A 
ATOM     60  C   UNL     1       2.652 -11.959   0.772  1.00  0.00     0.074 A 
ATOM     61  C   UNL     1      -0.342 -12.440  -4.924  1.00  0.00     0.029 A 
ATOM     62  N   UNL     1       0.642 -11.633  -3.097  1.00  0.00    -0.354 N 
ATOM     63  N   UNL     1       2.040 -11.920  -0.394  1.00  0.00    -0.248 NA
ATOM     64  C   UNL     1       2.961 -13.307   1.251  1.00  0.00     0.031 C 
ATOM     65  C   UNL     1       0.044 -13.509  -4.106  1.00  0.00     0.029 A 
ATOM     66  C   UNL     1       0.691 -13.010  -2.983  1.00  0.00     0.049 A 
ATOM     67  H   UNL     1       1.009 -11.000  -2.438  1.00  0.00     0.167 HD
ATOM     68  C   UNL     1       1.907 -13.240  -0.799  1.00  0.00     0.074 A 
ATOM     69  C   UNL     1       2.533 -14.045   0.237  1.00  0.00     0.031 C 
ATOM     70  C   UNL     1       1.320 -13.753  -1.912  1.00  0.00     0.034 A 
BRANCH  57  71
ATOM     71  C   UNL     1      -0.983  -9.587  -5.958  1.00  0.00     0.023 A 
ATOM     72  C   UNL     1      -0.389  -8.822  -6.981  1.00  0.00     0.031 A 
ATOM     73  C   UNL     1      -2.324  -9.969  -6.123  1.00  0.00     0.131 A 
ATOM     74  C   UNL     1      -1.158  -8.386  -8.071  1.00  0.00     0.055 A 
ATOM     75  C   UNL     1      -3.061  -9.602  -7.252  1.00  0.00     0.041 A 
ATOM     76  F   UNL     1      -2.956 -10.674  -5.171  1.00  0.00    -0.206 F 
ATOM     77  C   UNL     1      -2.485  -8.791  -8.225  1.00  0.00     0.022 A 
BRANCH  74  78
ATOM     78  S   UNL     1      -0.448  -7.151  -9.196  1.00  0.00     0.124 S 
ATOM     79  O   UNL     1      -0.225  -6.025  -8.292  1.00  0.00    -0.237 OA
ATOM     80  O   UNL     1       0.749  -7.822  -9.688  1.00  0.00    -0.237 OA
ATOM     81  O   UNL     1      -1.502  -6.946 -10.188  1.00  0.00    -0.744 OA
ENDBRANCH  74  78
ENDBRANCH  57  71
BRANCH  58  82
ATOM     82  C   UNL     1       3.780 -11.006   2.949  1.00  0.00     0.023 A 
ATOM     83  C   UNL     1       5.023 -11.655   3.024  1.00  0.00     0.031 A 
ATOM     84  C   UNL     1       3.211 -10.547   4.153  1.00  0.00     0.131 A 
ATOM     85  C   UNL     1       5.633 -11.867   4.273  1.00  0.00     0.055 A 
ATOM     86  C   UNL     1       3.845 -10.715   5.386  1.00  0.00     0.041 A 
ATOM     87  F   UNL     1       2.031  -9.905   4.145  1.00  0.00    -0.206 F 
ATOM     88  C   UNL     1       5.057 -11.392   5.452  1.00  0.00     0.022 A 
BRANCH  85  89
ATOM     89  S   UNL     1       7.154 -12.854   4.345  1.00  0.00     0.124 S 
ATOM     90  O   UNL     1       6.753 -14.073   3.652  1.00  0.00    -0.237 OA
ATOM     91  O   UNL     1       8.102 -11.997   3.642  1.00  0.00    -0.237 OA
ATOM     92  O   UNL     1       7.394 -13.003   5.779  1.00  0.00    -0.744 OA
ENDBRANCH  85  89
ENDBRANCH  58  82
BRANCH  70  93
ATOM     93  C   UNL     1       1.360 -15.250  -2.045  1.00  0.00     0.023 A 
ATOM     94  C   UNL     1       0.637 -16.077  -1.171  1.00  0.00     0.031 A 
ATOM     95  C   UNL     1       2.135 -15.850  -3.051  1.00  0.00     0.131 A 
ATOM     96  C   UNL     1       0.753 -17.468  -1.280  1.00  0.00     0.055 A 
ATOM     97  C   UNL     1       2.192 -17.235  -3.198  1.00  0.00     0.041 A 
ATOM     98  F   UNL     1       2.844 -15.098  -3.909  1.00  0.00    -0.206 F 
ATOM     99  C   UNL     1       1.509 -18.052  -2.300  1.00  0.00     0.022 A 
BRANCH  96 100
ATOM    100  S   UNL     1      -0.021 -18.499  -0.007  1.00  0.00     0.124 S 
ATOM    101  O   UNL     1       0.641 -18.029   1.205  1.00  0.00    -0.237 OA
ATOM    102  O   UNL     1      -1.432 -18.151  -0.138  1.00  0.00    -0.237 OA
ATOM    103  O   UNL     1       0.323 -19.860  -0.415  1.00  0.00    -0.744 OA
ENDBRANCH  96 100
ENDBRANCH  70  93
ENDBRANCH  44  45
ENDBRANCH  36  39
ENDBRANCH  34  35
ENDBRANCH   1  34
TORSDOF 18
