REMARK SMILES C[NH2+]C[C@H](C)C(=O)N1CC[C@@](C(=O)NCCCNC(=O)c2ccc(-c3c4nc(c(-c5cc(S(=O)(=O)[O-])ccc5F)c5ccc([nH]5)c(-c5cc(S(=O)(=O)[O-])ccc5F)c5nc(c(-c6cc(S(=O)(=O)[O-])ccc6F)c6ccc3[nH]6)C=C5)C=C4)cc2)(C(F)(F)F)C1
REMARK SMILES IDX 15 1 14 2 12 3 13 4 11 6 8 7 9 8 88 9 10 10 6 11 7 12 4 13
REMARK SMILES IDX 5 14 3 15 2 16 1 17 84 20 85 21 86 22 87 23 16 24 17 25
REMARK SMILES IDX 18 26 19 27 20 29 21 30 22 31 83 32 23 33 82 34 24 35 25 36
REMARK SMILES IDX 26 37 76 38 27 39 81 40 75 41 77 42 28 43 80 44 74 45 73 46
REMARK SMILES IDX 29 48 61 49 41 50 60 51 42 52 45 53 59 54 78 55 43 56 44 57
REMARK SMILES IDX 58 59 79 60 46 61 30 62 31 63 39 64 32 65 38 66 40 67 37 68
REMARK SMILES IDX 33 69 34 70 35 71 36 72 62 73 63 74 71 75 64 76 70 77 72 78
REMARK SMILES IDX 69 79 65 80 66 81 67 82 68 83 47 84 48 85 56 86 49 87 55 88
REMARK SMILES IDX 57 89 54 90 50 91 51 92 52 93 53 94
REMARK H PARENT 14 5 2 18 2 19 18 28 77 47 45 58
REMARK Flexibility Score: inf
ROOT
ATOM      1  C   UNL     1      -3.704  -4.816  -3.262  1.00  0.00     0.117 C 
ENDROOT
BRANCH   1   2
ATOM      2  N   UNL     1      -4.892  -5.493  -2.795  1.00  0.00    -0.355 N 
ATOM      3  C   UNL     1      -5.712  -5.210  -1.738  1.00  0.00     0.237 C 
ATOM      4  O   UNL     1      -6.783  -5.821  -1.738  1.00  0.00    -0.274 OA
ATOM      5  H   UNL     1      -5.152  -6.283  -3.321  1.00  0.00     0.163 HD
BRANCH   3   6
ATOM      6  C   UNL     1      -5.329  -4.249  -0.605  1.00  0.00     0.163 C 
ATOM      7  N   UNL     1      -3.759  -2.423  -0.549  1.00  0.00    -0.341 N 
ATOM      8  C   UNL     1      -3.279  -3.390   0.413  1.00  0.00     0.121 C 
ATOM      9  C   UNL     1      -5.096  -2.793  -1.030  1.00  0.00     0.146 C 
ATOM     10  C   UNL     1      -4.022  -4.678   0.092  1.00  0.00     0.050 C 
BRANCH   7  11
ATOM     11  C   UNL     1      -3.299  -1.127  -0.713  1.00  0.00     0.231 C 
ATOM     12  O   UNL     1      -4.093  -0.238  -1.044  1.00  0.00    -0.274 OA
BRANCH  11  13
ATOM     13  C   UNL     1      -1.792  -0.798  -0.664  1.00  0.00     0.130 C 
ATOM     14  C   UNL     1      -1.096  -1.039   0.672  1.00  0.00     0.024 C 
BRANCH  13  15
ATOM     15  C   UNL     1      -0.947  -1.347  -1.844  1.00  0.00     0.273 C 
BRANCH  15  16
ATOM     16  N   UNL     1      -1.647  -2.128  -2.858  1.00  0.00    -0.348 N 
ATOM     17  C   UNL     1      -2.380  -1.320  -3.823  1.00  0.00     0.330 C 
ATOM     18  H   UNL     1      -0.961  -2.688  -3.363  1.00  0.00     0.346 HD
ATOM     19  H   UNL     1      -2.335  -2.701  -2.368  1.00  0.00     0.346 HD
ENDBRANCH  15  16
ENDBRANCH  13  15
ENDBRANCH  11  13
ENDBRANCH   7  11
BRANCH   6  20
ATOM     20  C   UNL     1      -6.481  -4.250   0.389  1.00  0.00     0.404 C 
ATOM     21  F   UNL     1      -6.196  -3.441   1.444  1.00  0.00    -0.170 F 
ATOM     22  F   UNL     1      -7.628  -3.781  -0.151  1.00  0.00    -0.170 F 
ATOM     23  F   UNL     1      -6.721  -5.472   0.911  1.00  0.00    -0.170 F 
ENDBRANCH   6  20
ENDBRANCH   3   6
ENDBRANCH   1   2
BRANCH   1  24
ATOM     24  C   UNL     1      -2.429  -5.646  -3.220  1.00  0.00     0.042 C 
BRANCH  24  25
ATOM     25  C   UNL     1      -2.226  -6.544  -4.431  1.00  0.00     0.118 C 
BRANCH  25  26
ATOM     26  N   UNL     1      -2.074  -5.801  -5.676  1.00  0.00    -0.352 N 
ATOM     27  C   UNL     1      -1.069  -5.816  -6.613  1.00  0.00     0.251 C 
ATOM     28  H   UNL     1      -2.815  -5.186  -5.879  1.00  0.00     0.163 HD
ATOM     29  O   UNL     1      -1.097  -4.988  -7.524  1.00  0.00    -0.269 OA
BRANCH  27  30
ATOM     30  C   UNL     1       0.047  -6.785  -6.527  1.00  0.00     0.039 A 
ATOM     31  C   UNL     1       1.334  -6.365  -6.876  1.00  0.00     0.014 A 
ATOM     32  C   UNL     1      -0.161  -8.104  -6.118  1.00  0.00     0.014 A 
ATOM     33  C   UNL     1       2.415  -7.241  -6.739  1.00  0.00     0.010 A 
ATOM     34  C   UNL     1       0.927  -8.941  -5.886  1.00  0.00     0.010 A 
ATOM     35  C   UNL     1       2.229  -8.522  -6.197  1.00  0.00    -0.014 A 
BRANCH  35  36
ATOM     36  C   UNL     1       3.377  -9.435  -5.946  1.00  0.00     0.031 A 
ATOM     37  C   UNL     1       3.439 -10.775  -6.634  1.00  0.00     0.074 A 
ATOM     38  C   UNL     1       4.319  -9.089  -5.044  1.00  0.00     0.049 A 
ATOM     39  N   UNL     1       4.304 -11.744  -6.477  1.00  0.00    -0.248 NA
ATOM     40  C   UNL     1       2.372 -11.079  -7.601  1.00  0.00     0.031 C 
ATOM     41  C   UNL     1       4.338  -7.839  -4.278  1.00  0.00     0.029 A 
ATOM     42  N   UNL     1       5.436  -9.758  -4.604  1.00  0.00    -0.354 N 
ATOM     43  C   UNL     1       3.873 -12.778  -7.303  1.00  0.00     0.074 A 
ATOM     44  C   UNL     1       2.643 -12.335  -7.923  1.00  0.00     0.031 C 
ATOM     45  C   UNL     1       5.420  -7.823  -3.483  1.00  0.00     0.029 A 
ATOM     46  C   UNL     1       6.144  -9.081  -3.635  1.00  0.00     0.049 A 
ATOM     47  H   UNL     1       5.705 -10.639  -4.949  1.00  0.00     0.167 HD
ATOM     48  C   UNL     1       4.459 -13.978  -7.532  1.00  0.00     0.034 A 
ATOM     49  C   UNL     1       7.239  -9.440  -2.933  1.00  0.00     0.034 A 
ATOM     50  C   UNL     1       5.704 -14.388  -6.932  1.00  0.00     0.049 A 
ATOM     51  C   UNL     1       7.869 -10.784  -3.214  1.00  0.00     0.074 A 
ATOM     52  C   UNL     1       6.430 -15.543  -7.168  1.00  0.00     0.029 A 
ATOM     53  N   UNL     1       6.403 -13.667  -5.974  1.00  0.00    -0.354 N 
ATOM     54  N   UNL     1       7.487 -11.714  -4.060  1.00  0.00    -0.248 NA
ATOM     55  C   UNL     1       9.082 -11.121  -2.458  1.00  0.00     0.031 C 
ATOM     56  C   UNL     1       7.520 -15.560  -6.293  1.00  0.00     0.029 A 
ATOM     57  C   UNL     1       7.528 -14.374  -5.578  1.00  0.00     0.049 A 
ATOM     58  H   UNL     1       6.139 -12.785  -5.626  1.00  0.00     0.167 HD
ATOM     59  C   UNL     1       8.437 -12.728  -3.960  1.00  0.00     0.074 A 
ATOM     60  C   UNL     1       9.417 -12.285  -2.992  1.00  0.00     0.031 C 
ATOM     61  C   UNL     1       8.497 -13.918  -4.610  1.00  0.00     0.034 A 
BRANCH  48  62
ATOM     62  C   UNL     1       3.755 -14.950  -8.448  1.00  0.00     0.023 A 
ATOM     63  C   UNL     1       3.571 -14.688  -9.816  1.00  0.00     0.031 A 
ATOM     64  C   UNL     1       3.292 -16.179  -7.944  1.00  0.00     0.131 A 
ATOM     65  C   UNL     1       2.902 -15.622 -10.623  1.00  0.00     0.055 A 
ATOM     66  C   UNL     1       2.693 -17.134  -8.766  1.00  0.00     0.041 A 
ATOM     67  F   UNL     1       3.420 -16.474  -6.641  1.00  0.00    -0.206 F 
ATOM     68  C   UNL     1       2.487 -16.855 -10.113  1.00  0.00     0.022 A 
BRANCH  65  69
ATOM     69  S   UNL     1       2.491 -15.162 -12.328  1.00  0.00     0.124 S 
ATOM     70  O   UNL     1       1.632 -13.998 -12.121  1.00  0.00    -0.237 OA
ATOM     71  O   UNL     1       3.801 -14.893 -12.908  1.00  0.00    -0.237 OA
ATOM     72  O   UNL     1       1.809 -16.346 -12.848  1.00  0.00    -0.744 OA
ENDBRANCH  65  69
ENDBRANCH  48  62
BRANCH  49  73
ATOM     73  C   UNL     1       7.801  -8.546  -1.876  1.00  0.00     0.023 A 
ATOM     74  C   UNL     1       9.117  -8.062  -1.958  1.00  0.00     0.031 A 
ATOM     75  C   UNL     1       7.060  -8.233  -0.722  1.00  0.00     0.131 A 
ATOM     76  C   UNL     1       9.676  -7.362  -0.878  1.00  0.00     0.055 A 
ATOM     77  C   UNL     1       7.597  -7.473   0.319  1.00  0.00     0.041 A 
ATOM     78  F   UNL     1       5.796  -8.666  -0.586  1.00  0.00    -0.206 F 
ATOM     79  C   UNL     1       8.921  -7.050   0.254  1.00  0.00     0.022 A 
BRANCH  76  80
ATOM     80  S   UNL     1      11.452  -6.987  -0.914  1.00  0.00     0.124 S 
ATOM     81  O   UNL     1      12.027  -8.308  -1.140  1.00  0.00    -0.237 OA
ATOM     82  O   UNL     1      11.539  -6.048  -2.027  1.00  0.00    -0.237 OA
ATOM     83  O   UNL     1      11.703  -6.413   0.407  1.00  0.00    -0.744 OA
ENDBRANCH  76  80
ENDBRANCH  49  73
BRANCH  61  84
ATOM     84  C   UNL     1       9.693 -14.796  -4.332  1.00  0.00     0.023 A 
ATOM     85  C   UNL     1       9.917 -15.366  -3.066  1.00  0.00     0.031 A 
ATOM     86  C   UNL     1      10.626 -15.059  -5.350  1.00  0.00     0.131 A 
ATOM     87  C   UNL     1      11.079 -16.117  -2.835  1.00  0.00     0.055 A 
ATOM     88  C   UNL     1      11.743 -15.866  -5.133  1.00  0.00     0.041 A 
ATOM     89  F   UNL     1      10.464 -14.539  -6.578  1.00  0.00    -0.206 F 
ATOM     90  C   UNL     1      11.983 -16.388  -3.866  1.00  0.00     0.022 A 
BRANCH  87  91
ATOM     91  S   UNL     1      11.446 -16.652  -1.142  1.00  0.00     0.124 S 
ATOM     92  O   UNL     1      11.487 -15.381  -0.425  1.00  0.00    -0.237 OA
ATOM     93  O   UNL     1      10.313 -17.519  -0.835  1.00  0.00    -0.237 OA
ATOM     94  O   UNL     1      12.732 -17.334  -1.269  1.00  0.00    -0.744 OA
ENDBRANCH  87  91
ENDBRANCH  61  84
ENDBRANCH  35  36
ENDBRANCH  27  30
ENDBRANCH  25  26
ENDBRANCH  24  25
ENDBRANCH   1  24
TORSDOF 18
