REMARK SMILES O=C(NCCCNC(=O)c1csc(C[NH2+][C@H]2CCSc3ccc(F)cc32)c1)c1ccc(-c2c3nc(c(-c4cc(S(=O)(=O)[O-])ccc4F)c4ccc([nH]4)c(-c4cc(S(=O)(=O)[O-])ccc4F)c4nc(c(-c5cc(S(=O)(=O)[O-])ccc5F)c5ccc2[nH]5)C=C4)C=C3)cc1
REMARK SMILES IDX 5 1 4 2 3 3 1 4 2 5 28 7 29 8 90 9 30 10 89 11 31 12 32 13
REMARK SMILES IDX 33 14 83 15 34 16 88 17 82 18 84 19 35 20 87 21 81 22 80 23
REMARK SMILES IDX 36 25 68 26 48 27 67 28 49 29 52 30 66 31 85 32 50 33 51 34
REMARK SMILES IDX 65 36 86 37 53 38 37 39 38 40 46 41 39 42 45 43 47 44 44 45
REMARK SMILES IDX 40 46 41 47 42 48 43 49 69 50 70 51 78 52 71 53 77 54 79 55
REMARK SMILES IDX 76 56 72 57 73 58 74 59 75 60 54 61 55 62 63 63 56 64 62 65
REMARK SMILES IDX 64 66 61 67 57 68 58 69 59 70 60 71 6 72 7 73 8 74 9 76
REMARK SMILES IDX 10 77 11 78 27 79 12 80 13 81 14 82 15 83 16 86 17 87 26 88
REMARK SMILES IDX 18 89 20 90 25 91 19 92 21 93 23 94 22 95 24 96
REMARK H PARENT 3 6 84 24 52 35 7 75 15 84 15 85
REMARK Flexibility Score: inf
ROOT
ATOM      1  C   UNL     1      12.276  13.636  -9.694  1.00  0.00     0.042 C 
ENDROOT
BRANCH   1   2
ATOM      2  C   UNL     1      12.997  13.645 -11.042  1.00  0.00     0.118 C 
BRANCH   2   3
ATOM      3  N   UNL     1      12.419  14.578 -11.993  1.00  0.00    -0.352 N 
ATOM      4  O   UNL     1      12.289  16.256 -13.461  1.00  0.00    -0.269 OA
ATOM      5  C   UNL     1      13.012  15.484 -12.835  1.00  0.00     0.251 C 
ATOM      6  H   UNL     1      11.435  14.558 -12.040  1.00  0.00     0.163 HD
BRANCH   5   7
ATOM      7  C   UNL     1      14.485  15.562 -13.000  1.00  0.00     0.039 A 
ATOM      8  C   UNL     1      15.057  16.831 -13.162  1.00  0.00     0.014 A 
ATOM      9  C   UNL     1      15.292  14.424 -13.092  1.00  0.00     0.014 A 
ATOM     10  C   UNL     1      16.432  16.962 -13.380  1.00  0.00     0.010 A 
ATOM     11  C   UNL     1      16.673  14.556 -13.275  1.00  0.00     0.010 A 
ATOM     12  C   UNL     1      17.251  15.825 -13.430  1.00  0.00    -0.014 A 
BRANCH  12  13
ATOM     13  C   UNL     1      18.710  15.956 -13.670  1.00  0.00     0.031 A 
ATOM     14  C   UNL     1      19.295  15.585 -15.003  1.00  0.00     0.074 A 
ATOM     15  C   UNL     1      19.512  16.401 -12.685  1.00  0.00     0.049 A 
ATOM     16  N   UNL     1      20.546  15.597 -15.385  1.00  0.00    -0.248 NA
ATOM     17  C   UNL     1      18.352  15.138 -16.039  1.00  0.00     0.031 C 
ATOM     18  C   UNL     1      19.066  16.794 -11.348  1.00  0.00     0.029 A 
ATOM     19  N   UNL     1      20.870  16.597 -12.657  1.00  0.00    -0.354 N 
ATOM     20  C   UNL     1      20.545  15.149 -16.699  1.00  0.00     0.074 A 
ATOM     21  C   UNL     1      19.169  14.855 -17.044  1.00  0.00     0.031 C 
ATOM     22  C   UNL     1      20.129  17.205 -10.637  1.00  0.00     0.029 A 
ATOM     23  C   UNL     1      21.333  17.078 -11.456  1.00  0.00     0.049 A 
ATOM     24  H   UNL     1      21.458  16.411 -13.425  1.00  0.00     0.167 HD
ATOM     25  C   UNL     1      21.590  15.003 -17.547  1.00  0.00     0.034 A 
ATOM     26  C   UNL     1      22.584  17.385 -11.058  1.00  0.00     0.034 A 
ATOM     27  C   UNL     1      22.957  15.306 -17.218  1.00  0.00     0.049 A 
ATOM     28  C   UNL     1      23.729  17.218 -12.020  1.00  0.00     0.074 A 
ATOM     29  C   UNL     1      24.082  15.183 -18.014  1.00  0.00     0.029 A 
ATOM     30  N   UNL     1      23.383  15.809 -15.998  1.00  0.00    -0.354 N 
ATOM     31  N   UNL     1      23.704  16.814 -13.268  1.00  0.00    -0.248 NA
ATOM     32  C   UNL     1      25.072  17.545 -11.520  1.00  0.00     0.031 C 
ATOM     33  C   UNL     1      25.192  15.609 -17.273  1.00  0.00     0.029 A 
ATOM     34  C   UNL     1      24.754  16.003 -16.019  1.00  0.00     0.049 A 
ATOM     35  H   UNL     1      22.797  15.999 -15.231  1.00  0.00     0.167 HD
ATOM     36  C   UNL     1      25.024  16.852 -13.706  1.00  0.00     0.074 A 
ATOM     37  C   UNL     1      25.820  17.334 -12.597  1.00  0.00     0.031 C 
ATOM     38  C   UNL     1      25.531  16.506 -14.915  1.00  0.00     0.034 A 
BRANCH  25  39
ATOM     39  C   UNL     1      21.285  14.508 -18.932  1.00  0.00     0.023 A 
ATOM     40  C   UNL     1      21.529  13.172 -19.282  1.00  0.00     0.031 A 
ATOM     41  C   UNL     1      20.773  15.380 -19.907  1.00  0.00     0.131 A 
ATOM     42  C   UNL     1      21.247  12.741 -20.585  1.00  0.00     0.055 A 
ATOM     43  C   UNL     1      20.494  14.945 -21.203  1.00  0.00     0.041 A 
ATOM     44  F   UNL     1      20.510  16.659 -19.602  1.00  0.00    -0.206 F 
ATOM     45  C   UNL     1      20.734  13.620 -21.546  1.00  0.00     0.022 A 
BRANCH  42  46
ATOM     46  S   UNL     1      21.541  11.025 -21.083  1.00  0.00     0.124 S 
ATOM     47  O   UNL     1      20.181  10.547 -21.309  1.00  0.00    -0.237 OA
ATOM     48  O   UNL     1      22.353  11.183 -22.284  1.00  0.00    -0.237 OA
ATOM     49  O   UNL     1      22.224  10.441 -19.934  1.00  0.00    -0.744 OA
ENDBRANCH  42  46
ENDBRANCH  25  39
BRANCH  26  50
ATOM     50  C   UNL     1      22.798  17.941  -9.695  1.00  0.00     0.023 A 
ATOM     51  C   UNL     1      22.630  17.147  -8.549  1.00  0.00     0.031 A 
ATOM     52  C   UNL     1      23.103  19.302  -9.529  1.00  0.00     0.131 A 
ATOM     53  C   UNL     1      22.737  17.733  -7.281  1.00  0.00     0.055 A 
ATOM     54  C   UNL     1      23.245  19.873  -8.264  1.00  0.00     0.041 A 
ATOM     55  F   UNL     1      23.262  20.093 -10.601  1.00  0.00    -0.206 F 
ATOM     56  C   UNL     1      23.051  19.088  -7.132  1.00  0.00     0.022 A 
BRANCH  53  57
ATOM     57  S   UNL     1      22.379  16.777  -5.782  1.00  0.00     0.124 S 
ATOM     58  O   UNL     1      23.674  16.770  -5.113  1.00  0.00    -0.237 OA
ATOM     59  O   UNL     1      21.345  17.588  -5.147  1.00  0.00    -0.237 OA
ATOM     60  O   UNL     1      21.926  15.489  -6.297  1.00  0.00    -0.744 OA
ENDBRANCH  53  57
ENDBRANCH  26  50
BRANCH  38  61
ATOM     61  C   UNL     1      27.015  16.632 -15.113  1.00  0.00     0.023 A 
ATOM     62  C   UNL     1      27.546  17.677 -15.886  1.00  0.00     0.031 A 
ATOM     63  C   UNL     1      27.892  15.662 -14.598  1.00  0.00     0.131 A 
ATOM     64  C   UNL     1      28.925  17.726 -16.128  1.00  0.00     0.055 A 
ATOM     65  C   UNL     1      29.266  15.723 -14.831  1.00  0.00     0.041 A 
ATOM     66  F   UNL     1      27.422  14.648 -13.857  1.00  0.00    -0.206 F 
ATOM     67  C   UNL     1      29.788  16.755 -15.604  1.00  0.00     0.022 A 
BRANCH  64  68
ATOM     68  S   UNL     1      29.650  19.030 -17.155  1.00  0.00     0.124 S 
ATOM     69  O   UNL     1      30.535  19.701 -16.208  1.00  0.00    -0.237 OA
ATOM     70  O   UNL     1      30.322  18.263 -18.199  1.00  0.00    -0.237 OA
ATOM     71  O   UNL     1      28.500  19.812 -17.595  1.00  0.00    -0.744 OA
ENDBRANCH  64  68
ENDBRANCH  38  61
ENDBRANCH  12  13
ENDBRANCH   5   7
ENDBRANCH   2   3
ENDBRANCH   1   2
BRANCH   1  72
ATOM     72  C   UNL     1      10.777  13.338  -9.745  1.00  0.00     0.118 C 
BRANCH  72  73
ATOM     73  N   UNL     1      10.481  12.051 -10.346  1.00  0.00    -0.352 N 
ATOM     74  C   UNL     1      10.074  10.871  -9.775  1.00  0.00     0.252 C 
ATOM     75  H   UNL     1      10.589  12.018 -11.324  1.00  0.00     0.163 HD
ATOM     76  O   UNL     1      10.123   9.847 -10.449  1.00  0.00    -0.269 OA
BRANCH  74  77
ATOM     77  C   UNL     1       9.606  10.843  -8.394  1.00  0.00     0.051 A 
ATOM     78  C   UNL     1       8.691  11.718  -7.842  1.00  0.00     0.079 A 
ATOM     79  C   UNL     1       9.938   9.809  -7.452  1.00  0.00     0.035 A 
ATOM     80  S   UNL     1       8.308  11.347  -6.217  1.00  0.00    -0.142 S 
ATOM     81  C   UNL     1       9.313   9.962  -6.230  1.00  0.00     0.059 A 
BRANCH  81  82
ATOM     82  C   UNL     1       9.403   9.071  -5.026  1.00  0.00     0.308 C 
BRANCH  82  83
ATOM     83  N   UNL     1      10.289   9.656  -4.026  1.00  0.00    -0.336 N 
ATOM     84  H   UNL     1       9.955  10.595  -3.811  1.00  0.00     0.347 HD
ATOM     85  H   UNL     1      11.228   9.657  -4.424  1.00  0.00     0.347 HD
BRANCH  83  86
ATOM     86  C   UNL     1      10.355   8.888  -2.771  1.00  0.00     0.215 C 
ATOM     87  C   UNL     1      11.258   7.659  -2.958  1.00  0.00     0.081 C 
ATOM     88  C   UNL     1      10.783   9.788  -1.617  1.00  0.00     0.026 A 
ATOM     89  C   UNL     1      11.330   6.832  -1.688  1.00  0.00     0.081 C 
ATOM     90  C   UNL     1      11.593   9.347  -0.553  1.00  0.00     0.017 A 
ATOM     91  C   UNL     1      10.281  11.108  -1.563  1.00  0.00     0.050 A 
ATOM     92  S   UNL     1      12.266   7.699  -0.409  1.00  0.00    -0.125 SA
ATOM     93  C   UNL     1      11.927  10.232   0.489  1.00  0.00     0.018 A 
ATOM     94  C   UNL     1      10.615  11.963  -0.519  1.00  0.00     0.123 A 
ATOM     95  C   UNL     1      11.442  11.538   0.506  1.00  0.00     0.040 A 
ATOM     96  F   UNL     1      10.125  13.210  -0.500  1.00  0.00    -0.207 F 
ENDBRANCH  83  86
ENDBRANCH  82  83
ENDBRANCH  81  82
ENDBRANCH  74  77
ENDBRANCH  72  73
ENDBRANCH   1  72
TORSDOF 16
