REMARK SMILES Cc1ccc(O)c(C(=O)NCc2ccc(C(=O)NCCCNC(=O)c3ccc(-c4c5nc(c(-c6cc(S(=O)(=O)[O-])ccc6F)c6ccc([nH]6)c(-c6cc(S(=O)(=O)[O-])ccc6F)c6nc(c(-c7cc(S(=O)(=O)[O-])ccc7F)c7ccc4[nH]7)C=C6)C=C5)cc3)o2)c1
REMARK SMILES IDX 19 1 18 2 16 3 17 4 15 6 12 7 13 8 88 9 14 10 11 11 10 12
REMARK SMILES IDX 8 13 9 14 7 16 1 17 2 18 3 19 89 20 4 21 5 22 6 23 20 25
REMARK SMILES IDX 21 26 22 27 23 28 24 30 25 31 26 32 87 33 27 34 86 35 28 36
REMARK SMILES IDX 29 37 30 38 80 39 31 40 85 41 79 42 81 43 32 44 84 45 78 46
REMARK SMILES IDX 77 47 33 49 65 50 45 51 64 52 46 53 49 54 63 55 82 56 47 57
REMARK SMILES IDX 48 58 62 60 83 61 50 62 34 63 35 64 43 65 36 66 42 67 44 68
REMARK SMILES IDX 41 69 37 70 38 71 39 72 40 73 66 74 67 75 75 76 68 77 74 78
REMARK SMILES IDX 76 79 73 80 69 81 70 82 71 83 72 84 51 85 52 86 60 87 53 88
REMARK SMILES IDX 59 89 61 90 58 91 54 92 55 93 56 94 57 95
REMARK H PARENT 18 5 10 15 6 24 22 29 81 48 49 59
REMARK Flexibility Score: inf
ROOT
ATOM      1  C   UNL     1       3.111  -6.856   5.163  1.00  0.00     0.118 C 
ENDROOT
BRANCH   1   2
ATOM      2  N   UNL     1       2.363  -7.672   4.229  1.00  0.00    -0.349 N 
ATOM      3  C   UNL     1       1.745  -7.366   3.044  1.00  0.00     0.286 C 
ATOM      4  O   UNL     1       1.256  -8.328   2.437  1.00  0.00    -0.266 OA
ATOM      5  H   UNL     1       2.284  -8.618   4.493  1.00  0.00     0.163 HD
BRANCH   3   6
ATOM      6  C   UNL     1       1.690  -6.011   2.531  1.00  0.00     0.191 A 
ATOM      7  C   UNL     1       1.256  -4.549   0.916  1.00  0.00     0.124 A 
ATOM      8  C   UNL     1       1.684  -3.816   2.000  1.00  0.00     0.048 A 
ATOM      9  O   UNL     1       1.278  -5.873   1.227  1.00  0.00    -0.454 OA
ATOM     10  C   UNL     1       1.923  -4.746   3.042  1.00  0.00     0.056 A 
BRANCH   7  11
ATOM     11  C   UNL     1       0.736  -4.212  -0.431  1.00  0.00     0.191 C 
BRANCH  11  12
ATOM     12  N   UNL     1      -0.615  -3.715  -0.279  1.00  0.00    -0.345 N 
ATOM     13  C   UNL     1      -1.192  -2.486  -0.141  1.00  0.00     0.255 C 
ATOM     14  O   UNL     1      -2.424  -2.480  -0.029  1.00  0.00    -0.269 OA
ATOM     15  H   UNL     1      -1.280  -4.441  -0.273  1.00  0.00     0.164 HD
BRANCH  13  16
ATOM     16  C   UNL     1      -0.487  -1.165  -0.122  1.00  0.00     0.081 A 
ATOM     17  C   UNL     1       2.996   0.408   0.075  1.00  0.00     0.044 C 
ATOM     18  C   UNL     1       1.504   0.270  -0.015  1.00  0.00    -0.050 A 
ATOM     19  C   UNL     1       0.698   1.408  -0.036  1.00  0.00     0.007 A 
ATOM     20  C   UNL     1       0.902  -1.002  -0.061  1.00  0.00     0.021 A 
ATOM     21  C   UNL     1      -0.685   1.277  -0.093  1.00  0.00     0.047 A 
ATOM     22  C   UNL     1      -1.268   0.009  -0.128  1.00  0.00     0.128 A 
BRANCH  22  23
ATOM     23  O   UNL     1      -2.641   0.011  -0.161  1.00  0.00    -0.507 OA
ATOM     24  H   UNL     1      -3.109   0.823  -0.164  1.00  0.00     0.293 HD
ENDBRANCH  22  23
ENDBRANCH  13  16
ENDBRANCH  11  12
ENDBRANCH   7  11
ENDBRANCH   3   6
ENDBRANCH   1   2
BRANCH   1  25
ATOM     25  C   UNL     1       2.276  -6.487   6.386  1.00  0.00     0.042 C 
BRANCH  25  26
ATOM     26  C   UNL     1       2.082  -7.658   7.349  1.00  0.00     0.118 C 
BRANCH  26  27
ATOM     27  N   UNL     1       3.347  -8.112   7.913  1.00  0.00    -0.352 N 
ATOM     28  C   UNL     1       3.785  -8.136   9.213  1.00  0.00     0.251 C 
ATOM     29  H   UNL     1       3.992  -8.457   7.255  1.00  0.00     0.163 HD
ATOM     30  O   UNL     1       4.982  -8.298   9.434  1.00  0.00    -0.269 OA
BRANCH  28  31
ATOM     31  C   UNL     1       2.835  -7.964  10.332  1.00  0.00     0.039 A 
ATOM     32  C   UNL     1       3.239  -7.238  11.456  1.00  0.00     0.014 A 
ATOM     33  C   UNL     1       1.569  -8.554  10.300  1.00  0.00     0.014 A 
ATOM     34  C   UNL     1       2.353  -7.057  12.520  1.00  0.00     0.010 A 
ATOM     35  C   UNL     1       0.659  -8.305  11.324  1.00  0.00     0.010 A 
ATOM     36  C   UNL     1       1.043  -7.559  12.448  1.00  0.00    -0.014 A 
BRANCH  36  37
ATOM     37  C   UNL     1       0.065  -7.317  13.540  1.00  0.00     0.031 A 
ATOM     38  C   UNL     1      -0.506  -8.474  14.315  1.00  0.00     0.074 A 
ATOM     39  C   UNL     1      -0.350  -6.060  13.792  1.00  0.00     0.049 A 
ATOM     40  N   UNL     1      -1.423  -8.473  15.249  1.00  0.00    -0.248 NA
ATOM     41  C   UNL     1      -0.000  -9.812  13.972  1.00  0.00     0.031 C 
ATOM     42  C   UNL     1       0.105  -4.864  13.080  1.00  0.00     0.029 A 
ATOM     43  N   UNL     1      -1.250  -5.576  14.708  1.00  0.00    -0.354 N 
ATOM     44  C   UNL     1      -1.610  -9.807  15.598  1.00  0.00     0.074 A 
ATOM     45  C   UNL     1      -0.761 -10.590  14.726  1.00  0.00     0.031 C 
ATOM     46  C   UNL     1      -0.497  -3.784  13.602  1.00  0.00     0.029 A 
ATOM     47  C   UNL     1      -1.420  -4.212  14.648  1.00  0.00     0.049 A 
ATOM     48  H   UNL     1      -1.729  -6.151  15.347  1.00  0.00     0.167 HD
ATOM     49  C   UNL     1      -2.398 -10.326  16.573  1.00  0.00     0.034 A 
ATOM     50  C   UNL     1      -2.240  -3.399  15.345  1.00  0.00     0.034 A 
ATOM     51  C   UNL     1      -3.236  -9.526  17.434  1.00  0.00     0.049 A 
ATOM     52  C   UNL     1      -3.134  -4.003  16.398  1.00  0.00     0.074 A 
ATOM     53  C   UNL     1      -4.039  -9.940  18.482  1.00  0.00     0.029 A 
ATOM     54  N   UNL     1      -3.386  -8.147  17.342  1.00  0.00    -0.354 N 
ATOM     55  N   UNL     1      -3.263  -5.262  16.750  1.00  0.00    -0.248 NA
ATOM     56  C   UNL     1      -3.982  -3.075  17.156  1.00  0.00     0.031 C 
ATOM     57  C   UNL     1      -4.732  -8.827  18.971  1.00  0.00     0.029 A 
ATOM     58  C   UNL     1      -4.295  -7.702  18.291  1.00  0.00     0.049 A 
ATOM     59  H   UNL     1      -2.917  -7.571  16.697  1.00  0.00     0.167 HD
ATOM     60  C   UNL     1      -4.185  -5.271  17.793  1.00  0.00     0.074 A 
ATOM     61  C   UNL     1      -4.563  -3.891  18.023  1.00  0.00     0.031 C 
ATOM     62  C   UNL     1      -4.672  -6.323  18.501  1.00  0.00     0.034 A 
BRANCH  49  63
ATOM     63  C   UNL     1      -2.407 -11.829  16.734  1.00  0.00     0.023 A 
ATOM     64  C   UNL     1      -1.242 -12.543  17.068  1.00  0.00     0.031 A 
ATOM     65  C   UNL     1      -3.588 -12.564  16.526  1.00  0.00     0.131 A 
ATOM     66  C   UNL     1      -1.263 -13.945  17.103  1.00  0.00     0.055 A 
ATOM     67  C   UNL     1      -3.623 -13.955  16.650  1.00  0.00     0.041 A 
ATOM     68  F   UNL     1      -4.728 -11.944  16.183  1.00  0.00    -0.206 F 
ATOM     69  C   UNL     1      -2.452 -14.655  16.924  1.00  0.00     0.022 A 
BRANCH  66  70
ATOM     70  S   UNL     1       0.315 -14.831  17.229  1.00  0.00     0.124 S 
ATOM     71  O   UNL     1       1.028 -14.332  16.056  1.00  0.00    -0.237 OA
ATOM     72  O   UNL     1       0.823 -14.388  18.522  1.00  0.00    -0.237 OA
ATOM     73  O   UNL     1      -0.075 -16.238  17.160  1.00  0.00    -0.744 OA
ENDBRANCH  66  70
ENDBRANCH  49  63
BRANCH  50  74
ATOM     74  C   UNL     1      -2.268  -1.935  15.064  1.00  0.00     0.023 A 
ATOM     75  C   UNL     1      -1.888  -1.002  16.042  1.00  0.00     0.031 A 
ATOM     76  C   UNL     1      -2.715  -1.443  13.824  1.00  0.00     0.131 A 
ATOM     77  C   UNL     1      -2.009   0.373  15.783  1.00  0.00     0.055 A 
ATOM     78  C   UNL     1      -2.776  -0.076  13.550  1.00  0.00     0.041 A 
ATOM     79  F   UNL     1      -3.086  -2.291  12.851  1.00  0.00    -0.206 F 
ATOM     80  C   UNL     1      -2.436   0.842  14.539  1.00  0.00     0.022 A 
BRANCH  77  81
ATOM     81  S   UNL     1      -1.688   1.542  17.132  1.00  0.00     0.124 S 
ATOM     82  O   UNL     1      -2.641   1.098  18.142  1.00  0.00    -0.237 OA
ATOM     83  O   UNL     1      -0.281   1.290  17.422  1.00  0.00    -0.237 OA
ATOM     84  O   UNL     1      -1.975   2.842  16.530  1.00  0.00    -0.744 OA
ENDBRANCH  77  81
ENDBRANCH  50  74
BRANCH  62  85
ATOM     85  C   UNL     1      -5.633  -6.009  19.623  1.00  0.00     0.023 A 
ATOM     86  C   UNL     1      -6.902  -5.454  19.383  1.00  0.00     0.031 A 
ATOM     87  C   UNL     1      -5.265  -6.259  20.958  1.00  0.00     0.131 A 
ATOM     88  C   UNL     1      -7.730  -5.109  20.461  1.00  0.00     0.055 A 
ATOM     89  C   UNL     1      -6.121  -5.979  22.023  1.00  0.00     0.041 A 
ATOM     90  F   UNL     1      -4.063  -6.785  21.249  1.00  0.00    -0.206 F 
ATOM     91  C   UNL     1      -7.356  -5.387  21.779  1.00  0.00     0.022 A 
BRANCH  88  92
ATOM     92  S   UNL     1      -9.260  -4.193  20.127  1.00  0.00     0.124 S 
ATOM     93  O   UNL     1      -8.758  -3.008  19.439  1.00  0.00    -0.237 OA
ATOM     94  O   UNL     1     -10.014  -5.135  19.306  1.00  0.00    -0.237 OA
ATOM     95  O   UNL     1      -9.813  -3.951  21.458  1.00  0.00    -0.744 OA
ENDBRANCH  88  92
ENDBRANCH  62  85
ENDBRANCH  36  37
ENDBRANCH  28  31
ENDBRANCH  26  27
ENDBRANCH  25  26
ENDBRANCH   1  25
TORSDOF 17
