REMARK SMILES CCOC(=O)c1c(NC(=O)/C=C/C(=O)NCCCNC(=O)c2ccc(-c3c4nc(c(-c5cc(S(=O)(=O)[O-])ccc5F)c5ccc([nH]5)c(-c5cc(S(=O)(=O)[O-])ccc5F)c5nc(c(-c6cc(S(=O)(=O)[O-])ccc6F)c6ccc3[nH]6)C=C5)C=C4)cc2)sc(C)c1-c1ccc(C)c(C)c1
REMARK SMILES IDX 16 1 15 2 13 3 14 4 12 6 11 7 9 8 8 9 10 11 7 12 6 13 88 14
REMARK SMILES IDX 85 15 86 16 87 17 4 18 5 19 3 20 2 21 1 22 89 23 90 24 96 25
REMARK SMILES IDX 91 26 94 27 92 28 95 29 93 30 17 31 18 32 19 33 20 34 21 36
REMARK SMILES IDX 22 37 23 38 84 39 24 40 83 41 25 42 26 43 27 44 77 45 28 46
REMARK SMILES IDX 82 47 76 48 78 49 29 50 81 51 75 52 74 53 30 55 62 56 42 57
REMARK SMILES IDX 61 58 43 59 46 60 60 61 79 62 44 63 45 64 59 66 80 67 47 68
REMARK SMILES IDX 31 69 32 70 40 71 33 72 39 73 41 74 38 75 34 76 35 77 36 78
REMARK SMILES IDX 37 79 63 80 64 81 72 82 65 83 71 84 73 85 70 86 66 87 67 88
REMARK SMILES IDX 68 89 69 90 48 91 49 92 57 93 50 94 56 95 58 96 55 97 51 98
REMARK SMILES IDX 52 99 53 100 54 101
REMARK H PARENT 15 5 8 10 19 35 78 54 46 65
REMARK Flexibility Score: inf
ROOT
ATOM      1  C   UNL     1       7.574   6.596   4.541  1.00  0.00     0.118 C 
ENDROOT
BRANCH   1   2
ATOM      2  N   UNL     1       6.723   6.047   5.584  1.00  0.00    -0.352 N 
ATOM      3  C   UNL     1       5.489   5.496   5.445  1.00  0.00     0.244 C 
ATOM      4  O   UNL     1       4.731   5.409   6.406  1.00  0.00    -0.270 OA
ATOM      5  H   UNL     1       7.084   6.079   6.499  1.00  0.00     0.163 HD
BRANCH   3   6
ATOM      6  C   UNL     1       5.079   4.981   4.127  1.00  0.00     0.077 C 
ATOM      7  C   UNL     1       5.834   4.014   3.585  1.00  0.00     0.077 C 
BRANCH   7   8
ATOM      8  C   UNL     1       5.340   3.224   2.453  1.00  0.00     0.249 C 
ATOM      9  N   UNL     1       4.474   2.185   2.641  1.00  0.00    -0.313 N 
ATOM     10  H   UNL     1       4.248   1.703   1.812  1.00  0.00     0.171 HD
ATOM     11  O   UNL     1       5.740   3.498   1.323  1.00  0.00    -0.270 OA
BRANCH   9  12
ATOM     12  C   UNL     1       3.849   1.675   3.772  1.00  0.00     0.111 A 
ATOM     13  C   UNL     1       2.818   0.747   3.792  1.00  0.00     0.102 A 
ATOM     14  C   UNL     1       2.270   0.604   5.126  1.00  0.00     0.012 A 
ATOM     15  S   UNL     1       4.313   2.099   5.341  1.00  0.00    -0.122 S 
ATOM     16  C   UNL     1       2.952   1.375   6.053  1.00  0.00     0.012 A 
ATOM     17  C   UNL     1       2.701   1.625   7.505  1.00  0.00     0.057 C 
BRANCH  13  18
ATOM     18  C   UNL     1       2.368   0.076   2.582  1.00  0.00     0.341 C 
ATOM     19  O   UNL     1       3.151  -0.338   1.734  1.00  0.00    -0.246 OA
BRANCH  18  20
ATOM     20  O   UNL     1       1.012   0.018   2.472  1.00  0.00    -0.462 OA
BRANCH  20  21
ATOM     21  C   UNL     1       0.507  -0.654   1.310  1.00  0.00     0.230 C 
ATOM     22  C   UNL     1       0.686   0.169   0.044  1.00  0.00     0.049 C 
ENDBRANCH  20  21
ENDBRANCH  18  20
ENDBRANCH  13  18
BRANCH  14  23
ATOM     23  C   UNL     1       1.181  -0.269   5.532  1.00  0.00    -0.016 A 
ATOM     24  C   UNL     1       1.359  -1.651   5.486  1.00  0.00     0.009 A 
ATOM     25  C   UNL     1      -0.033   0.262   5.980  1.00  0.00     0.012 A 
ATOM     26  C   UNL     1       0.328  -2.497   5.888  1.00  0.00     0.004 A 
ATOM     27  C   UNL     1      -1.076  -0.581   6.399  1.00  0.00    -0.048 A 
ATOM     28  C   UNL     1      -0.893  -1.978   6.350  1.00  0.00    -0.048 A 
ATOM     29  C   UNL     1      -2.354   0.042   6.890  1.00  0.00     0.044 C 
ATOM     30  C   UNL     1      -1.958  -2.961   6.751  1.00  0.00     0.044 C 
ENDBRANCH  14  23
ENDBRANCH   9  12
ENDBRANCH   7   8
ENDBRANCH   3   6
ENDBRANCH   1   2
BRANCH   1  31
ATOM     31  C   UNL     1       7.122   8.000   4.155  1.00  0.00     0.042 C 
BRANCH  31  32
ATOM     32  C   UNL     1       7.181   8.982   5.321  1.00  0.00     0.118 C 
BRANCH  32  33
ATOM     33  N   UNL     1       8.545   9.180   5.793  1.00  0.00    -0.352 N 
ATOM     34  C   UNL     1       9.397  10.237   5.589  1.00  0.00     0.251 C 
ATOM     35  H   UNL     1       8.910   8.447   6.339  1.00  0.00     0.163 HD
ATOM     36  O   UNL     1      10.596  10.098   5.809  1.00  0.00    -0.269 OA
BRANCH  34  37
ATOM     37  C   UNL     1       8.869  11.526   5.096  1.00  0.00     0.039 A 
ATOM     38  C   UNL     1       9.576  12.222   4.112  1.00  0.00     0.014 A 
ATOM     39  C   UNL     1       7.688  12.058   5.621  1.00  0.00     0.014 A 
ATOM     40  C   UNL     1       9.062  13.420   3.609  1.00  0.00     0.010 A 
ATOM     41  C   UNL     1       7.138  13.207   5.064  1.00  0.00     0.010 A 
ATOM     42  C   UNL     1       7.821  13.902   4.056  1.00  0.00    -0.014 A 
BRANCH  42  43
ATOM     43  C   UNL     1       7.215  15.131   3.485  1.00  0.00     0.031 A 
ATOM     44  C   UNL     1       6.979  16.329   4.362  1.00  0.00     0.074 A 
ATOM     45  C   UNL     1       6.794  15.130   2.206  1.00  0.00     0.049 A 
ATOM     46  N   UNL     1       6.360  17.449   4.088  1.00  0.00    -0.248 NA
ATOM     47  C   UNL     1       7.476  16.237   5.742  1.00  0.00     0.031 C 
ATOM     48  C   UNL     1       6.918  14.004   1.277  1.00  0.00     0.029 A 
ATOM     49  N   UNL     1       6.156  16.097   1.472  1.00  0.00    -0.354 N 
ATOM     50  C   UNL     1       6.378  18.189   5.266  1.00  0.00     0.074 A 
ATOM     51  C   UNL     1       7.011  17.359   6.270  1.00  0.00     0.031 C 
ATOM     52  C   UNL     1       6.383  14.349   0.095  1.00  0.00     0.029 A 
ATOM     53  C   UNL     1       5.840  15.700   0.194  1.00  0.00     0.049 A 
ATOM     54  H   UNL     1       5.945  16.991   1.827  1.00  0.00     0.167 HD
ATOM     55  C   UNL     1       5.930  19.451   5.482  1.00  0.00     0.034 A 
ATOM     56  C   UNL     1       5.170  16.343  -0.781  1.00  0.00     0.034 A 
ATOM     57  C   UNL     1       5.309  20.263   4.464  1.00  0.00     0.049 A 
ATOM     58  C   UNL     1       4.665  17.736  -0.519  1.00  0.00     0.074 A 
ATOM     59  C   UNL     1       4.881  21.577   4.545  1.00  0.00     0.029 A 
ATOM     60  N   UNL     1       5.013  19.831   3.175  1.00  0.00    -0.354 N 
ATOM     61  N   UNL     1       4.742  18.447   0.582  1.00  0.00    -0.248 NA
ATOM     62  C   UNL     1       3.992  18.414  -1.633  1.00  0.00     0.031 C 
ATOM     63  C   UNL     1       4.273  21.918   3.331  1.00  0.00     0.029 A 
ATOM     64  C   UNL     1       4.378  20.840   2.466  1.00  0.00     0.049 A 
ATOM     65  H   UNL     1       5.224  18.938   2.818  1.00  0.00     0.167 HD
ATOM     66  C   UNL     1       4.133  19.663   0.290  1.00  0.00     0.074 A 
ATOM     67  C   UNL     1       3.716  19.595  -1.097  1.00  0.00     0.031 C 
ATOM     68  C   UNL     1       3.938  20.740   1.093  1.00  0.00     0.034 A 
BRANCH  55  69
ATOM     69  C   UNL     1       6.079  20.004   6.881  1.00  0.00     0.023 A 
ATOM     70  C   UNL     1       7.342  20.161   7.480  1.00  0.00     0.031 A 
ATOM     71  C   UNL     1       4.946  20.326   7.648  1.00  0.00     0.131 A 
ATOM     72  C   UNL     1       7.438  20.529   8.831  1.00  0.00     0.055 A 
ATOM     73  C   UNL     1       5.053  20.778   8.966  1.00  0.00     0.041 A 
ATOM     74  F   UNL     1       3.712  20.182   7.140  1.00  0.00    -0.206 F 
ATOM     75  C   UNL     1       6.303  20.862   9.572  1.00  0.00     0.022 A 
BRANCH  72  76
ATOM     76  S   UNL     1       9.053  20.398   9.648  1.00  0.00     0.124 S 
ATOM     77  O   UNL     1       9.379  18.990   9.432  1.00  0.00    -0.237 OA
ATOM     78  O   UNL     1       9.859  21.362   8.908  1.00  0.00    -0.237 OA
ATOM     79  O   UNL     1       8.765  20.758  11.035  1.00  0.00    -0.744 OA
ENDBRANCH  72  76
ENDBRANCH  55  69
BRANCH  56  80
ATOM     80  C   UNL     1       4.919  15.665  -2.083  1.00  0.00     0.023 A 
ATOM     81  C   UNL     1       5.552  16.098  -3.257  1.00  0.00     0.031 A 
ATOM     82  C   UNL     1       4.038  14.572  -2.168  1.00  0.00     0.131 A 
ATOM     83  C   UNL     1       5.275  15.458  -4.476  1.00  0.00     0.055 A 
ATOM     84  C   UNL     1       3.796  13.914  -3.374  1.00  0.00     0.041 A 
ATOM     85  F   UNL     1       3.418  14.115  -1.069  1.00  0.00    -0.206 F 
ATOM     86  C   UNL     1       4.410  14.362  -4.539  1.00  0.00     0.022 A 
BRANCH  83  87
ATOM     87  S   UNL     1       6.028  16.110  -5.991  1.00  0.00     0.124 S 
ATOM     88  O   UNL     1       5.499  17.469  -6.027  1.00  0.00    -0.237 OA
ATOM     89  O   UNL     1       7.453  15.984  -5.700  1.00  0.00    -0.237 OA
ATOM     90  O   UNL     1       5.527  15.216  -7.032  1.00  0.00    -0.744 OA
ENDBRANCH  83  87
ENDBRANCH  56  80
BRANCH  68  91
ATOM     91  C   UNL     1       3.249  21.930   0.473  1.00  0.00     0.023 A 
ATOM     92  C   UNL     1       1.893  21.884   0.107  1.00  0.00     0.031 A 
ATOM     93  C   UNL     1       3.963  23.116   0.228  1.00  0.00     0.131 A 
ATOM     94  C   UNL     1       1.305  22.985  -0.532  1.00  0.00     0.055 A 
ATOM     95  C   UNL     1       3.359  24.227  -0.359  1.00  0.00     0.041 A 
ATOM     96  F   UNL     1       5.262  23.211   0.555  1.00  0.00    -0.206 F 
ATOM     97  C   UNL     1       2.025  24.162  -0.754  1.00  0.00     0.022 A 
BRANCH  94  98
ATOM     98  S   UNL     1      -0.395  22.831  -1.146  1.00  0.00     0.124 S 
ATOM     99  O   UNL     1      -0.276  21.728  -2.094  1.00  0.00    -0.237 OA
ATOM    100  O   UNL     1      -1.144  22.545   0.074  1.00  0.00    -0.237 OA
ATOM    101  O   UNL     1      -0.663  24.137  -1.744  1.00  0.00    -0.744 OA
ENDBRANCH  94  98
ENDBRANCH  68  91
ENDBRANCH  42  43
ENDBRANCH  34  37
ENDBRANCH  32  33
ENDBRANCH  31  32
ENDBRANCH   1  31
TORSDOF 19
