REMARK SMILES CCNC(=O)c1ccc(NC(=O)CC2(C(=O)NCCCNC(=O)c3ccc(-c4c5nc(c(-c6cc(S(=O)(=O)[O-])ccc6F)c6ccc([nH]6)c(-c6cc(S(=O)(=O)[O-])ccc6F)c6nc(c(-c7cc(S(=O)(=O)[O-])ccc7F)c7ccc4[nH]7)C=C6)C=C5)cc3)CCCC2)cc1
REMARK SMILES IDX 18 1 17 2 15 3 16 4 14 6 87 7 90 8 88 9 89 10 13 11 11 12
REMARK SMILES IDX 10 13 12 15 9 16 6 17 7 18 92 19 8 20 91 21 4 22 3 23 5 25
REMARK SMILES IDX 2 26 1 27 19 28 20 29 21 30 22 31 23 33 24 34 25 35 86 36
REMARK SMILES IDX 26 37 85 38 27 39 28 40 29 41 79 42 30 43 84 44 78 45 80 46
REMARK SMILES IDX 31 47 83 48 77 49 76 50 32 52 64 53 44 54 63 55 45 56 48 57
REMARK SMILES IDX 62 58 81 59 46 60 47 61 61 63 82 64 49 65 33 66 34 67 42 68
REMARK SMILES IDX 35 69 41 70 43 71 40 72 36 73 37 74 38 75 39 76 65 77 66 78
REMARK SMILES IDX 74 79 67 80 73 81 75 82 72 83 68 84 69 85 70 86 71 87 50 88
REMARK SMILES IDX 51 89 59 90 52 91 58 92 60 93 57 94 53 95 54 96 55 97 56 98
REMARK H PARENT 17 5 10 14 3 24 21 32 80 51 48 62
REMARK Flexibility Score: inf
ROOT
ATOM      1  C   UNL     1      -3.046  -2.090  -7.069  1.00  0.00     0.117 C 
ENDROOT
BRANCH   1   2
ATOM      2  N   UNL     1      -3.074  -2.505  -5.685  1.00  0.00    -0.356 N 
ATOM      3  C   UNL     1      -4.101  -2.877  -4.882  1.00  0.00     0.226 C 
ATOM      4  O   UNL     1      -3.806  -3.739  -4.040  1.00  0.00    -0.274 OA
ATOM      5  H   UNL     1      -2.192  -2.519  -5.248  1.00  0.00     0.163 HD
BRANCH   3   6
ATOM      6  C   UNL     1      -5.562  -2.349  -4.971  1.00  0.00     0.058 C 
ATOM      7  C   UNL     1      -6.383  -3.359  -5.814  1.00  0.00     0.017 C 
ATOM      8  C   UNL     1      -5.790  -1.007  -5.691  1.00  0.00     0.017 C 
ATOM      9  C   UNL     1      -6.462  -2.804  -7.226  1.00  0.00     0.001 C 
ATOM     10  C   UNL     1      -6.367  -1.295  -7.080  1.00  0.00     0.001 C 
BRANCH   6  11
ATOM     11  C   UNL     1      -6.121  -2.341  -3.493  1.00  0.00     0.117 C 
BRANCH  11  12
ATOM     12  C   UNL     1      -6.389  -0.995  -2.831  1.00  0.00     0.225 C 
ATOM     13  N   UNL     1      -5.419  -0.078  -2.563  1.00  0.00    -0.326 N 
ATOM     14  H   UNL     1      -5.770   0.807  -2.313  1.00  0.00     0.169 HD
ATOM     15  O   UNL     1      -7.557  -0.664  -2.587  1.00  0.00    -0.275 OA
BRANCH  13  16
ATOM     16  C   UNL     1      -4.022  -0.146  -2.572  1.00  0.00     0.041 A 
ATOM     17  C   UNL     1      -1.238  -0.168  -2.801  1.00  0.00     0.039 A 
ATOM     18  C   UNL     1      -1.916  -1.335  -2.459  1.00  0.00     0.016 A 
ATOM     19  C   UNL     1      -1.933   1.030  -2.970  1.00  0.00     0.016 A 
ATOM     20  C   UNL     1      -3.305  -1.311  -2.315  1.00  0.00     0.027 A 
ATOM     21  C   UNL     1      -3.324   1.041  -2.833  1.00  0.00     0.027 A 
BRANCH  17  22
ATOM     22  C   UNL     1       0.207  -0.238  -3.061  1.00  0.00     0.251 C 
ATOM     23  N   UNL     1       1.079   0.379  -2.211  1.00  0.00    -0.352 N 
ATOM     24  H   UNL     1       2.014   0.426  -2.518  1.00  0.00     0.163 HD
ATOM     25  O   UNL     1       0.605  -0.863  -4.043  1.00  0.00    -0.269 OA
BRANCH  23  26
ATOM     26  C   UNL     1       0.809   0.974  -0.916  1.00  0.00     0.112 C 
ATOM     27  C   UNL     1       1.276   0.056   0.199  1.00  0.00     0.027 C 
ENDBRANCH  23  26
ENDBRANCH  17  22
ENDBRANCH  13  16
ENDBRANCH  11  12
ENDBRANCH   6  11
ENDBRANCH   3   6
ENDBRANCH   1   2
BRANCH   1  28
ATOM     28  C   UNL     1      -2.432  -0.722  -7.303  1.00  0.00     0.042 C 
BRANCH  28  29
ATOM     29  C   UNL     1      -0.916  -0.708  -7.186  1.00  0.00     0.118 C 
BRANCH  29  30
ATOM     30  N   UNL     1      -0.269  -1.599  -8.143  1.00  0.00    -0.352 N 
ATOM     31  C   UNL     1       0.463  -1.337  -9.275  1.00  0.00     0.251 C 
ATOM     32  H   UNL     1      -0.377  -2.557  -7.942  1.00  0.00     0.163 HD
ATOM     33  O   UNL     1       0.716  -2.252 -10.049  1.00  0.00    -0.269 OA
BRANCH  31  34
ATOM     34  C   UNL     1       0.924   0.037  -9.570  1.00  0.00     0.039 A 
ATOM     35  C   UNL     1       0.932   0.484 -10.895  1.00  0.00     0.014 A 
ATOM     36  C   UNL     1       1.382   0.875  -8.552  1.00  0.00     0.014 A 
ATOM     37  C   UNL     1       1.330   1.791 -11.184  1.00  0.00     0.010 A 
ATOM     38  C   UNL     1       1.673   2.206  -8.827  1.00  0.00     0.010 A 
ATOM     39  C   UNL     1       1.664   2.677 -10.148  1.00  0.00    -0.014 A 
BRANCH  39  40
ATOM     40  C   UNL     1       2.045   4.088 -10.414  1.00  0.00     0.031 A 
ATOM     41  C   UNL     1       3.407   4.582 -10.002  1.00  0.00     0.074 A 
ATOM     42  C   UNL     1       1.145   4.938 -10.949  1.00  0.00     0.049 A 
ATOM     43  N   UNL     1       3.890   5.797 -10.021  1.00  0.00    -0.248 NA
ATOM     44  C   UNL     1       4.334   3.577  -9.458  1.00  0.00     0.031 C 
ATOM     45  C   UNL     1      -0.216   4.583 -11.355  1.00  0.00     0.029 A 
ATOM     46  N   UNL     1       1.235   6.277 -11.234  1.00  0.00    -0.354 N 
ATOM     47  C   UNL     1       5.165   5.706  -9.471  1.00  0.00     0.074 A 
ATOM     48  C   UNL     1       5.348   4.330  -9.063  1.00  0.00     0.031 C 
ATOM     49  C   UNL     1      -0.822   5.668 -11.861  1.00  0.00     0.029 A 
ATOM     50  C   UNL     1       0.083   6.809 -11.765  1.00  0.00     0.049 A 
ATOM     51  H   UNL     1       2.049   6.808 -11.073  1.00  0.00     0.167 HD
ATOM     52  C   UNL     1       6.106   6.674  -9.344  1.00  0.00     0.034 A 
ATOM     53  C   UNL     1      -0.215   8.075 -12.118  1.00  0.00     0.034 A 
ATOM     54  C   UNL     1       5.910   8.036  -9.778  1.00  0.00     0.049 A 
ATOM     55  C   UNL     1       0.837   9.142 -11.945  1.00  0.00     0.074 A 
ATOM     56  C   UNL     1       6.807   9.088  -9.748  1.00  0.00     0.029 A 
ATOM     57  N   UNL     1       4.731   8.535 -10.319  1.00  0.00    -0.354 N 
ATOM     58  N   UNL     1       2.053   9.032 -11.459  1.00  0.00    -0.248 NA
ATOM     59  C   UNL     1       0.481  10.499 -12.376  1.00  0.00     0.031 C 
ATOM     60  C   UNL     1       6.151  10.237 -10.201  1.00  0.00     0.029 A 
ATOM     61  C   UNL     1       4.870   9.886 -10.597  1.00  0.00     0.049 A 
ATOM     62  H   UNL     1       3.916   8.007 -10.482  1.00  0.00     0.167 HD
ATOM     63  C   UNL     1       2.618  10.301 -11.562  1.00  0.00     0.074 A 
ATOM     64  C   UNL     1       1.614  11.153 -12.166  1.00  0.00     0.031 C 
ATOM     65  C   UNL     1       3.855  10.723 -11.195  1.00  0.00     0.034 A 
BRANCH  52  66
ATOM     66  C   UNL     1       7.413   6.293  -8.688  1.00  0.00     0.023 A 
ATOM     67  C   UNL     1       8.258   5.311  -9.236  1.00  0.00     0.031 A 
ATOM     68  C   UNL     1       7.806   6.893  -7.479  1.00  0.00     0.131 A 
ATOM     69  C   UNL     1       9.401   4.897  -8.536  1.00  0.00     0.055 A 
ATOM     70  C   UNL     1       8.994   6.542  -6.833  1.00  0.00     0.041 A 
ATOM     71  F   UNL     1       7.033   7.821  -6.892  1.00  0.00    -0.206 F 
ATOM     72  C   UNL     1       9.790   5.526  -7.352  1.00  0.00     0.022 A 
BRANCH  69  73
ATOM     73  S   UNL     1      10.281   3.420  -9.113  1.00  0.00     0.124 S 
ATOM     74  O   UNL     1       9.227   2.409  -9.053  1.00  0.00    -0.237 OA
ATOM     75  O   UNL     1      10.716   3.812 -10.448  1.00  0.00    -0.237 OA
ATOM     76  O   UNL     1      11.350   3.252  -8.130  1.00  0.00    -0.744 OA
ENDBRANCH  69  73
ENDBRANCH  52  66
BRANCH  53  77
ATOM     77  C   UNL     1      -1.563   8.413 -12.662  1.00  0.00     0.023 A 
ATOM     78  C   UNL     1      -1.713   8.896 -13.971  1.00  0.00     0.031 A 
ATOM     79  C   UNL     1      -2.718   8.299 -11.866  1.00  0.00     0.131 A 
ATOM     80  C   UNL     1      -2.978   9.296 -14.430  1.00  0.00     0.055 A 
ATOM     81  C   UNL     1      -3.983   8.642 -12.347  1.00  0.00     0.041 A 
ATOM     82  F   UNL     1      -2.633   7.839 -10.608  1.00  0.00    -0.206 F 
ATOM     83  C   UNL     1      -4.116   9.158 -13.632  1.00  0.00     0.022 A 
BRANCH  80  84
ATOM     84  S   UNL     1      -3.100  10.089 -16.057  1.00  0.00     0.124 S 
ATOM     85  O   UNL     1      -2.203  11.227 -15.899  1.00  0.00    -0.237 OA
ATOM     86  O   UNL     1      -2.642   9.027 -16.946  1.00  0.00    -0.237 OA
ATOM     87  O   UNL     1      -4.519  10.422 -16.167  1.00  0.00    -0.744 OA
ENDBRANCH  80  84
ENDBRANCH  53  77
BRANCH  65  88
ATOM     88  C   UNL     1       4.206  12.161 -11.492  1.00  0.00     0.023 A 
ATOM     89  C   UNL     1       3.559  13.231 -10.850  1.00  0.00     0.031 A 
ATOM     90  C   UNL     1       5.204  12.462 -12.437  1.00  0.00     0.131 A 
ATOM     91  C   UNL     1       3.877  14.552 -11.203  1.00  0.00     0.055 A 
ATOM     92  C   UNL     1       5.562  13.776 -12.735  1.00  0.00     0.041 A 
ATOM     93  F   UNL     1       5.853  11.479 -13.082  1.00  0.00    -0.206 F 
ATOM     94  C   UNL     1       4.888  14.831 -12.126  1.00  0.00     0.022 A 
BRANCH  91  95
ATOM     95  S   UNL     1       2.884  15.901 -10.508  1.00  0.00     0.124 S 
ATOM     96  O   UNL     1       1.540  15.548 -10.954  1.00  0.00    -0.237 OA
ATOM     97  O   UNL     1       3.136  15.770  -9.077  1.00  0.00    -0.237 OA
ATOM     98  O   UNL     1       3.450  17.098 -11.129  1.00  0.00    -0.744 OA
ENDBRANCH  91  95
ENDBRANCH  65  88
ENDBRANCH  39  40
ENDBRANCH  31  34
ENDBRANCH  29  30
ENDBRANCH  28  29
ENDBRANCH   1  28
TORSDOF 18
