REMARK SMILES CC[C@@H](C)C[C@@H](C)[NH2+]Cc1ccc(C(=O)NCCCNC(=O)c2ccc(-c3c4nc(c(-c5cc(S(=O)(=O)[O-])ccc5F)c5ccc([nH]5)c(-c5cc(S(=O)(=O)[O-])ccc5F)c5nc(c(-c6cc(S(=O)(=O)[O-])ccc6F)c6ccc3[nH]6)C=C5)C=C4)cc2)cn1
REMARK SMILES IDX 14 1 15 2 16 3 13 5 10 6 11 7 87 8 12 9 86 10 9 11 8 12 6 15
REMARK SMILES IDX 7 16 5 17 3 18 4 19 2 20 1 21 17 22 18 23 19 24 20 25 21 26
REMARK SMILES IDX 22 28 23 29 24 30 85 31 25 32 84 33 26 34 27 35 28 36 78 37
REMARK SMILES IDX 29 38 83 39 77 40 79 41 30 42 82 43 76 44 75 45 31 47 63 48
REMARK SMILES IDX 43 49 62 50 44 51 47 52 61 53 80 54 45 55 46 56 60 58 81 59
REMARK SMILES IDX 48 60 32 61 33 62 41 63 34 64 40 65 42 66 39 67 35 68 36 69
REMARK SMILES IDX 37 70 38 71 64 72 65 73 73 74 66 75 72 76 74 77 71 78 67 79
REMARK SMILES IDX 68 80 69 81 70 82 49 83 50 84 58 85 51 86 57 87 59 88 56 89
REMARK SMILES IDX 52 90 53 91 54 92 55 93
REMARK H PARENT 16 4 8 13 8 14 20 27 79 46 47 57
REMARK Flexibility Score: inf
ROOT
ATOM      1  C   UNL     1       6.545  -2.780  -6.239  1.00  0.00     0.252 C 
ATOM      2  O   UNL     1       7.044  -3.884  -6.008  1.00  0.00    -0.269 OA
ATOM      3  N   UNL     1       7.416  -1.732  -6.358  1.00  0.00    -0.352 N 
ATOM      4  H   UNL     1       8.349  -1.979  -6.168  1.00  0.00     0.163 HD
ENDROOT
BRANCH   1   5
ATOM      5  C   UNL     1       5.067  -2.681  -6.354  1.00  0.00     0.058 A 
ATOM      6  C   UNL     1       2.301  -2.854  -6.239  1.00  0.00     0.094 A 
ATOM      7  C   UNL     1       2.900  -1.600  -6.307  1.00  0.00     0.030 A 
ATOM      8  N   UNL     1       3.015  -4.003  -6.324  1.00  0.00    -0.255 NA
ATOM      9  C   UNL     1       4.296  -1.520  -6.324  1.00  0.00     0.017 A 
ATOM     10  C   UNL     1       4.367  -3.887  -6.385  1.00  0.00     0.125 A 
BRANCH   6  11
ATOM     11  C   UNL     1       0.860  -2.978  -5.785  1.00  0.00     0.318 C 
BRANCH  11  12
ATOM     12  N   UNL     1       0.725  -3.547  -4.429  1.00  0.00    -0.339 N 
ATOM     13  H   UNL     1      -0.258  -3.776  -4.281  1.00  0.00     0.346 HD
ATOM     14  H   UNL     1       1.344  -4.357  -4.402  1.00  0.00     0.346 HD
BRANCH  12  15
ATOM     15  C   UNL     1       1.159  -2.667  -3.324  1.00  0.00     0.179 C 
ATOM     16  C   UNL     1       2.674  -2.708  -3.080  1.00  0.00     0.075 C 
BRANCH  15  17
ATOM     17  C   UNL     1       0.407  -3.139  -2.053  1.00  0.00     0.068 C 
BRANCH  17  18
ATOM     18  C   UNL     1       0.727  -2.360  -0.751  1.00  0.00    -0.009 C 
ATOM     19  C   UNL     1       0.024  -3.036   0.431  1.00  0.00     0.008 C 
BRANCH  18  20
ATOM     20  C   UNL     1       0.350  -0.870  -0.861  1.00  0.00    -0.000 C 
ATOM     21  C   UNL     1       0.894  -0.023   0.282  1.00  0.00     0.004 C 
ENDBRANCH  18  20
ENDBRANCH  17  18
ENDBRANCH  15  17
ENDBRANCH  12  15
ENDBRANCH  11  12
ENDBRANCH   6  11
ENDBRANCH   1   5
BRANCH   3  22
ATOM     22  C   UNL     1       7.254  -0.335  -6.705  1.00  0.00     0.118 C 
BRANCH  22  23
ATOM     23  C   UNL     1       7.295   0.564  -5.467  1.00  0.00     0.042 C 
BRANCH  23  24
ATOM     24  C   UNL     1       8.718   0.849  -4.979  1.00  0.00     0.118 C 
BRANCH  24  25
ATOM     25  N   UNL     1       9.470   1.614  -5.963  1.00  0.00    -0.352 N 
ATOM     26  C   UNL     1      10.110   2.821  -5.865  1.00  0.00     0.251 C 
ATOM     27  H   UNL     1       9.529   1.191  -6.850  1.00  0.00     0.163 HD
ATOM     28  O   UNL     1      10.419   3.400  -6.903  1.00  0.00    -0.269 OA
BRANCH  26  29
ATOM     29  C   UNL     1      10.440   3.422  -4.553  1.00  0.00     0.039 A 
ATOM     30  C   UNL     1      10.450   4.817  -4.449  1.00  0.00     0.014 A 
ATOM     31  C   UNL     1      10.841   2.642  -3.465  1.00  0.00     0.014 A 
ATOM     32  C   UNL     1      10.848   5.426  -3.258  1.00  0.00     0.010 A 
ATOM     33  C   UNL     1      11.177   3.250  -2.254  1.00  0.00     0.010 A 
ATOM     34  C   UNL     1      11.207   4.648  -2.147  1.00  0.00    -0.014 A 
BRANCH  34  35
ATOM     35  C   UNL     1      11.659   5.293  -0.887  1.00  0.00     0.031 A 
ATOM     36  C   UNL     1      13.081   5.127  -0.421  1.00  0.00     0.074 A 
ATOM     37  C   UNL     1      10.782   6.006  -0.155  1.00  0.00     0.049 A 
ATOM     38  N   UNL     1      13.660   5.588   0.658  1.00  0.00    -0.248 NA
ATOM     39  C   UNL     1      13.960   4.307  -1.268  1.00  0.00     0.031 C 
ATOM     40  C   UNL     1       9.369   6.202  -0.487  1.00  0.00     0.029 A 
ATOM     41  N   UNL     1      10.946   6.698   1.018  1.00  0.00    -0.354 N 
ATOM     42  C   UNL     1      14.965   5.104   0.627  1.00  0.00     0.074 A 
ATOM     43  C   UNL     1      15.069   4.263  -0.546  1.00  0.00     0.031 C 
ATOM     44  C   UNL     1       8.804   6.985   0.445  1.00  0.00     0.029 A 
ATOM     45  C   UNL     1       9.801   7.319   1.457  1.00  0.00     0.049 A 
ATOM     46  H   UNL     1      11.804   6.745   1.500  1.00  0.00     0.167 HD
ATOM     47  C   UNL     1      15.986   5.357   1.485  1.00  0.00     0.034 A 
ATOM     48  C   UNL     1       9.581   8.074   2.551  1.00  0.00     0.034 A 
ATOM     49  C   UNL     1      15.865   6.210   2.643  1.00  0.00     0.049 A 
ATOM     50  C   UNL     1      10.734   8.356   3.479  1.00  0.00     0.074 A 
ATOM     51  C   UNL     1      16.837   6.565   3.562  1.00  0.00     0.029 A 
ATOM     52  N   UNL     1      14.695   6.845   3.042  1.00  0.00    -0.354 N 
ATOM     53  N   UNL     1      11.973   7.925   3.414  1.00  0.00    -0.248 NA
ATOM     54  C   UNL     1      10.463   9.246   4.614  1.00  0.00     0.031 C 
ATOM     55  C   UNL     1      16.243   7.368   4.545  1.00  0.00     0.029 A 
ATOM     56  C   UNL     1      14.917   7.575   4.201  1.00  0.00     0.049 A 
ATOM     57  H   UNL     1      13.833   6.785   2.571  1.00  0.00     0.167 HD
ATOM     58  C   UNL     1      12.637   8.521   4.483  1.00  0.00     0.074 A 
ATOM     59  C   UNL     1      11.664   9.354   5.160  1.00  0.00     0.031 C 
ATOM     60  C   UNL     1      13.933   8.394   4.869  1.00  0.00     0.034 A 
BRANCH  47  61
ATOM     61  C   UNL     1      17.308   4.676   1.208  1.00  0.00     0.023 A 
ATOM     62  C   UNL     1      18.032   4.921   0.026  1.00  0.00     0.031 A 
ATOM     63  C   UNL     1      17.834   3.739   2.114  1.00  0.00     0.131 A 
ATOM     64  C   UNL     1      19.189   4.178  -0.256  1.00  0.00     0.055 A 
ATOM     65  C   UNL     1      19.032   3.065   1.867  1.00  0.00     0.041 A 
ATOM     66  F   UNL     1      17.181   3.445   3.250  1.00  0.00    -0.206 F 
ATOM     67  C   UNL     1      19.708   3.270   0.668  1.00  0.00     0.022 A 
BRANCH  64  68
ATOM     68  S   UNL     1      19.916   4.304  -1.913  1.00  0.00     0.124 S 
ATOM     69  O   UNL     1      18.804   3.869  -2.756  1.00  0.00    -0.237 OA
ATOM     70  O   UNL     1      20.266   5.717  -1.998  1.00  0.00    -0.237 OA
ATOM     71  O   UNL     1      21.048   3.381  -1.863  1.00  0.00    -0.744 OA
ENDBRANCH  64  68
ENDBRANCH  47  61
BRANCH  48  72
ATOM     72  C   UNL     1       8.225   8.629   2.824  1.00  0.00     0.023 A 
ATOM     73  C   UNL     1       7.991  10.012   2.797  1.00  0.00     0.031 A 
ATOM     74  C   UNL     1       7.150   7.783   3.150  1.00  0.00     0.131 A 
ATOM     75  C   UNL     1       6.726  10.514   3.139  1.00  0.00     0.055 A 
ATOM     76  C   UNL     1       5.880   8.284   3.440  1.00  0.00     0.041 A 
ATOM     77  F   UNL     1       7.318   6.451   3.178  1.00  0.00    -0.206 F 
ATOM     78  C   UNL     1       5.666   9.659   3.449  1.00  0.00     0.022 A 
BRANCH  75  79
ATOM     79  S   UNL     1       6.505  12.311   3.246  1.00  0.00     0.124 S 
ATOM     80  O   UNL     1       7.512  12.676   4.237  1.00  0.00    -0.237 OA
ATOM     81  O   UNL     1       6.772  12.731   1.875  1.00  0.00    -0.237 OA
ATOM     82  O   UNL     1       5.118  12.458   3.682  1.00  0.00    -0.744 OA
ENDBRANCH  75  79
ENDBRANCH  48  72
BRANCH  60  83
ATOM     83  C   UNL     1      14.372   9.222   6.053  1.00  0.00     0.023 A 
ATOM     84  C   UNL     1      13.856   9.002   7.343  1.00  0.00     0.031 A 
ATOM     85  C   UNL     1      15.289  10.273   5.878  1.00  0.00     0.131 A 
ATOM     86  C   UNL     1      14.203   9.868   8.390  1.00  0.00     0.055 A 
ATOM     87  C   UNL     1      15.681  11.090   6.939  1.00  0.00     0.041 A 
ATOM     88  F   UNL     1      15.813  10.529   4.668  1.00  0.00    -0.206 F 
ATOM     89  C   UNL     1      15.123  10.901   8.200  1.00  0.00     0.022 A 
BRANCH  86  90
ATOM     90  S   UNL     1      13.340   9.700   9.977  1.00  0.00     0.124 S 
ATOM     91  O   UNL     1      11.941   9.803   9.576  1.00  0.00    -0.237 OA
ATOM     92  O   UNL     1      13.778   8.384  10.431  1.00  0.00    -0.237 OA
ATOM     93  O   UNL     1      13.845  10.826  10.762  1.00  0.00    -0.744 OA
ENDBRANCH  86  90
ENDBRANCH  60  83
ENDBRANCH  34  35
ENDBRANCH  26  29
ENDBRANCH  24  25
ENDBRANCH  23  24
ENDBRANCH  22  23
ENDBRANCH   3  22
TORSDOF 19
