REMARK SMILES CCCN(CC)S(=O)(=O)c1ccc(C(=O)NCCCNC(=O)c2ccc(-c3c4nc(c(-c5cc(S(=O)(=O)[O-])ccc5F)c5ccc([nH]5)c(-c5cc(S(=O)(=O)[O-])ccc5F)c5nc(c(-c6cc(S(=O)(=O)[O-])ccc6F)c6ccc3[nH]6)C=C5)C=C4)cc2)o1
REMARK SMILES IDX 17 1 16 2 14 3 15 4 13 6 10 7 11 8 86 9 12 10 7 11 8 12 9 13
REMARK SMILES IDX 4 14 3 15 2 16 1 17 5 18 6 19 18 20 19 21 20 22 21 23 22 25
REMARK SMILES IDX 23 26 24 27 85 28 25 29 84 30 26 31 27 32 28 33 78 34 29 35
REMARK SMILES IDX 83 36 77 37 79 38 30 39 82 40 76 41 75 42 31 44 63 45 43 46
REMARK SMILES IDX 62 47 44 48 47 49 61 50 80 51 45 52 46 53 60 55 81 56 48 57
REMARK SMILES IDX 32 58 33 59 41 60 34 61 40 62 42 63 39 64 35 65 36 66 37 67
REMARK SMILES IDX 38 68 64 69 65 70 73 71 66 72 72 73 74 74 71 75 67 76 68 77
REMARK SMILES IDX 69 78 70 79 49 80 50 81 58 82 51 83 57 84 59 85 56 86 52 87
REMARK SMILES IDX 53 88 54 89 55 90
REMARK H PARENT 16 5 20 24 79 43 47 54
REMARK Flexibility Score: inf
ROOT
ATOM      1  C   UNL     1      -1.632  -2.962   8.210  1.00  0.00     0.118 C 
ENDROOT
BRANCH   1   2
ATOM      2  N   UNL     1      -1.454  -1.552   7.928  1.00  0.00    -0.349 N 
ATOM      3  C   UNL     1      -0.882  -0.923   6.847  1.00  0.00     0.287 C 
ATOM      4  O   UNL     1      -1.019   0.301   6.802  1.00  0.00    -0.266 OA
ATOM      5  H   UNL     1      -1.799  -0.946   8.623  1.00  0.00     0.163 HD
BRANCH   3   6
ATOM      6  C   UNL     1      -0.167  -1.677   5.833  1.00  0.00     0.193 A 
ATOM      7  C   UNL     1       0.743  -1.883   3.789  1.00  0.00     0.234 A 
ATOM      8  C   UNL     1       1.069  -3.018   4.520  1.00  0.00     0.065 A 
ATOM      9  O   UNL     1      -0.025  -1.081   4.608  1.00  0.00    -0.438 OA
ATOM     10  C   UNL     1       0.490  -2.890   5.803  1.00  0.00     0.058 A 
BRANCH   7  11
ATOM     11  S   UNL     1       1.229  -1.331   2.147  1.00  0.00     0.276 S 
ATOM     12  O   UNL     1       2.675  -1.321   2.183  1.00  0.00    -0.204 OA
ATOM     13  O   UNL     1       0.477  -0.115   1.934  1.00  0.00    -0.204 OA
BRANCH  11  14
ATOM     14  N   UNL     1       0.749  -2.459   0.942  1.00  0.00    -0.195 NA
BRANCH  14  15
ATOM     15  C   UNL     1       1.191  -2.095  -0.445  1.00  0.00     0.102 C 
BRANCH  15  16
ATOM     16  C   UNL     1       0.338  -1.009  -1.099  1.00  0.00     0.013 C 
ATOM     17  C   UNL     1       0.893   0.403  -0.947  1.00  0.00     0.005 C 
ENDBRANCH  15  16
ENDBRANCH  14  15
BRANCH  14  18
ATOM     18  C   UNL     1       0.964  -3.907   1.225  1.00  0.00     0.099 C 
ATOM     19  C   UNL     1       2.425  -4.312   1.330  1.00  0.00     0.022 C 
ENDBRANCH  14  18
ENDBRANCH  11  14
ENDBRANCH   7  11
ENDBRANCH   3   6
ENDBRANCH   1   2
BRANCH   1  20
ATOM     20  C   UNL     1      -0.575  -3.495   9.171  1.00  0.00     0.042 C 
BRANCH  20  21
ATOM     21  C   UNL     1      -0.755  -3.012  10.608  1.00  0.00     0.118 C 
BRANCH  21  22
ATOM     22  N   UNL     1      -1.970  -3.540  11.210  1.00  0.00    -0.352 N 
ATOM     23  C   UNL     1      -2.133  -4.384  12.281  1.00  0.00     0.251 C 
ATOM     24  H   UNL     1      -2.806  -3.245  10.783  1.00  0.00     0.163 HD
ATOM     25  O   UNL     1      -3.228  -4.914  12.455  1.00  0.00    -0.269 OA
BRANCH  23  26
ATOM     26  C   UNL     1      -1.014  -4.663  13.208  1.00  0.00     0.039 A 
ATOM     27  C   UNL     1      -0.878  -5.952  13.734  1.00  0.00     0.014 A 
ATOM     28  C   UNL     1      -0.134  -3.653  13.608  1.00  0.00     0.014 A 
ATOM     29  C   UNL     1       0.165  -6.237  14.619  1.00  0.00     0.010 A 
ATOM     30  C   UNL     1       0.949  -3.956  14.429  1.00  0.00     0.010 A 
ATOM     31  C   UNL     1       1.103  -5.248  14.953  1.00  0.00    -0.014 A 
BRANCH  31  32
ATOM     32  C   UNL     1       2.235  -5.536  15.871  1.00  0.00     0.031 A 
ATOM     33  C   UNL     1       2.324  -4.840  17.201  1.00  0.00     0.074 A 
ATOM     34  C   UNL     1       3.212  -6.376  15.480  1.00  0.00     0.049 A 
ATOM     35  N   UNL     1       3.264  -4.898  18.109  1.00  0.00    -0.248 NA
ATOM     36  C   UNL     1       1.220  -3.929  17.535  1.00  0.00     0.031 C 
ATOM     37  C   UNL     1       3.254  -7.085  14.200  1.00  0.00     0.029 A 
ATOM     38  N   UNL     1       4.359  -6.772  16.118  1.00  0.00    -0.354 N 
ATOM     39  C   UNL     1       2.872  -4.022  19.117  1.00  0.00     0.074 A 
ATOM     40  C   UNL     1       1.648  -3.393  18.666  1.00  0.00     0.031 C 
ATOM     41  C   UNL     1       4.353  -7.856  14.161  1.00  0.00     0.029 A 
ATOM     42  C   UNL     1       5.114  -7.662  15.391  1.00  0.00     0.049 A 
ATOM     43  H   UNL     1       4.618  -6.450  17.011  1.00  0.00     0.167 HD
ATOM     44  C   UNL     1       3.462  -3.784  20.317  1.00  0.00     0.034 A 
ATOM     45  C   UNL     1       6.289  -8.252  15.682  1.00  0.00     0.034 A 
ATOM     46  C   UNL     1       4.684  -4.424  20.746  1.00  0.00     0.049 A 
ATOM     47  C   UNL     1       6.951  -7.947  16.999  1.00  0.00     0.074 A 
ATOM     48  C   UNL     1       5.349  -4.299  21.954  1.00  0.00     0.029 A 
ATOM     49  N   UNL     1       5.433  -5.305  19.974  1.00  0.00    -0.354 N 
ATOM     50  N   UNL     1       6.551  -7.147  17.961  1.00  0.00    -0.248 NA
ATOM     51  C   UNL     1       8.222  -8.630  17.270  1.00  0.00     0.031 C 
ATOM     52  C   UNL     1       6.529  -5.051  21.887  1.00  0.00     0.029 A 
ATOM     53  C   UNL     1       6.567  -5.705  20.666  1.00  0.00     0.049 A 
ATOM     54  H   UNL     1       5.193  -5.602  19.067  1.00  0.00     0.167 HD
ATOM     55  C   UNL     1       7.508  -7.254  18.965  1.00  0.00     0.074 A 
ATOM     56  C   UNL     1       8.498  -8.202  18.493  1.00  0.00     0.031 C 
ATOM     57  C   UNL     1       7.559  -6.633  20.172  1.00  0.00     0.034 A 
BRANCH  44  58
ATOM     58  C   UNL     1       2.798  -2.767  21.218  1.00  0.00     0.023 A 
ATOM     59  C   UNL     1       1.477  -2.938  21.672  1.00  0.00     0.031 A 
ATOM     60  C   UNL     1       3.458  -1.575  21.565  1.00  0.00     0.131 A 
ATOM     61  C   UNL     1       0.822  -1.894  22.341  1.00  0.00     0.055 A 
ATOM     62  C   UNL     1       2.832  -0.579  22.319  1.00  0.00     0.041 A 
ATOM     63  F   UNL     1       4.713  -1.341  21.150  1.00  0.00    -0.206 F 
ATOM     64  C   UNL     1       1.498  -0.724  22.691  1.00  0.00     0.022 A 
BRANCH  61  65
ATOM     65  S   UNL     1      -0.975  -2.008  22.566  1.00  0.00     0.124 S 
ATOM     66  O   UNL     1      -1.432  -2.196  21.190  1.00  0.00    -0.237 OA
ATOM     67  O   UNL     1      -1.110  -3.161  23.448  1.00  0.00    -0.237 OA
ATOM     68  O   UNL     1      -1.329  -0.720  23.160  1.00  0.00    -0.744 OA
ENDBRANCH  61  65
ENDBRANCH  44  58
BRANCH  45  69
ATOM     69  C   UNL     1       6.906  -9.204  14.718  1.00  0.00     0.023 A 
ATOM     70  C   UNL     1       6.992 -10.572  15.019  1.00  0.00     0.031 A 
ATOM     71  C   UNL     1       7.421  -8.761  13.488  1.00  0.00     0.131 A 
ATOM     72  C   UNL     1       7.606 -11.448  14.112  1.00  0.00     0.055 A 
ATOM     73  C   UNL     1       7.996  -9.644  12.571  1.00  0.00     0.041 A 
ATOM     74  F   UNL     1       7.351  -7.464  13.149  1.00  0.00    -0.206 F 
ATOM     75  C   UNL     1       8.098 -10.996  12.886  1.00  0.00     0.022 A 
BRANCH  72  76
ATOM     76  S   UNL     1       7.790 -13.191  14.579  1.00  0.00     0.124 S 
ATOM     77  O   UNL     1       8.628 -13.094  15.768  1.00  0.00    -0.237 OA
ATOM     78  O   UNL     1       6.404 -13.593  14.800  1.00  0.00    -0.237 OA
ATOM     79  O   UNL     1       8.429 -13.790  13.409  1.00  0.00    -0.744 OA
ENDBRANCH  72  76
ENDBRANCH  45  69
BRANCH  57  80
ATOM     80  C   UNL     1       8.713  -6.997  21.074  1.00  0.00     0.023 A 
ATOM     81  C   UNL     1      10.038  -6.648  20.758  1.00  0.00     0.031 A 
ATOM     82  C   UNL     1       8.484  -7.726  22.254  1.00  0.00     0.131 A 
ATOM     83  C   UNL     1      11.089  -7.079  21.581  1.00  0.00     0.055 A 
ATOM     84  C   UNL     1       9.528  -8.101  23.101  1.00  0.00     0.041 A 
ATOM     85  F   UNL     1       7.239  -8.088  22.602  1.00  0.00    -0.206 F 
ATOM     86  C   UNL     1      10.841  -7.789  22.759  1.00  0.00     0.022 A 
BRANCH  83  87
ATOM     87  S   UNL     1      12.796  -6.781  21.044  1.00  0.00     0.124 S 
ATOM     88  O   UNL     1      12.833  -7.468  19.757  1.00  0.00    -0.237 OA
ATOM     89  O   UNL     1      12.857  -5.324  20.991  1.00  0.00    -0.237 OA
ATOM     90  O   UNL     1      13.600  -7.396  22.098  1.00  0.00    -0.744 OA
ENDBRANCH  83  87
ENDBRANCH  57  80
ENDBRANCH  31  32
ENDBRANCH  23  26
ENDBRANCH  21  22
ENDBRANCH  20  21
ENDBRANCH   1  20
TORSDOF 18
