REMARK SMILES COc1ccc(N2C(=O)/C(=C/c3c(C(=O)NCCCNC(=O)c4ccc(-c5c6nc(c(-c7cc(S(=O)(=O)[O-])ccc7F)c7ccc([nH]7)c(-c7cc(S(=O)(=O)[O-])ccc7F)c7nc(c(-c8cc(S(=O)(=O)[O-])ccc8F)c8ccc5[nH]8)C=C7)C=C6)cc4)[nH]c4cc(OC)ccc34)SC2=S)cc1
REMARK SMILES IDX 18 1 17 2 16 3 14 4 15 5 13 7 12 8 94 9 86 10 87 11 93 12
REMARK SMILES IDX 88 14 92 15 89 16 11 17 7 18 8 19 96 20 9 21 10 22 95 23
REMARK SMILES IDX 97 24 6 25 3 26 4 27 99 28 5 29 98 30 2 31 1 32 90 33 91 34
REMARK SMILES IDX 19 35 20 36 21 37 22 39 23 40 24 41 85 42 25 43 84 44 26 45
REMARK SMILES IDX 27 46 28 47 78 48 29 49 83 50 77 51 79 52 30 53 82 54 76 55
REMARK SMILES IDX 75 56 31 58 63 59 43 60 62 61 44 62 47 63 61 64 80 65 45 66
REMARK SMILES IDX 46 67 60 69 81 70 48 71 32 72 33 73 41 74 34 75 40 76 42 77
REMARK SMILES IDX 39 78 35 79 36 80 37 81 38 82 64 83 65 84 73 85 66 86 72 87
REMARK SMILES IDX 74 88 71 89 67 90 68 91 69 92 70 93 49 94 50 95 58 96 51 97
REMARK SMILES IDX 57 98 59 99 56 100 52 101 53 102 54 103 55 104
REMARK H PARENT 16 6 86 13 20 38 79 57 47 68
REMARK Flexibility Score: inf
ROOT
ATOM      1  C   UNL     1      -0.271   9.059  -0.384  1.00  0.00     0.042 C 
ENDROOT
BRANCH   1   2
ATOM      2  C   UNL     1       1.024   9.507   0.266  1.00  0.00     0.118 C 
BRANCH   2   3
ATOM      3  N   UNL     1       2.168   9.540  -0.631  1.00  0.00    -0.351 N 
ATOM      4  C   UNL     1       3.318  10.281  -0.490  1.00  0.00     0.268 C 
ATOM      5  O   UNL     1       4.086  10.364  -1.442  1.00  0.00    -0.268 OA
ATOM      6  H   UNL     1       2.113   8.967  -1.429  1.00  0.00     0.163 HD
BRANCH   4   7
ATOM      7  C   UNL     1       3.525  11.024   0.731  1.00  0.00     0.112 A 
ATOM      8  C   UNL     1       3.392  10.740   2.095  1.00  0.00     0.014 A 
ATOM      9  C   UNL     1       3.261  12.042   2.738  1.00  0.00     0.008 A 
ATOM     10  N   UNL     1       3.971  12.313   0.644  1.00  0.00    -0.350 N 
ATOM     11  C   UNL     1       3.596  12.992   1.767  1.00  0.00     0.050 A 
ATOM     12  C   UNL     1       2.853  12.567   3.994  1.00  0.00     0.015 A 
ATOM     13  H   UNL     1       4.482  12.691  -0.107  1.00  0.00     0.167 HD
ATOM     14  C   UNL     1       3.506  14.373   1.938  1.00  0.00     0.073 A 
ATOM     15  C   UNL     1       2.733  13.977   4.179  1.00  0.00     0.047 A 
ATOM     16  C   UNL     1       3.043  14.865   3.151  1.00  0.00     0.120 A 
BRANCH   8  17
ATOM     17  C   UNL     1       3.153   9.384   2.576  1.00  0.00     0.032 C 
ATOM     18  N   UNL     1       3.630   6.144   1.000  1.00  0.00    -0.261 N 
ATOM     19  C   UNL     1       3.090   6.898   2.055  1.00  0.00     0.270 C 
ATOM     20  C   UNL     1       4.683   6.726   0.309  1.00  0.00     0.152 C 
ATOM     21  O   UNL     1       2.132   6.623   2.764  1.00  0.00    -0.268 OA
ATOM     22  C   UNL     1       3.751   8.261   2.095  1.00  0.00     0.081 C 
ATOM     23  S   UNL     1       5.185   8.193   1.139  1.00  0.00    -0.054 SA
ATOM     24  S   UNL     1       5.483   6.204  -1.064  1.00  0.00    -0.051 S 
BRANCH  18  25
ATOM     25  C   UNL     1       3.081   4.882   0.605  1.00  0.00     0.051 A 
ATOM     26  C   UNL     1       2.194   2.347  -0.306  1.00  0.00     0.119 A 
ATOM     27  C   UNL     1       1.964   3.492  -1.062  1.00  0.00     0.048 A 
ATOM     28  C   UNL     1       2.919   2.458   0.879  1.00  0.00     0.048 A 
ATOM     29  C   UNL     1       2.406   4.747  -0.617  1.00  0.00     0.030 A 
ATOM     30  C   UNL     1       3.348   3.720   1.340  1.00  0.00     0.030 A 
BRANCH  26  31
ATOM     31  O   UNL     1       1.709   1.190  -0.849  1.00  0.00    -0.497 OA
ATOM     32  C   UNL     1       1.417   0.135   0.061  1.00  0.00     0.278 C 
ENDBRANCH  26  31
ENDBRANCH  18  25
ENDBRANCH   8  17
BRANCH  16  33
ATOM     33  O   UNL     1       2.856  16.219   3.139  1.00  0.00    -0.497 OA
ATOM     34  C   UNL     1       3.082  16.928   4.344  1.00  0.00     0.278 C 
ENDBRANCH  16  33
ENDBRANCH   4   7
ENDBRANCH   2   3
ENDBRANCH   1   2
BRANCH   1  35
ATOM     35  C   UNL     1      -0.287   7.582  -0.752  1.00  0.00     0.118 C 
BRANCH  35  36
ATOM     36  N   UNL     1      -0.209   6.657   0.371  1.00  0.00    -0.352 N 
ATOM     37  C   UNL     1      -0.610   5.339   0.466  1.00  0.00     0.251 C 
ATOM     38  H   UNL     1       0.191   7.029   1.189  1.00  0.00     0.163 HD
ATOM     39  O   UNL     1      -0.489   4.768   1.549  1.00  0.00    -0.269 OA
BRANCH  37  40
ATOM     40  C   UNL     1      -1.243   4.622  -0.673  1.00  0.00     0.039 A 
ATOM     41  C   UNL     1      -2.135   3.584  -0.374  1.00  0.00     0.014 A 
ATOM     42  C   UNL     1      -1.038   4.977  -2.008  1.00  0.00     0.014 A 
ATOM     43  C   UNL     1      -2.955   3.062  -1.373  1.00  0.00     0.010 A 
ATOM     44  C   UNL     1      -1.909   4.532  -2.989  1.00  0.00     0.010 A 
ATOM     45  C   UNL     1      -2.924   3.635  -2.652  1.00  0.00    -0.014 A 
BRANCH  45  46
ATOM     46  C   UNL     1      -4.083   3.529  -3.563  1.00  0.00     0.031 A 
ATOM     47  C   UNL     1      -3.946   2.903  -4.913  1.00  0.00     0.074 A 
ATOM     48  C   UNL     1      -5.207   4.173  -3.184  1.00  0.00     0.049 A 
ATOM     49  N   UNL     1      -4.835   2.806  -5.864  1.00  0.00    -0.248 NA
ATOM     50  C   UNL     1      -2.626   2.351  -5.258  1.00  0.00     0.031 C 
ATOM     51  C   UNL     1      -5.367   4.916  -1.925  1.00  0.00     0.029 A 
ATOM     52  N   UNL     1      -6.415   4.334  -3.807  1.00  0.00    -0.354 N 
ATOM     53  C   UNL     1      -4.192   2.167  -6.916  1.00  0.00     0.074 A 
ATOM     54  C   UNL     1      -2.816   1.971  -6.514  1.00  0.00     0.031 C 
ATOM     55  C   UNL     1      -6.610   5.410  -1.852  1.00  0.00     0.029 A 
ATOM     56  C   UNL     1      -7.320   5.069  -3.074  1.00  0.00     0.049 A 
ATOM     57  H   UNL     1      -6.617   3.959  -4.694  1.00  0.00     0.167 HD
ATOM     58  C   UNL     1      -4.725   1.761  -8.095  1.00  0.00     0.034 A 
ATOM     59  C   UNL     1      -8.585   5.426  -3.362  1.00  0.00     0.034 A 
ATOM     60  C   UNL     1      -6.100   2.009  -8.459  1.00  0.00     0.049 A 
ATOM     61  C   UNL     1      -9.149   4.958  -4.676  1.00  0.00     0.074 A 
ATOM     62  C   UNL     1      -6.777   1.627  -9.602  1.00  0.00     0.029 A 
ATOM     63  N   UNL     1      -7.010   2.716  -7.676  1.00  0.00    -0.354 N 
ATOM     64  N   UNL     1      -8.555   4.272  -5.627  1.00  0.00    -0.248 NA
ATOM     65  C   UNL     1     -10.550   5.287  -4.948  1.00  0.00     0.031 C 
ATOM     66  C   UNL     1      -8.072   2.153  -9.539  1.00  0.00     0.029 A 
ATOM     67  C   UNL     1      -8.233   2.796  -8.321  1.00  0.00     0.049 A 
ATOM     68  H   UNL     1      -6.812   3.102  -6.793  1.00  0.00     0.167 HD
ATOM     69  C   UNL     1      -9.525   4.055  -6.597  1.00  0.00     0.074 A 
ATOM     70  C   UNL     1     -10.745   4.662  -6.100  1.00  0.00     0.031 C 
ATOM     71  C   UNL     1      -9.425   3.417  -7.791  1.00  0.00     0.034 A 
BRANCH  58  72
ATOM     72  C   UNL     1      -3.823   1.019  -9.052  1.00  0.00     0.023 A 
ATOM     73  C   UNL     1      -3.236  -0.209  -8.695  1.00  0.00     0.031 A 
ATOM     74  C   UNL     1      -3.534   1.536 -10.326  1.00  0.00     0.131 A 
ATOM     75  C   UNL     1      -2.343  -0.845  -9.570  1.00  0.00     0.055 A 
ATOM     76  C   UNL     1      -2.704   0.859 -11.225  1.00  0.00     0.041 A 
ATOM     77  F   UNL     1      -4.044   2.713 -10.720  1.00  0.00    -0.206 F 
ATOM     78  C   UNL     1      -2.093  -0.333 -10.844  1.00  0.00     0.022 A 
BRANCH  75  79
ATOM     79  S   UNL     1      -1.421  -2.287  -8.969  1.00  0.00     0.124 S 
ATOM     80  O   UNL     1      -0.667  -1.711  -7.858  1.00  0.00    -0.237 OA
ATOM     81  O   UNL     1      -2.485  -3.214  -8.606  1.00  0.00    -0.237 OA
ATOM     82  O   UNL     1      -0.615  -2.683 -10.122  1.00  0.00    -0.744 OA
ENDBRANCH  75  79
ENDBRANCH  58  72
BRANCH  59  83
ATOM     83  C   UNL     1      -9.399   6.220  -2.397  1.00  0.00     0.023 A 
ATOM     84  C   UNL     1     -10.577   5.689  -1.849  1.00  0.00     0.031 A 
ATOM     85  C   UNL     1      -9.040   7.530  -2.029  1.00  0.00     0.131 A 
ATOM     86  C   UNL     1     -11.390   6.481  -1.024  1.00  0.00     0.055 A 
ATOM     87  C   UNL     1      -9.817   8.291  -1.152  1.00  0.00     0.041 A 
ATOM     88  F   UNL     1      -7.917   8.088  -2.509  1.00  0.00    -0.206 F 
ATOM     89  C   UNL     1     -11.011   7.774  -0.660  1.00  0.00     0.022 A 
BRANCH  86  90
ATOM     90  S   UNL     1     -13.014   5.838  -0.539  1.00  0.00     0.124 S 
ATOM     91  O   UNL     1     -13.592   5.487  -1.831  1.00  0.00    -0.237 OA
ATOM     92  O   UNL     1     -12.650   4.721   0.326  1.00  0.00    -0.237 OA
ATOM     93  O   UNL     1     -13.640   6.972   0.137  1.00  0.00    -0.744 OA
ENDBRANCH  86  90
ENDBRANCH  59  83
BRANCH  71  94
ATOM     94  C   UNL     1     -10.690   3.317  -8.601  1.00  0.00     0.023 A 
ATOM     95  C   UNL     1     -11.310   4.457  -9.139  1.00  0.00     0.031 A 
ATOM     96  C   UNL     1     -11.296   2.066  -8.812  1.00  0.00     0.131 A 
ATOM     97  C   UNL     1     -12.537   4.333  -9.802  1.00  0.00     0.055 A 
ATOM     98  C   UNL     1     -12.480   1.941  -9.536  1.00  0.00     0.041 A 
ATOM     99  F   UNL     1     -10.746   0.947  -8.314  1.00  0.00    -0.206 F 
ATOM    100  C   UNL     1     -13.116   3.080 -10.022  1.00  0.00     0.022 A 
BRANCH  97 101
ATOM    101  S   UNL     1     -13.421   5.843 -10.272  1.00  0.00     0.124 S 
ATOM    102  O   UNL     1     -13.598   6.504  -8.983  1.00  0.00    -0.237 OA
ATOM    103  O   UNL     1     -12.484   6.481 -11.191  1.00  0.00    -0.237 OA
ATOM    104  O   UNL     1     -14.650   5.343 -10.887  1.00  0.00    -0.744 OA
ENDBRANCH  97 101
ENDBRANCH  71  94
ENDBRANCH  45  46
ENDBRANCH  37  40
ENDBRANCH  35  36
ENDBRANCH   1  35
TORSDOF 17
