REMARK SMILES CCCc1cc2c(cc1Cl)C=C(C(=O)NCCCNC(=O)c1ccc(-c3c4nc(c(-c5cc(S(=O)(=O)[O-])ccc5F)c5ccc([nH]5)c(-c5cc(S(=O)(=O)[O-])ccc5F)c5nc(c(-c6cc(S(=O)(=O)[O-])ccc6F)c6ccc3[nH]6)C=C5)C=C4)cc1)[C@H](C(F)(F)F)O2
REMARK SMILES IDX 17 1 16 2 15 3 13 4 14 5 12 7 4 8 5 9 9 10 6 11 8 12 10 13
REMARK SMILES IDX 7 14 90 15 11 16 85 17 3 18 2 19 1 20 86 21 87 22 88 23
REMARK SMILES IDX 89 24 18 25 19 26 20 27 21 29 22 30 23 31 84 32 24 33 83 34
REMARK SMILES IDX 25 35 26 36 27 37 77 38 28 39 82 40 76 41 78 42 29 43 81 44
REMARK SMILES IDX 75 45 74 46 30 48 62 49 42 50 61 51 43 52 46 53 60 54 79 55
REMARK SMILES IDX 44 56 45 57 59 59 80 60 47 61 31 62 32 63 40 64 33 65 39 66
REMARK SMILES IDX 41 67 38 68 34 69 35 70 36 71 37 72 63 73 64 74 72 75 65 76
REMARK SMILES IDX 71 77 73 78 70 79 66 80 67 81 68 82 69 83 48 84 49 85 57 86
REMARK SMILES IDX 50 87 56 88 58 89 55 90 51 91 52 92 53 93 54 94
REMARK H PARENT 15 6 19 28 78 47 46 58
REMARK Flexibility Score: inf
ROOT
ATOM      1  C   UNL     1      -1.875  -1.676  10.673  1.00  0.00     0.042 C 
ENDROOT
BRANCH   1   2
ATOM      2  C   UNL     1      -2.729  -0.920   9.667  1.00  0.00     0.118 C 
BRANCH   2   3
ATOM      3  N   UNL     1      -2.125   0.347   9.288  1.00  0.00    -0.352 N 
ATOM      4  C   UNL     1      -1.453   0.853   8.232  1.00  0.00     0.251 C 
ATOM      5  O   UNL     1      -1.162   2.050   8.330  1.00  0.00    -0.270 OA
ATOM      6  H   UNL     1      -2.236   1.021   9.997  1.00  0.00     0.163 HD
BRANCH   4   7
ATOM      7  C   UNL     1      -1.057   0.098   7.009  1.00  0.00     0.067 C 
ATOM      8  C   UNL     1       0.864  -1.143   2.507  1.00  0.00    -0.026 A 
ATOM      9  C   UNL     1      -0.008  -1.777   3.411  1.00  0.00     0.052 A 
ATOM     10  C   UNL     1       1.317   0.152   2.819  1.00  0.00     0.045 A 
ATOM     11  C   UNL     1      -0.401  -1.136   4.584  1.00  0.00     0.128 A 
ATOM     12  C   UNL     1       0.850   0.819   3.957  1.00  0.00     0.032 A 
ATOM     13  Cl  UNL     1       2.501   0.976   1.869  1.00  0.00    -0.084 Cl
ATOM     14  C   UNL     1      -0.012   0.175   4.841  1.00  0.00     0.019 A 
ATOM     15  O   UNL     1      -1.187  -1.842   5.451  1.00  0.00    -0.475 OA
ATOM     16  C   UNL     1      -0.514   0.847   6.031  1.00  0.00     0.025 C 
ATOM     17  C   UNL     1      -1.128  -1.396   6.841  1.00  0.00     0.314 C 
BRANCH   8  18
ATOM     18  C   UNL     1       1.276  -1.894   1.261  1.00  0.00     0.037 C 
BRANCH  18  19
ATOM     19  C   UNL     1       0.389  -1.630   0.037  1.00  0.00     0.001 C 
ATOM     20  C   UNL     1       0.586  -0.261  -0.596  1.00  0.00     0.004 C 
ENDBRANCH  18  19
ENDBRANCH   8  18
BRANCH  17  21
ATOM     21  C   UNL     1      -0.024  -2.143   7.616  1.00  0.00     0.429 C 
ATOM     22  F   UNL     1       0.562  -1.368   8.558  1.00  0.00    -0.167 F 
ATOM     23  F   UNL     1      -0.548  -3.216   8.259  1.00  0.00    -0.167 F 
ATOM     24  F   UNL     1       0.964  -2.599   6.813  1.00  0.00    -0.167 F 
ENDBRANCH  17  21
ENDBRANCH   4   7
ENDBRANCH   2   3
ENDBRANCH   1   2
BRANCH   1  25
ATOM     25  C   UNL     1      -1.977  -1.098  12.078  1.00  0.00     0.118 C 
BRANCH  25  26
ATOM     26  N   UNL     1      -3.289  -1.335  12.671  1.00  0.00    -0.352 N 
ATOM     27  C   UNL     1      -3.669  -2.195  13.675  1.00  0.00     0.251 C 
ATOM     28  H   UNL     1      -4.018  -0.793  12.291  1.00  0.00     0.163 HD
ATOM     29  O   UNL     1      -4.860  -2.436  13.837  1.00  0.00    -0.269 OA
BRANCH  27  30
ATOM     30  C   UNL     1      -2.648  -2.834  14.535  1.00  0.00     0.039 A 
ATOM     31  C   UNL     1      -1.515  -2.128  14.934  1.00  0.00     0.014 A 
ATOM     32  C   UNL     1      -2.829  -4.153  14.962  1.00  0.00     0.014 A 
ATOM     33  C   UNL     1      -0.476  -2.790  15.571  1.00  0.00     0.010 A 
ATOM     34  C   UNL     1      -1.835  -4.781  15.720  1.00  0.00     0.010 A 
ATOM     35  C   UNL     1      -0.626  -4.121  15.990  1.00  0.00    -0.014 A 
BRANCH  35  36
ATOM     36  C   UNL     1       0.482  -4.771  16.741  1.00  0.00     0.031 A 
ATOM     37  C   UNL     1       1.169  -5.999  16.207  1.00  0.00     0.074 A 
ATOM     38  C   UNL     1       0.906  -4.204  17.890  1.00  0.00     0.049 A 
ATOM     39  N   UNL     1       2.180  -6.657  16.714  1.00  0.00    -0.248 NA
ATOM     40  C   UNL     1       0.657  -6.572  14.951  1.00  0.00     0.031 C 
ATOM     41  C   UNL     1       0.313  -3.011  18.499  1.00  0.00     0.029 A 
ATOM     42  N   UNL     1       1.942  -4.521  18.732  1.00  0.00    -0.354 N 
ATOM     43  C   UNL     1       2.408  -7.730  15.860  1.00  0.00     0.074 A 
ATOM     44  C   UNL     1       1.410  -7.655  14.816  1.00  0.00     0.031 C 
ATOM     45  C   UNL     1       1.038  -2.652  19.564  1.00  0.00     0.029 A 
ATOM     46  C   UNL     1       2.092  -3.638  19.778  1.00  0.00     0.049 A 
ATOM     47  H   UNL     1       2.523  -5.305  18.600  1.00  0.00     0.167 HD
ATOM     48  C   UNL     1       3.371  -8.679  15.937  1.00  0.00     0.034 A 
ATOM     49  C   UNL     1       2.967  -3.624  20.805  1.00  0.00     0.034 A 
ATOM     50  C   UNL     1       4.380  -8.712  16.966  1.00  0.00     0.049 A 
ATOM     51  C   UNL     1       4.010  -4.708  20.875  1.00  0.00     0.074 A 
ATOM     52  C   UNL     1       5.432  -9.602  17.096  1.00  0.00     0.029 A 
ATOM     53  N   UNL     1       4.473  -7.830  18.033  1.00  0.00    -0.354 N 
ATOM     54  N   UNL     1       4.248  -5.678  20.024  1.00  0.00    -0.248 NA
ATOM     55  C   UNL     1       4.902  -4.702  22.041  1.00  0.00     0.031 C 
ATOM     56  C   UNL     1       6.105  -9.313  18.282  1.00  0.00     0.029 A 
ATOM     57  C   UNL     1       5.538  -8.182  18.847  1.00  0.00     0.049 A 
ATOM     58  H   UNL     1       3.871  -7.066  18.189  1.00  0.00     0.167 HD
ATOM     59  C   UNL     1       5.331  -6.383  20.540  1.00  0.00     0.074 A 
ATOM     60  C   UNL     1       5.722  -5.706  21.759  1.00  0.00     0.031 C 
ATOM     61  C   UNL     1       5.937  -7.495  20.053  1.00  0.00     0.034 A 
BRANCH  48  62
ATOM     62  C   UNL     1       3.418  -9.771  14.895  1.00  0.00     0.023 A 
ATOM     63  C   UNL     1       3.281 -11.116  15.291  1.00  0.00     0.031 A 
ATOM     64  C   UNL     1       3.769  -9.505  13.560  1.00  0.00     0.131 A 
ATOM     65  C   UNL     1       3.551 -12.143  14.379  1.00  0.00     0.055 A 
ATOM     66  C   UNL     1       3.988 -10.534  12.641  1.00  0.00     0.041 A 
ATOM     67  F   UNL     1       3.915  -8.241  13.131  1.00  0.00    -0.206 F 
ATOM     68  C   UNL     1       3.897 -11.860  13.054  1.00  0.00     0.022 A 
BRANCH  65  69
ATOM     69  S   UNL     1       3.556 -13.881  14.900  1.00  0.00     0.124 S 
ATOM     70  O   UNL     1       2.574 -14.469  13.992  1.00  0.00    -0.237 OA
ATOM     71  O   UNL     1       4.942 -14.268  14.655  1.00  0.00    -0.237 OA
ATOM     72  O   UNL     1       3.152 -13.829  16.301  1.00  0.00    -0.744 OA
ENDBRANCH  65  69
ENDBRANCH  48  62
BRANCH  49  73
ATOM     73  C   UNL     1       2.903  -2.520  21.809  1.00  0.00     0.023 A 
ATOM     74  C   UNL     1       1.734  -2.286  22.557  1.00  0.00     0.031 A 
ATOM     75  C   UNL     1       3.971  -1.620  21.960  1.00  0.00     0.131 A 
ATOM     76  C   UNL     1       1.632  -1.139  23.355  1.00  0.00     0.055 A 
ATOM     77  C   UNL     1       3.896  -0.524  22.822  1.00  0.00     0.041 A 
ATOM     78  F   UNL     1       5.103  -1.790  21.259  1.00  0.00    -0.206 F 
ATOM     79  C   UNL     1       2.713  -0.268  23.509  1.00  0.00     0.022 A 
BRANCH  76  80
ATOM     80  S   UNL     1       0.045  -0.661  24.095  1.00  0.00     0.124 S 
ATOM     81  O   UNL     1       0.360  -0.663  25.519  1.00  0.00    -0.237 OA
ATOM     82  O   UNL     1      -0.177   0.654  23.499  1.00  0.00    -0.237 OA
ATOM     83  O   UNL     1      -0.872  -1.705  23.648  1.00  0.00    -0.744 OA
ENDBRANCH  76  80
ENDBRANCH  49  73
BRANCH  61  84
ATOM     84  C   UNL     1       7.104  -8.076  20.816  1.00  0.00     0.023 A 
ATOM     85  C   UNL     1       8.365  -8.184  20.196  1.00  0.00     0.031 A 
ATOM     86  C   UNL     1       6.936  -8.662  22.082  1.00  0.00     0.131 A 
ATOM     87  C   UNL     1       9.390  -8.905  20.820  1.00  0.00     0.055 A 
ATOM     88  C   UNL     1       7.980  -9.326  22.728  1.00  0.00     0.041 A 
ATOM     89  F   UNL     1       5.751  -8.600  22.711  1.00  0.00    -0.206 F 
ATOM     90  C   UNL     1       9.208  -9.466  22.088  1.00  0.00     0.022 A 
BRANCH  87  91
ATOM     91  S   UNL     1      10.957  -9.232  19.967  1.00  0.00     0.124 S 
ATOM     92  O   UNL     1      11.924  -8.591  20.855  1.00  0.00    -0.237 OA
ATOM     93  O   UNL     1      10.999 -10.692  19.951  1.00  0.00    -0.237 OA
ATOM     94  O   UNL     1      10.791  -8.595  18.666  1.00  0.00    -0.744 OA
ENDBRANCH  87  91
ENDBRANCH  61  84
ENDBRANCH  35  36
ENDBRANCH  27  30
ENDBRANCH  25  26
ENDBRANCH   1  25
TORSDOF 16
