REMARK SMILES O=C(CCCN1C(=O)/C(=C\c2ccc(O)c(O)c2)SC1=S)NCCCNC(=O)c1ccc(-c2c3nc(c(-c4cc(S(=O)(=O)[O-])ccc4F)c4ccc([nH]4)c(-c4cc(S(=O)(=O)[O-])ccc4F)c4nc(c(-c5cc(S(=O)(=O)[O-])ccc5F)c5ccc2[nH]5)C=C4)C=C3)cc1
REMARK SMILES IDX 23 1 22 2 1 3 2 4 3 6 4 7 5 8 6 9 7 10 20 11 8 12 9 13 19 14
REMARK SMILES IDX 21 15 10 16 11 17 12 18 18 19 13 20 16 21 14 22 17 23 15 25
REMARK SMILES IDX 24 27 25 28 26 29 27 30 28 32 29 33 30 34 91 35 31 36 90 37
REMARK SMILES IDX 32 38 33 39 34 40 84 41 35 42 89 43 83 44 85 45 36 46 88 47
REMARK SMILES IDX 82 48 81 49 37 51 69 52 49 53 68 54 50 55 53 56 67 57 86 58
REMARK SMILES IDX 51 59 52 60 66 62 87 63 54 64 38 65 39 66 47 67 40 68 46 69
REMARK SMILES IDX 48 70 45 71 41 72 42 73 43 74 44 75 70 76 71 77 79 78 72 79
REMARK SMILES IDX 78 80 80 81 77 82 73 83 74 84 75 85 76 86 55 87 56 88 64 89
REMARK SMILES IDX 57 90 63 91 65 92 62 93 58 94 59 95 60 96 61 97
REMARK H PARENT 22 5 17 24 15 26 26 31 85 50 53 61
REMARK Flexibility Score: inf
ROOT
ATOM      1  C   UNL     1       1.857   2.325   0.465  1.00  0.00     0.117 C 
ENDROOT
BRANCH   1   2
ATOM      2  N   UNL     1       2.599   1.093   0.264  1.00  0.00    -0.356 N 
ATOM      3  O   UNL     1       0.764  -0.170  -0.292  1.00  0.00    -0.275 OA
ATOM      4  C   UNL     1       1.972  -0.076  -0.097  1.00  0.00     0.220 C 
ATOM      5  H   UNL     1       3.576   1.095   0.390  1.00  0.00     0.163 HD
BRANCH   4   6
ATOM      6  C   UNL     1       2.885  -1.274  -0.227  1.00  0.00     0.102 C 
BRANCH   6   7
ATOM      7  C   UNL     1       3.728  -1.255  -1.498  1.00  0.00     0.032 C 
BRANCH   7   8
ATOM      8  C   UNL     1       5.102  -0.585  -1.396  1.00  0.00     0.128 C 
BRANCH   8   9
ATOM      9  N   UNL     1       5.924  -0.859  -0.206  1.00  0.00    -0.293 N 
ATOM     10  C   UNL     1       6.468   0.239   0.446  1.00  0.00     0.266 C 
ATOM     11  C   UNL     1       6.348  -2.091   0.242  1.00  0.00     0.148 C 
ATOM     12  O   UNL     1       6.173   1.389   0.165  1.00  0.00    -0.268 OA
ATOM     13  C   UNL     1       7.412  -0.179   1.533  1.00  0.00     0.081 C 
ATOM     14  S   UNL     1       7.344  -1.899   1.683  1.00  0.00    -0.054 SA
ATOM     15  S   UNL     1       6.038  -3.597  -0.403  1.00  0.00    -0.052 S 
ATOM     16  C   UNL     1       8.252   0.570   2.271  1.00  0.00     0.029 C 
BRANCH  16  17
ATOM     17  C   UNL     1       8.475   2.018   2.142  1.00  0.00    -0.020 A 
ATOM     18  C   UNL     1       7.400   2.907   2.087  1.00  0.00     0.012 A 
ATOM     19  C   UNL     1       9.773   2.534   2.047  1.00  0.00     0.058 A 
ATOM     20  C   UNL     1       7.596   4.253   1.788  1.00  0.00     0.051 A 
ATOM     21  C   UNL     1       9.959   3.897   1.821  1.00  0.00     0.157 A 
ATOM     22  C   UNL     1       8.876   4.752   1.675  1.00  0.00     0.157 A 
BRANCH  21  23
ATOM     23  O   UNL     1      11.226   4.389   1.713  1.00  0.00    -0.504 OA
ATOM     24  H   UNL     1      11.362   5.304   1.562  1.00  0.00     0.293 HD
ENDBRANCH  21  23
BRANCH  22  25
ATOM     25  O   UNL     1       9.098   6.073   1.415  1.00  0.00    -0.504 OA
ATOM     26  H   UNL     1       8.374   6.659   1.315  1.00  0.00     0.293 HD
ENDBRANCH  22  25
ENDBRANCH  16  17
ENDBRANCH   8   9
ENDBRANCH   7   8
ENDBRANCH   6   7
ENDBRANCH   4   6
ENDBRANCH   1   2
BRANCH   1  27
ATOM     27  C   UNL     1       1.942   2.829   1.903  1.00  0.00     0.042 C 
BRANCH  27  28
ATOM     28  C   UNL     1       3.322   3.322   2.319  1.00  0.00     0.118 C 
BRANCH  28  29
ATOM     29  N   UNL     1       3.742   4.503   1.585  1.00  0.00    -0.352 N 
ATOM     30  C   UNL     1       4.343   5.668   1.984  1.00  0.00     0.251 C 
ATOM     31  H   UNL     1       3.560   4.458   0.618  1.00  0.00     0.163 HD
ATOM     32  O   UNL     1       4.476   6.555   1.140  1.00  0.00    -0.269 OA
BRANCH  30  33
ATOM     33  C   UNL     1       4.904   5.881   3.347  1.00  0.00     0.039 A 
ATOM     34  C   UNL     1       5.131   7.204   3.753  1.00  0.00     0.014 A 
ATOM     35  C   UNL     1       5.337   4.840   4.176  1.00  0.00     0.014 A 
ATOM     36  C   UNL     1       5.723   7.475   4.989  1.00  0.00     0.010 A 
ATOM     37  C   UNL     1       5.894   5.104   5.424  1.00  0.00     0.010 A 
ATOM     38  C   UNL     1       6.068   6.422   5.847  1.00  0.00    -0.014 A 
BRANCH  38  39
ATOM     39  C   UNL     1       6.437   6.674   7.256  1.00  0.00     0.031 A 
ATOM     40  C   UNL     1       7.819   6.409   7.766  1.00  0.00     0.074 A 
ATOM     41  C   UNL     1       5.441   7.030   8.089  1.00  0.00     0.049 A 
ATOM     42  N   UNL     1       8.286   6.554   8.979  1.00  0.00    -0.248 NA
ATOM     43  C   UNL     1       8.797   5.888   6.800  1.00  0.00     0.031 C 
ATOM     44  C   UNL     1       4.042   7.218   7.687  1.00  0.00     0.029 A 
ATOM     45  N   UNL     1       5.434   7.275   9.434  1.00  0.00    -0.354 N 
ATOM     46  C   UNL     1       9.617   6.158   8.926  1.00  0.00     0.074 A 
ATOM     47  C   UNL     1       9.863   5.709   7.570  1.00  0.00     0.031 C 
ATOM     48  C   UNL     1       3.319   7.565   8.759  1.00  0.00     0.029 A 
ATOM     49  C   UNL     1       4.190   7.590   9.926  1.00  0.00     0.049 A 
ATOM     50  H   UNL     1       6.242   7.230   9.995  1.00  0.00     0.167 HD
ATOM     51  C   UNL     1      10.541   6.187   9.919  1.00  0.00     0.034 A 
ATOM     52  C   UNL     1       3.796   7.866  11.182  1.00  0.00     0.034 A 
ATOM     53  C   UNL     1      10.243   6.609  11.270  1.00  0.00     0.049 A 
ATOM     54  C   UNL     1       4.838   7.885  12.265  1.00  0.00     0.074 A 
ATOM     55  C   UNL     1      11.105   6.739  12.346  1.00  0.00     0.029 A 
ATOM     56  N   UNL     1       8.977   6.949  11.739  1.00  0.00    -0.354 N 
ATOM     57  N   UNL     1       6.120   7.609  12.181  1.00  0.00    -0.248 NA
ATOM     58  C   UNL     1       4.389   8.280  13.602  1.00  0.00     0.031 C 
ATOM     59  C   UNL     1      10.351   7.077  13.476  1.00  0.00     0.029 A 
ATOM     60  C   UNL     1       9.031   7.252  13.092  1.00  0.00     0.049 A 
ATOM     61  H   UNL     1       8.161   6.972  11.189  1.00  0.00     0.167 HD
ATOM     62  C   UNL     1       6.638   7.831  13.452  1.00  0.00     0.074 A 
ATOM     63  C   UNL     1       5.531   8.284  14.272  1.00  0.00     0.031 C 
ATOM     64  C   UNL     1       7.911   7.680  13.901  1.00  0.00     0.034 A 
BRANCH  51  65
ATOM     65  C   UNL     1      11.945   5.732   9.587  1.00  0.00     0.023 A 
ATOM     66  C   UNL     1      12.724   6.393   8.620  1.00  0.00     0.031 A 
ATOM     67  C   UNL     1      12.520   4.630  10.244  1.00  0.00     0.131 A 
ATOM     68  C   UNL     1      14.000   5.910   8.291  1.00  0.00     0.055 A 
ATOM     69  C   UNL     1      13.821   4.200   9.969  1.00  0.00     0.041 A 
ATOM     70  F   UNL     1      11.824   3.942  11.164  1.00  0.00    -0.206 F 
ATOM     71  C   UNL     1      14.564   4.833   8.977  1.00  0.00     0.022 A 
BRANCH  68  72
ATOM     72  S   UNL     1      14.858   6.629   6.863  1.00  0.00     0.124 S 
ATOM     73  O   UNL     1      13.890   6.406   5.793  1.00  0.00    -0.237 OA
ATOM     74  O   UNL     1      15.047   8.015   7.275  1.00  0.00    -0.237 OA
ATOM     75  O   UNL     1      16.081   5.835   6.764  1.00  0.00    -0.744 OA
ENDBRANCH  68  72
ENDBRANCH  51  65
BRANCH  52  76
ATOM     76  C   UNL     1       2.367   8.172  11.467  1.00  0.00     0.023 A 
ATOM     77  C   UNL     1       1.981   9.443  11.916  1.00  0.00     0.031 A 
ATOM     78  C   UNL     1       1.367   7.197  11.303  1.00  0.00     0.131 A 
ATOM     79  C   UNL     1       0.639   9.694  12.234  1.00  0.00     0.055 A 
ATOM     80  C   UNL     1       0.023   7.469  11.565  1.00  0.00     0.041 A 
ATOM     81  F   UNL     1       1.680   5.969  10.860  1.00  0.00    -0.206 F 
ATOM     82  C   UNL     1      -0.345   8.721  12.048  1.00  0.00     0.022 A 
BRANCH  79  83
ATOM     83  S   UNL     1       0.213  11.289  12.983  1.00  0.00     0.124 S 
ATOM     84  O   UNL     1       1.083  11.309  14.153  1.00  0.00    -0.237 OA
ATOM     85  O   UNL     1       0.553  12.224  11.915  1.00  0.00    -0.237 OA
ATOM     86  O   UNL     1      -1.214  11.161  13.266  1.00  0.00    -0.744 OA
ENDBRANCH  79  83
ENDBRANCH  52  76
BRANCH  64  87
ATOM     87  C   UNL     1       8.166   8.051  15.342  1.00  0.00     0.023 A 
ATOM     88  C   UNL     1       7.562   7.354  16.404  1.00  0.00     0.031 A 
ATOM     89  C   UNL     1       8.989   9.147  15.655  1.00  0.00     0.131 A 
ATOM     90  C   UNL     1       7.724   7.810  17.720  1.00  0.00     0.055 A 
ATOM     91  C   UNL     1       9.210   9.547  16.974  1.00  0.00     0.041 A 
ATOM     92  F   UNL     1       9.587   9.854  14.683  1.00  0.00    -0.206 F 
ATOM     93  C   UNL     1       8.560   8.889  18.014  1.00  0.00     0.022 A 
BRANCH  90  94
ATOM     94  S   UNL     1       6.721   7.055  19.029  1.00  0.00     0.124 S 
ATOM     95  O   UNL     1       5.365   7.271  18.532  1.00  0.00    -0.237 OA
ATOM     96  O   UNL     1       7.189   5.673  19.022  1.00  0.00    -0.237 OA
ATOM     97  O   UNL     1       7.075   7.824  20.220  1.00  0.00    -0.744 OA
ENDBRANCH  90  94
ENDBRANCH  64  87
ENDBRANCH  38  39
ENDBRANCH  30  33
ENDBRANCH  28  29
ENDBRANCH  27  28
ENDBRANCH   1  27
TORSDOF 19
