REMARK SMILES C[NH2+][C@]1(C(=O)NCCCNC(=O)c2ccc(-c3c4nc(c(-c5cc(S(=O)(=O)[O-])ccc5F)c5ccc([nH]5)c(-c5cc(S(=O)(=O)[O-])ccc5F)c5nc(c(-c6cc(S(=O)(=O)[O-])ccc6F)c6ccc3[nH]6)C=C5)C=C4)cc2)CCC[C@@H](Sc2nncs2)C1
REMARK SMILES IDX 8 1 7 2 6 3 4 4 5 5 3 7 76 8 86 9 77 10 79 11 78 12 2 13
REMARK SMILES IDX 1 14 80 17 81 18 82 19 85 20 83 21 84 22 9 23 10 24 11 25
REMARK SMILES IDX 12 27 13 28 14 29 75 30 15 31 74 32 16 33 17 34 18 35 68 36
REMARK SMILES IDX 19 37 73 38 67 39 69 40 20 41 72 42 66 43 65 44 21 46 53 47
REMARK SMILES IDX 33 48 52 49 34 50 37 51 51 52 70 53 35 54 36 55 50 57 71 58
REMARK SMILES IDX 38 59 22 60 23 61 31 62 24 63 30 64 32 65 29 66 25 67 26 68
REMARK SMILES IDX 27 69 28 70 54 71 55 72 63 73 56 74 62 75 64 76 61 77 57 78
REMARK SMILES IDX 58 79 59 80 60 81 39 82 40 83 48 84 41 85 47 86 49 87 46 88
REMARK SMILES IDX 42 89 43 90 44 91 45 92
REMARK H PARENT 6 6 2 15 2 16 10 26 69 45 37 56
REMARK Flexibility Score: inf
ROOT
ATOM      1  C   UNL     1       1.046  -0.076   4.985  1.00  0.00     0.042 C 
ENDROOT
BRANCH   1   2
ATOM      2  C   UNL     1       0.532   0.775   3.837  1.00  0.00     0.118 C 
BRANCH   2   3
ATOM      3  N   UNL     1       1.118   0.422   2.553  1.00  0.00    -0.351 N 
ATOM      4  C   UNL     1       0.568   0.157   1.329  1.00  0.00     0.281 C 
ATOM      5  O   UNL     1       1.401  -0.034   0.439  1.00  0.00    -0.268 OA
ATOM      6  H   UNL     1       2.101   0.361   2.568  1.00  0.00     0.163 HD
BRANCH   4   7
ATOM      7  C   UNL     1      -0.997   0.085   1.124  1.00  0.00     0.176 C 
ATOM      8  C   UNL     1      -1.495  -1.147   1.927  1.00  0.00     0.079 C 
ATOM      9  C   UNL     1      -1.657   1.433   1.552  1.00  0.00     0.094 C 
ATOM     10  C   UNL     1      -3.001  -1.173   2.159  1.00  0.00     0.008 C 
ATOM     11  C   UNL     1      -3.130   1.329   1.986  1.00  0.00     0.061 C 
ATOM     12  C   UNL     1      -3.451   0.106   2.848  1.00  0.00     0.015 C 
BRANCH   7  13
ATOM     13  N   UNL     1      -1.475  -0.199  -0.274  1.00  0.00    -0.336 N 
ATOM     14  C   UNL     1      -0.518  -0.115  -1.363  1.00  0.00     0.331 C 
ATOM     15  H   UNL     1      -1.853  -1.147  -0.277  1.00  0.00     0.346 HD
ATOM     16  H   UNL     1      -2.141   0.549  -0.468  1.00  0.00     0.346 HD
ENDBRANCH   7  13
BRANCH  11  17
ATOM     17  S   UNL     1      -3.755   2.881   2.756  1.00  0.00    -0.090 SA
BRANCH  17  18
ATOM     18  C   UNL     1      -3.061   2.823   4.361  1.00  0.00     0.174 A 
ATOM     19  N   UNL     1      -1.764   2.774   4.563  1.00  0.00    -0.132 NA
ATOM     20  S   UNL     1      -3.996   2.825   5.799  1.00  0.00    -0.094 S 
ATOM     21  N   UNL     1      -1.442   2.683   5.903  1.00  0.00    -0.146 NA
ATOM     22  C   UNL     1      -2.517   2.706   6.662  1.00  0.00     0.203 A 
ENDBRANCH  17  18
ENDBRANCH  11  17
ENDBRANCH   4   7
ENDBRANCH   2   3
ENDBRANCH   1   2
BRANCH   1  23
ATOM     23  C   UNL     1       2.548   0.000   5.201  1.00  0.00     0.118 C 
BRANCH  23  24
ATOM     24  N   UNL     1       3.014   1.333   5.559  1.00  0.00    -0.352 N 
ATOM     25  C   UNL     1       3.628   1.780   6.706  1.00  0.00     0.251 C 
ATOM     26  H   UNL     1       2.866   2.022   4.872  1.00  0.00     0.163 HD
ATOM     27  O   UNL     1       3.814   2.980   6.867  1.00  0.00    -0.269 OA
BRANCH  25  28
ATOM     28  C   UNL     1       4.022   0.817   7.759  1.00  0.00     0.039 A 
ATOM     29  C   UNL     1       3.757   1.131   9.095  1.00  0.00     0.014 A 
ATOM     30  C   UNL     1       4.630  -0.398   7.436  1.00  0.00     0.014 A 
ATOM     31  C   UNL     1       4.021   0.189  10.093  1.00  0.00     0.010 A 
ATOM     32  C   UNL     1       4.795  -1.371   8.416  1.00  0.00     0.010 A 
ATOM     33  C   UNL     1       4.494  -1.089   9.757  1.00  0.00    -0.014 A 
BRANCH  33  34
ATOM     34  C   UNL     1       4.694  -2.143  10.788  1.00  0.00     0.031 A 
ATOM     35  C   UNL     1       6.064  -2.729  11.006  1.00  0.00     0.074 A 
ATOM     36  C   UNL     1       3.635  -2.622  11.472  1.00  0.00     0.049 A 
ATOM     37  N   UNL     1       6.427  -3.724  11.774  1.00  0.00    -0.248 NA
ATOM     38  C   UNL     1       7.164  -2.141  10.226  1.00  0.00     0.031 C 
ATOM     39  C   UNL     1       2.250  -2.168  11.317  1.00  0.00     0.029 A 
ATOM     40  N   UNL     1       3.552  -3.604  12.428  1.00  0.00    -0.354 N 
ATOM     41  C   UNL     1       7.790  -3.894  11.554  1.00  0.00     0.074 A 
ATOM     42  C   UNL     1       8.172  -2.943  10.533  1.00  0.00     0.031 C 
ATOM     43  C   UNL     1       1.464  -2.849  12.166  1.00  0.00     0.029 A 
ATOM     44  C   UNL     1       2.274  -3.823  12.890  1.00  0.00     0.049 A 
ATOM     45  H   UNL     1       4.335  -4.106  12.752  1.00  0.00     0.167 HD
ATOM     46  C   UNL     1       8.649  -4.747  12.165  1.00  0.00     0.034 A 
ATOM     47  C   UNL     1       1.806  -4.716  13.785  1.00  0.00     0.034 A 
ATOM     48  C   UNL     1       8.257  -5.671  13.201  1.00  0.00     0.049 A 
ATOM     49  C   UNL     1       2.779  -5.661  14.446  1.00  0.00     0.074 A 
ATOM     50  C   UNL     1       9.053  -6.537  13.930  1.00  0.00     0.029 A 
ATOM     51  N   UNL     1       6.956  -5.852  13.654  1.00  0.00    -0.354 N 
ATOM     52  N   UNL     1       4.074  -5.775  14.261  1.00  0.00    -0.248 NA
ATOM     53  C   UNL     1       2.229  -6.588  15.443  1.00  0.00     0.031 C 
ATOM     54  C   UNL     1       8.228  -7.285  14.776  1.00  0.00     0.029 A 
ATOM     55  C   UNL     1       6.925  -6.834  14.633  1.00  0.00     0.049 A 
ATOM     56  H   UNL     1       6.171  -5.356  13.328  1.00  0.00     0.167 HD
ATOM     57  C   UNL     1       4.497  -6.763  15.146  1.00  0.00     0.074 A 
ATOM     58  C   UNL     1       3.323  -7.201  15.871  1.00  0.00     0.031 C 
ATOM     59  C   UNL     1       5.744  -7.262  15.345  1.00  0.00     0.034 A 
BRANCH  46  60
ATOM     60  C   UNL     1      10.090  -4.729  11.712  1.00  0.00     0.023 A 
ATOM     61  C   UNL     1      10.896  -3.586  11.858  1.00  0.00     0.031 A 
ATOM     62  C   UNL     1      10.660  -5.862  11.106  1.00  0.00     0.131 A 
ATOM     63  C   UNL     1      12.199  -3.576  11.338  1.00  0.00     0.055 A 
ATOM     64  C   UNL     1      11.985  -5.873  10.665  1.00  0.00     0.041 A 
ATOM     65  F   UNL     1       9.935  -6.976  10.920  1.00  0.00    -0.206 F 
ATOM     66  C   UNL     1      12.758  -4.720  10.765  1.00  0.00     0.022 A 
BRANCH  63  67
ATOM     67  S   UNL     1      13.101  -2.003  11.294  1.00  0.00     0.124 S 
ATOM     68  O   UNL     1      12.219  -1.181  10.469  1.00  0.00    -0.237 OA
ATOM     69  O   UNL     1      13.176  -1.643  12.705  1.00  0.00    -0.237 OA
ATOM     70  O   UNL     1      14.375  -2.356  10.671  1.00  0.00    -0.744 OA
ENDBRANCH  63  67
ENDBRANCH  46  60
BRANCH  47  71
ATOM     71  C   UNL     1       0.350  -4.777  14.109  1.00  0.00     0.023 A 
ATOM     72  C   UNL     1      -0.115  -4.487  15.402  1.00  0.00     0.031 A 
ATOM     73  C   UNL     1      -0.593  -5.174  13.144  1.00  0.00     0.131 A 
ATOM     74  C   UNL     1      -1.474  -4.651  15.711  1.00  0.00     0.055 A 
ATOM     75  C   UNL     1      -1.953  -5.282  13.442  1.00  0.00     0.041 A 
ATOM     76  F   UNL     1      -0.205  -5.456  11.890  1.00  0.00    -0.206 F 
ATOM     77  C   UNL     1      -2.398  -5.034  14.736  1.00  0.00     0.022 A 
BRANCH  74  78
ATOM     78  S   UNL     1      -2.004  -4.448  17.434  1.00  0.00     0.124 S 
ATOM     79  O   UNL     1      -1.164  -5.423  18.120  1.00  0.00    -0.237 OA
ATOM     80  O   UNL     1      -1.692  -3.044  17.681  1.00  0.00    -0.237 OA
ATOM     81  O   UNL     1      -3.429  -4.770  17.391  1.00  0.00    -0.744 OA
ENDBRANCH  74  78
ENDBRANCH  47  71
BRANCH  59  82
ATOM     82  C   UNL     1       5.904  -8.298  16.429  1.00  0.00     0.023 A 
ATOM     83  C   UNL     1       5.331  -9.578  16.323  1.00  0.00     0.031 A 
ATOM     84  C   UNL     1       6.635  -7.994  17.591  1.00  0.00     0.131 A 
ATOM     85  C   UNL     1       5.452 -10.487  17.384  1.00  0.00     0.055 A 
ATOM     86  C   UNL     1       6.804  -8.924  18.617  1.00  0.00     0.041 A 
ATOM     87  F   UNL     1       7.202  -6.787  17.746  1.00  0.00    -0.206 F 
ATOM     88  C   UNL     1       6.200 -10.174  18.523  1.00  0.00     0.022 A 
BRANCH  85  89
ATOM     89  S   UNL     1       4.542 -12.053  17.298  1.00  0.00     0.124 S 
ATOM     90  O   UNL     1       3.163 -11.596  17.162  1.00  0.00    -0.237 OA
ATOM     91  O   UNL     1       5.122 -12.686  16.118  1.00  0.00    -0.237 OA
ATOM     92  O   UNL     1       4.858 -12.704  18.568  1.00  0.00    -0.744 OA
ENDBRANCH  85  89
ENDBRANCH  59  82
ENDBRANCH  33  34
ENDBRANCH  25  28
ENDBRANCH  23  24
ENDBRANCH   1  23
TORSDOF 16
