REMARK SMILES O=C1[NH+]=C(Nc2ccc(C(=O)NCCCNC(=O)c3ccc(-c4c5nc(c(-c6cc(S(=O)(=O)[O-])ccc6F)c6ccc([nH]6)c(-c6cc(S(=O)(=O)[O-])ccc6F)c6nc(c(-c7cc(S(=O)(=O)[O-])ccc7F)c7ccc4[nH]7)C=C6)C=C5)cc3)c(O)c2)S/C1=C\c1ccc[nH]1
REMARK SMILES IDX 14 1 13 2 12 3 10 4 11 5 9 7 6 8 7 9 84 10 8 11 82 12 5 13
REMARK SMILES IDX 1 14 2 15 3 16 86 17 4 18 85 20 87 21 88 23 89 24 92 25
REMARK SMILES IDX 90 26 91 27 83 29 15 31 16 32 17 33 18 35 19 36 20 37 81 38
REMARK SMILES IDX 21 39 80 40 22 41 23 42 24 43 74 44 25 45 79 46 73 47 75 48
REMARK SMILES IDX 26 49 78 50 72 51 71 52 27 54 59 55 39 56 58 57 40 58 43 59
REMARK SMILES IDX 57 60 76 61 41 62 42 63 56 65 77 66 44 67 28 68 29 69 37 70
REMARK SMILES IDX 30 71 36 72 38 73 35 74 31 75 32 76 33 77 34 78 60 79 61 80
REMARK SMILES IDX 69 81 62 82 68 83 70 84 67 85 63 86 64 87 65 88 66 89 45 90
REMARK SMILES IDX 46 91 54 92 47 93 53 94 55 95 52 96 48 97 49 98 50 99 51 100
REMARK H PARENT 12 6 3 19 5 22 92 28 83 30 16 34 75 53 43 64
REMARK Flexibility Score: inf
ROOT
ATOM      1  C   UNL     1      -1.078   8.581  -3.494  1.00  0.00     0.042 C 
ENDROOT
BRANCH   1   2
ATOM      2  C   UNL     1      -0.130   8.218  -2.363  1.00  0.00     0.118 C 
BRANCH   2   3
ATOM      3  N   UNL     1      -0.629   8.517  -1.027  1.00  0.00    -0.352 N 
ATOM      4  C   UNL     1      -0.535   7.810   0.147  1.00  0.00     0.255 C 
ATOM      5  O   UNL     1      -1.046   8.280   1.162  1.00  0.00    -0.269 OA
ATOM      6  H   UNL     1      -1.115   9.370  -0.954  1.00  0.00     0.163 HD
BRANCH   4   7
ATOM      7  C   UNL     1       0.114   6.480   0.215  1.00  0.00     0.081 A 
ATOM      8  C   UNL     1       1.046   3.815   0.278  1.00  0.00     0.129 A 
ATOM      9  C   UNL     1      -0.083   4.193   1.011  1.00  0.00     0.053 A 
ATOM     10  C   UNL     1       1.742   4.803  -0.426  1.00  0.00     0.098 A 
ATOM     11  C   UNL     1      -0.545   5.511   0.983  1.00  0.00     0.022 A 
ATOM     12  C   UNL     1       1.309   6.130  -0.416  1.00  0.00     0.132 A 
BRANCH   8  13
ATOM     13  N   UNL     1       1.453   2.481   0.160  1.00  0.00    -0.234 N 
ATOM     14  O   UNL     1      -2.286  -0.309   0.027  1.00  0.00    -0.240 OA
ATOM     15  C   UNL     1      -1.105   0.012   0.075  1.00  0.00     0.346 C 
ATOM     16  N   UNL     1      -0.638   1.303   0.145  1.00  0.00    -0.199 N 
ATOM     17  C   UNL     1       0.009  -0.978   0.078  1.00  0.00     0.111 C 
ATOM     18  C   UNL     1       0.650   1.382   0.154  1.00  0.00     0.322 C 
ATOM     19  H   UNL     1      -1.229   2.090   0.184  1.00  0.00     0.316 HD
ATOM     20  S   UNL     1       1.510  -0.141   0.115  1.00  0.00     0.006 SA
ATOM     21  C   UNL     1      -0.208  -2.300   0.042  1.00  0.00     0.050 C 
ATOM     22  H   UNL     1       2.421   2.321   0.072  1.00  0.00     0.313 HD
BRANCH  21  23
ATOM     23  C   UNL     1       0.842  -3.243   0.133  1.00  0.00     0.039 A 
ATOM     24  C   UNL     1       1.843  -3.465   1.059  1.00  0.00     0.027 A 
ATOM     25  N   UNL     1       0.983  -4.178  -0.862  1.00  0.00    -0.362 N 
ATOM     26  C   UNL     1       2.630  -4.542   0.590  1.00  0.00     0.020 A 
ATOM     27  C   UNL     1       2.082  -4.958  -0.602  1.00  0.00     0.083 A 
ATOM     28  H   UNL     1       0.389  -4.274  -1.641  1.00  0.00     0.166 HD
ENDBRANCH  21  23
ENDBRANCH   8  13
BRANCH  12  29
ATOM     29  O   UNL     1       2.143   7.022  -1.031  1.00  0.00    -0.507 OA
ATOM     30  H   UNL     1       1.916   7.931  -1.062  1.00  0.00     0.293 HD
ENDBRANCH  12  29
ENDBRANCH   4   7
ENDBRANCH   2   3
ENDBRANCH   1   2
BRANCH   1  31
ATOM     31  C   UNL     1      -1.506  10.039  -3.543  1.00  0.00     0.118 C 
BRANCH  31  32
ATOM     32  N   UNL     1      -0.406  10.973  -3.751  1.00  0.00    -0.352 N 
ATOM     33  C   UNL     1      -0.044  11.721  -4.850  1.00  0.00     0.251 C 
ATOM     34  H   UNL     1       0.181  11.090  -2.969  1.00  0.00     0.163 HD
ATOM     35  O   UNL     1       1.016  12.342  -4.825  1.00  0.00    -0.269 OA
BRANCH  33  36
ATOM     36  C   UNL     1      -0.890  11.743  -6.066  1.00  0.00     0.039 A 
ATOM     37  C   UNL     1      -0.280  11.708  -7.323  1.00  0.00     0.014 A 
ATOM     38  C   UNL     1      -2.280  11.782  -5.978  1.00  0.00     0.014 A 
ATOM     39  C   UNL     1      -1.067  11.603  -8.475  1.00  0.00     0.010 A 
ATOM     40  C   UNL     1      -3.054  11.543  -7.108  1.00  0.00     0.010 A 
ATOM     41  C   UNL     1      -2.459  11.456  -8.374  1.00  0.00    -0.014 A 
BRANCH  41  42
ATOM     42  C   UNL     1      -3.318  11.230  -9.570  1.00  0.00     0.031 A 
ATOM     43  C   UNL     1      -4.436  12.190  -9.885  1.00  0.00     0.074 A 
ATOM     44  C   UNL     1      -3.142  10.128 -10.328  1.00  0.00     0.049 A 
ATOM     45  N   UNL     1      -5.356  12.116 -10.813  1.00  0.00    -0.248 NA
ATOM     46  C   UNL     1      -4.558  13.370  -9.015  1.00  0.00     0.031 C 
ATOM     47  C   UNL     1      -2.122   9.100 -10.104  1.00  0.00     0.029 A 
ATOM     48  N   UNL     1      -3.818   9.682 -11.437  1.00  0.00    -0.354 N 
ATOM     49  C   UNL     1      -6.172  13.228 -10.627  1.00  0.00     0.074 A 
ATOM     50  C   UNL     1      -5.686  13.910  -9.447  1.00  0.00     0.031 C 
ATOM     51  C   UNL     1      -2.213   8.170 -11.068  1.00  0.00     0.029 A 
ATOM     52  C   UNL     1      -3.334   8.497 -11.944  1.00  0.00     0.049 A 
ATOM     53  H   UNL     1      -4.579  10.165 -11.833  1.00  0.00     0.167 HD
ATOM     54  C   UNL     1      -7.208  13.662 -11.387  1.00  0.00     0.034 A 
ATOM     55  C   UNL     1      -3.752   7.751 -12.986  1.00  0.00     0.034 A 
ATOM     56  C   UNL     1      -7.672  12.976 -12.568  1.00  0.00     0.049 A 
ATOM     57  C   UNL     1      -4.939   8.225 -13.789  1.00  0.00     0.074 A 
ATOM     58  C   UNL     1      -8.681  13.348 -13.439  1.00  0.00     0.029 A 
ATOM     59  N   UNL     1      -7.165  11.772 -13.040  1.00  0.00    -0.354 N 
ATOM     60  N   UNL     1      -5.669   9.305 -13.626  1.00  0.00    -0.248 NA
ATOM     61  C   UNL     1      -5.353   7.384 -14.919  1.00  0.00     0.031 C 
ATOM     62  C   UNL     1      -8.838  12.332 -14.387  1.00  0.00     0.029 A 
ATOM     63  C   UNL     1      -7.865  11.370 -14.168  1.00  0.00     0.049 A 
ATOM     64  H   UNL     1      -6.418  11.276 -12.634  1.00  0.00     0.167 HD
ATOM     65  C   UNL     1      -6.604   9.289 -14.659  1.00  0.00     0.074 A 
ATOM     66  C   UNL     1      -6.334   8.102 -15.443  1.00  0.00     0.031 C 
ATOM     67  C   UNL     1      -7.590  10.179 -14.938  1.00  0.00     0.034 A 
BRANCH  54  68
ATOM     68  C   UNL     1      -7.915  14.923 -10.945  1.00  0.00     0.023 A 
ATOM     69  C   UNL     1      -7.239  16.152 -10.847  1.00  0.00     0.031 A 
ATOM     70  C   UNL     1      -9.273  14.892 -10.582  1.00  0.00     0.131 A 
ATOM     71  C   UNL     1      -7.892  17.273 -10.314  1.00  0.00     0.055 A 
ATOM     72  C   UNL     1      -9.944  16.036 -10.143  1.00  0.00     0.041 A 
ATOM     73  F   UNL     1      -9.969  13.746 -10.631  1.00  0.00    -0.206 F 
ATOM     74  C   UNL     1      -9.249  17.231  -9.989  1.00  0.00     0.022 A 
BRANCH  71  75
ATOM     75  S   UNL     1      -6.900  18.732  -9.894  1.00  0.00     0.124 S 
ATOM     76  O   UNL     1      -5.931  18.168  -8.956  1.00  0.00    -0.237 OA
ATOM     77  O   UNL     1      -6.371  19.139 -11.191  1.00  0.00    -0.237 OA
ATOM     78  O   UNL     1      -7.871  19.647  -9.299  1.00  0.00    -0.744 OA
ENDBRANCH  71  75
ENDBRANCH  54  68
BRANCH  55  79
ATOM     79  C   UNL     1      -3.058   6.476 -13.337  1.00  0.00     0.023 A 
ATOM     80  C   UNL     1      -2.421   6.320 -14.579  1.00  0.00     0.031 A 
ATOM     81  C   UNL     1      -3.064   5.377 -12.460  1.00  0.00     0.131 A 
ATOM     82  C   UNL     1      -1.864   5.080 -14.931  1.00  0.00     0.055 A 
ATOM     83  C   UNL     1      -2.453   4.165 -12.789  1.00  0.00     0.041 A 
ATOM     84  F   UNL     1      -3.658   5.468 -11.259  1.00  0.00    -0.206 F 
ATOM     85  C   UNL     1      -1.862   4.007 -14.038  1.00  0.00     0.022 A 
BRANCH  82  86
ATOM     86  S   UNL     1      -1.234   4.860 -16.617  1.00  0.00     0.124 S 
ATOM     87  O   UNL     1      -2.415   5.163 -17.417  1.00  0.00    -0.237 OA
ATOM     88  O   UNL     1      -0.154   5.840 -16.668  1.00  0.00    -0.237 OA
ATOM     89  O   UNL     1      -0.805   3.462 -16.640  1.00  0.00    -0.744 OA
ENDBRANCH  82  86
ENDBRANCH  55  79
BRANCH  67  90
ATOM     90  C   UNL     1      -8.417   9.929 -16.177  1.00  0.00     0.023 A 
ATOM     91  C   UNL     1      -9.260   8.811 -16.296  1.00  0.00     0.031 A 
ATOM     92  C   UNL     1      -8.354  10.827 -17.259  1.00  0.00     0.131 A 
ATOM     93  C   UNL     1      -9.962   8.589 -17.491  1.00  0.00     0.055 A 
ATOM     94  C   UNL     1      -9.109  10.639 -18.417  1.00  0.00     0.041 A 
ATOM     95  F   UNL     1      -7.561  11.909 -17.203  1.00  0.00    -0.206 F 
ATOM     96  C   UNL     1      -9.908   9.507 -18.544  1.00  0.00     0.022 A 
BRANCH  93  97
ATOM     97  S   UNL     1     -10.866   7.030 -17.693  1.00  0.00     0.124 S 
ATOM     98  O   UNL     1      -9.809   6.041 -17.510  1.00  0.00    -0.237 OA
ATOM     99  O   UNL     1     -11.861   7.106 -16.628  1.00  0.00    -0.237 OA
ATOM    100  O   UNL     1     -11.404   7.119 -19.050  1.00  0.00    -0.744 OA
ENDBRANCH  93  97
ENDBRANCH  67  90
ENDBRANCH  41  42
ENDBRANCH  33  36
ENDBRANCH  31  32
ENDBRANCH   1  31
TORSDOF 16
