REMARK SMILES Cc1csc2nc(C(=O)NCCCNC(=O)c3ccc(-c4c5nc(c(-c6cc(S(=O)(=O)[O-])ccc6F)c6ccc([nH]6)c(-c6cc(S(=O)(=O)[O-])ccc6F)c6nc(c(-c7cc(S(=O)(=O)[O-])ccc7F)c7ccc4[nH]7)C=C6)C=C5)cc3)cn12
REMARK SMILES IDX 14 1 15 2 16 3 13 5 12 6 11 7 10 8 8 9 9 10 7 12 1 13 2 14
REMARK SMILES IDX 3 15 81 16 4 17 5 18 80 19 6 20 17 21 18 22 79 23 19 24
REMARK SMILES IDX 78 25 20 26 21 27 22 28 72 29 23 30 77 31 71 32 73 33 24 34
REMARK SMILES IDX 76 35 70 36 69 37 25 39 57 40 37 41 56 42 38 43 41 44 55 45
REMARK SMILES IDX 74 46 39 47 40 48 54 50 75 51 42 52 26 53 27 54 35 55 28 56
REMARK SMILES IDX 34 57 36 58 33 59 29 60 30 61 31 62 32 63 58 64 59 65 67 66
REMARK SMILES IDX 60 67 66 68 68 69 65 70 61 71 62 72 63 73 64 74 43 75 44 76
REMARK SMILES IDX 52 77 45 78 51 79 53 80 50 81 46 82 47 83 48 84 49 85
REMARK H PARENT 14 4 10 11 73 38 41 49
REMARK Flexibility Score: inf
ROOT
ATOM      1  N   UNL     1       0.540 -10.684   0.907  1.00  0.00    -0.352 N 
ATOM      2  C   UNL     1       0.749 -12.054   0.873  1.00  0.00     0.251 C 
ATOM      3  O   UNL     1       0.659 -12.721   1.888  1.00  0.00    -0.269 OA
ATOM      4  H   UNL     1       0.606 -10.265   1.796  1.00  0.00     0.163 HD
ENDROOT
BRANCH   1   5
ATOM      5  C   UNL     1       0.234  -9.771  -0.203  1.00  0.00     0.118 C 
BRANCH   5   6
ATOM      6  C   UNL     1       0.082  -8.326   0.254  1.00  0.00     0.042 C 
BRANCH   6   7
ATOM      7  C   UNL     1       1.423  -7.729   0.690  1.00  0.00     0.118 C 
BRANCH   7   8
ATOM      8  N   UNL     1       2.212  -7.233  -0.428  1.00  0.00    -0.351 N 
ATOM      9  C   UNL     1       2.347  -5.949  -0.906  1.00  0.00     0.271 C 
ATOM     10  O   UNL     1       3.174  -5.737  -1.792  1.00  0.00    -0.267 OA
ATOM     11  H   UNL     1       2.726  -7.917  -0.915  1.00  0.00     0.163 HD
BRANCH   9  12
ATOM     12  C   UNL     1       1.539  -4.861  -0.341  1.00  0.00     0.148 A 
ATOM     13  C   UNL     1       1.178  -0.380  -0.138  1.00  0.00     0.066 C 
ATOM     14  C   UNL     1       0.490  -1.545   0.473  1.00  0.00     0.032 A 
ATOM     15  C   UNL     1      -0.511  -1.506   1.376  1.00  0.00     0.090 A 
ATOM     16  N   UNL     1       0.833  -2.853   0.174  1.00  0.00    -0.294 N 
ATOM     17  S   UNL     1      -1.078  -3.108   1.869  1.00  0.00    -0.105 S 
ATOM     18  C   UNL     1       0.104  -3.808   0.813  1.00  0.00     0.194 A 
ATOM     19  C   UNL     1       1.749  -3.503  -0.594  1.00  0.00     0.128 A 
ATOM     20  N   UNL     1       0.462  -5.026   0.530  1.00  0.00    -0.214 NA
ENDBRANCH   9  12
ENDBRANCH   7   8
ENDBRANCH   6   7
ENDBRANCH   5   6
ENDBRANCH   1   5
BRANCH   2  21
ATOM     21  C   UNL     1       1.082 -12.681  -0.422  1.00  0.00     0.039 A 
ATOM     22  C   UNL     1       0.548 -13.915  -0.807  1.00  0.00     0.014 A 
ATOM     23  C   UNL     1       1.923 -11.975  -1.274  1.00  0.00     0.014 A 
ATOM     24  C   UNL     1       0.795 -14.378  -2.100  1.00  0.00     0.010 A 
ATOM     25  C   UNL     1       2.015 -12.338  -2.589  1.00  0.00     0.010 A 
ATOM     26  C   UNL     1       1.510 -13.567  -2.995  1.00  0.00    -0.014 A 
BRANCH  26  27
ATOM     27  C   UNL     1       1.637 -13.897  -4.412  1.00  0.00     0.031 A 
ATOM     28  C   UNL     1       0.339 -14.086  -5.112  1.00  0.00     0.074 A 
ATOM     29  C   UNL     1       2.808 -13.774  -5.078  1.00  0.00     0.049 A 
ATOM     30  N   UNL     1      -0.124 -15.184  -5.605  1.00  0.00    -0.248 NA
ATOM     31  C   UNL     1      -0.635 -12.982  -5.127  1.00  0.00     0.031 C 
ATOM     32  C   UNL     1       4.105 -13.331  -4.550  1.00  0.00     0.029 A 
ATOM     33  N   UNL     1       3.063 -13.888  -6.410  1.00  0.00    -0.354 N 
ATOM     34  C   UNL     1      -1.326 -14.856  -6.222  1.00  0.00     0.074 A 
ATOM     35  C   UNL     1      -1.690 -13.565  -5.702  1.00  0.00     0.031 C 
ATOM     36  C   UNL     1       4.917 -12.979  -5.570  1.00  0.00     0.029 A 
ATOM     37  C   UNL     1       4.267 -13.314  -6.825  1.00  0.00     0.049 A 
ATOM     38  H   UNL     1       2.448 -14.340  -7.032  1.00  0.00     0.167 HD
ATOM     39  C   UNL     1      -1.779 -15.568  -7.292  1.00  0.00     0.034 A 
ATOM     40  C   UNL     1       4.694 -13.104  -8.102  1.00  0.00     0.034 A 
ATOM     41  C   UNL     1      -1.026 -16.795  -7.443  1.00  0.00     0.049 A 
ATOM     42  C   UNL     1       3.937 -14.057  -8.955  1.00  0.00     0.074 A 
ATOM     43  C   UNL     1      -0.789 -17.886  -6.628  1.00  0.00     0.029 A 
ATOM     44  N   UNL     1      -0.035 -16.826  -8.402  1.00  0.00    -0.354 N 
ATOM     45  N   UNL     1       4.077 -15.352  -8.860  1.00  0.00    -0.248 NA
ATOM     46  C   UNL     1       2.663 -13.620  -9.511  1.00  0.00     0.031 C 
ATOM     47  C   UNL     1       0.592 -18.186  -6.818  1.00  0.00     0.029 A 
ATOM     48  C   UNL     1       1.094 -17.346  -7.816  1.00  0.00     0.049 A 
ATOM     49  H   UNL     1      -0.121 -16.530  -9.337  1.00  0.00     0.167 HD
ATOM     50  C   UNL     1       2.783 -15.854  -8.882  1.00  0.00     0.074 A 
ATOM     51  C   UNL     1       1.964 -14.756  -9.399  1.00  0.00     0.031 C 
ATOM     52  C   UNL     1       2.451 -16.990  -8.196  1.00  0.00     0.034 A 
BRANCH  39  53
ATOM     53  C   UNL     1      -2.629 -15.025  -8.419  1.00  0.00     0.023 A 
ATOM     54  C   UNL     1      -3.021 -15.935  -9.421  1.00  0.00     0.031 A 
ATOM     55  C   UNL     1      -2.829 -13.660  -8.719  1.00  0.00     0.131 A 
ATOM     56  C   UNL     1      -3.468 -15.486 -10.674  1.00  0.00     0.055 A 
ATOM     57  C   UNL     1      -3.343 -13.219  -9.943  1.00  0.00     0.041 A 
ATOM     58  F   UNL     1      -2.453 -12.674  -7.897  1.00  0.00    -0.206 F 
ATOM     59  C   UNL     1      -3.633 -14.131 -10.943  1.00  0.00     0.022 A 
BRANCH  56  60
ATOM     60  S   UNL     1      -3.650 -16.699 -12.006  1.00  0.00     0.124 S 
ATOM     61  O   UNL     1      -2.330 -17.321 -12.019  1.00  0.00    -0.237 OA
ATOM     62  O   UNL     1      -4.747 -17.525 -11.512  1.00  0.00    -0.237 OA
ATOM     63  O   UNL     1      -3.965 -15.877 -13.172  1.00  0.00    -0.744 OA
ENDBRANCH  56  60
ENDBRANCH  39  53
BRANCH  40  64
ATOM     64  C   UNL     1       5.501 -11.960  -8.628  1.00  0.00     0.023 A 
ATOM     65  C   UNL     1       6.176 -11.979  -9.872  1.00  0.00     0.031 A 
ATOM     66  C   UNL     1       5.419 -10.704  -7.984  1.00  0.00     0.131 A 
ATOM     67  C   UNL     1       6.727 -10.786 -10.410  1.00  0.00     0.055 A 
ATOM     68  C   UNL     1       5.965  -9.533  -8.516  1.00  0.00     0.041 A 
ATOM     69  F   UNL     1       4.723 -10.550  -6.846  1.00  0.00    -0.206 F 
ATOM     70  C   UNL     1       6.614  -9.567  -9.738  1.00  0.00     0.022 A 
BRANCH  67  71
ATOM     71  S   UNL     1       7.528 -10.771 -12.052  1.00  0.00     0.124 S 
ATOM     72  O   UNL     1       8.756 -11.518 -11.809  1.00  0.00    -0.237 OA
ATOM     73  O   UNL     1       6.530 -11.417 -12.897  1.00  0.00    -0.237 OA
ATOM     74  O   UNL     1       7.723  -9.345 -12.326  1.00  0.00    -0.744 OA
ENDBRANCH  67  71
ENDBRANCH  40  64
BRANCH  52  75
ATOM     75  C   UNL     1       3.571 -17.832  -7.606  1.00  0.00     0.023 A 
ATOM     76  C   UNL     1       4.553 -17.358  -6.704  1.00  0.00     0.031 A 
ATOM     77  C   UNL     1       3.560 -19.210  -7.880  1.00  0.00     0.131 A 
ATOM     78  C   UNL     1       5.483 -18.250  -6.132  1.00  0.00     0.055 A 
ATOM     79  C   UNL     1       4.462 -20.095  -7.291  1.00  0.00     0.041 A 
ATOM     80  F   UNL     1       2.637 -19.733  -8.705  1.00  0.00    -0.206 F 
ATOM     81  C   UNL     1       5.434 -19.617  -6.420  1.00  0.00     0.022 A 
BRANCH  78  82
ATOM     82  S   UNL     1       6.795 -17.644  -5.020  1.00  0.00     0.124 S 
ATOM     83  O   UNL     1       7.357 -16.509  -5.742  1.00  0.00    -0.237 OA
ATOM     84  O   UNL     1       6.057 -17.325  -3.801  1.00  0.00    -0.237 OA
ATOM     85  O   UNL     1       7.696 -18.793  -4.900  1.00  0.00    -0.744 OA
ENDBRANCH  78  82
ENDBRANCH  52  75
ENDBRANCH  26  27
ENDBRANCH   2  21
TORSDOF 13
