REMARK SMILES Cc1ccccc1C[C@@H](CC(F)(F)F)C(=O)NCCCNC(=O)c1ccc(-c2c3nc(c(-c4cc(S(=O)(=O)[O-])ccc4F)c4ccc([nH]4)c(-c4cc(S(=O)(=O)[O-])ccc4F)c4nc(c(-c5cc(S(=O)(=O)[O-])ccc5F)c5ccc2[nH]5)C=C4)C=C3)cc1
REMARK SMILES IDX 19 1 18 2 17 3 15 4 16 5 9 7 8 8 7 9 1 10 2 11 3 12 4 13
REMARK SMILES IDX 6 14 5 15 10 16 11 17 12 18 13 19 14 20 20 21 21 22 22 23
REMARK SMILES IDX 23 25 24 26 25 27 86 28 26 29 85 30 27 31 28 32 29 33 79 34
REMARK SMILES IDX 30 35 84 36 78 37 80 38 31 39 83 40 77 41 76 42 32 44 64 45
REMARK SMILES IDX 44 46 63 47 45 48 48 49 62 50 81 51 46 52 47 53 61 55 82 56
REMARK SMILES IDX 49 57 33 58 34 59 42 60 35 61 41 62 43 63 40 64 36 65 37 66
REMARK SMILES IDX 38 67 39 68 65 69 66 70 74 71 67 72 73 73 75 74 72 75 68 76
REMARK SMILES IDX 69 77 70 78 71 79 50 80 51 81 59 82 52 83 58 84 60 85 57 86
REMARK SMILES IDX 53 87 54 88 55 89 56 90
REMARK H PARENT 17 6 21 24 80 43 48 54
REMARK Flexibility Score: inf
ROOT
ATOM      1  C   UNL     1       0.691   4.989   2.232  1.00  0.00     0.042 C 
ENDROOT
BRANCH   1   2
ATOM      2  C   UNL     1       0.074   5.492   0.937  1.00  0.00     0.117 C 
BRANCH   2   3
ATOM      3  N   UNL     1       0.984   5.410  -0.198  1.00  0.00    -0.356 N 
ATOM      4  C   UNL     1       1.145   4.485  -1.179  1.00  0.00     0.223 C 
ATOM      5  O   UNL     1       1.953   4.736  -2.078  1.00  0.00    -0.275 OA
ATOM      6  H   UNL     1       1.602   6.173  -0.266  1.00  0.00     0.163 HD
BRANCH   4   7
ATOM      7  C   UNL     1       0.371   3.167  -1.234  1.00  0.00     0.092 C 
BRANCH   7   8
ATOM      8  C   UNL     1       0.469   2.360   0.073  1.00  0.00     0.049 C 
BRANCH   8   9
ATOM      9  C   UNL     1       0.032   0.908  -0.002  1.00  0.00    -0.044 A 
ATOM     10  C   UNL     1       2.405  -0.084  -0.264  1.00  0.00     0.044 C 
ATOM     11  C   UNL     1       0.906  -0.188  -0.162  1.00  0.00    -0.048 A 
ATOM     12  C   UNL     1       0.369  -1.493  -0.172  1.00  0.00     0.004 A 
ATOM     13  C   UNL     1      -1.000  -1.719  -0.037  1.00  0.00     0.000 A 
ATOM     14  C   UNL     1      -1.344   0.649   0.151  1.00  0.00     0.004 A 
ATOM     15  C   UNL     1      -1.858  -0.643   0.125  1.00  0.00     0.000 A 
ENDBRANCH   8   9
ENDBRANCH   7   8
BRANCH   7  16
ATOM     16  C   UNL     1      -0.997   3.322  -1.931  1.00  0.00     0.129 C 
BRANCH  16  17
ATOM     17  C   UNL     1      -2.099   4.100  -1.249  1.00  0.00     0.389 C 
ATOM     18  F   UNL     1      -1.824   5.411  -1.165  1.00  0.00    -0.171 F 
ATOM     19  F   UNL     1      -3.250   3.975  -1.953  1.00  0.00    -0.171 F 
ATOM     20  F   UNL     1      -2.356   3.630  -0.010  1.00  0.00    -0.171 F 
ENDBRANCH  16  17
ENDBRANCH   7  16
ENDBRANCH   4   7
ENDBRANCH   2   3
ENDBRANCH   1   2
BRANCH   1  21
ATOM     21  C   UNL     1       1.201   6.121   3.097  1.00  0.00     0.118 C 
BRANCH  21  22
ATOM     22  N   UNL     1       0.214   6.693   4.009  1.00  0.00    -0.352 N 
ATOM     23  C   UNL     1       0.355   7.755   4.896  1.00  0.00     0.251 C 
ATOM     24  H   UNL     1      -0.673   6.268   3.993  1.00  0.00     0.163 HD
ATOM     25  O   UNL     1      -0.536   8.040   5.676  1.00  0.00    -0.269 OA
BRANCH  23  26
ATOM     26  C   UNL     1       1.567   8.607   4.800  1.00  0.00     0.039 A 
ATOM     27  C   UNL     1       1.398   9.997   4.732  1.00  0.00     0.014 A 
ATOM     28  C   UNL     1       2.796   8.037   4.507  1.00  0.00     0.014 A 
ATOM     29  C   UNL     1       2.385  10.773   4.128  1.00  0.00     0.010 A 
ATOM     30  C   UNL     1       3.681   8.763   3.750  1.00  0.00     0.010 A 
ATOM     31  C   UNL     1       3.465  10.127   3.534  1.00  0.00    -0.014 A 
BRANCH  31  32
ATOM     32  C   UNL     1       4.406  10.748   2.616  1.00  0.00     0.031 A 
ATOM     33  C   UNL     1       5.821  10.894   3.017  1.00  0.00     0.074 A 
ATOM     34  C   UNL     1       4.024  11.021   1.349  1.00  0.00     0.049 A 
ATOM     35  N   UNL     1       6.654  11.687   2.440  1.00  0.00    -0.248 NA
ATOM     36  C   UNL     1       6.415  10.165   4.134  1.00  0.00     0.031 C 
ATOM     37  C   UNL     1       4.886  11.303   0.204  1.00  0.00     0.029 A 
ATOM     38  N   UNL     1       2.740  11.325   0.899  1.00  0.00    -0.354 N 
ATOM     39  C   UNL     1       7.914  11.372   2.888  1.00  0.00     0.074 A 
ATOM     40  C   UNL     1       7.710  10.450   3.977  1.00  0.00     0.031 C 
ATOM     41  C   UNL     1       4.181  11.981  -0.714  1.00  0.00     0.029 A 
ATOM     42  C   UNL     1       2.892  12.285  -0.123  1.00  0.00     0.049 A 
ATOM     43  H   UNL     1       1.894  10.944   1.229  1.00  0.00     0.167 HD
ATOM     44  C   UNL     1       8.994  11.833   2.200  1.00  0.00     0.034 A 
ATOM     45  C   UNL     1       2.369  13.537   0.015  1.00  0.00     0.034 A 
ATOM     46  C   UNL     1       8.586  12.678   1.081  1.00  0.00     0.049 A 
ATOM     47  C   UNL     1       3.409  14.636  -0.005  1.00  0.00     0.074 A 
ATOM     48  C   UNL     1       8.462  12.461  -0.281  1.00  0.00     0.029 A 
ATOM     49  N   UNL     1       7.937  13.876   1.347  1.00  0.00    -0.354 N 
ATOM     50  N   UNL     1       4.693  14.439   0.127  1.00  0.00    -0.248 NA
ATOM     51  C   UNL     1       3.086  16.047  -0.171  1.00  0.00     0.031 C 
ATOM     52  C   UNL     1       7.707  13.533  -0.829  1.00  0.00     0.029 A 
ATOM     53  C   UNL     1       7.400  14.412   0.195  1.00  0.00     0.049 A 
ATOM     54  H   UNL     1       7.870  14.289   2.239  1.00  0.00     0.167 HD
ATOM     55  C   UNL     1       5.364  15.639   0.086  1.00  0.00     0.074 A 
ATOM     56  C   UNL     1       4.305  16.613  -0.120  1.00  0.00     0.031 C 
ATOM     57  C   UNL     1       6.725  15.704   0.241  1.00  0.00     0.034 A 
BRANCH  44  58
ATOM     58  C   UNL     1      10.397  11.310   2.376  1.00  0.00     0.023 A 
ATOM     59  C   UNL     1      11.270  11.315   1.269  1.00  0.00     0.031 A 
ATOM     60  C   UNL     1      10.931  10.781   3.567  1.00  0.00     0.131 A 
ATOM     61  C   UNL     1      12.548  10.735   1.338  1.00  0.00     0.055 A 
ATOM     62  C   UNL     1      12.183  10.153   3.623  1.00  0.00     0.041 A 
ATOM     63  F   UNL     1      10.290  10.896   4.738  1.00  0.00    -0.206 F 
ATOM     64  C   UNL     1      12.996  10.118   2.501  1.00  0.00     0.022 A 
BRANCH  61  65
ATOM     65  S   UNL     1      13.623  10.814  -0.120  1.00  0.00     0.124 S 
ATOM     66  O   UNL     1      12.842  10.093  -1.119  1.00  0.00    -0.237 OA
ATOM     67  O   UNL     1      13.764  12.252  -0.323  1.00  0.00    -0.237 OA
ATOM     68  O   UNL     1      14.840  10.133   0.321  1.00  0.00    -0.744 OA
ENDBRANCH  61  65
ENDBRANCH  44  58
BRANCH  45  69
ATOM     69  C   UNL     1       1.086  13.534   0.779  1.00  0.00     0.023 A 
ATOM     70  C   UNL     1       0.032  12.766   0.235  1.00  0.00     0.031 A 
ATOM     71  C   UNL     1       1.038  13.835   2.146  1.00  0.00     0.131 A 
ATOM     72  C   UNL     1      -0.915  12.168   1.078  1.00  0.00     0.055 A 
ATOM     73  C   UNL     1       0.042  13.296   2.973  1.00  0.00     0.041 A 
ATOM     74  F   UNL     1       2.028  14.528   2.728  1.00  0.00    -0.206 F 
ATOM     75  C   UNL     1      -0.909  12.417   2.450  1.00  0.00     0.022 A 
BRANCH  72  76
ATOM     76  S   UNL     1      -1.952  10.836   0.397  1.00  0.00     0.124 S 
ATOM     77  O   UNL     1      -3.028  11.586  -0.240  1.00  0.00    -0.237 OA
ATOM     78  O   UNL     1      -1.030  10.149  -0.505  1.00  0.00    -0.237 OA
ATOM     79  O   UNL     1      -2.333  10.061   1.575  1.00  0.00    -0.744 OA
ENDBRANCH  72  76
ENDBRANCH  45  69
BRANCH  57  80
ATOM     80  C   UNL     1       7.592  16.948   0.413  1.00  0.00     0.023 A 
ATOM     81  C   UNL     1       7.094  18.254   0.485  1.00  0.00     0.031 A 
ATOM     82  C   UNL     1       9.004  16.842   0.565  1.00  0.00     0.131 A 
ATOM     83  C   UNL     1       7.949  19.362   0.664  1.00  0.00     0.055 A 
ATOM     84  C   UNL     1       9.844  17.934   0.803  1.00  0.00     0.041 A 
ATOM     85  F   UNL     1       9.646  15.667   0.500  1.00  0.00    -0.206 F 
ATOM     86  C   UNL     1       9.319  19.210   0.848  1.00  0.00     0.022 A 
BRANCH  83  87
ATOM     87  S   UNL     1       7.223  21.021   0.605  1.00  0.00     0.124 S 
ATOM     88  O   UNL     1       6.687  21.068  -0.753  1.00  0.00    -0.237 OA
ATOM     89  O   UNL     1       6.231  20.965   1.674  1.00  0.00    -0.237 OA
ATOM     90  O   UNL     1       8.358  21.906   0.856  1.00  0.00    -0.744 OA
ENDBRANCH  83  87
ENDBRANCH  57  80
ENDBRANCH  31  32
ENDBRANCH  23  26
ENDBRANCH  21  22
ENDBRANCH   1  21
TORSDOF 17
