REMARK SMILES [NH3+][C@@H](Cc1cccc(O)c1)C(=O)NCCCNC(=O)c1ccc(-c2c3nc(c(-c4cc(S(=O)(=O)[O-])ccc4F)c4ccc([nH]4)c(-c4cc(S(=O)(=O)[O-])ccc4F)c4nc(c(-c5cc(S(=O)(=O)[O-])ccc5F)c5ccc2[nH]5)C=C4)C=C3)cc1
REMARK SMILES IDX 15 1 14 2 13 3 11 4 12 5 2 7 1 8 3 12 4 13 5 14 10 15 6 16
REMARK SMILES IDX 8 17 7 18 9 19 16 21 17 22 18 23 19 25 20 26 21 27 82 28
REMARK SMILES IDX 22 29 81 30 23 31 24 32 25 33 75 34 26 35 80 36 74 37 76 38
REMARK SMILES IDX 27 39 79 40 73 41 72 42 28 44 60 45 40 46 59 47 41 48 44 49
REMARK SMILES IDX 58 50 77 51 42 52 43 53 57 55 78 56 45 57 29 58 30 59 38 60
REMARK SMILES IDX 31 61 37 62 39 63 36 64 32 65 33 66 34 67 35 68 61 69 62 70
REMARK SMILES IDX 70 71 63 72 69 73 71 74 68 75 64 76 65 77 66 78 67 79 46 80
REMARK SMILES IDX 47 81 55 82 48 83 54 84 56 85 53 86 49 87 50 88 51 89 52 90
REMARK H PARENT 13 6 1 9 1 10 1 11 9 20 17 24 76 43 44 54
REMARK Flexibility Score: inf
ROOT
ATOM      1  C   UNL     1      -2.032   1.826   1.544  1.00  0.00     0.042 C 
ENDROOT
BRANCH   1   2
ATOM      2  C   UNL     1      -1.419   0.460   1.770  1.00  0.00     0.118 C 
BRANCH   2   3
ATOM      3  N   UNL     1      -1.733  -0.536   0.770  1.00  0.00    -0.351 N 
ATOM      4  C   UNL     1      -0.924  -1.498   0.232  1.00  0.00     0.278 C 
ATOM      5  O   UNL     1      -1.483  -2.432  -0.356  1.00  0.00    -0.268 OA
ATOM      6  H   UNL     1      -2.658  -0.520   0.431  1.00  0.00     0.163 HD
BRANCH   4   7
ATOM      7  C   UNL     1       0.624  -1.447   0.322  1.00  0.00     0.275 C 
BRANCH   7   8
ATOM      8  N   UNL     1       1.164  -0.192  -0.245  1.00  0.00    -0.347 N 
ATOM      9  H   UNL     1       2.181  -0.194  -0.169  1.00  0.00     0.345 HD
ATOM     10  H   UNL     1       0.786   0.604   0.269  1.00  0.00     0.345 HD
ATOM     11  H   UNL     1       0.897  -0.120  -1.227  1.00  0.00     0.345 HD
ENDBRANCH   7   8
BRANCH   7  12
ATOM     12  C   UNL     1       1.250  -1.947   1.649  1.00  0.00     0.111 C 
BRANCH  12  13
ATOM     13  C   UNL     1       1.081  -1.122   2.904  1.00  0.00    -0.038 A 
ATOM     14  C   UNL     1       1.746   0.105   3.069  1.00  0.00     0.004 A 
ATOM     15  C   UNL     1       0.198  -1.547   3.909  1.00  0.00     0.050 A 
ATOM     16  C   UNL     1       1.451   0.931   4.159  1.00  0.00     0.004 A 
ATOM     17  C   UNL     1      -0.085  -0.718   4.992  1.00  0.00     0.115 A 
ATOM     18  C   UNL     1       0.521   0.527   5.117  1.00  0.00     0.046 A 
BRANCH  17  19
ATOM     19  O   UNL     1      -1.012  -1.149   5.893  1.00  0.00    -0.508 OA
ATOM     20  H   UNL     1      -1.228  -0.617   6.634  1.00  0.00     0.293 HD
ENDBRANCH  17  19
ENDBRANCH  12  13
ENDBRANCH   7  12
ENDBRANCH   4   7
ENDBRANCH   2   3
ENDBRANCH   1   2
BRANCH   1  21
ATOM     21  C   UNL     1      -3.511   1.900   1.883  1.00  0.00     0.118 C 
BRANCH  21  22
ATOM     22  N   UNL     1      -3.790   1.647   3.295  1.00  0.00    -0.352 N 
ATOM     23  C   UNL     1      -4.133   2.484   4.333  1.00  0.00     0.251 C 
ATOM     24  H   UNL     1      -3.720   0.699   3.552  1.00  0.00     0.163 HD
ATOM     25  O   UNL     1      -4.112   2.041   5.477  1.00  0.00    -0.269 OA
BRANCH  23  26
ATOM     26  C   UNL     1      -4.476   3.908   4.096  1.00  0.00     0.039 A 
ATOM     27  C   UNL     1      -4.103   4.862   5.049  1.00  0.00     0.014 A 
ATOM     28  C   UNL     1      -5.162   4.318   2.955  1.00  0.00     0.014 A 
ATOM     29  C   UNL     1      -4.314   6.223   4.798  1.00  0.00     0.010 A 
ATOM     30  C   UNL     1      -5.263   5.672   2.650  1.00  0.00     0.010 A 
ATOM     31  C   UNL     1      -4.833   6.644   3.564  1.00  0.00    -0.014 A 
BRANCH  31  32
ATOM     32  C   UNL     1      -4.923   8.083   3.195  1.00  0.00     0.031 A 
ATOM     33  C   UNL     1      -6.253   8.688   2.826  1.00  0.00     0.074 A 
ATOM     34  C   UNL     1      -3.796   8.817   3.092  1.00  0.00     0.049 A 
ATOM     35  N   UNL     1      -6.519   9.871   2.336  1.00  0.00    -0.248 NA
ATOM     36  C   UNL     1      -7.436   7.829   2.994  1.00  0.00     0.031 C 
ATOM     37  C   UNL     1      -2.441   8.333   3.371  1.00  0.00     0.029 A 
ATOM     38  N   UNL     1      -3.605  10.121   2.707  1.00  0.00    -0.354 N 
ATOM     39  C   UNL     1      -7.892   9.890   2.111  1.00  0.00     0.074 A 
ATOM     40  C   UNL     1      -8.389   8.576   2.460  1.00  0.00     0.031 C 
ATOM     41  C   UNL     1      -1.566   9.332   3.175  1.00  0.00     0.029 A 
ATOM     42  C   UNL     1      -2.284  10.509   2.701  1.00  0.00     0.049 A 
ATOM     43  H   UNL     1      -4.344  10.723   2.459  1.00  0.00     0.167 HD
ATOM     44  C   UNL     1      -8.669  10.914   1.678  1.00  0.00     0.034 A 
ATOM     45  C   UNL     1      -1.712  11.673   2.334  1.00  0.00     0.034 A 
ATOM     46  C   UNL     1      -8.159  12.226   1.360  1.00  0.00     0.049 A 
ATOM     47  C   UNL     1      -2.593  12.792   1.842  1.00  0.00     0.074 A 
ATOM     48  C   UNL     1      -8.864  13.357   0.984  1.00  0.00     0.029 A 
ATOM     49  N   UNL     1      -6.817  12.583   1.376  1.00  0.00    -0.354 N 
ATOM     50  N   UNL     1      -3.896  12.808   1.685  1.00  0.00    -0.248 NA
ATOM     51  C   UNL     1      -1.926  14.050   1.484  1.00  0.00     0.031 C 
ATOM     52  C   UNL     1      -7.944  14.376   0.710  1.00  0.00     0.029 A 
ATOM     53  C   UNL     1      -6.670  13.905   0.984  1.00  0.00     0.049 A 
ATOM     54  H   UNL     1      -6.077  11.985   1.628  1.00  0.00     0.167 HD
ATOM     55  C   UNL     1      -4.206  14.087   1.229  1.00  0.00     0.074 A 
ATOM     56  C   UNL     1      -2.956  14.816   1.159  1.00  0.00     0.031 C 
ATOM     57  C   UNL     1      -5.414  14.612   0.900  1.00  0.00     0.034 A 
BRANCH  44  58
ATOM     58  C   UNL     1     -10.145  10.642   1.507  1.00  0.00     0.023 A 
ATOM     59  C   UNL     1     -10.961  10.283   2.595  1.00  0.00     0.031 A 
ATOM     60  C   UNL     1     -10.741  10.713   0.235  1.00  0.00     0.131 A 
ATOM     61  C   UNL     1     -12.300   9.926   2.380  1.00  0.00     0.055 A 
ATOM     62  C   UNL     1     -12.098  10.440   0.041  1.00  0.00     0.041 A 
ATOM     63  F   UNL     1     -10.012  11.033  -0.845  1.00  0.00    -0.206 F 
ATOM     64  C   UNL     1     -12.882  10.027   1.114  1.00  0.00     0.022 A 
BRANCH  61  65
ATOM     65  S   UNL     1     -13.228   9.185   3.751  1.00  0.00     0.124 S 
ATOM     66  O   UNL     1     -12.416   8.008   4.053  1.00  0.00    -0.237 OA
ATOM     67  O   UNL     1     -13.212  10.246   4.752  1.00  0.00    -0.237 OA
ATOM     68  O   UNL     1     -14.535   8.897   3.165  1.00  0.00    -0.744 OA
ENDBRANCH  61  65
ENDBRANCH  44  58
BRANCH  45  69
ATOM     69  C   UNL     1      -0.232  11.842   2.398  1.00  0.00     0.023 A 
ATOM     70  C   UNL     1       0.351  12.766   3.279  1.00  0.00     0.031 A 
ATOM     71  C   UNL     1       0.620  11.109   1.552  1.00  0.00     0.131 A 
ATOM     72  C   UNL     1       1.740  12.967   3.264  1.00  0.00     0.055 A 
ATOM     73  C   UNL     1       2.006  11.276   1.577  1.00  0.00     0.041 A 
ATOM     74  F   UNL     1       0.116  10.206   0.696  1.00  0.00    -0.206 F 
ATOM     75  C   UNL     1       2.573  12.219   2.428  1.00  0.00     0.022 A 
BRANCH  72  76
ATOM     76  S   UNL     1       2.438  14.281   4.301  1.00  0.00     0.124 S 
ATOM     77  O   UNL     1       1.730  15.457   3.808  1.00  0.00    -0.237 OA
ATOM     78  O   UNL     1       2.079  13.830   5.642  1.00  0.00    -0.237 OA
ATOM     79  O   UNL     1       3.866  14.236   3.992  1.00  0.00    -0.744 OA
ENDBRANCH  72  76
ENDBRANCH  45  69
BRANCH  57  80
ATOM     80  C   UNL     1      -5.433  16.056   0.465  1.00  0.00     0.023 A 
ATOM     81  C   UNL     1      -4.841  16.470  -0.741  1.00  0.00     0.031 A 
ATOM     82  C   UNL     1      -6.035  17.033   1.277  1.00  0.00     0.131 A 
ATOM     83  C   UNL     1      -4.816  17.832  -1.075  1.00  0.00     0.055 A 
ATOM     84  C   UNL     1      -6.061  18.379   0.910  1.00  0.00     0.041 A 
ATOM     85  F   UNL     1      -6.612  16.693   2.441  1.00  0.00    -0.206 F 
ATOM     86  C   UNL     1      -5.437  18.787  -0.266  1.00  0.00     0.022 A 
BRANCH  83  87
ATOM     87  S   UNL     1      -3.882  18.352  -2.540  1.00  0.00     0.124 S 
ATOM     88  O   UNL     1      -2.536  17.887  -2.221  1.00  0.00    -0.237 OA
ATOM     89  O   UNL     1      -4.564  17.639  -3.615  1.00  0.00    -0.237 OA
ATOM     90  O   UNL     1      -4.049  19.804  -2.556  1.00  0.00    -0.744 OA
ENDBRANCH  83  87
ENDBRANCH  57  80
ENDBRANCH  31  32
ENDBRANCH  23  26
ENDBRANCH  21  22
ENDBRANCH   1  21
TORSDOF 17
