REMARK SMILES O=C(NCCCNC(=O)c1cc(N/N=C/C2=c3ccccc3=NC2)ccc1Cl)c1ccc(-c2c3nc(c(-c4cc(S(=O)(=O)[O-])ccc4F)c4ccc([nH]4)c(-c4cc(S(=O)(=O)[O-])ccc4F)c4nc(c(-c5cc(S(=O)(=O)[O-])ccc5F)c5ccc2[nH]5)C=C4)C=C3)cc1
REMARK SMILES IDX 5 1 4 2 3 3 1 4 2 5 29 7 30 8 91 9 31 10 90 11 32 12 33 13
REMARK SMILES IDX 34 14 84 15 35 16 89 17 83 18 85 19 36 20 88 21 82 22 81 23
REMARK SMILES IDX 37 25 69 26 49 27 68 28 50 29 53 30 67 31 86 32 51 33 52 34
REMARK SMILES IDX 66 36 87 37 54 38 38 39 39 40 47 41 40 42 46 43 48 44 45 45
REMARK SMILES IDX 41 46 42 47 43 48 44 49 70 50 71 51 79 52 72 53 78 54 80 55
REMARK SMILES IDX 77 56 73 57 74 58 75 59 76 60 55 61 56 62 64 63 57 64 63 65
REMARK SMILES IDX 65 66 62 67 58 68 59 69 60 70 61 71 6 72 7 73 8 74 9 76
REMARK SMILES IDX 10 77 11 78 27 79 12 80 26 81 28 82 25 83 13 84 14 86 15 87
REMARK SMILES IDX 16 88 17 89 24 90 18 91 22 92 23 93 19 94 21 95 20 96
REMARK H PARENT 3 6 85 24 53 35 7 75 13 85
REMARK Flexibility Score: inf
ROOT
ATOM      1  C   UNL     1       4.918  -1.512   1.815  1.00  0.00     0.042 C 
ENDROOT
BRANCH   1   2
ATOM      2  C   UNL     1       4.522  -1.252   0.368  1.00  0.00     0.118 C 
BRANCH   2   3
ATOM      3  N   UNL     1       3.082  -1.117   0.202  1.00  0.00    -0.352 N 
ATOM      4  O   UNL     1       1.094  -0.092   0.067  1.00  0.00    -0.269 OA
ATOM      5  C   UNL     1       2.312  -0.017  -0.077  1.00  0.00     0.251 C 
ATOM      6  H   UNL     1       2.577  -1.956   0.306  1.00  0.00     0.163 HD
BRANCH   5   7
ATOM      7  C   UNL     1       2.921   1.244  -0.554  1.00  0.00     0.039 A 
ATOM      8  C   UNL     1       2.345   2.461  -0.171  1.00  0.00     0.014 A 
ATOM      9  C   UNL     1       3.990   1.238  -1.452  1.00  0.00     0.014 A 
ATOM     10  C   UNL     1       2.846   3.663  -0.680  1.00  0.00     0.010 A 
ATOM     11  C   UNL     1       4.548   2.436  -1.884  1.00  0.00     0.010 A 
ATOM     12  C   UNL     1       3.952   3.659  -1.541  1.00  0.00    -0.014 A 
BRANCH  12  13
ATOM     13  C   UNL     1       4.435   4.893  -2.212  1.00  0.00     0.031 A 
ATOM     14  C   UNL     1       4.352   4.978  -3.714  1.00  0.00     0.074 A 
ATOM     15  C   UNL     1       4.997   5.890  -1.503  1.00  0.00     0.049 A 
ATOM     16  N   UNL     1       4.868   5.866  -4.520  1.00  0.00    -0.248 NA
ATOM     17  C   UNL     1       3.617   3.901  -4.403  1.00  0.00     0.031 C 
ATOM     18  C   UNL     1       5.133   5.914  -0.048  1.00  0.00     0.029 A 
ATOM     19  N   UNL     1       5.578   7.066  -1.912  1.00  0.00    -0.354 N 
ATOM     20  C   UNL     1       4.550   5.438  -5.805  1.00  0.00     0.074 A 
ATOM     21  C   UNL     1       3.842   4.187  -5.677  1.00  0.00     0.031 C 
ATOM     22  C   UNL     1       5.753   7.048   0.315  1.00  0.00     0.029 A 
ATOM     23  C   UNL     1       6.112   7.807  -0.883  1.00  0.00     0.049 A 
ATOM     24  H   UNL     1       5.608   7.352  -2.854  1.00  0.00     0.167 HD
ATOM     25  C   UNL     1       4.803   6.053  -6.982  1.00  0.00     0.034 A 
ATOM     26  C   UNL     1       6.832   8.950  -0.903  1.00  0.00     0.034 A 
ATOM     27  C   UNL     1       5.452   7.331  -7.085  1.00  0.00     0.049 A 
ATOM     28  C   UNL     1       7.104   9.617  -2.232  1.00  0.00     0.074 A 
ATOM     29  C   UNL     1       5.699   8.067  -8.229  1.00  0.00     0.029 A 
ATOM     30  N   UNL     1       5.936   8.070  -6.017  1.00  0.00    -0.354 N 
ATOM     31  N   UNL     1       6.745   9.230  -3.434  1.00  0.00    -0.248 NA
ATOM     32  C   UNL     1       7.867  10.874  -2.217  1.00  0.00     0.031 C 
ATOM     33  C   UNL     1       6.391   9.217  -7.862  1.00  0.00     0.029 A 
ATOM     34  C   UNL     1       6.499   9.245  -6.480  1.00  0.00     0.049 A 
ATOM     35  H   UNL     1       5.885   7.800  -5.072  1.00  0.00     0.167 HD
ATOM     36  C   UNL     1       7.201  10.213  -4.308  1.00  0.00     0.074 A 
ATOM     37  C   UNL     1       7.853  11.220  -3.499  1.00  0.00     0.031 C 
ATOM     38  C   UNL     1       7.094  10.271  -5.659  1.00  0.00     0.034 A 
BRANCH  25  39
ATOM     39  C   UNL     1       4.358   5.401  -8.266  1.00  0.00     0.023 A 
ATOM     40  C   UNL     1       5.314   5.059  -9.240  1.00  0.00     0.031 A 
ATOM     41  C   UNL     1       2.997   5.288  -8.598  1.00  0.00     0.131 A 
ATOM     42  C   UNL     1       4.896   4.681 -10.521  1.00  0.00     0.055 A 
ATOM     43  C   UNL     1       2.585   4.860  -9.860  1.00  0.00     0.041 A 
ATOM     44  F   UNL     1       2.048   5.602  -7.701  1.00  0.00    -0.206 F 
ATOM     45  C   UNL     1       3.537   4.572 -10.834  1.00  0.00     0.022 A 
BRANCH  42  46
ATOM     46  S   UNL     1       6.097   4.401 -11.851  1.00  0.00     0.124 S 
ATOM     47  O   UNL     1       5.756   3.047 -12.284  1.00  0.00    -0.237 OA
ATOM     48  O   UNL     1       5.759   5.462 -12.794  1.00  0.00    -0.237 OA
ATOM     49  O   UNL     1       7.390   4.529 -11.188  1.00  0.00    -0.744 OA
ENDBRANCH  42  46
ENDBRANCH  25  39
BRANCH  26  50
ATOM     50  C   UNL     1       7.308   9.540   0.385  1.00  0.00     0.023 A 
ATOM     51  C   UNL     1       8.171   8.825   1.236  1.00  0.00     0.031 A 
ATOM     52  C   UNL     1       6.839  10.790   0.826  1.00  0.00     0.131 A 
ATOM     53  C   UNL     1       8.486   9.333   2.503  1.00  0.00     0.055 A 
ATOM     54  C   UNL     1       7.217  11.328   2.058  1.00  0.00     0.041 A 
ATOM     55  F   UNL     1       6.002  11.507   0.061  1.00  0.00    -0.206 F 
ATOM     56  C   UNL     1       8.031  10.590   2.912  1.00  0.00     0.022 A 
BRANCH  53  57
ATOM     57  S   UNL     1       9.379   8.319   3.715  1.00  0.00     0.124 S 
ATOM     58  O   UNL     1      10.593   9.100   3.930  1.00  0.00    -0.237 OA
ATOM     59  O   UNL     1       8.439   8.292   4.834  1.00  0.00    -0.237 OA
ATOM     60  O   UNL     1       9.560   7.043   3.030  1.00  0.00    -0.744 OA
ENDBRANCH  53  57
ENDBRANCH  26  50
BRANCH  38  61
ATOM     61  C   UNL     1       7.640  11.468  -6.399  1.00  0.00     0.023 A 
ATOM     62  C   UNL     1       6.761  12.268  -7.158  1.00  0.00     0.031 A 
ATOM     63  C   UNL     1       9.021  11.665  -6.551  1.00  0.00     0.131 A 
ATOM     64  C   UNL     1       7.276  13.173  -8.093  1.00  0.00     0.055 A 
ATOM     65  C   UNL     1       9.529  12.611  -7.444  1.00  0.00     0.041 A 
ATOM     66  F   UNL     1       9.897  10.917  -5.860  1.00  0.00    -0.206 F 
ATOM     67  C   UNL     1       8.656  13.353  -8.236  1.00  0.00     0.022 A 
BRANCH  64  68
ATOM     68  S   UNL     1       6.181  14.050  -9.243  1.00  0.00     0.124 S 
ATOM     69  O   UNL     1       6.510  15.447  -8.968  1.00  0.00    -0.237 OA
ATOM     70  O   UNL     1       6.630  13.547 -10.538  1.00  0.00    -0.237 OA
ATOM     71  O   UNL     1       4.841  13.639  -8.838  1.00  0.00    -0.744 OA
ENDBRANCH  64  68
ENDBRANCH  38  61
ENDBRANCH  12  13
ENDBRANCH   5   7
ENDBRANCH   2   3
ENDBRANCH   1   2
BRANCH   1  72
ATOM     72  C   UNL     1       4.271  -2.746   2.426  1.00  0.00     0.118 C 
BRANCH  72  73
ATOM     73  N   UNL     1       4.591  -3.963   1.698  1.00  0.00    -0.352 N 
ATOM     74  C   UNL     1       5.257  -5.076   2.134  1.00  0.00     0.252 C 
ATOM     75  H   UNL     1       4.286  -3.990   0.762  1.00  0.00     0.163 HD
ATOM     76  O   UNL     1       5.507  -6.001   1.369  1.00  0.00    -0.269 OA
BRANCH  74  77
ATOM     77  C   UNL     1       5.745  -5.138   3.517  1.00  0.00     0.060 A 
ATOM     78  C   UNL     1       7.135  -5.157   3.679  1.00  0.00     0.043 A 
ATOM     79  C   UNL     1       4.901  -5.241   4.622  1.00  0.00     0.053 A 
ATOM     80  C   UNL     1       7.709  -5.266   4.948  1.00  0.00     0.057 A 
ATOM     81  C   UNL     1       5.459  -5.315   5.898  1.00  0.00     0.023 A 
ATOM     82  Cl  UNL     1       3.182  -5.317   4.484  1.00  0.00    -0.083 Cl
ATOM     83  C   UNL     1       6.851  -5.342   6.055  1.00  0.00     0.029 A 
BRANCH  80  84
ATOM     84  N   UNL     1       9.098  -5.415   5.141  1.00  0.00    -0.278 N 
ATOM     85  H   UNL     1       9.433  -5.668   6.031  1.00  0.00     0.190 HD
BRANCH  84  86
ATOM     86  N   UNL     1       9.990  -5.218   4.131  1.00  0.00    -0.183 NA
ATOM     87  C   UNL     1      10.094  -6.206   3.302  1.00  0.00     0.139 C 
BRANCH  87  88
ATOM     88  C   UNL     1      11.067  -6.237   2.209  1.00  0.00     0.003 C 
ATOM     89  C   UNL     1      11.132  -5.453   1.141  1.00  0.00     0.006 A 
ATOM     90  C   UNL     1      12.118  -7.288   2.195  1.00  0.00     0.180 C 
ATOM     91  C   UNL     1      10.405  -4.341   0.621  1.00  0.00     0.011 A 
ATOM     92  C   UNL     1      12.254  -6.061   0.398  1.00  0.00     0.065 A 
ATOM     93  N   UNL     1      12.855  -7.088   0.923  1.00  0.00    -0.280 NA
ATOM     94  C   UNL     1      10.755  -3.848  -0.580  1.00  0.00     0.001 A 
ATOM     95  C   UNL     1      12.582  -5.458  -0.911  1.00  0.00     0.028 A 
ATOM     96  C   UNL     1      11.849  -4.420  -1.349  1.00  0.00     0.002 A 
ENDBRANCH  87  88
ENDBRANCH  84  86
ENDBRANCH  80  84
ENDBRANCH  74  77
ENDBRANCH  72  73
ENDBRANCH   1  72
TORSDOF 16
