REMARK SMILES CCc1ccc(S(=O)(=O)N2CCC3(CC2)NC(=O)C[C@H]3C(=O)NCCCNC(=O)c2ccc(-c3c4nc(c(-c5cc(S(=O)(=O)[O-])ccc5F)c5ccc([nH]5)c(-c5cc(S(=O)(=O)[O-])ccc5F)c5nc(c(-c6cc(S(=O)(=O)[O-])ccc6F)c6ccc3[nH]6)C=C5)C=C4)cc2)s1
REMARK SMILES IDX 25 1 24 2 23 3 21 4 22 5 20 7 10 8 11 9 15 10 12 11 14 12
REMARK SMILES IDX 13 13 16 14 17 15 19 17 18 18 7 19 8 20 9 21 6 22 3 23 4 24
REMARK SMILES IDX 93 25 5 26 2 27 1 28 26 29 27 30 28 31 29 33 30 34 31 35
REMARK SMILES IDX 92 36 32 37 91 38 33 39 34 40 35 41 85 42 36 43 90 44 84 45
REMARK SMILES IDX 86 46 37 47 89 48 83 49 82 50 38 52 70 53 50 54 69 55 51 56
REMARK SMILES IDX 54 57 68 58 87 59 52 60 53 61 67 63 88 64 55 65 39 66 40 67
REMARK SMILES IDX 48 68 41 69 47 70 49 71 46 72 42 73 43 74 44 75 45 76 71 77
REMARK SMILES IDX 72 78 80 79 73 80 79 81 81 82 78 83 74 84 75 85 76 86 77 87
REMARK SMILES IDX 56 88 57 89 65 90 58 91 64 92 66 93 63 94 59 95 60 96 61 97
REMARK SMILES IDX 62 98
REMARK H PARENT 23 6 16 16 27 32 86 51 54 62
REMARK Flexibility Score: inf
ROOT
ATOM      1  C   UNL     1       5.651   2.433  -4.643  1.00  0.00     0.042 C 
ENDROOT
BRANCH   1   2
ATOM      2  C   UNL     1       5.449   3.242  -5.927  1.00  0.00     0.117 C 
BRANCH   2   3
ATOM      3  N   UNL     1       5.645   2.478  -7.155  1.00  0.00    -0.356 N 
ATOM      4  C   UNL     1       4.832   1.924  -8.089  1.00  0.00     0.226 C 
ATOM      5  O   UNL     1       5.401   1.385  -9.047  1.00  0.00    -0.275 OA
ATOM      6  H   UNL     1       6.597   2.330  -7.355  1.00  0.00     0.163 HD
BRANCH   4   7
ATOM      7  C   UNL     1       3.302   1.885  -8.052  1.00  0.00     0.113 C 
ATOM      8  N   UNL     1       1.773  -1.628  -6.561  1.00  0.00    -0.197 NA
ATOM      9  C   UNL     1       0.995  -0.843  -7.511  1.00  0.00     0.105 C 
ATOM     10  C   UNL     1       3.208  -1.368  -6.633  1.00  0.00     0.105 C 
ATOM     11  C   UNL     1       1.185   0.653  -7.283  1.00  0.00     0.046 C 
ATOM     12  C   UNL     1       3.484   0.059  -6.193  1.00  0.00     0.046 C 
ATOM     13  C   UNL     1       2.620   1.155  -6.872  1.00  0.00     0.055 C 
ATOM     14  N   UNL     1       2.408   2.299  -5.984  1.00  0.00    -0.350 N 
ATOM     15  C   UNL     1       2.252   3.493  -6.652  1.00  0.00     0.221 C 
ATOM     16  H   UNL     1       2.379   2.223  -5.003  1.00  0.00     0.164 HD
ATOM     17  C   UNL     1       2.688   3.294  -8.073  1.00  0.00     0.116 C 
ATOM     18  O   UNL     1       1.857   4.526  -6.146  1.00  0.00    -0.275 OA
BRANCH   8  19
ATOM     19  S   UNL     1       1.078  -2.454  -5.251  1.00  0.00     0.252 S 
ATOM     20  O   UNL     1       2.040  -3.415  -4.778  1.00  0.00    -0.206 OA
ATOM     21  O   UNL     1      -0.269  -2.835  -5.644  1.00  0.00    -0.206 OA
BRANCH  19  22
ATOM     22  C   UNL     1       0.838  -1.319  -3.890  1.00  0.00     0.135 A 
ATOM     23  C   UNL     1       0.319  -0.397  -1.643  1.00  0.00     0.006 A 
ATOM     24  C   UNL     1       0.739   0.579  -2.517  1.00  0.00     0.017 A 
ATOM     25  S   UNL     1       0.308  -1.950  -2.386  1.00  0.00    -0.127 S 
ATOM     26  C   UNL     1       0.970   0.047  -3.801  1.00  0.00     0.034 A 
BRANCH  23  27
ATOM     27  C   UNL     1      -0.116  -0.173  -0.227  1.00  0.00     0.043 C 
ATOM     28  C   UNL     1       0.928  -0.606   0.784  1.00  0.00     0.010 C 
ENDBRANCH  23  27
ENDBRANCH  19  22
ENDBRANCH   8  19
ENDBRANCH   4   7
ENDBRANCH   2   3
ENDBRANCH   1   2
BRANCH   1  29
ATOM     29  C   UNL     1       7.080   1.943  -4.423  1.00  0.00     0.118 C 
BRANCH  29  30
ATOM     30  N   UNL     1       7.998   3.051  -4.225  1.00  0.00    -0.352 N 
ATOM     31  C   UNL     1       8.782   3.384  -3.150  1.00  0.00     0.251 C 
ATOM     32  H   UNL     1       8.069   3.666  -4.990  1.00  0.00     0.163 HD
ATOM     33  O   UNL     1       9.241   4.523  -3.102  1.00  0.00    -0.269 OA
BRANCH  31  34
ATOM     34  C   UNL     1       9.084   2.416  -2.068  1.00  0.00     0.039 A 
ATOM     35  C   UNL     1       9.283   2.912  -0.775  1.00  0.00     0.014 A 
ATOM     36  C   UNL     1       9.273   1.053  -2.318  1.00  0.00     0.014 A 
ATOM     37  C   UNL     1       9.648   2.048   0.260  1.00  0.00     0.010 A 
ATOM     38  C   UNL     1       9.563   0.179  -1.268  1.00  0.00     0.010 A 
ATOM     39  C   UNL     1       9.776   0.669   0.029  1.00  0.00    -0.014 A 
BRANCH  39  40
ATOM     40  C   UNL     1      10.155  -0.248   1.138  1.00  0.00     0.031 A 
ATOM     41  C   UNL     1      11.464  -0.993   1.104  1.00  0.00     0.074 A 
ATOM     42  C   UNL     1       9.310  -0.414   2.175  1.00  0.00     0.049 A 
ATOM     43  N   UNL     1      11.976  -1.811   1.990  1.00  0.00    -0.248 NA
ATOM     44  C   UNL     1      12.294  -0.819  -0.097  1.00  0.00     0.031 C 
ATOM     45  C   UNL     1       7.990   0.210   2.294  1.00  0.00     0.029 A 
ATOM     46  N   UNL     1       9.434  -1.148   3.327  1.00  0.00    -0.354 N 
ATOM     47  C   UNL     1      13.181  -2.254   1.451  1.00  0.00     0.074 A 
ATOM     48  C   UNL     1      13.287  -1.665   0.133  1.00  0.00     0.031 C 
ATOM     49  C   UNL     1       7.446  -0.134   3.472  1.00  0.00     0.029 A 
ATOM     50  C   UNL     1       8.359  -1.028   4.177  1.00  0.00     0.049 A 
ATOM     51  H   UNL     1      10.219  -1.708   3.527  1.00  0.00     0.167 HD
ATOM     52  C   UNL     1      14.121  -3.056   2.012  1.00  0.00     0.034 A 
ATOM     53  C   UNL     1       8.136  -1.570   5.390  1.00  0.00     0.034 A 
ATOM     54  C   UNL     1      14.004  -3.627   3.333  1.00  0.00     0.049 A 
ATOM     55  C   UNL     1       9.204  -2.439   6.002  1.00  0.00     0.074 A 
ATOM     56  C   UNL     1      14.912  -4.415   4.020  1.00  0.00     0.029 A 
ATOM     57  N   UNL     1      12.905  -3.473   4.171  1.00  0.00    -0.354 N 
ATOM     58  N   UNL     1      10.365  -2.800   5.502  1.00  0.00    -0.248 NA
ATOM     59  C   UNL     1       8.941  -2.953   7.351  1.00  0.00     0.031 C 
ATOM     60  C   UNL     1      14.339  -4.786   5.243  1.00  0.00     0.029 A 
ATOM     61  C   UNL     1      13.104  -4.168   5.356  1.00  0.00     0.049 A 
ATOM     62  H   UNL     1      12.102  -2.946   3.955  1.00  0.00     0.167 HD
ATOM     63  C   UNL     1      10.980  -3.563   6.491  1.00  0.00     0.074 A 
ATOM     64  C   UNL     1      10.074  -3.581   7.622  1.00  0.00     0.031 C 
ATOM     65  C   UNL     1      12.183  -4.195   6.468  1.00  0.00     0.034 A 
BRANCH  52  66
ATOM     66  C   UNL     1      15.346  -3.376   1.183  1.00  0.00     0.023 A 
ATOM     67  C   UNL     1      16.235  -2.371   0.760  1.00  0.00     0.031 A 
ATOM     68  C   UNL     1      15.616  -4.697   0.785  1.00  0.00     0.131 A 
ATOM     69  C   UNL     1      17.299  -2.689  -0.099  1.00  0.00     0.055 A 
ATOM     70  C   UNL     1      16.725  -5.020  -0.001  1.00  0.00     0.041 A 
ATOM     71  F   UNL     1      14.796  -5.699   1.140  1.00  0.00    -0.206 F 
ATOM     72  C   UNL     1      17.566  -4.011  -0.461  1.00  0.00     0.022 A 
BRANCH  69  73
ATOM     73  S   UNL     1      18.239  -1.333  -0.854  1.00  0.00     0.124 S 
ATOM     74  O   UNL     1      17.191  -0.615  -1.575  1.00  0.00    -0.237 OA
ATOM     75  O   UNL     1      18.797  -0.651   0.308  1.00  0.00    -0.237 OA
ATOM     76  O   UNL     1      19.211  -2.020  -1.702  1.00  0.00    -0.744 OA
ENDBRANCH  69  73
ENDBRANCH  52  66
BRANCH  53  77
ATOM     77  C   UNL     1       6.864  -1.298   6.118  1.00  0.00     0.023 A 
ATOM     78  C   UNL     1       6.860  -0.587   7.329  1.00  0.00     0.031 A 
ATOM     79  C   UNL     1       5.636  -1.779   5.632  1.00  0.00     0.131 A 
ATOM     80  C   UNL     1       5.662  -0.421   8.040  1.00  0.00     0.055 A 
ATOM     81  C   UNL     1       4.438  -1.566   6.317  1.00  0.00     0.041 A 
ATOM     82  F   UNL     1       5.581  -2.455   4.473  1.00  0.00    -0.206 F 
ATOM     83  C   UNL     1       4.449  -0.896   7.536  1.00  0.00     0.022 A 
BRANCH  80  84
ATOM     84  S   UNL     1       5.724   0.355   9.678  1.00  0.00     0.124 S 
ATOM     85  O   UNL     1       6.657  -0.513  10.385  1.00  0.00    -0.237 OA
ATOM     86  O   UNL     1       6.208   1.694   9.358  1.00  0.00    -0.237 OA
ATOM     87  O   UNL     1       4.338   0.290  10.137  1.00  0.00    -0.744 OA
ENDBRANCH  80  84
ENDBRANCH  53  77
BRANCH  65  88
ATOM     88  C   UNL     1      12.586  -4.926   7.726  1.00  0.00     0.023 A 
ATOM     89  C   UNL     1      11.862  -6.036   8.198  1.00  0.00     0.031 A 
ATOM     90  C   UNL     1      13.674  -4.474   8.493  1.00  0.00     0.131 A 
ATOM     91  C   UNL     1      12.181  -6.601   9.441  1.00  0.00     0.055 A 
ATOM     92  C   UNL     1      14.031  -5.086   9.695  1.00  0.00     0.041 A 
ATOM     93  F   UNL     1      14.402  -3.418   8.093  1.00  0.00    -0.206 F 
ATOM     94  C   UNL     1      13.270  -6.144  10.186  1.00  0.00     0.022 A 
BRANCH  91  95
ATOM     95  S   UNL     1      11.066  -7.853  10.136  1.00  0.00     0.124 S 
ATOM     96  O   UNL     1       9.781  -7.161  10.113  1.00  0.00    -0.237 OA
ATOM     97  O   UNL     1      11.213  -8.957   9.194  1.00  0.00    -0.237 OA
ATOM     98  O   UNL     1      11.614  -8.098  11.469  1.00  0.00    -0.744 OA
ENDBRANCH  91  95
ENDBRANCH  65  88
ENDBRANCH  39  40
ENDBRANCH  31  34
ENDBRANCH  29  30
ENDBRANCH   1  29
TORSDOF 16
