REMARK SMILES CC(C)c1ccc(NC(=O)C[C@H]2SC[C@@H](C(=O)NCCCNC(=O)c3ccc(-c4c5nc(c(-c6cc(S(=O)(=O)[O-])ccc6F)c6ccc([nH]6)c(-c6cc(S(=O)(=O)[O-])ccc6F)c6nc(c(-c7cc(S(=O)(=O)[O-])ccc7F)c7ccc4[nH]7)C=C6)C=C5)cc3)NC2=O)cc1
REMARK SMILES IDX 19 1 18 2 16 3 17 4 15 6 12 7 13 8 89 9 14 10 88 11 90 12
REMARK SMILES IDX 11 14 9 15 8 16 10 18 7 19 4 20 5 21 92 22 6 23 91 24 2 25
REMARK SMILES IDX 1 26 3 27 20 28 21 29 22 30 23 31 24 33 25 34 26 35 87 36
REMARK SMILES IDX 27 37 86 38 28 39 29 40 30 41 80 42 31 43 85 44 79 45 81 46
REMARK SMILES IDX 32 47 84 48 78 49 77 50 33 52 65 53 45 54 64 55 46 56 49 57
REMARK SMILES IDX 63 58 82 59 47 60 48 61 62 63 83 64 50 65 34 66 35 67 43 68
REMARK SMILES IDX 36 69 42 70 44 71 41 72 37 73 38 74 39 75 40 76 66 77 67 78
REMARK SMILES IDX 75 79 68 80 74 81 76 82 73 83 69 84 70 85 71 86 72 87 51 88
REMARK SMILES IDX 52 89 60 90 53 91 59 92 61 93 58 94 54 95 55 96 56 97 57 98
REMARK H PARENT 18 5 88 13 8 17 22 32 81 51 49 62
REMARK Flexibility Score: inf
ROOT
ATOM      1  C   UNL     1       1.231   1.544  -0.996  1.00  0.00     0.117 C 
ENDROOT
BRANCH   1   2
ATOM      2  N   UNL     1       0.593   2.106   0.178  1.00  0.00    -0.354 N 
ATOM      3  C   UNL     1      -0.405   3.040   0.236  1.00  0.00     0.243 C 
ATOM      4  O   UNL     1      -0.505   3.696   1.271  1.00  0.00    -0.273 OA
ATOM      5  H   UNL     1       0.921   1.773   1.044  1.00  0.00     0.163 HD
BRANCH   3   6
ATOM      6  C   UNL     1      -1.488   3.018  -0.862  1.00  0.00     0.181 C 
ATOM      7  C   UNL     1      -4.148   3.299   0.633  1.00  0.00     0.145 C 
ATOM      8  S   UNL     1      -3.303   4.891   0.242  1.00  0.00    -0.145 SA
ATOM      9  C   UNL     1      -3.196   2.096   0.645  1.00  0.00     0.234 C 
ATOM     10  C   UNL     1      -2.189   4.350  -1.087  1.00  0.00     0.105 C 
ATOM     11  N   UNL     1      -2.365   1.935  -0.438  1.00  0.00    -0.343 N 
ATOM     12  O   UNL     1      -3.203   1.184   1.467  1.00  0.00    -0.274 OA
ATOM     13  H   UNL     1      -2.362   1.082  -0.930  1.00  0.00     0.164 HD
BRANCH   7  14
ATOM     14  C   UNL     1      -5.030   3.536   1.869  1.00  0.00     0.124 C 
BRANCH  14  15
ATOM     15  C   UNL     1      -5.264   2.422   2.870  1.00  0.00     0.226 C 
ATOM     16  N   UNL     1      -5.751   1.197   2.543  1.00  0.00    -0.326 N 
ATOM     17  H   UNL     1      -5.820   0.582   3.309  1.00  0.00     0.169 HD
ATOM     18  O   UNL     1      -5.026   2.625   4.068  1.00  0.00    -0.275 OA
BRANCH  16  19
ATOM     19  C   UNL     1      -6.175   0.637   1.334  1.00  0.00     0.041 A 
ATOM     20  C   UNL     1      -6.787  -0.638  -1.102  1.00  0.00    -0.045 A 
ATOM     21  C   UNL     1      -7.063   0.724  -0.911  1.00  0.00     0.006 A 
ATOM     22  C   UNL     1      -6.252  -1.365  -0.034  1.00  0.00     0.006 A 
ATOM     23  C   UNL     1      -6.767   1.354   0.301  1.00  0.00     0.026 A 
ATOM     24  C   UNL     1      -5.961  -0.735   1.176  1.00  0.00     0.026 A 
BRANCH  20  25
ATOM     25  C   UNL     1      -7.106  -1.294  -2.431  1.00  0.00     0.013 C 
ATOM     26  C   UNL     1      -5.909  -2.054  -3.013  1.00  0.00     0.012 C 
ATOM     27  C   UNL     1      -8.321  -2.212  -2.292  1.00  0.00     0.012 C 
ENDBRANCH  20  25
ENDBRANCH  16  19
ENDBRANCH  14  15
ENDBRANCH   7  14
ENDBRANCH   3   6
ENDBRANCH   1   2
BRANCH   1  28
ATOM     28  C   UNL     1       2.354   2.461  -1.470  1.00  0.00     0.042 C 
BRANCH  28  29
ATOM     29  C   UNL     1       3.423   2.707  -0.405  1.00  0.00     0.118 C 
BRANCH  29  30
ATOM     30  N   UNL     1       4.108   1.481  -0.019  1.00  0.00    -0.352 N 
ATOM     31  C   UNL     1       5.439   1.166  -0.100  1.00  0.00     0.251 C 
ATOM     32  H   UNL     1       3.530   0.776   0.354  1.00  0.00     0.163 HD
ATOM     33  O   UNL     1       5.793  -0.003   0.066  1.00  0.00    -0.269 OA
BRANCH  31  34
ATOM     34  C   UNL     1       6.434   2.212  -0.409  1.00  0.00     0.039 A 
ATOM     35  C   UNL     1       7.442   1.935  -1.335  1.00  0.00     0.014 A 
ATOM     36  C   UNL     1       6.378   3.462   0.216  1.00  0.00     0.014 A 
ATOM     37  C   UNL     1       8.353   2.934  -1.685  1.00  0.00     0.010 A 
ATOM     38  C   UNL     1       7.242   4.477  -0.186  1.00  0.00     0.010 A 
ATOM     39  C   UNL     1       8.237   4.224  -1.142  1.00  0.00    -0.014 A 
BRANCH  39  40
ATOM     40  C   UNL     1       9.145   5.323  -1.563  1.00  0.00     0.031 A 
ATOM     41  C   UNL     1      10.078   5.954  -0.565  1.00  0.00     0.074 A 
ATOM     42  C   UNL     1       9.080   5.794  -2.824  1.00  0.00     0.049 A 
ATOM     43  N   UNL     1      10.871   6.984  -0.710  1.00  0.00    -0.248 NA
ATOM     44  C   UNL     1      10.100   5.362   0.781  1.00  0.00     0.031 C 
ATOM     45  C   UNL     1       8.194   5.283  -3.873  1.00  0.00     0.029 A 
ATOM     46  N   UNL     1       9.762   6.815  -3.438  1.00  0.00    -0.354 N 
ATOM     47  C   UNL     1      11.479   7.172   0.527  1.00  0.00     0.074 A 
ATOM     48  C   UNL     1      10.917   6.183   1.423  1.00  0.00     0.031 C 
ATOM     49  C   UNL     1       8.401   5.979  -5.002  1.00  0.00     0.029 A 
ATOM     50  C   UNL     1       9.395   7.017  -4.748  1.00  0.00     0.049 A 
ATOM     51  H   UNL     1      10.450   7.353  -2.982  1.00  0.00     0.167 HD
ATOM     52  C   UNL     1      12.433   8.071   0.876  1.00  0.00     0.034 A 
ATOM     53  C   UNL     1       9.799   7.944  -5.639  1.00  0.00     0.034 A 
ATOM     54  C   UNL     1      12.990   9.044  -0.033  1.00  0.00     0.049 A 
ATOM     55  C   UNL     1      10.834   8.957  -5.215  1.00  0.00     0.074 A 
ATOM     56  C   UNL     1      13.990   9.971   0.204  1.00  0.00     0.029 A 
ATOM     57  N   UNL     1      12.591   9.221  -1.352  1.00  0.00    -0.354 N 
ATOM     58  N   UNL     1      11.427   9.096  -4.052  1.00  0.00    -0.248 NA
ATOM     59  C   UNL     1      11.259   9.932  -6.228  1.00  0.00     0.031 C 
ATOM     60  C   UNL     1      14.151  10.749  -0.948  1.00  0.00     0.029 A 
ATOM     61  C   UNL     1      13.304  10.260  -1.930  1.00  0.00     0.049 A 
ATOM     62  H   UNL     1      11.902   8.687  -1.809  1.00  0.00     0.167 HD
ATOM     63  C   UNL     1      12.318  10.155  -4.205  1.00  0.00     0.074 A 
ATOM     64  C   UNL     1      12.195  10.605  -5.577  1.00  0.00     0.031 C 
ATOM     65  C   UNL     1      13.163  10.704  -3.297  1.00  0.00     0.034 A 
BRANCH  52  66
ATOM     66  C   UNL     1      12.914   8.053   2.307  1.00  0.00     0.023 A 
ATOM     67  C   UNL     1      13.579   6.939   2.848  1.00  0.00     0.031 A 
ATOM     68  C   UNL     1      12.689   9.156   3.149  1.00  0.00     0.131 A 
ATOM     69  C   UNL     1      13.931   6.923   4.206  1.00  0.00     0.055 A 
ATOM     70  C   UNL     1      13.113   9.166   4.479  1.00  0.00     0.041 A 
ATOM     71  F   UNL     1      12.041  10.242   2.696  1.00  0.00    -0.206 F 
ATOM     72  C   UNL     1      13.726   8.039   5.019  1.00  0.00     0.022 A 
BRANCH  69  73
ATOM     73  S   UNL     1      14.539   5.373   4.924  1.00  0.00     0.124 S 
ATOM     74  O   UNL     1      13.413   4.474   4.682  1.00  0.00    -0.237 OA
ATOM     75  O   UNL     1      15.743   5.114   4.143  1.00  0.00    -0.237 OA
ATOM     76  O   UNL     1      14.767   5.712   6.327  1.00  0.00    -0.744 OA
ENDBRANCH  69  73
ENDBRANCH  52  66
BRANCH  53  77
ATOM     77  C   UNL     1       9.221   7.981  -7.013  1.00  0.00     0.023 A 
ATOM     78  C   UNL     1      10.026   7.756  -8.141  1.00  0.00     0.031 A 
ATOM     79  C   UNL     1       7.866   8.296  -7.222  1.00  0.00     0.131 A 
ATOM     80  C   UNL     1       9.485   7.901  -9.427  1.00  0.00     0.055 A 
ATOM     81  C   UNL     1       7.319   8.384  -8.504  1.00  0.00     0.041 A 
ATOM     82  F   UNL     1       7.050   8.514  -6.179  1.00  0.00    -0.206 F 
ATOM     83  C   UNL     1       8.134   8.202  -9.616  1.00  0.00     0.022 A 
BRANCH  80  84
ATOM     84  S   UNL     1      10.598   7.786 -10.854  1.00  0.00     0.124 S 
ATOM     85  O   UNL     1      11.579   8.822 -10.550  1.00  0.00    -0.237 OA
ATOM     86  O   UNL     1      11.068   6.408 -10.759  1.00  0.00    -0.237 OA
ATOM     87  O   UNL     1       9.724   8.068 -11.991  1.00  0.00    -0.744 OA
ENDBRANCH  80  84
ENDBRANCH  53  77
BRANCH  65  88
ATOM     88  C   UNL     1      14.052  11.824  -3.781  1.00  0.00     0.023 A 
ATOM     89  C   UNL     1      13.529  13.072  -4.162  1.00  0.00     0.031 A 
ATOM     90  C   UNL     1      15.441  11.631  -3.878  1.00  0.00     0.131 A 
ATOM     91  C   UNL     1      14.382  14.059  -4.678  1.00  0.00     0.055 A 
ATOM     92  C   UNL     1      16.293  12.638  -4.333  1.00  0.00     0.041 A 
ATOM     93  F   UNL     1      15.995  10.458  -3.529  1.00  0.00    -0.206 F 
ATOM     94  C   UNL     1      15.763  13.856  -4.750  1.00  0.00     0.022 A 
BRANCH  91  95
ATOM     95  S   UNL     1      13.652  15.581  -5.341  1.00  0.00     0.124 S 
ATOM     96  O   UNL     1      12.773  15.066  -6.385  1.00  0.00    -0.237 OA
ATOM     97  O   UNL     1      12.989  16.145  -4.170  1.00  0.00    -0.237 OA
ATOM     98  O   UNL     1      14.809  16.336  -5.820  1.00  0.00    -0.744 OA
ENDBRANCH  91  95
ENDBRANCH  65  88
ENDBRANCH  39  40
ENDBRANCH  31  34
ENDBRANCH  29  30
ENDBRANCH  28  29
ENDBRANCH   1  28
TORSDOF 17
