REMARK SMILES CC1(C)S[C@H](c2ccc(-c3cccc([N+](=O)[O-])c3)o2)[NH2+][C@@H]1C(=O)NCCCNC(=O)c1ccc(-c2c3nc(c(-c4cc(S(=O)(=O)[O-])ccc4F)c4ccc([nH]4)c(-c4cc(S(=O)(=O)[O-])ccc4F)c4nc(c(-c5cc(S(=O)(=O)[O-])ccc5F)c5ccc2[nH]5)C=C4)C=C3)cc1
REMARK SMILES IDX 26 1 25 2 24 3 22 4 23 5 21 7 1 8 2 9 3 10 4 11 5 12 20 13
REMARK SMILES IDX 6 16 7 17 19 18 8 19 9 20 10 21 11 22 18 23 12 24 14 25
REMARK SMILES IDX 13 26 15 27 16 28 17 29 27 30 28 31 29 32 30 34 31 35 32 36
REMARK SMILES IDX 93 37 33 38 92 39 34 40 35 41 36 42 86 43 37 44 91 45 85 46
REMARK SMILES IDX 87 47 38 48 90 49 84 50 83 51 39 53 71 54 51 55 70 56 52 57
REMARK SMILES IDX 55 58 69 59 88 60 53 61 54 62 68 64 89 65 56 66 40 67 41 68
REMARK SMILES IDX 49 69 42 70 48 71 50 72 47 73 43 74 44 75 45 76 46 77 72 78
REMARK SMILES IDX 73 79 81 80 74 81 80 82 82 83 79 84 75 85 76 86 77 87 78 88
REMARK SMILES IDX 57 89 58 90 66 91 59 92 65 93 67 94 64 95 60 96 61 97 62 98
REMARK SMILES IDX 63 99
REMARK H PARENT 24 6 20 14 20 15 28 33 87 52 55 63
REMARK Flexibility Score: inf
ROOT
ATOM      1  C   UNL     1      -2.913   4.114  -2.261  1.00  0.00     0.042 C 
ENDROOT
BRANCH   1   2
ATOM      2  C   UNL     1      -2.302   2.846  -1.694  1.00  0.00     0.118 C 
BRANCH   2   3
ATOM      3  N   UNL     1      -1.218   2.308  -2.494  1.00  0.00    -0.351 N 
ATOM      4  C   UNL     1      -0.303   1.357  -2.106  1.00  0.00     0.279 C 
ATOM      5  O   UNL     1       0.433   0.895  -2.976  1.00  0.00    -0.268 OA
ATOM      6  H   UNL     1      -1.128   2.659  -3.410  1.00  0.00     0.163 HD
BRANCH   4   7
ATOM      7  C   UNL     1      -0.180   1.034  -0.594  1.00  0.00     0.289 C 
ATOM      8  C   UNL     1       1.270   0.282   1.338  1.00  0.00     0.030 C 
ATOM      9  C   UNL     1       0.886   0.010  -0.134  1.00  0.00     0.078 C 
ATOM     10  C   UNL     1       2.175  -0.072  -0.952  1.00  0.00     0.030 C 
ATOM     11  S   UNL     1       0.011  -1.590  -0.202  1.00  0.00    -0.078 SA
ATOM     12  C   UNL     1      -1.633  -0.843  -0.202  1.00  0.00     0.311 C 
ATOM     13  N   UNL     1      -1.499   0.606  -0.030  1.00  0.00    -0.317 N 
ATOM     14  H   UNL     1      -1.541   0.840   0.962  1.00  0.00     0.348 HD
ATOM     15  H   UNL     1      -2.257   1.086  -0.515  1.00  0.00     0.348 HD
BRANCH  12  16
ATOM     16  C   UNL     1      -2.468  -1.290  -1.362  1.00  0.00     0.172 A 
ATOM     17  C   UNL     1      -3.225  -2.435  -1.537  1.00  0.00     0.054 A 
ATOM     18  O   UNL     1      -2.603  -0.487  -2.466  1.00  0.00    -0.454 OA
ATOM     19  C   UNL     1      -3.868  -2.315  -2.787  1.00  0.00     0.051 A 
ATOM     20  C   UNL     1      -3.466  -1.110  -3.324  1.00  0.00     0.134 A 
BRANCH  20  21
ATOM     21  C   UNL     1      -3.826  -0.403  -4.545  1.00  0.00     0.024 A 
ATOM     22  C   UNL     1      -2.876   0.300  -5.300  1.00  0.00     0.012 A 
ATOM     23  C   UNL     1      -5.156  -0.433  -4.991  1.00  0.00     0.097 A 
ATOM     24  C   UNL     1      -3.245   0.966  -6.477  1.00  0.00     0.008 A 
ATOM     25  C   UNL     1      -5.523   0.244  -6.163  1.00  0.00     0.270 A 
ATOM     26  C   UNL     1      -4.571   0.945  -6.911  1.00  0.00     0.085 A 
BRANCH  25  27
ATOM     27  N   UNL     1      -6.928   0.231  -6.591  1.00  0.00     0.062 N 
ATOM     28  O   UNL     1      -7.272   1.042  -7.461  1.00  0.00    -0.258 OA
ATOM     29  O   UNL     1      -7.670  -0.632  -6.095  1.00  0.00    -0.258 OA
ENDBRANCH  25  27
ENDBRANCH  20  21
ENDBRANCH  12  16
ENDBRANCH   4   7
ENDBRANCH   2   3
ENDBRANCH   1   2
BRANCH   1  30
ATOM     30  C   UNL     1      -3.545   3.962  -3.635  1.00  0.00     0.118 C 
BRANCH  30  31
ATOM     31  N   UNL     1      -4.647   3.014  -3.685  1.00  0.00    -0.352 N 
ATOM     32  C   UNL     1      -5.862   3.114  -4.327  1.00  0.00     0.251 C 
ATOM     33  H   UNL     1      -4.503   2.177  -3.186  1.00  0.00     0.163 HD
ATOM     34  O   UNL     1      -6.702   2.234  -4.173  1.00  0.00    -0.269 OA
BRANCH  32  35
ATOM     35  C   UNL     1      -6.174   4.303  -5.154  1.00  0.00     0.039 A 
ATOM     36  C   UNL     1      -7.447   4.865  -5.044  1.00  0.00     0.014 A 
ATOM     37  C   UNL     1      -5.208   4.913  -5.956  1.00  0.00     0.014 A 
ATOM     38  C   UNL     1      -7.696   6.117  -5.606  1.00  0.00     0.010 A 
ATOM     39  C   UNL     1      -5.421   6.205  -6.423  1.00  0.00     0.010 A 
ATOM     40  C   UNL     1      -6.656   6.835  -6.217  1.00  0.00    -0.014 A 
BRANCH  40  41
ATOM     41  C   UNL     1      -6.822   8.272  -6.557  1.00  0.00     0.031 A 
ATOM     42  C   UNL     1      -6.680   8.745  -7.974  1.00  0.00     0.074 A 
ATOM     43  C   UNL     1      -7.021   9.156  -5.557  1.00  0.00     0.049 A 
ATOM     44  N   UNL     1      -6.742   9.962  -8.448  1.00  0.00    -0.248 NA
ATOM     45  C   UNL     1      -6.392   7.718  -8.987  1.00  0.00     0.031 C 
ATOM     46  C   UNL     1      -7.098   8.817  -4.131  1.00  0.00     0.029 A 
ATOM     47  N   UNL     1      -7.197  10.517  -5.577  1.00  0.00    -0.354 N 
ATOM     48  C   UNL     1      -6.496   9.851  -9.812  1.00  0.00     0.074 A 
ATOM     49  C   UNL     1      -6.209   8.455 -10.072  1.00  0.00     0.031 C 
ATOM     50  C   UNL     1      -7.353   9.928  -3.424  1.00  0.00     0.029 A 
ATOM     51  C   UNL     1      -7.410  11.066  -4.332  1.00  0.00     0.049 A 
ATOM     52  H   UNL     1      -7.173  11.050  -6.404  1.00  0.00     0.167 HD
ATOM     53  C   UNL     1      -6.534  10.818 -10.762  1.00  0.00     0.034 A 
ATOM     54  C   UNL     1      -7.627  12.344  -3.965  1.00  0.00     0.034 A 
ATOM     55  C   UNL     1      -6.830  12.202 -10.478  1.00  0.00     0.049 A 
ATOM     56  C   UNL     1      -7.668  13.401  -5.037  1.00  0.00     0.074 A 
ATOM     57  C   UNL     1      -6.942  13.261 -11.361  1.00  0.00     0.029 A 
ATOM     58  N   UNL     1      -7.056  12.722  -9.208  1.00  0.00    -0.354 N 
ATOM     59  N   UNL     1      -7.492  13.269  -6.332  1.00  0.00    -0.248 NA
ATOM     60  C   UNL     1      -7.949  14.774  -4.602  1.00  0.00     0.031 C 
ATOM     61  C   UNL     1      -7.176  14.427 -10.623  1.00  0.00     0.029 A 
ATOM     62  C   UNL     1      -7.282  14.088  -9.283  1.00  0.00     0.049 A 
ATOM     63  H   UNL     1      -7.055  12.196  -8.376  1.00  0.00     0.167 HD
ATOM     64  C   UNL     1      -7.668  14.540  -6.869  1.00  0.00     0.074 A 
ATOM     65  C   UNL     1      -7.983  15.418  -5.759  1.00  0.00     0.031 C 
ATOM     66  C   UNL     1      -7.580  14.947  -8.161  1.00  0.00     0.034 A 
BRANCH  53  67
ATOM     67  C   UNL     1      -6.231  10.404 -12.182  1.00  0.00     0.023 A 
ATOM     68  C   UNL     1      -7.033   9.470 -12.863  1.00  0.00     0.031 A 
ATOM     69  C   UNL     1      -5.104  10.912 -12.853  1.00  0.00     0.131 A 
ATOM     70  C   UNL     1      -6.651   9.009 -14.132  1.00  0.00     0.055 A 
ATOM     71  C   UNL     1      -4.778  10.514 -14.151  1.00  0.00     0.041 A 
ATOM     72  F   UNL     1      -4.288  11.791 -12.250  1.00  0.00    -0.206 F 
ATOM     73  C   UNL     1      -5.543   9.543 -14.792  1.00  0.00     0.022 A 
BRANCH  70  74
ATOM     74  S   UNL     1      -7.535   7.591 -14.839  1.00  0.00     0.124 S 
ATOM     75  O   UNL     1      -7.290   6.562 -13.831  1.00  0.00    -0.237 OA
ATOM     76  O   UNL     1      -8.903   8.085 -14.930  1.00  0.00    -0.237 OA
ATOM     77  O   UNL     1      -6.863   7.372 -16.118  1.00  0.00    -0.744 OA
ENDBRANCH  70  74
ENDBRANCH  53  67
BRANCH  54  78
ATOM     78  C   UNL     1      -7.830  12.698  -2.530  1.00  0.00     0.023 A 
ATOM     79  C   UNL     1      -9.058  13.208  -2.079  1.00  0.00     0.031 A 
ATOM     80  C   UNL     1      -6.791  12.560  -1.593  1.00  0.00     0.131 A 
ATOM     81  C   UNL     1      -9.203  13.606  -0.741  1.00  0.00     0.055 A 
ATOM     82  C   UNL     1      -6.955  12.909  -0.251  1.00  0.00     0.041 A 
ATOM     83  F   UNL     1      -5.599  12.068  -1.968  1.00  0.00    -0.206 F 
ATOM     84  C   UNL     1      -8.164  13.448   0.179  1.00  0.00     0.022 A 
BRANCH  81  85
ATOM     85  S   UNL     1     -10.748  14.410  -0.235  1.00  0.00     0.124 S 
ATOM     86  O   UNL     1     -10.803  15.548  -1.146  1.00  0.00    -0.237 OA
ATOM     87  O   UNL     1     -11.728  13.354  -0.465  1.00  0.00    -0.237 OA
ATOM     88  O   UNL     1     -10.513  14.745   1.169  1.00  0.00    -0.744 OA
ENDBRANCH  81  85
ENDBRANCH  54  78
BRANCH  66  89
ATOM     89  C   UNL     1      -7.869  16.401  -8.434  1.00  0.00     0.023 A 
ATOM     90  C   UNL     1      -7.018  17.421  -7.973  1.00  0.00     0.031 A 
ATOM     91  C   UNL     1      -9.023  16.771  -9.146  1.00  0.00     0.131 A 
ATOM     92  C   UNL     1      -7.365  18.764  -8.180  1.00  0.00     0.055 A 
ATOM     93  C   UNL     1      -9.331  18.107  -9.401  1.00  0.00     0.041 A 
ATOM     94  F   UNL     1      -9.871  15.836  -9.606  1.00  0.00    -0.206 F 
ATOM     95  C   UNL     1      -8.507  19.113  -8.905  1.00  0.00     0.022 A 
BRANCH  92  96
ATOM     96  S   UNL     1      -6.350  20.053  -7.406  1.00  0.00     0.124 S 
ATOM     97  O   UNL     1      -6.448  19.707  -5.991  1.00  0.00    -0.237 OA
ATOM     98  O   UNL     1      -5.046  19.837  -8.025  1.00  0.00    -0.237 OA
ATOM     99  O   UNL     1      -7.020  21.294  -7.789  1.00  0.00    -0.744 OA
ENDBRANCH  92  96
ENDBRANCH  66  89
ENDBRANCH  40  41
ENDBRANCH  32  35
ENDBRANCH  30  31
ENDBRANCH   1  30
TORSDOF 16
