REMARK SMILES O=C(C[C@H]1C[C@H]2CC[C@@H](C1)[N@H+]2C[C@@H]1CCCOC1)NCCCNC(=O)c1ccc(-c2c3nc(c(-c4cc(S(=O)(=O)[O-])ccc4F)c4ccc([nH]4)c(-c4cc(S(=O)(=O)[O-])ccc4F)c4nc(c(-c5cc(S(=O)(=O)[O-])ccc5F)c5ccc2[nH]5)C=C4)C=C3)cc1
REMARK SMILES IDX 21 1 20 2 19 3 1 4 2 5 3 7 4 8 5 9 10 10 6 11 9 12 7 13
REMARK SMILES IDX 11 14 8 15 12 17 13 18 14 19 18 20 15 21 17 22 16 23 22 24
REMARK SMILES IDX 23 25 24 26 25 28 26 29 27 30 88 31 28 32 87 33 29 34 30 35
REMARK SMILES IDX 31 36 81 37 32 38 86 39 80 40 82 41 33 42 85 43 79 44 78 45
REMARK SMILES IDX 34 47 66 48 46 49 65 50 47 51 50 52 64 53 83 54 48 55 49 56
REMARK SMILES IDX 63 58 84 59 51 60 35 61 36 62 44 63 37 64 43 65 45 66 42 67
REMARK SMILES IDX 38 68 39 69 40 70 41 71 67 72 68 73 76 74 69 75 75 76 77 77
REMARK SMILES IDX 74 78 70 79 71 80 72 81 73 82 52 83 53 84 61 85 54 86 60 87
REMARK SMILES IDX 62 88 59 89 55 90 56 91 57 92 58 93
REMARK H PARENT 19 6 11 16 23 27 82 46 50 57
REMARK Flexibility Score: inf
ROOT
ATOM      1  C   UNL     1       1.925   3.471  -2.448  1.00  0.00     0.042 C 
ENDROOT
BRANCH   1   2
ATOM      2  C   UNL     1       1.404   2.059  -2.208  1.00  0.00     0.117 C 
BRANCH   2   3
ATOM      3  N   UNL     1       1.754   1.587  -0.887  1.00  0.00    -0.356 N 
ATOM      4  O   UNL     1       0.618  -0.419  -0.978  1.00  0.00    -0.275 OA
ATOM      5  C   UNL     1       1.428   0.328  -0.441  1.00  0.00     0.220 C 
ATOM      6  H   UNL     1       2.246   2.191  -0.284  1.00  0.00     0.163 HD
BRANCH   5   7
ATOM      7  C   UNL     1       2.278  -0.083   0.738  1.00  0.00     0.104 C 
BRANCH   7   8
ATOM      8  C   UNL     1       3.596  -0.762   0.316  1.00  0.00     0.010 C 
ATOM      9  C   UNL     1       4.337  -0.137  -0.910  1.00  0.00     0.069 C 
ATOM     10  C   UNL     1       4.463  -0.986   1.586  1.00  0.00     0.069 C 
ATOM     11  C   UNL     1       5.751   0.335  -0.632  1.00  0.00     0.184 C 
ATOM     12  C   UNL     1       5.929  -0.541   1.494  1.00  0.00     0.184 C 
ATOM     13  C   UNL     1       5.687   1.556   0.301  1.00  0.00     0.071 C 
ATOM     14  N   UNL     1       6.450  -0.664   0.152  1.00  0.00    -0.330 N 
ATOM     15  C   UNL     1       6.000   0.989   1.680  1.00  0.00     0.071 C 
ATOM     16  H   UNL     1       7.461  -0.538   0.209  1.00  0.00     0.348 HD
BRANCH  14  17
ATOM     17  C   UNL     1       6.979  -1.881  -0.453  1.00  0.00     0.268 C 
BRANCH  17  18
ATOM     18  C   UNL     1       6.335  -3.310  -0.572  1.00  0.00     0.070 C 
ATOM     19  C   UNL     1       5.163  -3.467  -1.558  1.00  0.00     0.014 C 
ATOM     20  C   UNL     1       6.156  -4.026   0.770  1.00  0.00     0.169 C 
ATOM     21  C   UNL     1       4.301  -4.712  -1.371  1.00  0.00     0.029 C 
ATOM     22  O   UNL     1       5.407  -5.240   0.673  1.00  0.00    -0.381 OA
ATOM     23  C   UNL     1       4.122  -5.027   0.098  1.00  0.00     0.160 C 
ENDBRANCH  17  18
ENDBRANCH  14  17
ENDBRANCH   7   8
ENDBRANCH   5   7
ENDBRANCH   2   3
ENDBRANCH   1   2
BRANCH   1  24
ATOM     24  C   UNL     1       3.449   3.606  -2.487  1.00  0.00     0.118 C 
BRANCH  24  25
ATOM     25  N   UNL     1       4.060   3.111  -3.708  1.00  0.00    -0.352 N 
ATOM     26  C   UNL     1       4.965   3.738  -4.538  1.00  0.00     0.251 C 
ATOM     27  H   UNL     1       3.792   2.204  -3.981  1.00  0.00     0.163 HD
ATOM     28  O   UNL     1       5.309   3.190  -5.581  1.00  0.00    -0.269 OA
BRANCH  26  29
ATOM     29  C   UNL     1       5.482   5.088  -4.202  1.00  0.00     0.039 A 
ATOM     30  C   UNL     1       5.442   6.080  -5.185  1.00  0.00     0.014 A 
ATOM     31  C   UNL     1       5.995   5.385  -2.936  1.00  0.00     0.014 A 
ATOM     32  C   UNL     1       5.851   7.382  -4.880  1.00  0.00     0.010 A 
ATOM     33  C   UNL     1       6.341   6.701  -2.614  1.00  0.00     0.010 A 
ATOM     34  C   UNL     1       6.270   7.718  -3.581  1.00  0.00    -0.014 A 
BRANCH  34  35
ATOM     35  C   UNL     1       6.634   9.123  -3.240  1.00  0.00     0.031 A 
ATOM     36  C   UNL     1       8.044   9.474  -2.842  1.00  0.00     0.074 A 
ATOM     37  C   UNL     1       5.691  10.088  -3.268  1.00  0.00     0.049 A 
ATOM     38  N   UNL     1       8.544  10.636  -2.502  1.00  0.00    -0.248 NA
ATOM     39  C   UNL     1       9.012   8.369  -2.800  1.00  0.00     0.031 C 
ATOM     40  C   UNL     1       4.281   9.880  -3.606  1.00  0.00     0.029 A 
ATOM     41  N   UNL     1       5.772  11.437  -3.012  1.00  0.00    -0.354 N 
ATOM     42  C   UNL     1       9.883  10.402  -2.205  1.00  0.00     0.074 A 
ATOM     43  C   UNL     1      10.095   8.976  -2.340  1.00  0.00     0.031 C 
ATOM     44  C   UNL     1       3.640  11.060  -3.568  1.00  0.00     0.029 A 
ATOM     45  C   UNL     1       4.576  12.104  -3.159  1.00  0.00     0.049 A 
ATOM     46  H   UNL     1       6.608  11.884  -2.747  1.00  0.00     0.167 HD
ATOM     47  C   UNL     1      10.852  11.294  -1.875  1.00  0.00     0.034 A 
ATOM     48  C   UNL     1       4.263  13.404  -2.979  1.00  0.00     0.034 A 
ATOM     49  C   UNL     1      10.632  12.715  -1.744  1.00  0.00     0.049 A 
ATOM     50  C   UNL     1       5.348  14.370  -2.571  1.00  0.00     0.074 A 
ATOM     51  C   UNL     1      11.554  13.707  -1.456  1.00  0.00     0.029 A 
ATOM     52  N   UNL     1       9.403  13.349  -1.882  1.00  0.00    -0.354 N 
ATOM     53  N   UNL     1       6.620  14.138  -2.342  1.00  0.00    -0.248 NA
ATOM     54  C   UNL     1       4.957  15.777  -2.410  1.00  0.00     0.031 C 
ATOM     55  C   UNL     1      10.873  14.924  -1.342  1.00  0.00     0.029 A 
ATOM     56  C   UNL     1       9.540  14.711  -1.650  1.00  0.00     0.049 A 
ATOM     57  H   UNL     1       8.559  12.898  -2.111  1.00  0.00     0.167 HD
ATOM     58  C   UNL     1       7.185  15.377  -2.049  1.00  0.00     0.074 A 
ATOM     59  C   UNL     1       6.120  16.352  -2.143  1.00  0.00     0.031 C 
ATOM     60  C   UNL     1       8.472  15.680  -1.738  1.00  0.00     0.034 A 
BRANCH  47  61
ATOM     61  C   UNL     1      12.236  10.748  -1.604  1.00  0.00     0.023 A 
ATOM     62  C   UNL     1      12.974  10.080  -2.597  1.00  0.00     0.031 A 
ATOM     63  C   UNL     1      12.818  10.877  -0.330  1.00  0.00     0.131 A 
ATOM     64  C   UNL     1      14.211   9.498  -2.279  1.00  0.00     0.055 A 
ATOM     65  C   UNL     1      14.089  10.373  -0.045  1.00  0.00     0.041 A 
ATOM     66  F   UNL     1      12.156  11.487   0.666  1.00  0.00    -0.206 F 
ATOM     67  C   UNL     1      14.786   9.663  -1.018  1.00  0.00     0.022 A 
BRANCH  64  68
ATOM     68  S   UNL     1      14.981   8.389  -3.491  1.00  0.00     0.124 S 
ATOM     69  O   UNL     1      13.937   7.383  -3.674  1.00  0.00    -0.237 OA
ATOM     70  O   UNL     1      15.219   9.276  -4.624  1.00  0.00    -0.237 OA
ATOM     71  O   UNL     1      16.181   7.913  -2.806  1.00  0.00    -0.744 OA
ENDBRANCH  64  68
ENDBRANCH  47  61
BRANCH  48  72
ATOM     72  C   UNL     1       2.860  13.880  -3.170  1.00  0.00     0.023 A 
ATOM     73  C   UNL     1       2.539  14.819  -4.163  1.00  0.00     0.031 A 
ATOM     74  C   UNL     1       1.827  13.444  -2.320  1.00  0.00     0.131 A 
ATOM     75  C   UNL     1       1.235  15.332  -4.248  1.00  0.00     0.055 A 
ATOM     76  C   UNL     1       0.518  13.912  -2.447  1.00  0.00     0.041 A 
ATOM     77  F   UNL     1       2.076  12.546  -1.353  1.00  0.00    -0.206 F 
ATOM     78  C   UNL     1       0.219  14.873  -3.407  1.00  0.00     0.022 A 
BRANCH  75  79
ATOM     79  S   UNL     1       0.906  16.684  -5.413  1.00  0.00     0.124 S 
ATOM     80  O   UNL     1       1.849  17.700  -4.960  1.00  0.00    -0.237 OA
ATOM     81  O   UNL     1       1.204  16.057  -6.696  1.00  0.00    -0.237 OA
ATOM     82  O   UNL     1      -0.504  16.993  -5.184  1.00  0.00    -0.744 OA
ENDBRANCH  75  79
ENDBRANCH  48  72
BRANCH  60  83
ATOM     83  C   UNL     1       8.809  17.140  -1.533  1.00  0.00     0.023 A 
ATOM     84  C   UNL     1       8.272  17.888  -0.470  1.00  0.00     0.031 A 
ATOM     85  C   UNL     1       9.675  17.795  -2.428  1.00  0.00     0.131 A 
ATOM     86  C   UNL     1       8.557  19.259  -0.364  1.00  0.00     0.055 A 
ATOM     87  C   UNL     1      10.008  19.142  -2.278  1.00  0.00     0.041 A 
ATOM     88  F   UNL     1      10.214  17.134  -3.464  1.00  0.00    -0.206 F 
ATOM     89  C   UNL     1       9.437  19.886  -1.250  1.00  0.00     0.022 A 
BRANCH  86  90
ATOM     90  S   UNL     1       7.681  20.238   0.887  1.00  0.00     0.124 S 
ATOM     91  O   UNL     1       6.285  20.002   0.534  1.00  0.00    -0.237 OA
ATOM     92  O   UNL     1       8.135  19.630   2.133  1.00  0.00    -0.237 OA
ATOM     93  O   UNL     1       8.158  21.600   0.653  1.00  0.00    -0.744 OA
ENDBRANCH  86  90
ENDBRANCH  60  83
ENDBRANCH  34  35
ENDBRANCH  26  29
ENDBRANCH  24  25
ENDBRANCH   1  24
TORSDOF 16
