REMARK SMILES CC(C)CC[C@@H](C)[C@@](C)(O)C(=O)NCCCNC(=O)c1ccc(-c2c3nc(c(-c4cc(S(=O)(=O)[O-])ccc4F)c4ccc([nH]4)c(-c4cc(S(=O)(=O)[O-])ccc4F)c4nc(c(-c5cc(S(=O)(=O)[O-])ccc5F)c5ccc2[nH]5)C=C4)C=C3)cc1
REMARK SMILES IDX 14 1 13 2 11 3 12 4 8 6 9 7 6 8 7 9 5 10 4 11 2 12 1 13 3 14
REMARK SMILES IDX 10 15 15 17 16 18 17 19 18 20 19 22 20 23 21 24 82 25 22 26
REMARK SMILES IDX 81 27 23 28 24 29 25 30 75 31 26 32 80 33 74 34 76 35 27 36
REMARK SMILES IDX 79 37 73 38 72 39 28 41 60 42 40 43 59 44 41 45 44 46 58 47
REMARK SMILES IDX 77 48 42 49 43 50 57 52 78 53 45 54 29 55 30 56 38 57 31 58
REMARK SMILES IDX 37 59 39 60 36 61 32 62 33 63 34 64 35 65 61 66 62 67 70 68
REMARK SMILES IDX 63 69 69 70 71 71 68 72 64 73 65 74 66 75 67 76 46 77 47 78
REMARK SMILES IDX 55 79 48 80 54 81 56 82 53 83 49 84 50 85 51 86 52 87
REMARK H PARENT 13 5 10 16 17 21 76 40 44 51
REMARK Flexibility Score: inf
ROOT
ATOM      1  C   UNL     1      -2.866  -5.657  -2.181  1.00  0.00     0.117 C 
ENDROOT
BRANCH   1   2
ATOM      2  N   UNL     1      -3.501  -4.619  -1.392  1.00  0.00    -0.354 N 
ATOM      3  C   UNL     1      -2.970  -3.738  -0.497  1.00  0.00     0.251 C 
ATOM      4  O   UNL     1      -3.775  -3.021   0.104  1.00  0.00    -0.272 OA
ATOM      5  H   UNL     1      -4.474  -4.538  -1.523  1.00  0.00     0.163 HD
BRANCH   3   6
ATOM      6  C   UNL     1      -1.426  -3.619  -0.317  1.00  0.00     0.142 C 
ATOM      7  C   UNL     1      -0.795  -3.119  -1.630  1.00  0.00     0.053 C 
BRANCH   6   8
ATOM      8  C   UNL     1      -1.021  -2.663   0.861  1.00  0.00     0.027 C 
ATOM      9  C   UNL     1      -1.459  -3.196   2.235  1.00  0.00     0.011 C 
BRANCH   8  10
ATOM     10  C   UNL     1      -1.464  -1.193   0.660  1.00  0.00     0.007 C 
BRANCH  10  11
ATOM     11  C   UNL     1      -0.813  -0.170   1.601  1.00  0.00     0.003 C 
BRANCH  11  12
ATOM     12  C   UNL     1       0.725  -0.120   1.565  1.00  0.00    -0.017 C 
ATOM     13  C   UNL     1       1.268   0.183   0.167  1.00  0.00     0.007 C 
ATOM     14  C   UNL     1       1.228   0.929   2.558  1.00  0.00     0.007 C 
ENDBRANCH  11  12
ENDBRANCH  10  11
ENDBRANCH   8  10
ENDBRANCH   6   8
BRANCH   6  15
ATOM     15  O   UNL     1      -0.867  -4.914  -0.042  1.00  0.00    -0.380 OA
ATOM     16  H   UNL     1       0.093  -4.835   0.069  1.00  0.00     0.212 HD
ENDBRANCH   6  15
ENDBRANCH   3   6
ENDBRANCH   1   2
BRANCH   1  17
ATOM     17  C   UNL     1      -3.296  -7.051  -1.754  1.00  0.00     0.042 C 
BRANCH  17  18
ATOM     18  C   UNL     1      -4.796  -7.292  -1.839  1.00  0.00     0.118 C 
BRANCH  18  19
ATOM     19  N   UNL     1      -5.328  -7.065  -3.176  1.00  0.00    -0.352 N 
ATOM     20  C   UNL     1      -5.931  -7.934  -4.048  1.00  0.00     0.251 C 
ATOM     21  H   UNL     1      -5.241  -6.142  -3.505  1.00  0.00     0.163 HD
ATOM     22  O   UNL     1      -6.113  -7.579  -5.215  1.00  0.00    -0.269 OA
BRANCH  20  23
ATOM     23  C   UNL     1      -6.341  -9.284  -3.607  1.00  0.00     0.039 A 
ATOM     24  C   UNL     1      -6.198 -10.357  -4.490  1.00  0.00     0.014 A 
ATOM     25  C   UNL     1      -6.893  -9.494  -2.341  1.00  0.00     0.014 A 
ATOM     26  C   UNL     1      -6.563 -11.643  -4.083  1.00  0.00     0.010 A 
ATOM     27  C   UNL     1      -7.153 -10.787  -1.900  1.00  0.00     0.010 A 
ATOM     28  C   UNL     1      -7.018 -11.873  -2.775  1.00  0.00    -0.014 A 
BRANCH  28  29
ATOM     29  C   UNL     1      -7.415 -13.233  -2.325  1.00  0.00     0.031 A 
ATOM     30  C   UNL     1      -8.837 -13.494  -1.898  1.00  0.00     0.074 A 
ATOM     31  C   UNL     1      -6.496 -14.217  -2.263  1.00  0.00     0.049 A 
ATOM     32  N   UNL     1      -9.374 -14.591  -1.429  1.00  0.00    -0.248 NA
ATOM     33  C   UNL     1      -9.770 -12.359  -1.978  1.00  0.00     0.031 C 
ATOM     34  C   UNL     1      -5.080 -14.073  -2.609  1.00  0.00     0.029 A 
ATOM     35  N   UNL     1      -6.612 -15.531  -1.889  1.00  0.00    -0.354 N 
ATOM     36  C   UNL     1     -10.698 -14.273  -1.145  1.00  0.00     0.074 A 
ATOM     37  C   UNL     1     -10.859 -12.862  -1.421  1.00  0.00     0.031 C 
ATOM     38  C   UNL     1      -4.470 -15.261  -2.466  1.00  0.00     0.029 A 
ATOM     39  C   UNL     1      -5.435 -16.239  -1.974  1.00  0.00     0.049 A 
ATOM     40  H   UNL     1      -7.460 -15.932  -1.587  1.00  0.00     0.167 HD
ATOM     41  C   UNL     1     -11.698 -15.088  -0.724  1.00  0.00     0.034 A 
ATOM     42  C   UNL     1      -5.165 -17.527  -1.684  1.00  0.00     0.034 A 
ATOM     43  C   UNL     1     -11.522 -16.496  -0.470  1.00  0.00     0.049 A 
ATOM     44  C   UNL     1      -6.287 -18.412  -1.201  1.00  0.00     0.074 A 
ATOM     45  C   UNL     1     -12.470 -17.428  -0.085  1.00  0.00     0.029 A 
ATOM     46  N   UNL     1     -10.316 -17.179  -0.572  1.00  0.00    -0.354 N 
ATOM     47  N   UNL     1      -7.547 -18.107  -0.984  1.00  0.00    -0.248 NA
ATOM     48  C   UNL     1      -5.955 -19.818  -0.941  1.00  0.00     0.031 C 
ATOM     49  C   UNL     1     -11.826 -18.653   0.115  1.00  0.00     0.029 A 
ATOM     50  C   UNL     1     -10.491 -18.511  -0.231  1.00  0.00     0.049 A 
ATOM     51  H   UNL     1      -9.461 -16.775  -0.846  1.00  0.00     0.167 HD
ATOM     52  C   UNL     1      -8.164 -19.296  -0.602  1.00  0.00     0.074 A 
ATOM     53  C   UNL     1      -7.141 -20.321  -0.632  1.00  0.00     0.031 C 
ATOM     54  C   UNL     1      -9.460 -19.522  -0.263  1.00  0.00     0.034 A 
BRANCH  41  55
ATOM     55  C   UNL     1     -13.055 -14.462  -0.494  1.00  0.00     0.023 A 
ATOM     56  C   UNL     1     -13.771 -13.844  -1.535  1.00  0.00     0.031 A 
ATOM     57  C   UNL     1     -13.627 -14.451   0.790  1.00  0.00     0.131 A 
ATOM     58  C   UNL     1     -14.970 -13.170  -1.260  1.00  0.00     0.055 A 
ATOM     59  C   UNL     1     -14.866 -13.857   1.040  1.00  0.00     0.041 A 
ATOM     60  F   UNL     1     -12.984 -15.004   1.831  1.00  0.00    -0.206 F 
ATOM     61  C   UNL     1     -15.537 -13.196   0.016  1.00  0.00     0.022 A 
BRANCH  58  62
ATOM     62  S   UNL     1     -15.693 -12.126  -2.555  1.00  0.00     0.124 S 
ATOM     63  O   UNL     1     -14.606 -11.185  -2.816  1.00  0.00    -0.237 OA
ATOM     64  O   UNL     1     -15.975 -13.087  -3.615  1.00  0.00    -0.237 OA
ATOM     65  O   UNL     1     -16.869 -11.544  -1.910  1.00  0.00    -0.744 OA
ENDBRANCH  58  62
ENDBRANCH  41  55
BRANCH  42  66
ATOM     66  C   UNL     1      -3.782 -18.066  -1.841  1.00  0.00     0.023 A 
ATOM     67  C   UNL     1      -3.503 -19.087  -2.764  1.00  0.00     0.031 A 
ATOM     68  C   UNL     1      -2.727 -17.601  -1.036  1.00  0.00     0.131 A 
ATOM     69  C   UNL     1      -2.217 -19.647  -2.822  1.00  0.00     0.055 A 
ATOM     70  C   UNL     1      -1.435 -18.120  -1.139  1.00  0.00     0.041 A 
ATOM     71  F   UNL     1      -2.936 -16.623  -0.140  1.00  0.00    -0.206 F 
ATOM     72  C   UNL     1      -1.178 -19.161  -2.025  1.00  0.00     0.022 A 
BRANCH  69  73
ATOM     73  S   UNL     1      -1.945 -21.090  -3.887  1.00  0.00     0.124 S 
ATOM     74  O   UNL     1      -2.922 -22.035  -3.361  1.00  0.00    -0.237 OA
ATOM     75  O   UNL     1      -2.226 -20.545  -5.212  1.00  0.00    -0.237 OA
ATOM     76  O   UNL     1      -0.546 -21.434  -3.642  1.00  0.00    -0.744 OA
ENDBRANCH  69  73
ENDBRANCH  42  66
BRANCH  54  77
ATOM     77  C   UNL     1      -9.852 -20.948   0.041  1.00  0.00     0.023 A 
ATOM     78  C   UNL     1      -9.335 -21.644   1.148  1.00  0.00     0.031 A 
ATOM     79  C   UNL     1     -10.749 -21.626  -0.804  1.00  0.00     0.131 A 
ATOM     80  C   UNL     1      -9.667 -22.993   1.342  1.00  0.00     0.055 A 
ATOM     81  C   UNL     1     -11.130 -22.947  -0.566  1.00  0.00     0.041 A 
ATOM     82  F   UNL     1     -11.272 -21.014  -1.878  1.00  0.00    -0.206 F 
ATOM     83  C   UNL     1     -10.576 -23.643   0.503  1.00  0.00     0.022 A 
BRANCH  80  84
ATOM     84  S   UNL     1      -8.808 -23.923   2.642  1.00  0.00     0.124 S 
ATOM     85  O   UNL     1      -7.409 -23.746   2.267  1.00  0.00    -0.237 OA
ATOM     86  O   UNL     1      -9.235 -23.231   3.854  1.00  0.00    -0.237 OA
ATOM     87  O   UNL     1      -9.324 -25.282   2.490  1.00  0.00    -0.744 OA
ENDBRANCH  80  84
ENDBRANCH  54  77
ENDBRANCH  28  29
ENDBRANCH  20  23
ENDBRANCH  18  19
ENDBRANCH  17  18
ENDBRANCH   1  17
TORSDOF 18
