REMARK SMILES CC1(C(=O)N[C@H](C(=O)NCCCNC(=O)c2ccc(-c3c4nc(c(-c5cc(S(=O)(=O)[O-])ccc5F)c5ccc([nH]5)c(-c5cc(S(=O)(=O)[O-])ccc5F)c5nc(c(-c6cc(S(=O)(=O)[O-])ccc6F)c6ccc3[nH]6)C=C5)C=C4)cc2)C2CC2)CCCC1
REMARK SMILES IDX 11 1 10 2 9 3 7 4 8 5 6 7 5 8 3 9 4 10 2 12 1 13 82 14 85 15
REMARK SMILES IDX 83 16 84 17 79 18 80 19 81 20 12 21 13 22 14 23 15 25 16 26
REMARK SMILES IDX 17 27 78 28 18 29 77 30 19 31 20 32 21 33 71 34 22 35 76 36
REMARK SMILES IDX 70 37 72 38 23 39 75 40 69 41 68 42 24 44 56 45 36 46 55 47
REMARK SMILES IDX 37 48 40 49 54 50 73 51 38 52 39 53 53 55 74 56 41 57 25 58
REMARK SMILES IDX 26 59 34 60 27 61 33 62 35 63 32 64 28 65 29 66 30 67 31 68
REMARK SMILES IDX 57 69 58 70 66 71 59 72 65 73 67 74 64 75 60 76 61 77 62 78
REMARK SMILES IDX 63 79 42 80 43 81 51 82 44 83 50 84 52 85 49 86 45 87 46 88
REMARK SMILES IDX 47 89 48 90
REMARK H PARENT 9 6 5 11 13 24 72 43 40 54
REMARK Flexibility Score: inf
ROOT
ATOM      1  C   UNL     1       6.455  -1.151   2.133  1.00  0.00     0.042 C 
ENDROOT
BRANCH   1   2
ATOM      2  C   UNL     1       5.303  -2.003   2.649  1.00  0.00     0.117 C 
BRANCH   2   3
ATOM      3  N   UNL     1       4.076  -1.244   2.787  1.00  0.00    -0.354 N 
ATOM      4  C   UNL     1       2.932  -1.290   2.049  1.00  0.00     0.242 C 
ATOM      5  O   UNL     1       1.948  -0.689   2.493  1.00  0.00    -0.273 OA
ATOM      6  H   UNL     1       4.069  -0.596   3.528  1.00  0.00     0.163 HD
BRANCH   4   7
ATOM      7  C   UNL     1       2.803  -2.213   0.807  1.00  0.00     0.174 C 
BRANCH   7   8
ATOM      8  N   UNL     1       3.919  -2.084  -0.124  1.00  0.00    -0.344 N 
ATOM      9  C   UNL     1       4.168  -1.222  -1.142  1.00  0.00     0.226 C 
ATOM     10  O   UNL     1       5.241  -1.387  -1.730  1.00  0.00    -0.274 OA
ATOM     11  H   UNL     1       4.629  -2.753   0.012  1.00  0.00     0.164 HD
BRANCH   9  12
ATOM     12  C   UNL     1       3.167  -0.149  -1.594  1.00  0.00     0.046 C 
ATOM     13  C   UNL     1       1.976  -0.808  -2.307  1.00  0.00     0.022 C 
ATOM     14  C   UNL     1       3.863   0.842  -2.557  1.00  0.00     0.016 C 
ATOM     15  C   UNL     1       2.736   0.802  -0.471  1.00  0.00     0.016 C 
ATOM     16  C   UNL     1       3.001   2.095  -2.532  1.00  0.00     0.001 C 
ATOM     17  C   UNL     1       2.405   2.142  -1.132  1.00  0.00     0.001 C 
ENDBRANCH   9  12
ENDBRANCH   7   8
BRANCH   7  18
ATOM     18  C   UNL     1       2.624  -3.657   1.254  1.00  0.00     0.021 C 
ATOM     19  C   UNL     1       1.802  -4.604   0.409  1.00  0.00     0.006 C 
ATOM     20  C   UNL     1       3.270  -4.854   0.580  1.00  0.00     0.006 C 
ENDBRANCH   7  18
ENDBRANCH   4   7
ENDBRANCH   2   3
ENDBRANCH   1   2
BRANCH   1  21
ATOM     21  C   UNL     1       6.828   0.004   3.059  1.00  0.00     0.118 C 
BRANCH  21  22
ATOM     22  N   UNL     1       7.192  -0.448   4.394  1.00  0.00    -0.352 N 
ATOM     23  C   UNL     1       8.336  -0.236   5.118  1.00  0.00     0.251 C 
ATOM     24  H   UNL     1       6.509  -0.992   4.849  1.00  0.00     0.163 HD
ATOM     25  O   UNL     1       8.523  -0.899   6.140  1.00  0.00    -0.269 OA
BRANCH  23  26
ATOM     26  C   UNL     1       9.335   0.762   4.683  1.00  0.00     0.039 A 
ATOM     27  C   UNL     1      10.692   0.481   4.866  1.00  0.00     0.014 A 
ATOM     28  C   UNL     1       8.944   1.992   4.147  1.00  0.00     0.014 A 
ATOM     29  C   UNL     1      11.654   1.418   4.481  1.00  0.00     0.010 A 
ATOM     30  C   UNL     1       9.904   2.888   3.687  1.00  0.00     0.010 A 
ATOM     31  C   UNL     1      11.269   2.622   3.870  1.00  0.00    -0.014 A 
BRANCH  31  32
ATOM     32  C   UNL     1      12.275   3.641   3.474  1.00  0.00     0.031 A 
ATOM     33  C   UNL     1      12.272   4.991   4.143  1.00  0.00     0.074 A 
ATOM     34  C   UNL     1      13.156   3.370   2.491  1.00  0.00     0.049 A 
ATOM     35  N   UNL     1      13.010   6.042   3.895  1.00  0.00    -0.248 NA
ATOM     36  C   UNL     1      11.283   5.192   5.214  1.00  0.00     0.031 C 
ATOM     37  C   UNL     1      13.234   2.110   1.750  1.00  0.00     0.029 A 
ATOM     38  N   UNL     1      14.152   4.139   1.944  1.00  0.00    -0.354 N 
ATOM     39  C   UNL     1      12.565   7.032   4.766  1.00  0.00     0.074 A 
ATOM     40  C   UNL     1      11.447   6.475   5.496  1.00  0.00     0.031 C 
ATOM     41  C   UNL     1      14.242   2.183   0.865  1.00  0.00     0.029 A 
ATOM     42  C   UNL     1      14.852   3.506   0.943  1.00  0.00     0.049 A 
ATOM     43  H   UNL     1      14.347   5.058   2.240  1.00  0.00     0.167 HD
ATOM     44  C   UNL     1      13.059   8.280   4.959  1.00  0.00     0.034 A 
ATOM     45  C   UNL     1      15.866   3.948   0.172  1.00  0.00     0.034 A 
ATOM     46  C   UNL     1      14.186   8.813   4.232  1.00  0.00     0.049 A 
ATOM     47  C   UNL     1      16.390   5.346   0.393  1.00  0.00     0.074 A 
ATOM     48  C   UNL     1      14.793  10.049   4.365  1.00  0.00     0.029 A 
ATOM     49  N   UNL     1      14.879   8.137   3.235  1.00  0.00    -0.354 N 
ATOM     50  N   UNL     1      15.979   6.259   1.244  1.00  0.00    -0.248 NA
ATOM     51  C   UNL     1      17.526   5.765  -0.437  1.00  0.00     0.031 C 
ATOM     52  C   UNL     1      15.811  10.144   3.409  1.00  0.00     0.029 A 
ATOM     53  C   UNL     1      15.894   8.937   2.733  1.00  0.00     0.049 A 
ATOM     54  H   UNL     1      14.679   7.223   2.929  1.00  0.00     0.167 HD
ATOM     55  C   UNL     1      16.837   7.343   1.079  1.00  0.00     0.074 A 
ATOM     56  C   UNL     1      17.791   6.965   0.058  1.00  0.00     0.031 C 
ATOM     57  C   UNL     1      16.841   8.542   1.718  1.00  0.00     0.034 A 
BRANCH  44  58
ATOM     58  C   UNL     1      12.367   9.152   5.981  1.00  0.00     0.023 A 
ATOM     59  C   UNL     1      12.312   8.794   7.340  1.00  0.00     0.031 A 
ATOM     60  C   UNL     1      11.725  10.340   5.590  1.00  0.00     0.131 A 
ATOM     61  C   UNL     1      11.564   9.567   8.240  1.00  0.00     0.055 A 
ATOM     62  C   UNL     1      11.056  11.152   6.508  1.00  0.00     0.041 A 
ATOM     63  F   UNL     1      11.723  10.725   4.304  1.00  0.00    -0.206 F 
ATOM     64  C   UNL     1      10.958  10.759   7.839  1.00  0.00     0.022 A 
BRANCH  61  65
ATOM     65  S   UNL     1      11.270   8.913   9.906  1.00  0.00     0.124 S 
ATOM     66  O   UNL     1      10.575   7.661   9.612  1.00  0.00    -0.237 OA
ATOM     67  O   UNL     1      12.621   8.784  10.439  1.00  0.00    -0.237 OA
ATOM     68  O   UNL     1      10.445   9.941  10.537  1.00  0.00    -0.744 OA
ENDBRANCH  61  65
ENDBRANCH  44  58
BRANCH  45  69
ATOM     69  C   UNL     1      16.462   3.070  -0.876  1.00  0.00     0.023 A 
ATOM     70  C   UNL     1      17.804   2.663  -0.800  1.00  0.00     0.031 A 
ATOM     71  C   UNL     1      15.716   2.670  -1.999  1.00  0.00     0.131 A 
ATOM     72  C   UNL     1      18.376   1.933  -1.852  1.00  0.00     0.055 A 
ATOM     73  C   UNL     1      16.274   1.893  -3.017  1.00  0.00     0.041 A 
ATOM     74  F   UNL     1      14.428   3.026  -2.121  1.00  0.00    -0.206 F 
ATOM     75  C   UNL     1      17.617   1.534  -2.954  1.00  0.00     0.022 A 
BRANCH  72  76
ATOM     76  S   UNL     1      20.159   1.599  -1.808  1.00  0.00     0.124 S 
ATOM     77  O   UNL     1      20.709   2.945  -1.704  1.00  0.00    -0.237 OA
ATOM     78  O   UNL     1      20.279   0.762  -0.619  1.00  0.00    -0.237 OA
ATOM     79  O   UNL     1      20.409   0.918  -3.076  1.00  0.00    -0.744 OA
ENDBRANCH  72  76
ENDBRANCH  45  69
BRANCH  57  80
ATOM     80  C   UNL     1      17.959   9.498   1.377  1.00  0.00     0.023 A 
ATOM     81  C   UNL     1      18.080  10.080   0.103  1.00  0.00     0.031 A 
ATOM     82  C   UNL     1      18.929   9.815   2.344  1.00  0.00     0.131 A 
ATOM     83  C   UNL     1      19.181  10.899  -0.188  1.00  0.00     0.055 A 
ATOM     84  C   UNL     1      19.987  10.682   2.068  1.00  0.00     0.041 A 
ATOM     85  F   UNL     1      18.864   9.287   3.577  1.00  0.00    -0.206 F 
ATOM     86  C   UNL     1      20.126  11.218   0.791  1.00  0.00     0.022 A 
BRANCH  83  87
ATOM     87  S   UNL     1      19.420  11.462  -1.896  1.00  0.00     0.124 S 
ATOM     88  O   UNL     1      19.468  10.201  -2.628  1.00  0.00    -0.237 OA
ATOM     89  O   UNL     1      18.237  12.286  -2.121  1.00  0.00    -0.237 OA
ATOM     90  O   UNL     1      20.684  12.196  -1.841  1.00  0.00    -0.744 OA
ENDBRANCH  83  87
ENDBRANCH  57  80
ENDBRANCH  31  32
ENDBRANCH  23  26
ENDBRANCH  21  22
ENDBRANCH   1  21
TORSDOF 16
