REMARK SMILES C[C@H]1[C@H](C(=O)NCCCNC(=O)c2ccc(-c3c4nc(c(-c5cc(S(=O)(=O)[O-])ccc5F)c5ccc([nH]5)c(-c5cc(S(=O)(=O)[O-])ccc5F)c5nc(c(-c6cc(S(=O)(=O)[O-])ccc6F)c6ccc3[nH]6)C=C5)C=C4)cc2)CCN1c1ccc(C(N)=O)c(Cl)c1
REMARK SMILES IDX 8 1 7 2 6 3 4 4 5 5 3 7 1 8 2 9 78 10 76 11 77 12 79 13
REMARK SMILES IDX 80 14 88 15 81 16 86 17 82 18 87 19 83 20 84 21 85 22 9 25
REMARK SMILES IDX 10 26 11 27 12 29 13 30 14 31 75 32 15 33 74 34 16 35 17 36
REMARK SMILES IDX 18 37 68 38 19 39 73 40 67 41 69 42 20 43 72 44 66 45 65 46
REMARK SMILES IDX 21 48 53 49 33 50 52 51 34 52 37 53 51 54 70 55 35 56 36 57
REMARK SMILES IDX 50 59 71 60 38 61 22 62 23 63 31 64 24 65 30 66 32 67 29 68
REMARK SMILES IDX 25 69 26 70 27 71 28 72 54 73 55 74 63 75 56 76 62 77 64 78
REMARK SMILES IDX 61 79 57 80 58 81 59 82 60 83 39 84 40 85 48 86 41 87 47 88
REMARK SMILES IDX 49 89 46 90 42 91 43 92 44 93 45 94
REMARK H PARENT 6 6 84 23 84 24 10 28 69 47 37 58
REMARK Flexibility Score: inf
ROOT
ATOM      1  C   UNL     1      -0.221   0.075   3.998  1.00  0.00     0.042 C 
ENDROOT
BRANCH   1   2
ATOM      2  C   UNL     1      -1.124   0.658   2.919  1.00  0.00     0.117 C 
BRANCH   2   3
ATOM      3  N   UNL     1      -0.596   1.897   2.367  1.00  0.00    -0.356 N 
ATOM      4  C   UNL     1      -0.101   2.192   1.135  1.00  0.00     0.225 C 
ATOM      5  O   UNL     1       0.302   3.343   0.946  1.00  0.00    -0.275 OA
ATOM      6  H   UNL     1      -0.597   2.654   2.996  1.00  0.00     0.163 HD
BRANCH   4   7
ATOM      7  C   UNL     1      -0.044   1.177   0.007  1.00  0.00     0.102 C 
ATOM      8  C   UNL     1       2.093  -0.065  -0.521  1.00  0.00     0.032 C 
ATOM      9  C   UNL     1       0.834  -0.038   0.348  1.00  0.00     0.091 C 
ATOM     10  N   UNL     1      -0.009  -1.196   0.040  1.00  0.00    -0.368 N 
ATOM     11  C   UNL     1      -1.415   0.643  -0.406  1.00  0.00     0.037 C 
ATOM     12  C   UNL     1      -1.204  -0.836  -0.706  1.00  0.00     0.118 C 
BRANCH  10  13
ATOM     13  C   UNL     1       0.224  -2.482   0.461  1.00  0.00     0.038 A 
ATOM     14  C   UNL     1      -0.052  -3.576  -0.360  1.00  0.00     0.027 A 
ATOM     15  C   UNL     1       0.707  -2.768   1.740  1.00  0.00     0.047 A 
ATOM     16  C   UNL     1       0.127  -4.896   0.082  1.00  0.00     0.017 A 
ATOM     17  C   UNL     1       0.856  -4.083   2.218  1.00  0.00     0.055 A 
ATOM     18  C   UNL     1       0.572  -5.173   1.385  1.00  0.00     0.058 A 
ATOM     19  Cl  UNL     1       1.383  -4.211   3.862  1.00  0.00    -0.083 Cl
BRANCH  18  20
ATOM     20  C   UNL     1       0.691  -6.590   1.853  1.00  0.00     0.250 C 
ATOM     21  N   UNL     1       0.668  -7.594   0.922  1.00  0.00    -0.366 N 
ATOM     22  O   UNL     1       0.793  -6.908   3.032  1.00  0.00    -0.269 OA
ATOM     23  H   UNL     1       0.587  -7.377  -0.034  1.00  0.00     0.159 HD
ATOM     24  H   UNL     1       0.733  -8.534   1.210  1.00  0.00     0.159 HD
ENDBRANCH  18  20
ENDBRANCH  10  13
ENDBRANCH   4   7
ENDBRANCH   2   3
ENDBRANCH   1   2
BRANCH   1  25
ATOM     25  C   UNL     1      -0.154   0.904   5.271  1.00  0.00     0.118 C 
BRANCH  25  26
ATOM     26  N   UNL     1      -1.433   0.965   5.960  1.00  0.00    -0.352 N 
ATOM     27  C   UNL     1      -1.811   0.451   7.176  1.00  0.00     0.251 C 
ATOM     28  H   UNL     1      -2.140   1.452   5.478  1.00  0.00     0.163 HD
ATOM     29  O   UNL     1      -3.007   0.418   7.457  1.00  0.00    -0.269 OA
BRANCH  27  30
ATOM     30  C   UNL     1      -0.804  -0.072   8.128  1.00  0.00     0.039 A 
ATOM     31  C   UNL     1      -1.121  -1.198   8.892  1.00  0.00     0.014 A 
ATOM     32  C   UNL     1       0.433   0.554   8.300  1.00  0.00     0.014 A 
ATOM     33  C   UNL     1      -0.177  -1.726   9.777  1.00  0.00     0.010 A 
ATOM     34  C   UNL     1       1.408  -0.032   9.103  1.00  0.00     0.010 A 
ATOM     35  C   UNL     1       1.111  -1.173   9.861  1.00  0.00    -0.014 A 
BRANCH  35  36
ATOM     36  C   UNL     1       2.147  -1.772  10.745  1.00  0.00     0.031 A 
ATOM     37  C   UNL     1       2.741  -0.971  11.874  1.00  0.00     0.074 A 
ATOM     38  C   UNL     1       2.582  -3.025  10.504  1.00  0.00     0.049 A 
ATOM     39  N   UNL     1       3.679  -1.306  12.724  1.00  0.00    -0.248 NA
ATOM     40  C   UNL     1       2.235   0.399  12.052  1.00  0.00     0.031 C 
ATOM     41  C   UNL     1       2.121  -3.881   9.408  1.00  0.00     0.029 A 
ATOM     42  N   UNL     1       3.508  -3.798  11.159  1.00  0.00    -0.354 N 
ATOM     43  C   UNL     1       3.877  -0.191  13.532  1.00  0.00     0.074 A 
ATOM     44  C   UNL     1       3.017   0.854  13.019  1.00  0.00     0.031 C 
ATOM     45  C   UNL     1       2.737  -5.070   9.489  1.00  0.00     0.029 A 
ATOM     46  C   UNL     1       3.676  -5.047  10.606  1.00  0.00     0.049 A 
ATOM     47  H   UNL     1       4.005  -3.488  11.950  1.00  0.00     0.167 HD
ATOM     48  C   UNL     1       4.679  -0.059  14.619  1.00  0.00     0.034 A 
ATOM     49  C   UNL     1       4.501  -6.055  10.950  1.00  0.00     0.034 A 
ATOM     50  C   UNL     1       5.531  -1.113  15.117  1.00  0.00     0.049 A 
ATOM     51  C   UNL     1       5.407  -5.876  12.141  1.00  0.00     0.074 A 
ATOM     52  C   UNL     1       6.353  -1.104  16.230  1.00  0.00     0.029 A 
ATOM     53  N   UNL     1       5.681  -2.363  14.526  1.00  0.00    -0.354 N 
ATOM     54  N   UNL     1       5.543  -4.832  12.928  1.00  0.00    -0.248 NA
ATOM     55  C   UNL     1       6.259  -7.016  12.500  1.00  0.00     0.031 C 
ATOM     56  C   UNL     1       7.055  -2.313  16.269  1.00  0.00     0.029 A 
ATOM     57  C   UNL     1       6.606  -3.117  15.233  1.00  0.00     0.049 A 
ATOM     58  H   UNL     1       5.200  -2.668  13.723  1.00  0.00     0.167 HD
ATOM     59  C   UNL     1       6.479  -5.202  13.890  1.00  0.00     0.074 A 
ATOM     60  C   UNL     1       6.850  -6.572  13.599  1.00  0.00     0.031 C 
ATOM     61  C   UNL     1       6.985  -4.477  14.922  1.00  0.00     0.034 A 
BRANCH  48  62
ATOM     62  C   UNL     1       4.683   1.280  15.321  1.00  0.00     0.023 A 
ATOM     63  C   UNL     1       3.517   1.814  15.902  1.00  0.00     0.031 A 
ATOM     64  C   UNL     1       5.857   2.051  15.388  1.00  0.00     0.131 A 
ATOM     65  C   UNL     1       3.531   3.107  16.446  1.00  0.00     0.055 A 
ATOM     66  C   UNL     1       5.886   3.300  16.013  1.00  0.00     0.041 A 
ATOM     67  F   UNL     1       6.998   1.610  14.834  1.00  0.00    -0.206 F 
ATOM     68  C   UNL     1       4.714   3.843  16.532  1.00  0.00     0.022 A 
BRANCH  65  69
ATOM     69  S   UNL     1       1.949   3.874  16.895  1.00  0.00     0.124 S 
ATOM     70  O   UNL     1       1.229   3.829  15.624  1.00  0.00    -0.237 OA
ATOM     71  O   UNL     1       1.454   2.989  17.942  1.00  0.00    -0.237 OA
ATOM     72  O   UNL     1       2.332   5.214  17.337  1.00  0.00    -0.744 OA
ENDBRANCH  65  69
ENDBRANCH  48  62
BRANCH  49  73
ATOM     73  C   UNL     1       4.526  -7.316  10.151  1.00  0.00     0.023 A 
ATOM     74  C   UNL     1       4.160  -8.547  10.719  1.00  0.00     0.031 A 
ATOM     75  C   UNL     1       4.954  -7.311   8.811  1.00  0.00     0.131 A 
ATOM     76  C   UNL     1       4.275  -9.727   9.966  1.00  0.00     0.055 A 
ATOM     77  C   UNL     1       5.005  -8.478   8.047  1.00  0.00     0.041 A 
ATOM     78  F   UNL     1       5.320  -6.162   8.219  1.00  0.00    -0.206 F 
ATOM     79  C   UNL     1       4.678  -9.698   8.629  1.00  0.00     0.022 A 
BRANCH  76  80
ATOM     80  S   UNL     1       3.984 -11.316  10.791  1.00  0.00     0.124 S 
ATOM     81  O   UNL     1       4.958 -11.272  11.875  1.00  0.00    -0.237 OA
ATOM     82  O   UNL     1       2.583 -11.205  11.184  1.00  0.00    -0.237 OA
ATOM     83  O   UNL     1       4.259 -12.300   9.745  1.00  0.00    -0.744 OA
ENDBRANCH  76  80
ENDBRANCH  49  73
BRANCH  61  84
ATOM     84  C   UNL     1       7.969  -5.177  15.831  1.00  0.00     0.023 A 
ATOM     85  C   UNL     1       9.217  -5.627  15.366  1.00  0.00     0.031 A 
ATOM     86  C   UNL     1       7.639  -5.423  17.176  1.00  0.00     0.131 A 
ATOM     87  C   UNL     1      10.056  -6.364  16.216  1.00  0.00     0.055 A 
ATOM     88  C   UNL     1       8.511  -6.091  18.038  1.00  0.00     0.041 A 
ATOM     89  F   UNL     1       6.460  -5.021  17.677  1.00  0.00    -0.206 F 
ATOM     90  C   UNL     1       9.720  -6.582  17.554  1.00  0.00     0.022 A 
BRANCH  87  91
ATOM     91  S   UNL     1      11.537  -7.143  15.514  1.00  0.00     0.124 S 
ATOM     92  O   UNL     1      10.972  -7.963  14.448  1.00  0.00    -0.237 OA
ATOM     93  O   UNL     1      12.322  -5.990  15.084  1.00  0.00    -0.237 OA
ATOM     94  O   UNL     1      12.098  -7.889  16.640  1.00  0.00    -0.744 OA
ENDBRANCH  87  91
ENDBRANCH  61  84
ENDBRANCH  35  36
ENDBRANCH  27  30
ENDBRANCH  25  26
ENDBRANCH   1  25
TORSDOF 15
