REMARK SMILES C[NH2+][C@@]1(C(=O)NCCCNC(=O)c2ccc(-c3c4nc(c(-c5cc(S(=O)(=O)[O-])ccc5F)c5ccc([nH]5)c(-c5cc(S(=O)(=O)[O-])ccc5F)c5nc(c(-c6cc(S(=O)(=O)[O-])ccc6F)c6ccc3[nH]6)C=C5)C=C4)cc2)CCC[C@@H]([N@@H+](C)C2CC[NH+](C)CC2)C1
REMARK SMILES IDX 8 1 7 2 6 3 4 4 5 5 3 7 76 8 89 9 77 10 79 11 78 12 2 13
REMARK SMILES IDX 1 14 80 17 81 18 82 20 83 21 88 22 84 23 87 24 85 25 86 26
REMARK SMILES IDX 9 28 10 29 11 30 12 32 13 33 14 34 75 35 15 36 74 37 16 38
REMARK SMILES IDX 17 39 18 40 68 41 19 42 73 43 67 44 69 45 20 46 72 47 66 48
REMARK SMILES IDX 65 49 21 51 53 52 33 53 52 54 34 55 37 56 51 57 70 58 35 59
REMARK SMILES IDX 36 60 50 62 71 63 38 64 22 65 23 66 31 67 24 68 30 69 32 70
REMARK SMILES IDX 29 71 25 72 26 73 27 74 28 75 54 76 55 77 63 78 56 79 62 80
REMARK SMILES IDX 64 81 61 82 57 83 58 84 59 85 60 86 39 87 40 88 48 89 41 90
REMARK SMILES IDX 47 91 49 92 46 93 42 94 43 95 44 96 45 97
REMARK H PARENT 6 6 2 15 2 16 80 19 85 27 10 31 69 50 37 61
REMARK Flexibility Score: inf
ROOT
ATOM      1  C   UNL     1      -4.742  -0.173  -1.238  1.00  0.00     0.042 C 
ENDROOT
BRANCH   1   2
ATOM      2  C   UNL     1      -3.888  -1.403  -1.435  1.00  0.00     0.118 C 
BRANCH   2   3
ATOM      3  N   UNL     1      -2.598  -1.115  -1.988  1.00  0.00    -0.351 N 
ATOM      4  C   UNL     1      -1.375  -1.194  -1.415  1.00  0.00     0.281 C 
ATOM      5  O   UNL     1      -0.443  -1.326  -2.224  1.00  0.00    -0.268 OA
ATOM      6  H   UNL     1      -2.603  -0.815  -2.926  1.00  0.00     0.163 HD
BRANCH   4   7
ATOM      7  C   UNL     1      -1.102  -1.175   0.157  1.00  0.00     0.181 C 
ATOM      8  C   UNL     1      -1.462  -2.529   0.806  1.00  0.00     0.079 C 
ATOM      9  C   UNL     1      -1.673   0.048   0.904  1.00  0.00     0.144 C 
ATOM     10  C   UNL     1      -2.805  -2.711   1.506  1.00  0.00     0.013 C 
ATOM     11  C   UNL     1      -2.970  -0.093   1.729  1.00  0.00     0.190 C 
ATOM     12  C   UNL     1      -3.568  -1.480   1.975  1.00  0.00     0.065 C 
BRANCH   7  13
ATOM     13  N   UNL     1       0.421  -1.161   0.269  1.00  0.00    -0.336 N 
ATOM     14  C   UNL     1       1.077   0.095  -0.098  1.00  0.00     0.331 C 
ATOM     15  H   UNL     1       0.665  -1.369   1.238  1.00  0.00     0.346 HD
ATOM     16  H   UNL     1       0.754  -1.853  -0.401  1.00  0.00     0.346 HD
ENDBRANCH   7  13
BRANCH  11  17
ATOM     17  N   UNL     1      -3.102   0.874   2.848  1.00  0.00    -0.332 N 
ATOM     18  C   UNL     1      -4.500   1.303   3.031  1.00  0.00     0.333 C 
ATOM     19  H   UNL     1      -2.488   1.590   2.460  1.00  0.00     0.348 HD
BRANCH  17  20
ATOM     20  C   UNL     1      -2.412   0.722   4.158  1.00  0.00     0.195 C 
ATOM     21  C   UNL     1      -0.879   0.755   4.141  1.00  0.00     0.126 C 
ATOM     22  C   UNL     1      -2.871  -0.363   5.154  1.00  0.00     0.126 C 
ATOM     23  C   UNL     1      -0.246  -0.617   3.955  1.00  0.00     0.268 C 
ATOM     24  C   UNL     1      -2.119  -1.694   5.074  1.00  0.00     0.268 C 
ATOM     25  N   UNL     1      -0.658  -1.579   4.983  1.00  0.00    -0.337 N 
ATOM     26  C   UNL     1      -0.088  -2.896   4.658  1.00  0.00     0.332 C 
ATOM     27  H   UNL     1      -0.315  -1.247   5.884  1.00  0.00     0.347 HD
ENDBRANCH  17  20
ENDBRANCH  11  17
ENDBRANCH   4   7
ENDBRANCH   2   3
ENDBRANCH   1   2
BRANCH   1  28
ATOM     28  C   UNL     1      -5.787  -0.046  -2.318  1.00  0.00     0.118 C 
BRANCH  28  29
ATOM     29  N   UNL     1      -6.784  -1.113  -2.228  1.00  0.00    -0.352 N 
ATOM     30  C   UNL     1      -8.135  -1.054  -1.974  1.00  0.00     0.251 C 
ATOM     31  H   UNL     1      -6.431  -2.020  -2.373  1.00  0.00     0.163 HD
ATOM     32  O   UNL     1      -8.741  -2.084  -1.713  1.00  0.00    -0.269 OA
BRANCH  30  33
ATOM     33  C   UNL     1      -8.826   0.253  -1.983  1.00  0.00     0.039 A 
ATOM     34  C   UNL     1      -9.887   0.482  -1.105  1.00  0.00     0.014 A 
ATOM     35  C   UNL     1      -8.406   1.266  -2.842  1.00  0.00     0.014 A 
ATOM     36  C   UNL     1     -10.467   1.750  -1.048  1.00  0.00     0.010 A 
ATOM     37  C   UNL     1      -8.852   2.560  -2.652  1.00  0.00     0.010 A 
ATOM     38  C   UNL     1      -9.922   2.812  -1.788  1.00  0.00    -0.014 A 
BRANCH  38  39
ATOM     39  C   UNL     1     -10.487   4.183  -1.744  1.00  0.00     0.031 A 
ATOM     40  C   UNL     1     -10.937   4.835  -3.029  1.00  0.00     0.074 A 
ATOM     41  C   UNL     1     -10.525   4.859  -0.579  1.00  0.00     0.049 A 
ATOM     42  N   UNL     1     -11.344   6.059  -3.239  1.00  0.00    -0.248 NA
ATOM     43  C   UNL     1     -10.864   4.017  -4.253  1.00  0.00     0.031 C 
ATOM     44  C   UNL     1     -10.062   4.348   0.714  1.00  0.00     0.029 A 
ATOM     45  N   UNL     1     -10.971   6.123  -0.292  1.00  0.00    -0.354 N 
ATOM     46  C   UNL     1     -11.543   6.160  -4.612  1.00  0.00     0.074 A 
ATOM     47  C   UNL     1     -11.119   4.909  -5.195  1.00  0.00     0.031 C 
ATOM     48  C   UNL     1     -10.295   5.269   1.661  1.00  0.00     0.029 A 
ATOM     49  C   UNL     1     -10.866   6.458   1.038  1.00  0.00     0.049 A 
ATOM     50  H   UNL     1     -11.332   6.734  -0.974  1.00  0.00     0.167 HD
ATOM     51  C   UNL     1     -12.073   7.186  -5.320  1.00  0.00     0.034 A 
ATOM     52  C   UNL     1     -11.187   7.600   1.677  1.00  0.00     0.034 A 
ATOM     53  C   UNL     1     -12.529   8.408  -4.710  1.00  0.00     0.049 A 
ATOM     54  C   UNL     1     -11.771   8.733   0.870  1.00  0.00     0.074 A 
ATOM     55  C   UNL     1     -13.142   9.493  -5.309  1.00  0.00     0.029 A 
ATOM     56  N   UNL     1     -12.421   8.706  -3.357  1.00  0.00    -0.354 N 
ATOM     57  N   UNL     1     -12.004   8.792  -0.422  1.00  0.00    -0.248 NA
ATOM     58  C   UNL     1     -12.147   9.945   1.606  1.00  0.00     0.031 C 
ATOM     59  C   UNL     1     -13.336  10.476  -4.333  1.00  0.00     0.029 A 
ATOM     60  C   UNL     1     -12.929   9.970  -3.108  1.00  0.00     0.049 A 
ATOM     61  H   UNL     1     -12.040   8.106  -2.676  1.00  0.00     0.167 HD
ATOM     62  C   UNL     1     -12.588  10.036  -0.645  1.00  0.00     0.074 A 
ATOM     63  C   UNL     1     -12.684  10.684   0.648  1.00  0.00     0.031 C 
ATOM     64  C   UNL     1     -13.011  10.594  -1.808  1.00  0.00     0.034 A 
BRANCH  51  65
ATOM     65  C   UNL     1     -12.172   7.025  -6.820  1.00  0.00     0.023 A 
ATOM     66  C   UNL     1     -12.933   5.998  -7.407  1.00  0.00     0.031 A 
ATOM     67  C   UNL     1     -11.467   7.889  -7.676  1.00  0.00     0.131 A 
ATOM     68  C   UNL     1     -12.903   5.808  -8.797  1.00  0.00     0.055 A 
ATOM     69  C   UNL     1     -11.518   7.752  -9.065  1.00  0.00     0.041 A 
ATOM     70  F   UNL     1     -10.702   8.873  -7.178  1.00  0.00    -0.206 F 
ATOM     71  C   UNL     1     -12.225   6.696  -9.633  1.00  0.00     0.022 A 
BRANCH  68  72
ATOM     72  S   UNL     1     -13.631   4.292  -9.478  1.00  0.00     0.124 S 
ATOM     73  O   UNL     1     -12.854   3.260  -8.794  1.00  0.00    -0.237 OA
ATOM     74  O   UNL     1     -15.029   4.407  -9.081  1.00  0.00    -0.237 OA
ATOM     75  O   UNL     1     -13.377   4.405 -10.913  1.00  0.00    -0.744 OA
ENDBRANCH  68  72
ENDBRANCH  51  65
BRANCH  52  76
ATOM     76  C   UNL     1     -10.971   7.735   3.147  1.00  0.00     0.023 A 
ATOM     77  C   UNL     1     -12.052   7.933   4.021  1.00  0.00     0.031 A 
ATOM     78  C   UNL     1      -9.677   7.709   3.699  1.00  0.00     0.131 A 
ATOM     79  C   UNL     1     -11.818   8.153   5.387  1.00  0.00     0.055 A 
ATOM     80  C   UNL     1      -9.454   7.866   5.068  1.00  0.00     0.041 A 
ATOM     81  F   UNL     1      -8.607   7.516   2.912  1.00  0.00    -0.206 F 
ATOM     82  C   UNL     1     -10.528   8.106   5.919  1.00  0.00     0.022 A 
BRANCH  79  83
ATOM     83  S   UNL     1     -13.221   8.605   6.445  1.00  0.00     0.124 S 
ATOM     84  O   UNL     1     -13.729   9.794   5.771  1.00  0.00    -0.237 OA
ATOM     85  O   UNL     1     -14.058   7.413   6.362  1.00  0.00    -0.237 OA
ATOM     86  O   UNL     1     -12.602   8.840   7.748  1.00  0.00    -0.744 OA
ENDBRANCH  79  83
ENDBRANCH  52  76
BRANCH  64  87
ATOM     87  C   UNL     1     -13.668  11.949  -1.721  1.00  0.00     0.023 A 
ATOM     88  C   UNL     1     -12.955  13.094  -1.328  1.00  0.00     0.031 A 
ATOM     89  C   UNL     1     -15.030  12.093  -2.041  1.00  0.00     0.131 A 
ATOM     90  C   UNL     1     -13.621  14.322  -1.206  1.00  0.00     0.055 A 
ATOM     91  C   UNL     1     -15.670  13.330  -1.986  1.00  0.00     0.041 A 
ATOM     92  F   UNL     1     -15.759  11.031  -2.420  1.00  0.00    -0.206 F 
ATOM     93  C   UNL     1     -14.969  14.451  -1.553  1.00  0.00     0.022 A 
BRANCH  90  94
ATOM     94  S   UNL     1     -12.728  15.727  -0.490  1.00  0.00     0.124 S 
ATOM     95  O   UNL     1     -12.338  15.204   0.815  1.00  0.00    -0.237 OA
ATOM     96  O   UNL     1     -11.644  15.928  -1.446  1.00  0.00    -0.237 OA
ATOM     97  O   UNL     1     -13.731  16.790  -0.458  1.00  0.00    -0.744 OA
ENDBRANCH  90  94
ENDBRANCH  64  87
ENDBRANCH  38  39
ENDBRANCH  30  33
ENDBRANCH  28  29
ENDBRANCH   1  28
TORSDOF 16
