REMARK SMILES C[C@H]1[C@H](C(=O)NCCCNC(=O)c2ccc(-c3c4nc(c(-c5cc(S(=O)(=O)[O-])ccc5F)c5ccc([nH]5)c(-c5cc(S(=O)(=O)[O-])ccc5F)c5nc(c(-c6cc(S(=O)(=O)[O-])ccc6F)c6ccc3[nH]6)C=C5)C=C4)cc2)CCN1c1ncnc2sccc12
REMARK SMILES IDX 9 1 8 2 7 3 6 4 4 5 5 6 3 8 1 9 2 10 78 11 76 12 77 13 79 14
REMARK SMILES IDX 80 15 87 16 81 17 83 18 86 19 82 20 84 21 85 22 10 23 11 24
REMARK SMILES IDX 12 26 13 27 14 28 75 29 15 30 74 31 16 32 17 33 18 34 68 35
REMARK SMILES IDX 19 36 73 37 67 38 69 39 20 40 72 41 66 42 65 43 21 45 53 46
REMARK SMILES IDX 33 47 52 48 34 49 37 50 51 51 70 52 35 53 36 54 50 56 71 57
REMARK SMILES IDX 38 58 22 59 23 60 31 61 24 62 30 63 32 64 29 65 25 66 26 67
REMARK SMILES IDX 27 68 28 69 54 70 55 71 63 72 56 73 62 74 64 75 61 76 57 77
REMARK SMILES IDX 58 78 59 79 60 80 39 81 40 82 48 83 41 84 47 85 49 86 46 87
REMARK SMILES IDX 42 88 43 89 44 90 45 91
REMARK H PARENT 6 7 10 25 69 44 37 55
REMARK Flexibility Score: inf
ROOT
ATOM      1  C   UNL     1      -0.112   0.730   5.212  1.00  0.00     0.118 C 
ENDROOT
BRANCH   1   2
ATOM      2  C   UNL     1      -0.249  -0.053   3.912  1.00  0.00     0.042 C 
BRANCH   2   3
ATOM      3  C   UNL     1      -1.125   0.627   2.868  1.00  0.00     0.117 C 
BRANCH   3   4
ATOM      4  N   UNL     1      -0.544   1.862   2.367  1.00  0.00    -0.356 N 
ATOM      5  C   UNL     1      -0.026   2.183   1.152  1.00  0.00     0.225 C 
ATOM      6  O   UNL     1       0.414   3.328   1.009  1.00  0.00    -0.275 OA
ATOM      7  H   UNL     1      -0.520   2.595   3.024  1.00  0.00     0.163 HD
BRANCH   5   8
ATOM      8  C   UNL     1      -0.002   1.215  -0.019  1.00  0.00     0.102 C 
ATOM      9  C   UNL     1       2.021  -0.118  -0.704  1.00  0.00     0.032 C 
ATOM     10  C   UNL     1       0.831  -0.043   0.257  1.00  0.00     0.093 C 
ATOM     11  N   UNL     1      -0.095  -1.161   0.042  1.00  0.00    -0.352 N 
ATOM     12  C   UNL     1      -1.389   0.763  -0.460  1.00  0.00     0.037 C 
ATOM     13  C   UNL     1      -1.342  -0.756  -0.567  1.00  0.00     0.119 C 
BRANCH  11  14
ATOM     14  C   UNL     1       0.207  -2.428   0.497  1.00  0.00     0.141 A 
ATOM     15  N   UNL     1       1.374  -2.572   1.183  1.00  0.00    -0.219 NA
ATOM     16  C   UNL     1      -0.592  -3.596   0.340  1.00  0.00     0.054 A 
ATOM     17  C   UNL     1       1.736  -3.768   1.667  1.00  0.00     0.225 A 
ATOM     18  C   UNL     1      -0.094  -4.763   0.911  1.00  0.00     0.128 A 
ATOM     19  C   UNL     1      -1.852  -3.884  -0.303  1.00  0.00     0.026 A 
ATOM     20  N   UNL     1       1.062  -4.908   1.574  1.00  0.00    -0.225 NA
ATOM     21  S   UNL     1      -1.119  -6.112   0.711  1.00  0.00    -0.124 S 
ATOM     22  C   UNL     1      -2.259  -5.192  -0.157  1.00  0.00     0.068 A 
ENDBRANCH  11  14
ENDBRANCH   5   8
ENDBRANCH   3   4
ENDBRANCH   2   3
ENDBRANCH   1   2
BRANCH   1  23
ATOM     23  N   UNL     1      -1.382   0.881   5.910  1.00  0.00    -0.352 N 
ATOM     24  C   UNL     1      -1.762   0.457   7.158  1.00  0.00     0.251 C 
ATOM     25  H   UNL     1      -2.077   1.363   5.406  1.00  0.00     0.163 HD
ATOM     26  O   UNL     1      -2.954   0.507   7.465  1.00  0.00    -0.269 OA
BRANCH  24  27
ATOM     27  C   UNL     1      -0.769  -0.070   8.119  1.00  0.00     0.039 A 
ATOM     28  C   UNL     1      -1.119  -1.162   8.919  1.00  0.00     0.014 A 
ATOM     29  C   UNL     1       0.490   0.519   8.262  1.00  0.00     0.014 A 
ATOM     30  C   UNL     1      -0.187  -1.698   9.812  1.00  0.00     0.010 A 
ATOM     31  C   UNL     1       1.445  -0.067   9.090  1.00  0.00     0.010 A 
ATOM     32  C   UNL     1       1.116  -1.178   9.879  1.00  0.00    -0.014 A 
BRANCH  32  33
ATOM     33  C   UNL     1       2.139  -1.785  10.771  1.00  0.00     0.031 A 
ATOM     34  C   UNL     1       2.733  -0.986  11.900  1.00  0.00     0.074 A 
ATOM     35  C   UNL     1       2.574  -3.038  10.527  1.00  0.00     0.049 A 
ATOM     36  N   UNL     1       3.675  -1.319  12.745  1.00  0.00    -0.248 NA
ATOM     37  C   UNL     1       2.220   0.380  12.080  1.00  0.00     0.031 C 
ATOM     38  C   UNL     1       2.113  -3.892   9.430  1.00  0.00     0.029 A 
ATOM     39  N   UNL     1       3.503  -3.808  11.178  1.00  0.00    -0.354 N 
ATOM     40  C   UNL     1       3.874  -0.203  13.552  1.00  0.00     0.074 A 
ATOM     41  C   UNL     1       3.003   0.837  13.046  1.00  0.00     0.031 C 
ATOM     42  C   UNL     1       2.743  -5.075   9.500  1.00  0.00     0.029 A 
ATOM     43  C   UNL     1       3.682  -5.051  10.616  1.00  0.00     0.049 A 
ATOM     44  H   UNL     1       3.997  -3.501  11.973  1.00  0.00     0.167 HD
ATOM     45  C   UNL     1       4.687  -0.066  14.630  1.00  0.00     0.034 A 
ATOM     46  C   UNL     1       4.515  -6.055  10.955  1.00  0.00     0.034 A 
ATOM     47  C   UNL     1       5.545  -1.117  15.125  1.00  0.00     0.049 A 
ATOM     48  C   UNL     1       5.415  -5.880  12.151  1.00  0.00     0.074 A 
ATOM     49  C   UNL     1       6.375  -1.104  16.233  1.00  0.00     0.029 A 
ATOM     50  N   UNL     1       5.691  -2.368  14.538  1.00  0.00    -0.354 N 
ATOM     51  N   UNL     1       5.553  -4.836  12.935  1.00  0.00    -0.248 NA
ATOM     52  C   UNL     1       6.257  -7.025  12.516  1.00  0.00     0.031 C 
ATOM     53  C   UNL     1       7.067  -2.320  16.279  1.00  0.00     0.029 A 
ATOM     54  C   UNL     1       6.615  -3.124  15.245  1.00  0.00     0.049 A 
ATOM     55  H   UNL     1       5.208  -2.674  13.736  1.00  0.00     0.167 HD
ATOM     56  C   UNL     1       6.484  -5.209  13.901  1.00  0.00     0.074 A 
ATOM     57  C   UNL     1       6.851  -6.581  13.613  1.00  0.00     0.031 C 
ATOM     58  C   UNL     1       6.988  -4.485  14.933  1.00  0.00     0.034 A 
BRANCH  45  59
ATOM     59  C   UNL     1       4.693   1.276  15.326  1.00  0.00     0.023 A 
ATOM     60  C   UNL     1       3.534   1.800  15.927  1.00  0.00     0.031 A 
ATOM     61  C   UNL     1       5.860   2.061  15.359  1.00  0.00     0.131 A 
ATOM     62  C   UNL     1       3.543   3.099  16.456  1.00  0.00     0.055 A 
ATOM     63  C   UNL     1       5.885   3.319  15.965  1.00  0.00     0.041 A 
ATOM     64  F   UNL     1       6.993   1.626  14.786  1.00  0.00    -0.206 F 
ATOM     65  C   UNL     1       4.718   3.853  16.503  1.00  0.00     0.022 A 
BRANCH  62  66
ATOM     66  S   UNL     1       1.963   3.847  16.941  1.00  0.00     0.124 S 
ATOM     67  O   UNL     1       1.215   3.793  15.687  1.00  0.00    -0.237 OA
ATOM     68  O   UNL     1       1.503   2.955  17.999  1.00  0.00    -0.237 OA
ATOM     69  O   UNL     1       2.338   5.191  17.376  1.00  0.00    -0.744 OA
ENDBRANCH  62  66
ENDBRANCH  45  59
BRANCH  46  70
ATOM     70  C   UNL     1       4.546  -7.311  10.152  1.00  0.00     0.023 A 
ATOM     71  C   UNL     1       4.140  -8.536  10.704  1.00  0.00     0.031 A 
ATOM     72  C   UNL     1       5.013  -7.307   8.825  1.00  0.00     0.131 A 
ATOM     73  C   UNL     1       4.250  -9.714   9.948  1.00  0.00     0.055 A 
ATOM     74  C   UNL     1       5.071  -8.473   8.060  1.00  0.00     0.041 A 
ATOM     75  F   UNL     1       5.406  -6.160   8.247  1.00  0.00    -0.206 F 
ATOM     76  C   UNL     1       4.701  -9.689   8.626  1.00  0.00     0.022 A 
BRANCH  73  77
ATOM     77  S   UNL     1       3.868 -11.297  10.747  1.00  0.00     0.124 S 
ATOM     78  O   UNL     1       4.803 -11.299  11.867  1.00  0.00    -0.237 OA
ATOM     79  O   UNL     1       2.459 -11.132  11.088  1.00  0.00    -0.237 OA
ATOM     80  O   UNL     1       4.143 -12.281   9.702  1.00  0.00    -0.744 OA
ENDBRANCH  73  77
ENDBRANCH  46  70
BRANCH  58  81
ATOM     81  C   UNL     1       7.969  -5.187  15.841  1.00  0.00     0.023 A 
ATOM     82  C   UNL     1       9.232  -5.605  15.383  1.00  0.00     0.031 A 
ATOM     83  C   UNL     1       7.624  -5.470  17.175  1.00  0.00     0.131 A 
ATOM     84  C   UNL     1      10.074  -6.341  16.229  1.00  0.00     0.055 A 
ATOM     85  C   UNL     1       8.494  -6.145  18.032  1.00  0.00     0.041 A 
ATOM     86  F   UNL     1       6.431  -5.097  17.666  1.00  0.00    -0.206 F 
ATOM     87  C   UNL     1       9.720  -6.599  17.556  1.00  0.00     0.022 A 
BRANCH  84  88
ATOM     88  S   UNL     1      11.595  -7.051  15.540  1.00  0.00     0.124 S 
ATOM     89  O   UNL     1      11.080  -7.864  14.443  1.00  0.00    -0.237 OA
ATOM     90  O   UNL     1      12.347  -5.862  15.154  1.00  0.00    -0.237 OA
ATOM     91  O   UNL     1      12.159  -7.805  16.659  1.00  0.00    -0.744 OA
ENDBRANCH  84  88
ENDBRANCH  58  81
ENDBRANCH  32  33
ENDBRANCH  24  27
ENDBRANCH   1  23
TORSDOF 14
