REMARK SMILES C[C@H]1[C@H](C(=O)NCCCNC(=O)c2ccc(-c3c4nc(c(-c5cc(S(=O)(=O)[O-])ccc5F)c5ccc([nH]5)c(-c5cc(S(=O)(=O)[O-])ccc5F)c5nc(c(-c6cc(S(=O)(=O)[O-])ccc6F)c6ccc3[nH]6)C=C5)C=C4)cc2)CC[N@@H+]1Cc1ccc(Br)cc1F
REMARK SMILES IDX 8 1 7 2 6 3 4 4 5 5 3 7 1 8 2 9 78 10 76 11 77 12 79 14
REMARK SMILES IDX 80 15 81 16 86 17 82 18 85 19 87 20 83 21 84 22 9 23 10 24
REMARK SMILES IDX 11 25 12 27 13 28 14 29 75 30 15 31 74 32 16 33 17 34 18 35
REMARK SMILES IDX 68 36 19 37 73 38 67 39 69 40 20 41 72 42 66 43 65 44 21 46
REMARK SMILES IDX 53 47 33 48 52 49 34 50 37 51 51 52 70 53 35 54 36 55 50 57
REMARK SMILES IDX 71 58 38 59 22 60 23 61 31 62 24 63 30 64 32 65 29 66 25 67
REMARK SMILES IDX 26 68 27 69 28 70 54 71 55 72 63 73 56 74 62 75 64 76 61 77
REMARK SMILES IDX 57 78 58 79 59 80 60 81 39 82 40 83 48 84 41 85 47 86 49 87
REMARK SMILES IDX 46 88 42 89 43 90 44 91 45 92
REMARK H PARENT 6 6 78 13 10 26 69 45 37 56
REMARK Flexibility Score: inf
ROOT
ATOM      1  C   UNL     1       0.386   1.007   4.119  1.00  0.00     0.042 C 
ENDROOT
BRANCH   1   2
ATOM      2  C   UNL     1      -0.600   1.519   3.073  1.00  0.00     0.117 C 
BRANCH   2   3
ATOM      3  N   UNL     1      -0.028   2.546   2.236  1.00  0.00    -0.356 N 
ATOM      4  C   UNL     1       0.310   2.513   0.922  1.00  0.00     0.229 C 
ATOM      5  O   UNL     1       0.725   3.571   0.434  1.00  0.00    -0.275 OA
ATOM      6  H   UNL     1       0.143   3.404   2.687  1.00  0.00     0.163 HD
BRANCH   4   7
ATOM      7  C   UNL     1       0.149   1.287   0.028  1.00  0.00     0.142 C 
ATOM      8  C   UNL     1       2.049  -0.339  -0.190  1.00  0.00     0.076 C 
ATOM      9  C   UNL     1       0.706  -0.071   0.508  1.00  0.00     0.193 C 
ATOM     10  N   UNL     1      -0.261  -1.085   0.044  1.00  0.00    -0.328 N 
ATOM     11  C   UNL     1      -1.279   0.986  -0.404  1.00  0.00     0.081 C 
ATOM     12  C   UNL     1      -1.149  -0.441  -0.913  1.00  0.00     0.263 C 
ATOM     13  H   UNL     1       0.276  -1.819  -0.419  1.00  0.00     0.348 HD
BRANCH  10  14
ATOM     14  C   UNL     1      -0.859  -2.026   1.009  1.00  0.00     0.302 C 
BRANCH  14  15
ATOM     15  C   UNL     1      -1.908  -1.571   2.013  1.00  0.00     0.042 A 
ATOM     16  C   UNL     1      -1.675  -1.718   3.395  1.00  0.00     0.014 A 
ATOM     17  C   UNL     1      -3.159  -1.058   1.644  1.00  0.00     0.133 A 
ATOM     18  C   UNL     1      -2.590  -1.235   4.345  1.00  0.00     0.016 A 
ATOM     19  C   UNL     1      -4.060  -0.546   2.574  1.00  0.00     0.055 A 
ATOM     20  F   UNL     1      -3.549  -1.040   0.365  1.00  0.00    -0.206 F 
ATOM     21  C   UNL     1      -3.764  -0.618   3.926  1.00  0.00     0.020 A 
ATOM     22  Br  UNL     1      -4.976   0.115   5.173  1.00  0.00    -0.051 Br
ENDBRANCH  14  15
ENDBRANCH  10  14
ENDBRANCH   4   7
ENDBRANCH   2   3
ENDBRANCH   1   2
BRANCH   1  23
ATOM     23  C   UNL     1       0.318   1.762   5.441  1.00  0.00     0.118 C 
BRANCH  23  24
ATOM     24  N   UNL     1      -0.976   1.635   6.106  1.00  0.00    -0.352 N 
ATOM     25  C   UNL     1      -1.383   0.963   7.228  1.00  0.00     0.251 C 
ATOM     26  H   UNL     1      -1.699   2.132   5.659  1.00  0.00     0.163 HD
ATOM     27  O   UNL     1      -2.593   0.928   7.479  1.00  0.00    -0.269 OA
BRANCH  25  28
ATOM     28  C   UNL     1      -0.447   0.258   8.126  1.00  0.00     0.039 A 
ATOM     29  C   UNL     1      -0.887  -0.902   8.779  1.00  0.00     0.014 A 
ATOM     30  C   UNL     1       0.823   0.758   8.404  1.00  0.00     0.014 A 
ATOM     31  C   UNL     1      -0.043  -1.575   9.666  1.00  0.00     0.010 A 
ATOM     32  C   UNL     1       1.702   0.030   9.199  1.00  0.00     0.010 A 
ATOM     33  C   UNL     1       1.272  -1.129   9.861  1.00  0.00    -0.014 A 
BRANCH  33  34
ATOM     34  C   UNL     1       2.201  -1.802  10.805  1.00  0.00     0.031 A 
ATOM     35  C   UNL     1       2.761  -1.024  11.968  1.00  0.00     0.074 A 
ATOM     36  C   UNL     1       2.603  -3.066  10.571  1.00  0.00     0.049 A 
ATOM     37  N   UNL     1       3.722  -1.339  12.797  1.00  0.00    -0.248 NA
ATOM     38  C   UNL     1       2.191   0.314  12.193  1.00  0.00     0.031 C 
ATOM     39  C   UNL     1       2.149  -3.906   9.461  1.00  0.00     0.029 A 
ATOM     40  N   UNL     1       3.499  -3.859  11.241  1.00  0.00    -0.354 N 
ATOM     41  C   UNL     1       3.895  -0.227  13.616  1.00  0.00     0.074 A 
ATOM     42  C   UNL     1       2.989   0.792  13.135  1.00  0.00     0.031 C 
ATOM     43  C   UNL     1       2.758  -5.100   9.535  1.00  0.00     0.029 A 
ATOM     44  C   UNL     1       3.685  -5.093  10.662  1.00  0.00     0.049 A 
ATOM     45  H   UNL     1       3.965  -3.572  12.060  1.00  0.00     0.167 HD
ATOM     46  C   UNL     1       4.717  -0.080  14.686  1.00  0.00     0.034 A 
ATOM     47  C   UNL     1       4.525  -6.094  10.989  1.00  0.00     0.034 A 
ATOM     48  C   UNL     1       5.589  -1.127  15.163  1.00  0.00     0.049 A 
ATOM     49  C   UNL     1       5.428  -5.913  12.182  1.00  0.00     0.074 A 
ATOM     50  C   UNL     1       6.433  -1.117  16.259  1.00  0.00     0.029 A 
ATOM     51  N   UNL     1       5.724  -2.377  14.570  1.00  0.00    -0.354 N 
ATOM     52  N   UNL     1       5.568  -4.864  12.961  1.00  0.00    -0.248 NA
ATOM     53  C   UNL     1       6.274  -7.054  12.548  1.00  0.00     0.031 C 
ATOM     54  C   UNL     1       7.121  -2.336  16.293  1.00  0.00     0.029 A 
ATOM     55  C   UNL     1       6.652  -3.138  15.265  1.00  0.00     0.049 A 
ATOM     56  H   UNL     1       5.233  -2.679  13.772  1.00  0.00     0.167 HD
ATOM     57  C   UNL     1       6.502  -5.230  13.926  1.00  0.00     0.074 A 
ATOM     58  C   UNL     1       6.869  -6.604  13.642  1.00  0.00     0.031 C 
ATOM     59  C   UNL     1       7.013  -4.502  14.953  1.00  0.00     0.034 A 
BRANCH  46  60
ATOM     60  C   UNL     1       4.718   1.262  15.384  1.00  0.00     0.023 A 
ATOM     61  C   UNL     1       3.556   1.790  15.975  1.00  0.00     0.031 A 
ATOM     62  C   UNL     1       5.883   2.050  15.418  1.00  0.00     0.131 A 
ATOM     63  C   UNL     1       3.557   3.097  16.485  1.00  0.00     0.055 A 
ATOM     64  C   UNL     1       5.902   3.314  16.013  1.00  0.00     0.041 A 
ATOM     65  F   UNL     1       7.020   1.615  14.854  1.00  0.00    -0.206 F 
ATOM     66  C   UNL     1       4.729   3.854  16.534  1.00  0.00     0.022 A 
BRANCH  63  67
ATOM     67  S   UNL     1       1.968   3.853  16.927  1.00  0.00     0.124 S 
ATOM     68  O   UNL     1       1.250   3.790  15.656  1.00  0.00    -0.237 OA
ATOM     69  O   UNL     1       1.481   2.971  17.981  1.00  0.00    -0.237 OA
ATOM     70  O   UNL     1       2.337   5.200  17.359  1.00  0.00    -0.744 OA
ENDBRANCH  63  67
ENDBRANCH  46  60
BRANCH  47  71
ATOM     71  C   UNL     1       4.563  -7.343  10.175  1.00  0.00     0.023 A 
ATOM     72  C   UNL     1       4.176  -8.576  10.724  1.00  0.00     0.031 A 
ATOM     73  C   UNL     1       5.009  -7.328   8.841  1.00  0.00     0.131 A 
ATOM     74  C   UNL     1       4.281  -9.748   9.958  1.00  0.00     0.055 A 
ATOM     75  C   UNL     1       5.062  -8.488   8.066  1.00  0.00     0.041 A 
ATOM     76  F   UNL     1       5.383  -6.175   8.263  1.00  0.00    -0.206 F 
ATOM     77  C   UNL     1       4.708  -9.710   8.629  1.00  0.00     0.022 A 
BRANCH  74  78
ATOM     78  S   UNL     1       3.923 -11.339  10.752  1.00  0.00     0.124 S 
ATOM     79  O   UNL     1       4.869 -11.338  11.861  1.00  0.00    -0.237 OA
ATOM     80  O   UNL     1       2.516 -11.188  11.108  1.00  0.00    -0.237 OA
ATOM     81  O   UNL     1       4.195 -12.314   9.698  1.00  0.00    -0.744 OA
ENDBRANCH  74  78
ENDBRANCH  47  71
BRANCH  59  82
ATOM     82  C   UNL     1       7.995  -5.204  15.859  1.00  0.00     0.023 A 
ATOM     83  C   UNL     1       9.250  -5.632  15.395  1.00  0.00     0.031 A 
ATOM     84  C   UNL     1       7.656  -5.474  17.197  1.00  0.00     0.131 A 
ATOM     85  C   UNL     1      10.091  -6.371  16.239  1.00  0.00     0.055 A 
ATOM     86  C   UNL     1       8.527  -6.147  18.053  1.00  0.00     0.041 A 
ATOM     87  F   UNL     1       6.468  -5.089  17.692  1.00  0.00    -0.206 F 
ATOM     88  C   UNL     1       9.746  -6.615  17.571  1.00  0.00     0.022 A 
BRANCH  85  89
ATOM     89  S   UNL     1      11.591  -7.111  15.538  1.00  0.00     0.124 S 
ATOM     90  O   UNL     1      11.049  -7.925  14.455  1.00  0.00    -0.237 OA
ATOM     91  O   UNL     1      12.357  -5.937  15.132  1.00  0.00    -0.237 OA
ATOM     92  O   UNL     1      12.157  -7.863  16.656  1.00  0.00    -0.744 OA
ENDBRANCH  85  89
ENDBRANCH  59  82
ENDBRANCH  33  34
ENDBRANCH  25  28
ENDBRANCH  23  24
ENDBRANCH   1  23
TORSDOF 15
