REMARK SMILES Cc1ccc(NC(=O)NC[C@@H]2CC[C@@H](C(=O)NCCCNC(=O)c3ccc(-c4c5nc(c(-c6cc(S(=O)(=O)[O-])ccc6F)c6ccc([nH]6)c(-c6cc(S(=O)(=O)[O-])ccc6F)c6nc(c(-c7cc(S(=O)(=O)[O-])ccc7F)c7ccc4[nH]7)C=C6)C=C5)cc3)O2)c(F)c1
REMARK SMILES IDX 19 1 18 2 17 3 15 4 16 5 14 7 11 8 12 9 87 10 13 11 10 12
REMARK SMILES IDX 9 13 6 14 7 15 8 17 5 19 1 20 2 21 3 22 90 23 4 24 88 25
REMARK SMILES IDX 89 26 20 27 21 28 22 29 23 31 24 32 25 33 86 34 26 35 85 36
REMARK SMILES IDX 27 37 28 38 29 39 79 40 30 41 84 42 78 43 80 44 31 45 83 46
REMARK SMILES IDX 77 47 76 48 32 50 64 51 44 52 63 53 45 54 48 55 62 56 81 57
REMARK SMILES IDX 46 58 47 59 61 61 82 62 49 63 33 64 34 65 42 66 35 67 41 68
REMARK SMILES IDX 43 69 40 70 36 71 37 72 38 73 39 74 65 75 66 76 74 77 67 78
REMARK SMILES IDX 73 79 75 80 72 81 68 82 69 83 70 84 71 85 50 86 51 87 59 88
REMARK SMILES IDX 52 89 58 90 60 91 57 92 53 93 54 94 55 95 56 96
REMARK H PARENT 17 6 6 16 9 18 21 30 80 49 48 60
REMARK Flexibility Score: inf
ROOT
ATOM      1  C   UNL     1      -6.633   5.964  -0.375  1.00  0.00     0.042 C 
ENDROOT
BRANCH   1   2
ATOM      2  C   UNL     1      -6.310   4.605  -0.968  1.00  0.00     0.117 C 
BRANCH   2   3
ATOM      3  N   UNL     1      -5.726   4.729  -2.292  1.00  0.00    -0.354 N 
ATOM      4  C   UNL     1      -4.404   4.638  -2.630  1.00  0.00     0.249 C 
ATOM      5  O   UNL     1      -4.066   4.883  -3.788  1.00  0.00    -0.272 OA
ATOM      6  H   UNL     1      -6.353   4.899  -3.031  1.00  0.00     0.163 HD
BRANCH   4   7
ATOM      7  C   UNL     1      -3.413   4.282  -1.517  1.00  0.00     0.207 C 
ATOM      8  C   UNL     1      -2.749   2.106  -0.966  1.00  0.00     0.138 C 
ATOM      9  C   UNL     1      -1.508   2.965  -1.116  1.00  0.00     0.037 C 
ATOM     10  O   UNL     1      -3.809   3.062  -0.855  1.00  0.00    -0.363 OA
ATOM     11  C   UNL     1      -2.000   4.064  -2.021  1.00  0.00     0.045 C 
BRANCH   8  12
ATOM     12  C   UNL     1      -2.768   1.165   0.254  1.00  0.00     0.149 C 
BRANCH  12  13
ATOM     13  N   UNL     1      -3.461  -0.089  -0.049  1.00  0.00    -0.335 N 
ATOM     14  N   UNL     1      -1.884  -1.885   0.065  1.00  0.00    -0.305 N 
ATOM     15  C   UNL     1      -3.129  -1.388  -0.067  1.00  0.00     0.319 C 
ATOM     16  H   UNL     1      -1.883  -2.829   0.343  1.00  0.00     0.171 HD
ATOM     17  O   UNL     1      -4.057  -2.204  -0.107  1.00  0.00    -0.249 OA
ATOM     18  H   UNL     1      -4.401   0.057  -0.302  1.00  0.00     0.165 HD
BRANCH  14  19
ATOM     19  C   UNL     1      -0.590  -1.371  -0.102  1.00  0.00     0.078 A 
ATOM     20  C   UNL     1       3.239   0.570   0.205  1.00  0.00     0.044 C 
ATOM     21  C   UNL     1       1.970  -0.195  -0.020  1.00  0.00    -0.048 A 
ATOM     22  C   UNL     1       1.730  -1.415   0.619  1.00  0.00     0.006 A 
ATOM     23  C   UNL     1       0.968   0.338  -0.827  1.00  0.00     0.045 A 
ATOM     24  C   UNL     1       0.459  -2.004   0.572  1.00  0.00     0.029 A 
ATOM     25  C   UNL     1      -0.273  -0.289  -0.908  1.00  0.00     0.147 A 
ATOM     26  F   UNL     1      -1.152   0.155  -1.813  1.00  0.00    -0.205 F 
ENDBRANCH  14  19
ENDBRANCH  12  13
ENDBRANCH   8  12
ENDBRANCH   4   7
ENDBRANCH   2   3
ENDBRANCH   1   2
BRANCH   1  27
ATOM     27  C   UNL     1      -7.667   6.725  -1.187  1.00  0.00     0.118 C 
BRANCH  27  28
ATOM     28  N   UNL     1      -8.910   5.977  -1.328  1.00  0.00    -0.352 N 
ATOM     29  C   UNL     1     -10.178   6.301  -0.914  1.00  0.00     0.251 C 
ATOM     30  H   UNL     1      -8.828   5.111  -1.789  1.00  0.00     0.163 HD
ATOM     31  O   UNL     1     -11.052   5.444  -0.901  1.00  0.00    -0.269 OA
BRANCH  29  32
ATOM     32  C   UNL     1     -10.459   7.680  -0.469  1.00  0.00     0.039 A 
ATOM     33  C   UNL     1     -11.254   7.880   0.660  1.00  0.00     0.014 A 
ATOM     34  C   UNL     1      -9.920   8.768  -1.159  1.00  0.00     0.014 A 
ATOM     35  C   UNL     1     -11.451   9.176   1.135  1.00  0.00     0.010 A 
ATOM     36  C   UNL     1     -10.028  10.043  -0.624  1.00  0.00     0.010 A 
ATOM     37  C   UNL     1     -10.806  10.263   0.521  1.00  0.00    -0.014 A 
BRANCH  37  38
ATOM     38  C   UNL     1     -10.945  11.642   1.048  1.00  0.00     0.031 A 
ATOM     39  C   UNL     1     -11.566  12.712   0.195  1.00  0.00     0.074 A 
ATOM     40  C   UNL     1     -10.455  11.940   2.266  1.00  0.00     0.049 A 
ATOM     41  N   UNL     1     -11.729  13.985   0.450  1.00  0.00    -0.248 NA
ATOM     42  C   UNL     1     -12.032  12.300  -1.137  1.00  0.00     0.031 C 
ATOM     43  C   UNL     1      -9.797  10.992   3.168  1.00  0.00     0.029 A 
ATOM     44  N   UNL     1     -10.436  13.124   2.957  1.00  0.00    -0.354 N 
ATOM     45  C   UNL     1     -12.303  14.527  -0.694  1.00  0.00     0.074 A 
ATOM     46  C   UNL     1     -12.377  13.460  -1.669  1.00  0.00     0.031 C 
ATOM     47  C   UNL     1      -9.487  11.620   4.313  1.00  0.00     0.029 A 
ATOM     48  C   UNL     1      -9.870  13.024   4.206  1.00  0.00     0.049 A 
ATOM     49  H   UNL     1     -10.794  13.966   2.593  1.00  0.00     0.167 HD
ATOM     50  C   UNL     1     -12.755  15.790  -0.901  1.00  0.00     0.034 A 
ATOM     51  C   UNL     1      -9.679  13.961   5.155  1.00  0.00     0.034 A 
ATOM     52  C   UNL     1     -12.666  16.838   0.087  1.00  0.00     0.049 A 
ATOM     53  C   UNL     1     -10.131  15.372   4.884  1.00  0.00     0.074 A 
ATOM     54  C   UNL     1     -13.136  18.137   0.012  1.00  0.00     0.029 A 
ATOM     55  N   UNL     1     -12.049  16.712   1.327  1.00  0.00    -0.354 N 
ATOM     56  N   UNL     1     -10.725  15.862   3.820  1.00  0.00    -0.248 NA
ATOM     57  C   UNL     1      -9.891  16.354   5.947  1.00  0.00     0.031 C 
ATOM     58  C   UNL     1     -12.727  18.818   1.164  1.00  0.00     0.029 A 
ATOM     59  C   UNL     1     -12.085  17.922   2.004  1.00  0.00     0.049 A 
ATOM     60  H   UNL     1     -11.646  15.883   1.673  1.00  0.00     0.167 HD
ATOM     61  C   UNL     1     -10.961  17.204   4.101  1.00  0.00     0.074 A 
ATOM     62  C   UNL     1     -10.452  17.441   5.439  1.00  0.00     0.031 C 
ATOM     63  C   UNL     1     -11.553  18.152   3.330  1.00  0.00     0.034 A 
BRANCH  50  64
ATOM     64  C   UNL     1     -13.343  16.095  -2.262  1.00  0.00     0.023 A 
ATOM     65  C   UNL     1     -14.447  15.381  -2.767  1.00  0.00     0.031 A 
ATOM     66  C   UNL     1     -12.749  17.055  -3.099  1.00  0.00     0.131 A 
ATOM     67  C   UNL     1     -14.841  15.550  -4.102  1.00  0.00     0.055 A 
ATOM     68  C   UNL     1     -13.217  17.296  -4.394  1.00  0.00     0.041 A 
ATOM     69  F   UNL     1     -11.681  17.756  -2.688  1.00  0.00    -0.206 F 
ATOM     70  C   UNL     1     -14.253  16.523  -4.911  1.00  0.00     0.022 A 
BRANCH  67  71
ATOM     71  S   UNL     1     -15.981  14.336  -4.823  1.00  0.00     0.124 S 
ATOM     72  O   UNL     1     -15.276  13.081  -4.565  1.00  0.00    -0.237 OA
ATOM     73  O   UNL     1     -17.201  14.554  -4.055  1.00  0.00    -0.237 OA
ATOM     74  O   UNL     1     -16.049  14.723  -6.230  1.00  0.00    -0.744 OA
ENDBRANCH  67  71
ENDBRANCH  50  64
BRANCH  51  75
ATOM     75  C   UNL     1      -9.050  13.592   6.454  1.00  0.00     0.023 A 
ATOM     76  C   UNL     1      -9.784  13.658   7.648  1.00  0.00     0.031 A 
ATOM     77  C   UNL     1      -7.707  13.181   6.525  1.00  0.00     0.131 A 
ATOM     78  C   UNL     1      -9.164  13.349   8.867  1.00  0.00     0.055 A 
ATOM     79  C   UNL     1      -7.109  12.826   7.735  1.00  0.00     0.041 A 
ATOM     80  F   UNL     1      -6.963  13.095   5.410  1.00  0.00    -0.206 F 
ATOM     81  C   UNL     1      -7.836  12.919   8.918  1.00  0.00     0.022 A 
BRANCH  78  82
ATOM     82  S   UNL     1     -10.104  13.579  10.401  1.00  0.00     0.124 S 
ATOM     83  O   UNL     1     -10.398  15.007  10.357  1.00  0.00    -0.237 OA
ATOM     84  O   UNL     1     -11.238  12.683  10.200  1.00  0.00    -0.237 OA
ATOM     85  O   UNL     1      -9.164  13.165  11.441  1.00  0.00    -0.744 OA
ENDBRANCH  78  82
ENDBRANCH  51  75
BRANCH  63  86
ATOM     86  C   UNL     1     -11.719  19.526   3.937  1.00  0.00     0.023 A 
ATOM     87  C   UNL     1     -10.615  20.334   4.262  1.00  0.00     0.031 A 
ATOM     88  C   UNL     1     -13.005  20.029   4.205  1.00  0.00     0.131 A 
ATOM     89  C   UNL     1     -10.816  21.572   4.891  1.00  0.00     0.055 A 
ATOM     90  C   UNL     1     -13.201  21.291   4.766  1.00  0.00     0.041 A 
ATOM     91  F   UNL     1     -14.097  19.300   3.922  1.00  0.00    -0.206 F 
ATOM     92  C   UNL     1     -12.102  22.065   5.126  1.00  0.00     0.022 A 
BRANCH  89  93
ATOM     93  S   UNL     1      -9.370  22.486   5.496  1.00  0.00     0.124 S 
ATOM     94  O   UNL     1      -8.763  21.522   6.408  1.00  0.00    -0.237 OA
ATOM     95  O   UNL     1      -8.632  22.753   4.267  1.00  0.00    -0.237 OA
ATOM     96  O   UNL     1      -9.953  23.664   6.137  1.00  0.00    -0.744 OA
ENDBRANCH  89  93
ENDBRANCH  63  86
ENDBRANCH  37  38
ENDBRANCH  29  32
ENDBRANCH  27  28
ENDBRANCH   1  27
TORSDOF 16
