REMARK SMILES Cc1cc(C(=O)N2C[C@@H](C(=O)NCCCNC(=O)c3ccc(-c4c5nc(c(-c6cc(S(=O)(=O)[O-])ccc6F)c6ccc([nH]6)c(-c6cc(S(=O)(=O)[O-])ccc6F)c6nc(c(-c7cc(S(=O)(=O)[O-])ccc7F)c7ccc4[nH]7)C=C6)C=C5)cc3)[C@H](C3CC3)C2)sc1C
REMARK SMILES IDX 14 1 13 2 12 3 10 4 11 5 9 7 7 8 8 9 86 10 82 11 5 12 6 13
REMARK SMILES IDX 4 14 1 15 2 16 3 17 88 18 87 19 89 20 83 21 84 22 85 23
REMARK SMILES IDX 15 24 16 25 17 26 18 28 19 29 20 30 81 31 21 32 80 33 22 34
REMARK SMILES IDX 23 35 24 36 74 37 25 38 79 39 73 40 75 41 26 42 78 43 72 44
REMARK SMILES IDX 71 45 27 47 59 48 39 49 58 50 40 51 43 52 57 53 76 54 41 55
REMARK SMILES IDX 42 56 56 58 77 59 44 60 28 61 29 62 37 63 30 64 36 65 38 66
REMARK SMILES IDX 35 67 31 68 32 69 33 70 34 71 60 72 61 73 69 74 62 75 68 76
REMARK SMILES IDX 70 77 67 78 63 79 64 80 65 81 66 82 45 83 46 84 54 85 47 86
REMARK SMILES IDX 53 87 55 88 52 89 48 90 49 91 50 92 51 93
REMARK H PARENT 12 6 16 27 75 46 43 57
REMARK Flexibility Score: inf
ROOT
ATOM      1  C   UNL     1       6.409   3.533  -0.142  1.00  0.00     0.042 C 
ENDROOT
BRANCH   1   2
ATOM      2  C   UNL     1       6.681   2.093  -0.529  1.00  0.00     0.117 C 
BRANCH   2   3
ATOM      3  N   UNL     1       6.861   1.203   0.604  1.00  0.00    -0.356 N 
ATOM      4  C   UNL     1       6.327  -0.032   0.833  1.00  0.00     0.225 C 
ATOM      5  O   UNL     1       6.747  -0.668   1.802  1.00  0.00    -0.275 OA
ATOM      6  H   UNL     1       7.456   1.540   1.312  1.00  0.00     0.163 HD
BRANCH   4   7
ATOM      7  C   UNL     1       5.247  -0.584  -0.077  1.00  0.00     0.103 C 
ATOM      8  N   UNL     1       3.475  -2.080  -0.142  1.00  0.00    -0.337 N 
ATOM      9  C   UNL     1       4.135  -1.185   0.784  1.00  0.00     0.133 C 
ATOM     10  C   UNL     1       4.464  -2.713  -0.982  1.00  0.00     0.124 C 
ATOM     11  C   UNL     1       5.710  -1.794  -0.929  1.00  0.00     0.026 C 
BRANCH   8  12
ATOM     12  C   UNL     1       2.133  -2.368  -0.323  1.00  0.00     0.263 C 
ATOM     13  O   UNL     1       1.821  -3.471  -0.781  1.00  0.00    -0.268 OA
BRANCH  12  14
ATOM     14  C   UNL     1       1.111  -1.355  -0.069  1.00  0.00     0.093 A 
ATOM     15  C   UNL     1      -2.539  -0.436   0.157  1.00  0.00     0.045 C 
ATOM     16  C   UNL     1      -1.047  -0.413   0.094  1.00  0.00    -0.037 A 
ATOM     17  C   UNL     1      -0.242  -1.600   0.087  1.00  0.00     0.029 A 
ATOM     18  C   UNL     1      -0.255   0.718  -0.003  1.00  0.00     0.005 A 
ATOM     19  S   UNL     1       1.394   0.324  -0.209  1.00  0.00    -0.135 S 
ATOM     20  C   UNL     1      -0.671   2.153  -0.012  1.00  0.00     0.056 C 
ENDBRANCH  12  14
ENDBRANCH   8  12
BRANCH  11  21
ATOM     21  C   UNL     1       6.208  -1.548  -2.338  1.00  0.00    -0.005 C 
ATOM     22  C   UNL     1       5.932  -0.304  -3.147  1.00  0.00     0.004 C 
ATOM     23  C   UNL     1       7.321  -0.582  -2.635  1.00  0.00     0.004 C 
ENDBRANCH  11  21
ENDBRANCH   4   7
ENDBRANCH   2   3
ENDBRANCH   1   2
BRANCH   1  24
ATOM     24  C   UNL     1       7.593   4.227   0.513  1.00  0.00     0.118 C 
BRANCH  24  25
ATOM     25  N   UNL     1       8.771   4.292  -0.345  1.00  0.00    -0.352 N 
ATOM     26  C   UNL     1       9.380   5.359  -0.968  1.00  0.00     0.251 C 
ATOM     27  H   UNL     1       9.206   3.424  -0.506  1.00  0.00     0.163 HD
ATOM     28  O   UNL     1      10.263   5.146  -1.789  1.00  0.00    -0.269 OA
BRANCH  26  29
ATOM     29  C   UNL     1       8.948   6.744  -0.676  1.00  0.00     0.039 A 
ATOM     30  C   UNL     1       8.869   7.670  -1.720  1.00  0.00     0.014 A 
ATOM     31  C   UNL     1       8.615   7.133   0.621  1.00  0.00     0.014 A 
ATOM     32  C   UNL     1       8.362   8.950  -1.475  1.00  0.00     0.010 A 
ATOM     33  C   UNL     1       8.001   8.360   0.840  1.00  0.00     0.010 A 
ATOM     34  C   UNL     1       7.871   9.287  -0.204  1.00  0.00    -0.014 A 
BRANCH  34  35
ATOM     35  C   UNL     1       7.238  10.604   0.075  1.00  0.00     0.031 A 
ATOM     36  C   UNL     1       7.822  11.500   1.136  1.00  0.00     0.074 A 
ATOM     37  C   UNL     1       6.099  10.952  -0.557  1.00  0.00     0.049 A 
ATOM     38  N   UNL     1       7.345  12.608   1.641  1.00  0.00    -0.248 NA
ATOM     39  C   UNL     1       9.092  11.065   1.739  1.00  0.00     0.031 C 
ATOM     40  C   UNL     1       5.412  10.149  -1.572  1.00  0.00     0.029 A 
ATOM     41  N   UNL     1       5.308  12.067  -0.431  1.00  0.00    -0.354 N 
ATOM     42  C   UNL     1       8.246  12.992   2.629  1.00  0.00     0.074 A 
ATOM     43  C   UNL     1       9.251  11.954   2.706  1.00  0.00     0.031 C 
ATOM     44  C   UNL     1       4.322  10.810  -1.995  1.00  0.00     0.029 A 
ATOM     45  C   UNL     1       4.199  12.056  -1.246  1.00  0.00     0.049 A 
ATOM     46  H   UNL     1       5.516  12.806   0.185  1.00  0.00     0.167 HD
ATOM     47  C   UNL     1       8.257  14.123   3.378  1.00  0.00     0.034 A 
ATOM     48  C   UNL     1       3.190  12.942  -1.364  1.00  0.00     0.034 A 
ATOM     49  C   UNL     1       7.261  15.159   3.274  1.00  0.00     0.049 A 
ATOM     50  C   UNL     1       3.212  14.183  -0.505  1.00  0.00     0.074 A 
ATOM     51  C   UNL     1       7.186  16.358   3.962  1.00  0.00     0.029 A 
ATOM     52  N   UNL     1       6.168  15.123   2.417  1.00  0.00    -0.354 N 
ATOM     53  N   UNL     1       4.089  14.543   0.405  1.00  0.00    -0.248 NA
ATOM     54  C   UNL     1       2.117  15.142  -0.697  1.00  0.00     0.031 C 
ATOM     55  C   UNL     1       6.022  17.022   3.559  1.00  0.00     0.029 A 
ATOM     56  C   UNL     1       5.407  16.271   2.570  1.00  0.00     0.049 A 
ATOM     57  H   UNL     1       5.964  14.390   1.794  1.00  0.00     0.167 HD
ATOM     58  C   UNL     1       3.668  15.788   0.864  1.00  0.00     0.074 A 
ATOM     59  C   UNL     1       2.472  16.122   0.120  1.00  0.00     0.031 C 
ATOM     60  C   UNL     1       4.219  16.586   1.814  1.00  0.00     0.034 A 
BRANCH  47  61
ATOM     61  C   UNL     1       9.383  14.282   4.372  1.00  0.00     0.023 A 
ATOM     62  C   UNL     1      10.723  14.355   3.954  1.00  0.00     0.031 A 
ATOM     63  C   UNL     1       9.123  14.328   5.753  1.00  0.00     0.131 A 
ATOM     64  C   UNL     1      11.755  14.387   4.903  1.00  0.00     0.055 A 
ATOM     65  C   UNL     1      10.150  14.448   6.692  1.00  0.00     0.041 A 
ATOM     66  F   UNL     1       7.865  14.242   6.215  1.00  0.00    -0.206 F 
ATOM     67  C   UNL     1      11.477  14.461   6.270  1.00  0.00     0.022 A 
BRANCH  64  68
ATOM     68  S   UNL     1      13.462  14.182   4.330  1.00  0.00     0.124 S 
ATOM     69  O   UNL     1      13.408  12.857   3.716  1.00  0.00    -0.237 OA
ATOM     70  O   UNL     1      13.626  15.304   3.414  1.00  0.00    -0.237 OA
ATOM     71  O   UNL     1      14.248  14.259   5.559  1.00  0.00    -0.744 OA
ENDBRANCH  64  68
ENDBRANCH  47  61
BRANCH  48  72
ATOM     72  C   UNL     1       2.067  12.702  -2.317  1.00  0.00     0.023 A 
ATOM     73  C   UNL     1       1.832  13.580  -3.387  1.00  0.00     0.031 A 
ATOM     74  C   UNL     1       1.173  11.632  -2.136  1.00  0.00     0.131 A 
ATOM     75  C   UNL     1       0.695  13.414  -4.194  1.00  0.00     0.055 A 
ATOM     76  C   UNL     1       0.077  11.435  -2.979  1.00  0.00     0.041 A 
ATOM     77  F   UNL     1       1.353  10.757  -1.134  1.00  0.00    -0.206 F 
ATOM     78  C   UNL     1      -0.177  12.340  -4.005  1.00  0.00     0.022 A 
BRANCH  75  79
ATOM     79  S   UNL     1       0.309  14.693  -5.421  1.00  0.00     0.124 S 
ATOM     80  O   UNL     1       0.273  15.895  -4.595  1.00  0.00    -0.237 OA
ATOM     81  O   UNL     1       1.437  14.579  -6.339  1.00  0.00    -0.237 OA
ATOM     82  O   UNL     1      -0.980  14.267  -5.961  1.00  0.00    -0.744 OA
ENDBRANCH  75  79
ENDBRANCH  48  72
BRANCH  60  83
ATOM     83  C   UNL     1       3.559  17.921   2.050  1.00  0.00     0.023 A 
ATOM     84  C   UNL     1       2.275  18.023   2.613  1.00  0.00     0.031 A 
ATOM     85  C   UNL     1       4.224  19.108   1.694  1.00  0.00     0.131 A 
ATOM     86  C   UNL     1       1.672  19.282   2.749  1.00  0.00     0.055 A 
ATOM     87  C   UNL     1       3.642  20.361   1.888  1.00  0.00     0.041 A 
ATOM     88  F   UNL     1       5.452  19.067   1.153  1.00  0.00    -0.206 F 
ATOM     89  C   UNL     1       2.353  20.452   2.406  1.00  0.00     0.022 A 
BRANCH  86  90
ATOM     90  S   UNL     1      -0.053  19.363   3.302  1.00  0.00     0.124 S 
ATOM     91  O   UNL     1      -0.737  18.576   2.281  1.00  0.00    -0.237 OA
ATOM     92  O   UNL     1       0.015  18.762   4.630  1.00  0.00    -0.237 OA
ATOM     93  O   UNL     1      -0.352  20.794   3.285  1.00  0.00    -0.744 OA
ENDBRANCH  86  90
ENDBRANCH  60  83
ENDBRANCH  34  35
ENDBRANCH  26  29
ENDBRANCH  24  25
ENDBRANCH   1  24
TORSDOF 16
