REMARK SMILES O=C(NCCCNC(=O)[C@H]1SC=C[C@@H]1S(=O)(=O)NCCC1=c2ccccc2=NC1)c1ccc(-c2c3nc(c(-c4cc(S(=O)(=O)[O-])ccc4F)c4ccc([nH]4)c(-c4cc(S(=O)(=O)[O-])ccc4F)c4nc(c(-c5cc(S(=O)(=O)[O-])ccc5F)c5ccc2[nH]5)C=C4)C=C3)cc1
REMARK SMILES IDX 6 1 5 2 4 3 3 4 1 5 2 6 30 8 31 9 92 10 32 11 91 12 33 13
REMARK SMILES IDX 34 14 35 15 85 16 36 17 90 18 84 19 86 20 37 21 89 22 83 23
REMARK SMILES IDX 82 24 38 26 70 27 50 28 69 29 51 30 54 31 68 32 87 33 52 34
REMARK SMILES IDX 53 35 67 37 88 38 55 39 39 40 40 41 48 42 41 43 47 44 49 45
REMARK SMILES IDX 46 46 42 47 43 48 44 49 45 50 71 51 72 52 80 53 73 54 79 55
REMARK SMILES IDX 81 56 78 57 74 58 75 59 76 60 77 61 56 62 57 63 65 64 58 65
REMARK SMILES IDX 64 66 66 67 63 68 59 69 60 70 61 71 62 72 7 73 8 74 9 76
REMARK SMILES IDX 10 77 11 78 14 79 12 80 13 81 15 82 16 83 17 84 18 85 19 87
REMARK SMILES IDX 20 88 21 89 22 90 29 91 23 92 27 93 28 94 24 95 26 96 25 97
REMARK H PARENT 3 7 86 25 54 36 7 75 18 86
REMARK Flexibility Score: inf
ROOT
ATOM      1  C   UNL     1       4.494   3.634   1.495  1.00  0.00     0.117 C 
ENDROOT
BRANCH   1   2
ATOM      2  C   UNL     1       5.022   2.588   0.513  1.00  0.00     0.042 C 
BRANCH   2   3
ATOM      3  C   UNL     1       4.597   1.151   0.810  1.00  0.00     0.118 C 
BRANCH   3   4
ATOM      4  N   UNL     1       3.153   0.974   0.786  1.00  0.00    -0.352 N 
ATOM      5  O   UNL     1       1.161   0.243   0.061  1.00  0.00    -0.269 OA
ATOM      6  C   UNL     1       2.381   0.094   0.069  1.00  0.00     0.251 C 
ATOM      7  H   UNL     1       2.651   1.580   1.376  1.00  0.00     0.163 HD
BRANCH   6   8
ATOM      8  C   UNL     1       2.990  -1.026  -0.685  1.00  0.00     0.039 A 
ATOM      9  C   UNL     1       2.445  -1.372  -1.927  1.00  0.00     0.014 A 
ATOM     10  C   UNL     1       4.032  -1.788  -0.148  1.00  0.00     0.014 A 
ATOM     11  C   UNL     1       2.953  -2.465  -2.634  1.00  0.00     0.010 A 
ATOM     12  C   UNL     1       4.584  -2.834  -0.886  1.00  0.00     0.010 A 
ATOM     13  C   UNL     1       4.033  -3.201  -2.123  1.00  0.00    -0.014 A 
BRANCH  13  14
ATOM     14  C   UNL     1       4.576  -4.382  -2.844  1.00  0.00     0.031 A 
ATOM     15  C   UNL     1       4.483  -5.750  -2.227  1.00  0.00     0.074 A 
ATOM     16  C   UNL     1       5.205  -4.220  -4.023  1.00  0.00     0.049 A 
ATOM     17  N   UNL     1       4.965  -6.886  -2.660  1.00  0.00    -0.248 NA
ATOM     18  C   UNL     1       3.775  -5.852  -0.941  1.00  0.00     0.031 C 
ATOM     19  C   UNL     1       5.376  -2.941  -4.708  1.00  0.00     0.029 A 
ATOM     20  N   UNL     1       5.830  -5.128  -4.844  1.00  0.00    -0.354 N 
ATOM     21  C   UNL     1       4.645  -7.829  -1.690  1.00  0.00     0.074 A 
ATOM     22  C   UNL     1       3.970  -7.123  -0.624  1.00  0.00     0.031 C 
ATOM     23  C   UNL     1       6.045  -3.146  -5.852  1.00  0.00     0.029 A 
ATOM     24  C   UNL     1       6.404  -4.560  -5.957  1.00  0.00     0.049 A 
ATOM     25  H   UNL     1       5.863  -6.094  -4.653  1.00  0.00     0.167 HD
ATOM     26  C   UNL     1       4.879  -9.162  -1.700  1.00  0.00     0.034 A 
ATOM     27  C   UNL     1       7.152  -5.104  -6.941  1.00  0.00     0.034 A 
ATOM     28  C   UNL     1       5.523  -9.850  -2.790  1.00  0.00     0.049 A 
ATOM     29  C   UNL     1       7.417  -6.586  -6.930  1.00  0.00     0.074 A 
ATOM     30  C   UNL     1       5.715 -11.212  -2.939  1.00  0.00     0.029 A 
ATOM     31  N   UNL     1       6.088  -9.243  -3.903  1.00  0.00    -0.354 N 
ATOM     32  N   UNL     1       7.018  -7.484  -6.060  1.00  0.00    -0.248 NA
ATOM     33  C   UNL     1       8.226  -7.137  -8.027  1.00  0.00     0.031 C 
ATOM     34  C   UNL     1       6.480 -11.420  -4.085  1.00  0.00     0.029 A 
ATOM     35  C   UNL     1       6.683 -10.199  -4.711  1.00  0.00     0.049 A 
ATOM     36  H   UNL     1       6.071  -8.277  -4.090  1.00  0.00     0.167 HD
ATOM     37  C   UNL     1       7.513  -8.706  -6.509  1.00  0.00     0.074 A 
ATOM     38  C   UNL     1       8.222  -8.435  -7.743  1.00  0.00     0.031 C 
ATOM     39  C   UNL     1       7.390  -9.934  -5.944  1.00  0.00     0.034 A 
BRANCH  26  40
ATOM     40  C   UNL     1       4.445  -9.988  -0.512  1.00  0.00     0.023 A 
ATOM     41  C   UNL     1       5.404 -10.726   0.209  1.00  0.00     0.031 A 
ATOM     42  C   UNL     1       3.091 -10.154  -0.172  1.00  0.00     0.131 A 
ATOM     43  C   UNL     1       4.994 -11.618   1.207  1.00  0.00     0.055 A 
ATOM     44  C   UNL     1       2.692 -11.004   0.861  1.00  0.00     0.041 A 
ATOM     45  F   UNL     1       2.133  -9.484  -0.834  1.00  0.00    -0.206 F 
ATOM     46  C   UNL     1       3.644 -11.752   1.545  1.00  0.00     0.022 A 
BRANCH  43  47
ATOM     47  S   UNL     1       6.185 -12.701   2.042  1.00  0.00     0.124 S 
ATOM     48  O   UNL     1       6.050 -12.277   3.433  1.00  0.00    -0.237 OA
ATOM     49  O   UNL     1       5.654 -14.028   1.740  1.00  0.00    -0.237 OA
ATOM     50  O   UNL     1       7.460 -12.374   1.413  1.00  0.00    -0.744 OA
ENDBRANCH  43  47
ENDBRANCH  26  40
BRANCH  27  51
ATOM     51  C   UNL     1       7.640  -4.210  -8.031  1.00  0.00     0.023 A 
ATOM     52  C   UNL     1       8.501  -3.134  -7.743  1.00  0.00     0.031 A 
ATOM     53  C   UNL     1       7.112  -4.307  -9.328  1.00  0.00     0.131 A 
ATOM     54  C   UNL     1       8.714  -2.138  -8.704  1.00  0.00     0.055 A 
ATOM     55  C   UNL     1       7.396  -3.355 -10.310  1.00  0.00     0.041 A 
ATOM     56  F   UNL     1       6.282  -5.312  -9.647  1.00  0.00    -0.206 F 
ATOM     57  C   UNL     1       8.180  -2.250  -9.992  1.00  0.00     0.022 A 
BRANCH  54  58
ATOM     58  S   UNL     1       9.543  -0.586  -8.259  1.00  0.00     0.124 S 
ATOM     59  O   UNL     1      10.611  -0.512  -9.252  1.00  0.00    -0.237 OA
ATOM     60  O   UNL     1       8.461   0.382  -8.422  1.00  0.00    -0.237 OA
ATOM     61  O   UNL     1       9.976  -0.808  -6.883  1.00  0.00    -0.744 OA
ENDBRANCH  54  58
ENDBRANCH  27  51
BRANCH  39  62
ATOM     62  C   UNL     1       8.043 -11.121  -6.614  1.00  0.00     0.023 A 
ATOM     63  C   UNL     1       7.254 -12.209  -7.039  1.00  0.00     0.031 A 
ATOM     64  C   UNL     1       9.441 -11.265  -6.642  1.00  0.00     0.131 A 
ATOM     65  C   UNL     1       7.866 -13.416  -7.401  1.00  0.00     0.055 A 
ATOM     66  C   UNL     1      10.047 -12.450  -7.061  1.00  0.00     0.041 A 
ATOM     67  F   UNL     1      10.237 -10.262  -6.239  1.00  0.00    -0.206 F 
ATOM     68  C   UNL     1       9.259 -13.540  -7.423  1.00  0.00     0.022 A 
BRANCH  65  69
ATOM     69  S   UNL     1       6.879 -14.900  -7.744  1.00  0.00     0.124 S 
ATOM     70  O   UNL     1       7.311 -15.245  -9.097  1.00  0.00    -0.237 OA
ATOM     71  O   UNL     1       7.325 -15.813  -6.696  1.00  0.00    -0.237 OA
ATOM     72  O   UNL     1       5.500 -14.439  -7.633  1.00  0.00    -0.744 OA
ENDBRANCH  65  69
ENDBRANCH  39  62
ENDBRANCH  13  14
ENDBRANCH   6   8
ENDBRANCH   3   4
ENDBRANCH   2   3
ENDBRANCH   1   2
BRANCH   1  73
ATOM     73  N   UNL     1       4.917   3.365   2.861  1.00  0.00    -0.355 N 
ATOM     74  C   UNL     1       5.718   4.062   3.714  1.00  0.00     0.235 C 
ATOM     75  H   UNL     1       4.560   2.528   3.237  1.00  0.00     0.163 HD
ATOM     76  O   UNL     1       6.015   3.511   4.778  1.00  0.00    -0.274 OA
BRANCH  74  77
ATOM     77  C   UNL     1       6.236   5.444   3.352  1.00  0.00     0.163 C 
ATOM     78  S   UNL     1       5.821   6.627   4.707  1.00  0.00    -0.119 SA
ATOM     79  C   UNL     1       7.768   5.405   3.263  1.00  0.00     0.170 C 
ATOM     80  C   UNL     1       7.472   6.844   5.166  1.00  0.00     0.038 C 
ATOM     81  C   UNL     1       8.354   6.216   4.383  1.00  0.00     0.002 C 
BRANCH  79  82
ATOM     82  S   UNL     1       8.217   6.081   1.662  1.00  0.00     0.219 S 
ATOM     83  O   UNL     1       7.622   5.206   0.674  1.00  0.00    -0.212 OA
ATOM     84  O   UNL     1       7.940   7.500   1.644  1.00  0.00    -0.212 OA
BRANCH  82  85
ATOM     85  N   UNL     1       9.882   5.958   1.564  1.00  0.00    -0.214 NA
ATOM     86  H   UNL     1      10.243   6.214   2.483  1.00  0.00     0.141 HD
BRANCH  85  87
ATOM     87  C   UNL     1      10.544   4.693   1.196  1.00  0.00     0.103 C 
BRANCH  87  88
ATOM     88  C   UNL     1      10.355   4.284  -0.274  1.00  0.00     0.050 C 
BRANCH  88  89
ATOM     89  C   UNL     1      10.849   5.280  -1.278  1.00  0.00    -0.038 C 
ATOM     90  C   UNL     1      10.173   6.212  -1.948  1.00  0.00     0.001 A 
ATOM     91  C   UNL     1      12.282   5.260  -1.719  1.00  0.00     0.174 C 
ATOM     92  C   UNL     1       8.820   6.665  -1.993  1.00  0.00     0.010 A 
ATOM     93  C   UNL     1      11.216   6.842  -2.776  1.00  0.00     0.065 A 
ATOM     94  N   UNL     1      12.424   6.378  -2.681  1.00  0.00    -0.280 NA
ATOM     95  C   UNL     1       8.508   7.721  -2.760  1.00  0.00     0.001 A 
ATOM     96  C   UNL     1      10.790   7.979  -3.623  1.00  0.00     0.028 A 
ATOM     97  C   UNL     1       9.508   8.381  -3.579  1.00  0.00     0.002 A 
ENDBRANCH  88  89
ENDBRANCH  87  88
ENDBRANCH  85  87
ENDBRANCH  82  85
ENDBRANCH  79  82
ENDBRANCH  74  77
ENDBRANCH   1  73
TORSDOF 18
