REMARK SMILES COc1cc([N+](=O)[O-])cc2c1=N[C@H](C(=O)NCCCNC(=O)c1ccc(-c3c4nc(c(-c5cc(S(=O)(=O)[O-])ccc5F)c5ccc([nH]5)c(-c5cc(S(=O)(=O)[O-])ccc5F)c5nc(c(-c6cc(S(=O)(=O)[O-])ccc6F)c6ccc3[nH]6)C=C5)C=C4)cc1)C=2CC[NH3+]
REMARK SMILES IDX 18 1 17 2 16 3 14 4 15 5 13 7 3 8 4 9 11 10 5 11 10 12 12 13
REMARK SMILES IDX 9 14 86 15 2 16 1 17 6 18 7 19 8 20 87 21 88 22 89 23 19 27
REMARK SMILES IDX 20 28 21 29 22 31 23 32 24 33 85 34 25 35 84 36 26 37 27 38
REMARK SMILES IDX 28 39 78 40 29 41 83 42 77 43 79 44 30 45 82 46 76 47 75 48
REMARK SMILES IDX 31 50 63 51 43 52 62 53 44 54 47 55 61 56 80 57 45 58 46 59
REMARK SMILES IDX 60 61 81 62 48 63 32 64 33 65 41 66 34 67 40 68 42 69 39 70
REMARK SMILES IDX 35 71 36 72 37 73 38 74 64 75 65 76 73 77 66 78 72 79 74 80
REMARK SMILES IDX 71 81 67 82 68 83 69 84 70 85 49 86 50 87 58 88 51 89 57 90
REMARK SMILES IDX 59 91 56 92 52 93 53 94 54 95 55 96
REMARK H PARENT 16 6 89 24 89 25 89 26 20 30 79 49 47 60
REMARK Flexibility Score: inf
ROOT
ATOM      1  C   UNL     1      -4.785  -0.334   7.710  1.00  0.00     0.042 C 
ENDROOT
BRANCH   1   2
ATOM      2  C   UNL     1      -4.822  -0.060   6.209  1.00  0.00     0.117 C 
BRANCH   2   3
ATOM      3  N   UNL     1      -3.977   1.051   5.803  1.00  0.00    -0.354 N 
ATOM      4  C   UNL     1      -2.799   1.082   5.101  1.00  0.00     0.249 C 
ATOM      5  O   UNL     1      -2.352   2.197   4.815  1.00  0.00    -0.272 OA
ATOM      6  H   UNL     1      -4.308   1.936   6.079  1.00  0.00     0.163 HD
BRANCH   4   7
ATOM      7  C   UNL     1      -2.082  -0.236   4.723  1.00  0.00     0.222 C 
ATOM      8  C   UNL     1       0.777  -0.157   2.399  1.00  0.00     0.151 A 
ATOM      9  C   UNL     1       2.040  -0.524   2.710  1.00  0.00     0.134 A 
ATOM     10  C   UNL     1      -0.258  -0.235   3.483  1.00  0.00     0.109 A 
ATOM     11  C   UNL     1       2.436  -0.972   4.042  1.00  0.00     0.273 A 
ATOM     12  C   UNL     1       0.224  -0.589   4.831  1.00  0.00     0.012 A 
ATOM     13  N   UNL     1      -1.539  -0.080   3.335  1.00  0.00    -0.263 NA
ATOM     14  C   UNL     1       1.578  -0.980   5.079  1.00  0.00     0.096 A 
ATOM     15  C   UNL     1      -0.882  -0.566   5.576  1.00  0.00    -0.021 C 
BRANCH   8  16
ATOM     16  O   UNL     1       0.332   0.292   1.177  1.00  0.00    -0.494 OA
ATOM     17  C   UNL     1       1.046  -0.116   0.020  1.00  0.00     0.278 C 
ENDBRANCH   8  16
BRANCH  11  18
ATOM     18  N   UNL     1       3.801  -1.459   4.286  1.00  0.00     0.062 N 
ATOM     19  O   UNL     1       4.080  -1.900   5.410  1.00  0.00    -0.258 OA
ATOM     20  O   UNL     1       4.594  -1.419   3.334  1.00  0.00    -0.258 OA
ENDBRANCH  11  18
BRANCH  15  21
ATOM     21  C   UNL     1      -1.024  -1.019   6.998  1.00  0.00     0.096 C 
BRANCH  21  22
ATOM     22  C   UNL     1      -0.769   0.029   8.096  1.00  0.00     0.263 C 
BRANCH  22  23
ATOM     23  N   UNL     1      -1.464   1.292   7.916  1.00  0.00    -0.357 N 
ATOM     24  H   UNL     1      -1.138   1.740   7.059  1.00  0.00     0.344 HD
ATOM     25  H   UNL     1      -1.273   1.901   8.712  1.00  0.00     0.344 HD
ATOM     26  H   UNL     1      -2.467   1.123   7.850  1.00  0.00     0.344 HD
ENDBRANCH  22  23
ENDBRANCH  21  22
ENDBRANCH  15  21
ENDBRANCH   4   7
ENDBRANCH   2   3
ENDBRANCH   1   2
BRANCH   1  27
ATOM     27  C   UNL     1      -5.132   0.858   8.594  1.00  0.00     0.118 C 
BRANCH  27  28
ATOM     28  N   UNL     1      -6.540   1.213   8.545  1.00  0.00    -0.352 N 
ATOM     29  C   UNL     1      -7.492   1.218   9.537  1.00  0.00     0.251 C 
ATOM     30  H   UNL     1      -6.864   1.495   7.659  1.00  0.00     0.163 HD
ATOM     31  O   UNL     1      -8.670   1.396   9.223  1.00  0.00    -0.269 OA
BRANCH  29  32
ATOM     32  C   UNL     1      -7.132   0.976  10.956  1.00  0.00     0.039 A 
ATOM     33  C   UNL     1      -5.967   1.501  11.517  1.00  0.00     0.014 A 
ATOM     34  C   UNL     1      -8.001   0.229  11.759  1.00  0.00     0.014 A 
ATOM     35  C   UNL     1      -5.588   1.135  12.807  1.00  0.00     0.010 A 
ATOM     36  C   UNL     1      -7.669  -0.050  13.092  1.00  0.00     0.010 A 
ATOM     37  C   UNL     1      -6.435   0.359  13.618  1.00  0.00    -0.014 A 
BRANCH  37  38
ATOM     38  C   UNL     1      -6.017   0.038  15.013  1.00  0.00     0.031 A 
ATOM     39  C   UNL     1      -5.807  -1.383  15.468  1.00  0.00     0.074 A 
ATOM     40  C   UNL     1      -5.771   1.050  15.870  1.00  0.00     0.049 A 
ATOM     41  N   UNL     1      -5.335  -1.819  16.609  1.00  0.00    -0.248 NA
ATOM     42  C   UNL     1      -6.180  -2.455  14.532  1.00  0.00     0.031 C 
ATOM     43  C   UNL     1      -5.974   2.467  15.564  1.00  0.00     0.029 A 
ATOM     44  N   UNL     1      -5.274   1.056  17.151  1.00  0.00    -0.354 N 
ATOM     45  C   UNL     1      -5.357  -3.208  16.533  1.00  0.00     0.074 A 
ATOM     46  C   UNL     1      -5.939  -3.543  15.252  1.00  0.00     0.031 C 
ATOM     47  C   UNL     1      -5.541   3.205  16.594  1.00  0.00     0.029 A 
ATOM     48  C   UNL     1      -5.092   2.320  17.666  1.00  0.00     0.049 A 
ATOM     49  H   UNL     1      -5.068   0.235  17.653  1.00  0.00     0.167 HD
ATOM     50  C   UNL     1      -4.914  -4.116  17.436  1.00  0.00     0.034 A 
ATOM     51  C   UNL     1      -4.619   2.731  18.860  1.00  0.00     0.034 A 
ATOM     52  C   UNL     1      -4.327  -3.769  18.709  1.00  0.00     0.049 A 
ATOM     53  C   UNL     1      -4.140   1.700  19.849  1.00  0.00     0.074 A 
ATOM     54  C   UNL     1      -3.805  -4.622  19.667  1.00  0.00     0.029 A 
ATOM     55  N   UNL     1      -4.187  -2.482  19.208  1.00  0.00    -0.354 N 
ATOM     56  N   UNL     1      -4.082   0.396  19.719  1.00  0.00    -0.248 NA
ATOM     57  C   UNL     1      -3.649   2.195  21.142  1.00  0.00     0.031 C 
ATOM     58  C   UNL     1      -3.424  -3.860  20.772  1.00  0.00     0.029 A 
ATOM     59  C   UNL     1      -3.621  -2.522  20.474  1.00  0.00     0.049 A 
ATOM     60  H   UNL     1      -4.451  -1.661  18.733  1.00  0.00     0.167 HD
ATOM     61  C   UNL     1      -3.540  -0.085  20.908  1.00  0.00     0.074 A 
ATOM     62  C   UNL     1      -3.240   1.074  21.723  1.00  0.00     0.031 C 
ATOM     63  C   UNL     1      -3.325  -1.369  21.294  1.00  0.00     0.034 A 
BRANCH  50  64
ATOM     64  C   UNL     1      -5.010  -5.587  17.096  1.00  0.00     0.023 A 
ATOM     65  C   UNL     1      -5.760  -6.453  17.916  1.00  0.00     0.031 A 
ATOM     66  C   UNL     1      -4.244  -6.154  16.062  1.00  0.00     0.131 A 
ATOM     67  C   UNL     1      -5.689  -7.838  17.717  1.00  0.00     0.055 A 
ATOM     68  C   UNL     1      -4.217  -7.532  15.836  1.00  0.00     0.041 A 
ATOM     69  F   UNL     1      -3.506  -5.375  15.253  1.00  0.00    -0.206 F 
ATOM     70  C   UNL     1      -4.929  -8.381  16.676  1.00  0.00     0.022 A 
BRANCH  67  71
ATOM     71  S   UNL     1      -6.508  -8.994  18.850  1.00  0.00     0.124 S 
ATOM     72  O   UNL     1      -7.385  -9.732  17.942  1.00  0.00    -0.237 OA
ATOM     73  O   UNL     1      -5.379  -9.753  19.380  1.00  0.00    -0.237 OA
ATOM     74  O   UNL     1      -7.191  -8.127  19.803  1.00  0.00    -0.744 OA
ENDBRANCH  67  71
ENDBRANCH  50  64
BRANCH  51  75
ATOM     75  C   UNL     1      -4.532   4.195  19.142  1.00  0.00     0.023 A 
ATOM     76  C   UNL     1      -5.684   5.003  19.117  1.00  0.00     0.031 A 
ATOM     77  C   UNL     1      -3.289   4.825  19.324  1.00  0.00     0.131 A 
ATOM     78  C   UNL     1      -5.561   6.396  19.185  1.00  0.00     0.055 A 
ATOM     79  C   UNL     1      -3.180   6.209  19.479  1.00  0.00     0.041 A 
ATOM     80  F   UNL     1      -2.159   4.102  19.341  1.00  0.00    -0.206 F 
ATOM     81  C   UNL     1      -4.318   7.004  19.388  1.00  0.00     0.022 A 
BRANCH  78  82
ATOM     82  S   UNL     1      -6.986   7.469  18.853  1.00  0.00     0.124 S 
ATOM     83  O   UNL     1      -7.090   8.230  20.094  1.00  0.00    -0.237 OA
ATOM     84  O   UNL     1      -6.527   8.219  17.687  1.00  0.00    -0.237 OA
ATOM     85  O   UNL     1      -8.072   6.529  18.596  1.00  0.00    -0.744 OA
ENDBRANCH  78  82
ENDBRANCH  51  75
BRANCH  63  86
ATOM     86  C   UNL     1      -2.750  -1.621  22.671  1.00  0.00     0.023 A 
ATOM     87  C   UNL     1      -1.529  -2.307  22.819  1.00  0.00     0.031 A 
ATOM     88  C   UNL     1      -3.465  -1.290  23.837  1.00  0.00     0.131 A 
ATOM     89  C   UNL     1      -1.077  -2.666  24.095  1.00  0.00     0.055 A 
ATOM     90  C   UNL     1      -2.980  -1.597  25.110  1.00  0.00     0.041 A 
ATOM     91  F   UNL     1      -4.643  -0.651  23.757  1.00  0.00    -0.206 F 
ATOM     92  C   UNL     1      -1.788  -2.300  25.242  1.00  0.00     0.022 A 
BRANCH  89  93
ATOM     93  S   UNL     1       0.399  -3.700  24.313  1.00  0.00     0.124 S 
ATOM     94  O   UNL     1       1.288  -2.805  25.049  1.00  0.00    -0.237 OA
ATOM     95  O   UNL     1      -0.126  -4.827  25.081  1.00  0.00    -0.237 OA
ATOM     96  O   UNL     1       0.815  -4.011  22.950  1.00  0.00    -0.744 OA
ENDBRANCH  89  93
ENDBRANCH  63  86
ENDBRANCH  37  38
ENDBRANCH  29  32
ENDBRANCH  27  28
ENDBRANCH   1  27
TORSDOF 18
