REMARK SMILES CC1(c2ccc(C(=O)NCCCNC(=O)c3ccc(-c4c5nc(c(-c6cc(S(=O)(=O)[O-])ccc6F)c6ccc([nH]6)c(-c6cc(S(=O)(=O)[O-])ccc6F)c6nc(c(-c7cc(S(=O)(=O)[O-])ccc7F)c7ccc4[nH]7)C=C6)C=C5)cc3)cc2)CC1
REMARK SMILES IDX 12 1 11 2 10 3 9 4 7 5 8 6 6 8 3 9 4 10 80 11 5 12 79 13
REMARK SMILES IDX 2 14 1 15 81 16 82 17 13 18 14 19 15 21 16 22 17 23 78 24
REMARK SMILES IDX 18 25 77 26 19 27 20 28 21 29 71 30 22 31 76 32 70 33 72 34
REMARK SMILES IDX 23 35 75 36 69 37 68 38 24 40 56 41 36 42 55 43 37 44 40 45
REMARK SMILES IDX 54 46 73 47 38 48 39 49 53 51 74 52 41 53 25 54 26 55 34 56
REMARK SMILES IDX 27 57 33 58 35 59 32 60 28 61 29 62 30 63 31 64 57 65 58 66
REMARK SMILES IDX 66 67 59 68 65 69 67 70 64 71 60 72 61 73 62 74 63 75 42 76
REMARK SMILES IDX 43 77 51 78 44 79 50 80 52 81 49 82 45 83 46 84 47 85 48 86
REMARK H PARENT 9 7 13 20 72 39 40 50
REMARK Flexibility Score: inf
ROOT
ATOM      1  C   UNL     1       3.001   3.775   6.222  1.00  0.00     0.118 C 
ENDROOT
BRANCH   1   2
ATOM      2  C   UNL     1       2.552   2.573   5.395  1.00  0.00     0.042 C 
BRANCH   2   3
ATOM      3  C   UNL     1       1.053   2.291   5.505  1.00  0.00     0.118 C 
BRANCH   3   4
ATOM      4  N   UNL     1       0.274   3.162   4.646  1.00  0.00    -0.352 N 
ATOM      5  C   UNL     1      -0.339   2.959   3.437  1.00  0.00     0.251 C 
ATOM      6  O   UNL     1      -1.070   3.860   3.022  1.00  0.00    -0.269 OA
ATOM      7  H   UNL     1       0.165   4.074   5.000  1.00  0.00     0.163 HD
BRANCH   5   8
ATOM      8  C   UNL     1      -0.159   1.735   2.601  1.00  0.00     0.039 A 
ATOM      9  C   UNL     1       0.242  -0.323   0.678  1.00  0.00    -0.042 A 
ATOM     10  C   UNL     1      -0.875   0.518   0.607  1.00  0.00     0.005 A 
ATOM     11  C   UNL     1       1.095  -0.171   1.780  1.00  0.00     0.005 A 
ATOM     12  C   UNL     1      -1.077   1.528   1.559  1.00  0.00     0.014 A 
ATOM     13  C   UNL     1       0.922   0.863   2.701  1.00  0.00     0.014 A 
BRANCH   9  14
ATOM     14  C   UNL     1       0.664  -1.236  -0.455  1.00  0.00    -0.007 C 
ATOM     15  C   UNL     1       1.762  -0.647  -1.321  1.00  0.00     0.016 C 
ATOM     16  C   UNL     1      -0.317  -2.171  -1.130  1.00  0.00     0.012 C 
ATOM     17  C   UNL     1       0.696  -2.731  -0.183  1.00  0.00     0.012 C 
ENDBRANCH   9  14
ENDBRANCH   5   8
ENDBRANCH   3   4
ENDBRANCH   2   3
ENDBRANCH   1   2
BRANCH   1  18
ATOM     18  N   UNL     1       2.845   3.528   7.648  1.00  0.00    -0.352 N 
ATOM     19  C   UNL     1       3.767   3.581   8.662  1.00  0.00     0.251 C 
ATOM     20  H   UNL     1       1.934   3.284   7.929  1.00  0.00     0.163 HD
ATOM     21  O   UNL     1       3.490   3.071   9.743  1.00  0.00    -0.269 OA
BRANCH  19  22
ATOM     22  C   UNL     1       5.076   4.238   8.459  1.00  0.00     0.039 A 
ATOM     23  C   UNL     1       6.208   3.684   9.063  1.00  0.00     0.014 A 
ATOM     24  C   UNL     1       5.182   5.425   7.729  1.00  0.00     0.014 A 
ATOM     25  C   UNL     1       7.451   4.298   8.902  1.00  0.00     0.010 A 
ATOM     26  C   UNL     1       6.432   5.996   7.509  1.00  0.00     0.010 A 
ATOM     27  C   UNL     1       7.577   5.445   8.103  1.00  0.00    -0.014 A 
BRANCH  27  28
ATOM     28  C   UNL     1       8.894   6.096   7.893  1.00  0.00     0.031 A 
ATOM     29  C   UNL     1       9.139   7.486   8.410  1.00  0.00     0.074 A 
ATOM     30  C   UNL     1       9.845   5.456   7.187  1.00  0.00     0.049 A 
ATOM     31  N   UNL     1      10.191   8.252   8.270  1.00  0.00    -0.248 NA
ATOM     32  C   UNL     1       8.036   8.108   9.156  1.00  0.00     0.031 C 
ATOM     33  C   UNL     1       9.711   4.115   6.614  1.00  0.00     0.029 A 
ATOM     34  N   UNL     1      11.109   5.846   6.828  1.00  0.00    -0.354 N 
ATOM     35  C   UNL     1       9.873   9.451   8.899  1.00  0.00     0.074 A 
ATOM     36  C   UNL     1       8.502   9.331   9.353  1.00  0.00     0.031 C 
ATOM     37  C   UNL     1      10.861   3.780   6.008  1.00  0.00     0.029 A 
ATOM     38  C   UNL     1      11.794   4.898   6.105  1.00  0.00     0.049 A 
ATOM     39  H   UNL     1      11.490   6.722   7.065  1.00  0.00     0.167 HD
ATOM     40  C   UNL     1      10.659  10.539   9.104  1.00  0.00     0.034 A 
ATOM     41  C   UNL     1      13.033   4.930   5.577  1.00  0.00     0.034 A 
ATOM     42  C   UNL     1      12.023  10.635   8.639  1.00  0.00     0.049 A 
ATOM     43  C   UNL     1      13.870   6.168   5.765  1.00  0.00     0.074 A 
ATOM     44  C   UNL     1      12.930  11.664   8.824  1.00  0.00     0.029 A 
ATOM     45  N   UNL     1      12.674   9.667   7.882  1.00  0.00    -0.354 N 
ATOM     46  N   UNL     1      13.574   7.279   6.399  1.00  0.00    -0.248 NA
ATOM     47  C   UNL     1      15.210   6.152   5.168  1.00  0.00     0.031 C 
ATOM     48  C   UNL     1      14.099  11.351   8.121  1.00  0.00     0.029 A 
ATOM     49  C   UNL     1      13.956  10.091   7.562  1.00  0.00     0.049 A 
ATOM     50  H   UNL     1      12.282   8.805   7.612  1.00  0.00     0.167 HD
ATOM     51  C   UNL     1      14.708   8.082   6.307  1.00  0.00     0.074 A 
ATOM     52  C   UNL     1      15.693   7.321   5.563  1.00  0.00     0.031 C 
ATOM     53  C   UNL     1      14.920   9.329   6.801  1.00  0.00     0.034 A 
BRANCH  40  54
ATOM     54  C   UNL     1      10.035  11.711   9.830  1.00  0.00     0.023 A 
ATOM     55  C   UNL     1       9.522  11.580  11.134  1.00  0.00     0.031 A 
ATOM     56  C   UNL     1       9.883  12.953   9.190  1.00  0.00     0.131 A 
ATOM     57  C   UNL     1       8.784  12.627  11.707  1.00  0.00     0.055 A 
ATOM     58  C   UNL     1       9.235  14.026   9.808  1.00  0.00     0.041 A 
ATOM     59  F   UNL     1      10.334  13.140   7.940  1.00  0.00    -0.206 F 
ATOM     60  C   UNL     1       8.659  13.859  11.064  1.00  0.00     0.022 A 
BRANCH  57  61
ATOM     61  S   UNL     1       7.825  12.283  13.209  1.00  0.00     0.124 S 
ATOM     62  O   UNL     1       7.000  11.156  12.779  1.00  0.00    -0.237 OA
ATOM     63  O   UNL     1       8.864  11.979  14.184  1.00  0.00    -0.237 OA
ATOM     64  O   UNL     1       7.093  13.527  13.440  1.00  0.00    -0.744 OA
ENDBRANCH  57  61
ENDBRANCH  40  54
BRANCH  41  65
ATOM     65  C   UNL     1      13.563   3.752   4.837  1.00  0.00     0.023 A 
ATOM     66  C   UNL     1      14.643   3.016   5.348  1.00  0.00     0.031 A 
ATOM     67  C   UNL     1      13.014   3.354   3.606  1.00  0.00     0.131 A 
ATOM     68  C   UNL     1      15.165   1.940   4.615  1.00  0.00     0.055 A 
ATOM     69  C   UNL     1      13.507   2.253   2.902  1.00  0.00     0.041 A 
ATOM     70  F   UNL     1      11.975   4.020   3.078  1.00  0.00    -0.206 F 
ATOM     71  C   UNL     1      14.595   1.545   3.402  1.00  0.00     0.022 A 
BRANCH  68  72
ATOM     72  S   UNL     1      16.641   1.096   5.244  1.00  0.00     0.124 S 
ATOM     73  O   UNL     1      17.613   2.182   5.275  1.00  0.00    -0.237 OA
ATOM     74  O   UNL     1      16.182   0.608   6.540  1.00  0.00    -0.237 OA
ATOM     75  O   UNL     1      16.892   0.060   4.245  1.00  0.00    -0.744 OA
ENDBRANCH  68  72
ENDBRANCH  41  65
BRANCH  53  76
ATOM     76  C   UNL     1      16.291   9.923   6.584  1.00  0.00     0.023 A 
ATOM     77  C   UNL     1      16.758  10.262   5.302  1.00  0.00     0.031 A 
ATOM     78  C   UNL     1      17.150  10.134   7.678  1.00  0.00     0.131 A 
ATOM     79  C   UNL     1      18.068  10.739   5.139  1.00  0.00     0.055 A 
ATOM     80  C   UNL     1      18.429  10.668   7.516  1.00  0.00     0.041 A 
ATOM     81  F   UNL     1      16.758   9.825   8.924  1.00  0.00    -0.206 F 
ATOM     82  C   UNL     1      18.899  10.961   6.239  1.00  0.00     0.022 A 
BRANCH  79  83
ATOM     83  S   UNL     1      18.706  10.975   3.457  1.00  0.00     0.124 S 
ATOM     84  O   UNL     1      18.571   9.637   2.890  1.00  0.00    -0.237 OA
ATOM     85  O   UNL     1      17.805  11.989   2.920  1.00  0.00    -0.237 OA
ATOM     86  O   UNL     1      20.082  11.421   3.672  1.00  0.00    -0.744 OA
ENDBRANCH  79  83
ENDBRANCH  53  76
ENDBRANCH  27  28
ENDBRANCH  19  22
ENDBRANCH   1  18
TORSDOF 14
