REMARK SMILES COc1ccc2[nH]c(C(=O)c3cc(C)ccn3)c(CC(=O)NCCCNC(=O)c3ccc(-c4c5nc(c(-c6cc(S(=O)(=O)[O-])ccc6F)c6ccc([nH]6)c(-c6cc(S(=O)(=O)[O-])ccc6F)c6nc(c(-c7cc(S(=O)(=O)[O-])ccc7F)c7ccc4[nH]7)C=C6)C=C5)cc3)c2c1
REMARK SMILES IDX 24 1 23 2 22 3 20 4 21 5 19 7 18 8 3 9 4 10 93 11 5 12 92 13
REMARK SMILES IDX 6 14 7 15 8 16 2 18 1 19 9 20 10 21 11 22 12 23 17 24 13 25
REMARK SMILES IDX 16 26 14 27 15 28 25 29 26 30 27 31 28 33 29 34 30 35 91 36
REMARK SMILES IDX 31 37 90 38 32 39 33 40 34 41 84 42 35 43 89 44 83 45 85 46
REMARK SMILES IDX 36 47 88 48 82 49 81 50 37 52 69 53 49 54 68 55 50 56 53 57
REMARK SMILES IDX 67 58 86 59 51 60 52 61 66 63 87 64 54 65 38 66 39 67 47 68
REMARK SMILES IDX 40 69 46 70 48 71 45 72 41 73 42 74 43 75 44 76 70 77 71 78
REMARK SMILES IDX 79 79 72 80 78 81 80 82 77 83 73 84 74 85 75 86 76 87 55 88
REMARK SMILES IDX 56 89 64 90 57 91 63 92 65 93 62 94 58 95 59 96 60 97 61 98
REMARK H PARENT 22 6 7 17 26 32 85 51 53 62
REMARK Flexibility Score: inf
ROOT
ATOM      1  C   UNL     1      -1.322   5.364  -1.555  1.00  0.00     0.042 C 
ENDROOT
BRANCH   1   2
ATOM      2  C   UNL     1      -2.457   4.513  -2.117  1.00  0.00     0.117 C 
BRANCH   2   3
ATOM      3  N   UNL     1      -3.030   5.055  -3.332  1.00  0.00    -0.356 N 
ATOM      4  C   UNL     1      -2.915   4.622  -4.623  1.00  0.00     0.224 C 
ATOM      5  O   UNL     1      -3.694   5.114  -5.445  1.00  0.00    -0.275 OA
ATOM      6  H   UNL     1      -3.587   5.858  -3.209  1.00  0.00     0.163 HD
BRANCH   4   7
ATOM      7  C   UNL     1      -1.970   3.488  -5.004  1.00  0.00     0.138 C 
BRANCH   7   8
ATOM      8  C   UNL     1      -0.521   3.720  -4.663  1.00  0.00    -0.002 A 
ATOM      9  C   UNL     1       0.953   1.283  -2.094  1.00  0.00     0.119 A 
ATOM     10  C   UNL     1       2.195   1.906  -2.000  1.00  0.00     0.048 A 
ATOM     11  C   UNL     1      -0.012   1.773  -2.980  1.00  0.00     0.057 A 
ATOM     12  C   UNL     1       2.493   3.039  -2.769  1.00  0.00     0.030 A 
ATOM     13  C   UNL     1       0.251   2.927  -3.748  1.00  0.00     0.008 A 
ATOM     14  C   UNL     1       1.501   3.523  -3.630  1.00  0.00     0.046 A 
ATOM     15  N   UNL     1       1.512   4.605  -4.476  1.00  0.00    -0.352 N 
ATOM     16  C   UNL     1       0.334   4.689  -5.192  1.00  0.00     0.093 A 
ATOM     17  H   UNL     1       2.261   5.238  -4.561  1.00  0.00     0.167 HD
BRANCH   9  18
ATOM     18  O   UNL     1       0.577   0.168  -1.392  1.00  0.00    -0.497 OA
ATOM     19  C   UNL     1       1.176   0.026  -0.108  1.00  0.00     0.278 C 
ENDBRANCH   9  18
BRANCH  16  20
ATOM     20  C   UNL     1       0.074   5.639  -6.269  1.00  0.00     0.227 C 
ATOM     21  O   UNL     1      -0.981   5.672  -6.901  1.00  0.00    -0.285 OA
BRANCH  20  22
ATOM     22  C   UNL     1       1.159   6.562  -6.694  1.00  0.00     0.113 A 
ATOM     23  C   UNL     1       2.301   6.046  -7.300  1.00  0.00     0.036 A 
ATOM     24  N   UNL     1       0.951   7.882  -6.466  1.00  0.00    -0.253 NA
ATOM     25  C   UNL     1       3.299   6.937  -7.698  1.00  0.00    -0.047 A 
ATOM     26  C   UNL     1       1.920   8.723  -6.882  1.00  0.00     0.112 A 
ATOM     27  C   UNL     1       4.559   6.454  -8.351  1.00  0.00     0.044 C 
ATOM     28  C   UNL     1       3.095   8.304  -7.490  1.00  0.00     0.023 A 
ENDBRANCH  20  22
ENDBRANCH  16  20
ENDBRANCH   7   8
ENDBRANCH   4   7
ENDBRANCH   2   3
ENDBRANCH   1   2
BRANCH   1  29
ATOM     29  C   UNL     1      -1.748   6.743  -1.056  1.00  0.00     0.118 C 
BRANCH  29  30
ATOM     30  N   UNL     1      -2.671   6.675   0.068  1.00  0.00    -0.352 N 
ATOM     31  C   UNL     1      -2.582   7.197   1.335  1.00  0.00     0.251 C 
ATOM     32  H   UNL     1      -3.497   6.170  -0.109  1.00  0.00     0.163 HD
ATOM     33  O   UNL     1      -3.408   6.849   2.176  1.00  0.00    -0.269 OA
BRANCH  31  34
ATOM     34  C   UNL     1      -1.508   8.148   1.706  1.00  0.00     0.039 A 
ATOM     35  C   UNL     1      -0.939   8.048   2.981  1.00  0.00     0.014 A 
ATOM     36  C   UNL     1      -1.095   9.168   0.845  1.00  0.00     0.014 A 
ATOM     37  C   UNL     1       0.078   8.927   3.367  1.00  0.00     0.010 A 
ATOM     38  C   UNL     1      -0.036  10.003   1.206  1.00  0.00     0.010 A 
ATOM     39  C   UNL     1       0.560   9.893   2.472  1.00  0.00    -0.014 A 
BRANCH  39  40
ATOM     40  C   UNL     1       1.679  10.801   2.843  1.00  0.00     0.031 A 
ATOM     41  C   UNL     1       1.446  12.284   2.953  1.00  0.00     0.074 A 
ATOM     42  C   UNL     1       2.918  10.299   3.015  1.00  0.00     0.049 A 
ATOM     43  N   UNL     1       2.308  13.246   3.165  1.00  0.00    -0.248 NA
ATOM     44  C   UNL     1       0.062  12.745   2.772  1.00  0.00     0.031 C 
ATOM     45  C   UNL     1       3.278   8.883   2.903  1.00  0.00     0.029 A 
ATOM     46  N   UNL     1       4.106  10.920   3.307  1.00  0.00    -0.354 N 
ATOM     47  C   UNL     1       1.576  14.428   3.123  1.00  0.00     0.074 A 
ATOM     48  C   UNL     1       0.209  14.061   2.816  1.00  0.00     0.031 C 
ATOM     49  C   UNL     1       4.594   8.745   3.135  1.00  0.00     0.029 A 
ATOM     50  C   UNL     1       5.179  10.062   3.370  1.00  0.00     0.049 A 
ATOM     51  H   UNL     1       4.184  11.890   3.457  1.00  0.00     0.167 HD
ATOM     52  C   UNL     1       2.001  15.699   3.338  1.00  0.00     0.034 A 
ATOM     53  C   UNL     1       6.488  10.306   3.578  1.00  0.00     0.034 A 
ATOM     54  C   UNL     1       3.364  16.048   3.662  1.00  0.00     0.049 A 
ATOM     55  C   UNL     1       6.939  11.726   3.809  1.00  0.00     0.074 A 
ATOM     56  C   UNL     1       3.890  17.295   3.951  1.00  0.00     0.029 A 
ATOM     57  N   UNL     1       4.419  15.148   3.736  1.00  0.00    -0.354 N 
ATOM     58  N   UNL     1       6.227  12.829   3.803  1.00  0.00    -0.248 NA
ATOM     59  C   UNL     1       8.366  11.930   4.086  1.00  0.00     0.031 C 
ATOM     60  C   UNL     1       5.270  17.158   4.142  1.00  0.00     0.029 A 
ATOM     61  C   UNL     1       5.596  15.815   4.040  1.00  0.00     0.049 A 
ATOM     62  H   UNL     1       4.343  14.177   3.592  1.00  0.00     0.167 HD
ATOM     63  C   UNL     1       7.117  13.855   4.105  1.00  0.00     0.074 A 
ATOM     64  C   UNL     1       8.414  13.237   4.298  1.00  0.00     0.031 C 
ATOM     65  C   UNL     1       6.884  15.187   4.219  1.00  0.00     0.034 A 
BRANCH  52  66
ATOM     66  C   UNL     1       0.980  16.804   3.199  1.00  0.00     0.023 A 
ATOM     67  C   UNL     1      -0.135  16.891   4.051  1.00  0.00     0.031 A 
ATOM     68  C   UNL     1       1.107  17.766   2.182  1.00  0.00     0.131 A 
ATOM     69  C   UNL     1      -1.118  17.866   3.821  1.00  0.00     0.055 A 
ATOM     70  C   UNL     1       0.166  18.784   2.009  1.00  0.00     0.041 A 
ATOM     71  F   UNL     1       2.140  17.725   1.326  1.00  0.00    -0.206 F 
ATOM     72  C   UNL     1      -0.964  18.828   2.821  1.00  0.00     0.022 A 
BRANCH  69  73
ATOM     73  S   UNL     1      -2.669  17.767   4.756  1.00  0.00     0.124 S 
ATOM     74  O   UNL     1      -3.155  16.442   4.380  1.00  0.00    -0.237 OA
ATOM     75  O   UNL     1      -2.216  17.915   6.134  1.00  0.00    -0.237 OA
ATOM     76  O   UNL     1      -3.456  18.883   4.234  1.00  0.00    -0.744 OA
ENDBRANCH  69  73
ENDBRANCH  52  66
BRANCH  53  77
ATOM     77  C   UNL     1       7.473   9.189   3.565  1.00  0.00     0.023 A 
ATOM     78  C   UNL     1       8.165   8.822   4.729  1.00  0.00     0.031 A 
ATOM     79  C   UNL     1       7.763   8.494   2.377  1.00  0.00     0.131 A 
ATOM     80  C   UNL     1       9.144   7.817   4.673  1.00  0.00     0.055 A 
ATOM     81  C   UNL     1       8.703   7.464   2.336  1.00  0.00     0.041 A 
ATOM     82  F   UNL     1       7.122   8.801   1.237  1.00  0.00    -0.206 F 
ATOM     83  C   UNL     1       9.409   7.129   3.487  1.00  0.00     0.022 A 
BRANCH  80  84
ATOM     84  S   UNL     1      10.121   7.472   6.162  1.00  0.00     0.124 S 
ATOM     85  O   UNL     1      10.721   8.774   6.431  1.00  0.00    -0.237 OA
ATOM     86  O   UNL     1       9.094   7.031   7.100  1.00  0.00    -0.237 OA
ATOM     87  O   UNL     1      11.050   6.433   5.724  1.00  0.00    -0.744 OA
ENDBRANCH  80  84
ENDBRANCH  53  77
BRANCH  65  88
ATOM     88  C   UNL     1       8.053  16.054   4.615  1.00  0.00     0.023 A 
ATOM     89  C   UNL     1       9.144  16.265   3.754  1.00  0.00     0.031 A 
ATOM     90  C   UNL     1       8.081  16.664   5.882  1.00  0.00     0.131 A 
ATOM     91  C   UNL     1      10.241  17.022   4.190  1.00  0.00     0.055 A 
ATOM     92  C   UNL     1       9.150  17.461   6.290  1.00  0.00     0.041 A 
ATOM     93  F   UNL     1       7.066  16.494   6.744  1.00  0.00    -0.206 F 
ATOM     94  C   UNL     1      10.245  17.634   5.447  1.00  0.00     0.022 A 
BRANCH  91  95
ATOM     95  S   UNL     1      11.705  17.129   3.125  1.00  0.00     0.124 S 
ATOM     96  O   UNL     1      12.077  15.726   2.977  1.00  0.00    -0.237 OA
ATOM     97  O   UNL     1      11.175  17.777   1.929  1.00  0.00    -0.237 OA
ATOM     98  O   UNL     1      12.639  17.940   3.904  1.00  0.00    -0.744 OA
ENDBRANCH  91  95
ENDBRANCH  65  88
ENDBRANCH  39  40
ENDBRANCH  31  34
ENDBRANCH  29  30
ENDBRANCH   1  29
TORSDOF 17
