REMARK SMILES O=C(CC1CC[NH+](C[C@@H]2Cc3ccccc32)CC1)NCCCNC(=O)c1ccc(-c2c3nc(c(-c4cc(S(=O)(=O)[O-])ccc4F)c4ccc([nH]4)c(-c4cc(S(=O)(=O)[O-])ccc4F)c4nc(c(-c5cc(S(=O)(=O)[O-])ccc5F)c5ccc2[nH]5)C=C4)C=C3)cc1
REMARK SMILES IDX 21 1 20 2 19 3 1 4 2 5 3 7 4 8 5 9 18 10 6 11 17 12 7 13
REMARK SMILES IDX 8 15 9 16 10 17 16 18 11 19 15 20 12 21 14 22 13 23 22 24
REMARK SMILES IDX 23 25 24 26 25 28 26 29 27 30 88 31 28 32 87 33 29 34 30 35
REMARK SMILES IDX 31 36 81 37 32 38 86 39 80 40 82 41 33 42 85 43 79 44 78 45
REMARK SMILES IDX 34 47 66 48 46 49 65 50 47 51 50 52 64 53 83 54 48 55 49 56
REMARK SMILES IDX 63 58 84 59 51 60 35 61 36 62 44 63 37 64 43 65 45 66 42 67
REMARK SMILES IDX 38 68 39 69 40 70 41 71 67 72 68 73 76 74 69 75 75 76 77 77
REMARK SMILES IDX 74 78 70 79 71 80 72 81 73 82 52 83 53 84 61 85 54 86 60 87
REMARK SMILES IDX 62 88 59 89 55 90 56 91 57 92 58 93
REMARK H PARENT 19 6 7 14 23 27 82 46 50 57
REMARK Flexibility Score: inf
ROOT
ATOM      1  C   UNL     1      -0.608   4.432  -8.149  1.00  0.00     0.042 C 
ENDROOT
BRANCH   1   2
ATOM      2  C   UNL     1       0.155   3.300  -8.829  1.00  0.00     0.117 C 
BRANCH   2   3
ATOM      3  N   UNL     1       1.399   2.997  -8.151  1.00  0.00    -0.356 N 
ATOM      4  O   UNL     1       1.014   0.749  -7.881  1.00  0.00    -0.275 OA
ATOM      5  C   UNL     1       1.729   1.734  -7.727  1.00  0.00     0.220 C 
ATOM      6  H   UNL     1       2.036   3.729  -7.987  1.00  0.00     0.163 HD
BRANCH   5   7
ATOM      7  C   UNL     1       3.051   1.654  -6.992  1.00  0.00     0.104 C 
BRANCH   7   8
ATOM      8  C   UNL     1       4.291   1.895  -7.885  1.00  0.00     0.009 C 
ATOM      9  C   UNL     1       5.445   0.970  -7.470  1.00  0.00     0.066 C 
ATOM     10  C   UNL     1       4.848   3.327  -7.806  1.00  0.00     0.066 C 
ATOM     11  C   UNL     1       5.913   1.282  -6.045  1.00  0.00     0.262 C 
ATOM     12  C   UNL     1       5.386   3.671  -6.413  1.00  0.00     0.262 C 
ATOM     13  N   UNL     1       6.302   2.675  -5.863  1.00  0.00    -0.334 N 
ATOM     14  H   UNL     1       7.113   2.748  -6.478  1.00  0.00     0.348 HD
BRANCH  13  15
ATOM     15  C   UNL     1       6.835   3.008  -4.524  1.00  0.00     0.270 C 
BRANCH  15  16
ATOM     16  C   UNL     1       5.970   2.895  -3.247  1.00  0.00     0.079 C 
ATOM     17  C   UNL     1       5.309   1.533  -2.810  1.00  0.00     0.050 C 
ATOM     18  C   UNL     1       4.565   3.442  -3.270  1.00  0.00    -0.036 A 
ATOM     19  C   UNL     1       3.991   2.210  -3.061  1.00  0.00    -0.043 A 
ATOM     20  C   UNL     1       3.808   4.580  -3.438  1.00  0.00     0.004 A 
ATOM     21  C   UNL     1       2.629   2.025  -3.097  1.00  0.00     0.004 A 
ATOM     22  C   UNL     1       2.420   4.425  -3.479  1.00  0.00     0.000 A 
ATOM     23  C   UNL     1       1.835   3.153  -3.327  1.00  0.00     0.000 A 
ENDBRANCH  15  16
ENDBRANCH  13  15
ENDBRANCH   7   8
ENDBRANCH   5   7
ENDBRANCH   2   3
ENDBRANCH   1   2
BRANCH   1  24
ATOM     24  C   UNL     1       0.147   5.757  -8.067  1.00  0.00     0.118 C 
BRANCH  24  25
ATOM     25  N   UNL     1       0.493   6.303  -9.372  1.00  0.00    -0.352 N 
ATOM     26  C   UNL     1       0.148   7.500  -9.952  1.00  0.00     0.251 C 
ATOM     27  H   UNL     1       1.064   5.723  -9.926  1.00  0.00     0.163 HD
ATOM     28  O   UNL     1       0.426   7.697 -11.133  1.00  0.00    -0.269 OA
BRANCH  26  29
ATOM     29  C   UNL     1      -0.583   8.530  -9.180  1.00  0.00     0.039 A 
ATOM     30  C   UNL     1      -1.673   9.170  -9.778  1.00  0.00     0.014 A 
ATOM     31  C   UNL     1      -0.204   8.871  -7.879  1.00  0.00     0.014 A 
ATOM     32  C   UNL     1      -2.436  10.079  -9.041  1.00  0.00     0.010 A 
ATOM     33  C   UNL     1      -1.007   9.725  -7.123  1.00  0.00     0.010 A 
ATOM     34  C   UNL     1      -2.142  10.325  -7.690  1.00  0.00    -0.014 A 
BRANCH  34  35
ATOM     35  C   UNL     1      -3.031  11.170  -6.847  1.00  0.00     0.031 A 
ATOM     36  C   UNL     1      -2.521  12.450  -6.243  1.00  0.00     0.074 A 
ATOM     37  C   UNL     1      -4.279  10.743  -6.565  1.00  0.00     0.049 A 
ATOM     38  N   UNL     1      -3.113  13.262  -5.405  1.00  0.00    -0.248 NA
ATOM     39  C   UNL     1      -1.158  12.855  -6.614  1.00  0.00     0.031 C 
ATOM     40  C   UNL     1      -4.880   9.505  -7.067  1.00  0.00     0.029 A 
ATOM     41  N   UNL     1      -5.262  11.291  -5.780  1.00  0.00    -0.354 N 
ATOM     42  C   UNL     1      -2.193  14.271  -5.139  1.00  0.00     0.074 A 
ATOM     43  C   UNL     1      -0.985  13.934  -5.864  1.00  0.00     0.031 C 
ATOM     44  C   UNL     1      -6.131   9.399  -6.593  1.00  0.00     0.029 A 
ATOM     45  C   UNL     1      -6.405  10.527  -5.709  1.00  0.00     0.049 A 
ATOM     46  H   UNL     1      -5.160  12.150  -5.310  1.00  0.00     0.167 HD
ATOM     47  C   UNL     1      -2.349  15.383  -4.376  1.00  0.00     0.034 A 
ATOM     48  C   UNL     1      -7.537  10.700  -4.997  1.00  0.00     0.034 A 
ATOM     49  C   UNL     1      -3.561  15.705  -3.660  1.00  0.00     0.049 A 
ATOM     50  C   UNL     1      -7.665  11.914  -4.113  1.00  0.00     0.074 A 
ATOM     51  C   UNL     1      -3.841  16.831  -2.905  1.00  0.00     0.029 A 
ATOM     52  N   UNL     1      -4.690  14.898  -3.597  1.00  0.00    -0.354 N 
ATOM     53  N   UNL     1      -6.802  12.883  -3.910  1.00  0.00    -0.248 NA
ATOM     54  C   UNL     1      -8.920  12.059  -3.365  1.00  0.00     0.031 C 
ATOM     55  C   UNL     1      -5.103  16.669  -2.323  1.00  0.00     0.029 A 
ATOM     56  C   UNL     1      -5.649  15.481  -2.781  1.00  0.00     0.049 A 
ATOM     57  H   UNL     1      -4.794  14.037  -4.063  1.00  0.00     0.167 HD
ATOM     58  C   UNL     1      -7.424  13.767  -3.032  1.00  0.00     0.074 A 
ATOM     59  C   UNL     1      -8.739  13.224  -2.760  1.00  0.00     0.031 C 
ATOM     60  C   UNL     1      -6.952  14.923  -2.500  1.00  0.00     0.034 A 
BRANCH  47  61
ATOM     61  C   UNL     1      -1.165  16.314  -4.253  1.00  0.00     0.023 A 
ATOM     62  C   UNL     1      -0.631  16.982  -5.370  1.00  0.00     0.031 A 
ATOM     63  C   UNL     1      -0.551  16.526  -3.006  1.00  0.00     0.131 A 
ATOM     64  C   UNL     1       0.524  17.767  -5.231  1.00  0.00     0.055 A 
ATOM     65  C   UNL     1       0.548  17.376  -2.860  1.00  0.00     0.041 A 
ATOM     66  F   UNL     1      -1.002  15.901  -1.907  1.00  0.00    -0.206 F 
ATOM     67  C   UNL     1       1.101  17.989  -3.979  1.00  0.00     0.022 A 
BRANCH  64  68
ATOM     68  S   UNL     1       1.345  18.370  -6.731  1.00  0.00     0.124 S 
ATOM     69  O   UNL     1       1.621  17.121  -7.438  1.00  0.00    -0.237 OA
ATOM     70  O   UNL     1       0.328  19.229  -7.324  1.00  0.00    -0.237 OA
ATOM     71  O   UNL     1       2.528  19.061  -6.220  1.00  0.00    -0.744 OA
ENDBRANCH  64  68
ENDBRANCH  47  61
BRANCH  48  72
ATOM     72  C   UNL     1      -8.633   9.689  -5.061  1.00  0.00     0.023 A 
ATOM     73  C   UNL     1      -9.898  10.026  -5.566  1.00  0.00     0.031 A 
ATOM     74  C   UNL     1      -8.445   8.384  -4.572  1.00  0.00     0.131 A 
ATOM     75  C   UNL     1     -10.940   9.086  -5.526  1.00  0.00     0.055 A 
ATOM     76  C   UNL     1      -9.468   7.435  -4.588  1.00  0.00     0.041 A 
ATOM     77  F   UNL     1      -7.254   8.008  -4.078  1.00  0.00    -0.206 F 
ATOM     78  C   UNL     1     -10.730   7.789  -5.055  1.00  0.00     0.022 A 
BRANCH  75  79
ATOM     79  S   UNL     1     -12.605   9.616  -6.015  1.00  0.00     0.124 S 
ATOM     80  O   UNL     1     -12.848  10.717  -5.092  1.00  0.00    -0.237 OA
ATOM     81  O   UNL     1     -12.407   9.981  -7.414  1.00  0.00    -0.237 OA
ATOM     82  O   UNL     1     -13.419   8.423  -5.794  1.00  0.00    -0.744 OA
ENDBRANCH  75  79
ENDBRANCH  48  72
BRANCH  60  83
ATOM     83  C   UNL     1      -7.885  15.694  -1.596  1.00  0.00     0.023 A 
ATOM     84  C   UNL     1      -8.298  15.185  -0.352  1.00  0.00     0.031 A 
ATOM     85  C   UNL     1      -8.378  16.950  -1.992  1.00  0.00     0.131 A 
ATOM     86  C   UNL     1      -9.221  15.902   0.425  1.00  0.00     0.055 A 
ATOM     87  C   UNL     1      -9.245  17.688  -1.185  1.00  0.00     0.041 A 
ATOM     88  F   UNL     1      -8.021  17.484  -3.172  1.00  0.00    -0.206 F 
ATOM     89  C   UNL     1      -9.682  17.159   0.025  1.00  0.00     0.022 A 
BRANCH  86  90
ATOM     90  S   UNL     1      -9.884  15.128   1.926  1.00  0.00     0.124 S 
ATOM     91  O   UNL     1     -10.498  13.916   1.395  1.00  0.00    -0.237 OA
ATOM     92  O   UNL     1      -8.685  14.934   2.734  1.00  0.00    -0.237 OA
ATOM     93  O   UNL     1     -10.822  16.125   2.440  1.00  0.00    -0.744 OA
ENDBRANCH  86  90
ENDBRANCH  60  83
ENDBRANCH  34  35
ENDBRANCH  26  29
ENDBRANCH  24  25
ENDBRANCH   1  24
TORSDOF 16
