REMARK SMILES Cc1ccccc1[C@@H]1[NH2+][C@@H](C(=O)NCCCNC(=O)c2ccc(-c3c4nc(c(-c5cc(S(=O)(=O)[O-])ccc5F)c5ccc([nH]5)c(-c5cc(S(=O)(=O)[O-])ccc5F)c5nc(c(-c6cc(S(=O)(=O)[O-])ccc6F)c6ccc3[nH]6)C=C5)C=C4)cc2)CC2=c3ccccc3=N[C@H]21
REMARK SMILES IDX 16 1 15 2 14 3 13 4 11 5 12 6 10 8 8 9 9 10 92 11 84 14
REMARK SMILES IDX 91 15 83 16 85 17 90 18 86 19 89 20 87 21 88 22 7 23 1 24
REMARK SMILES IDX 2 25 3 26 4 27 6 28 5 29 17 30 18 31 19 33 20 34 21 35 82 36
REMARK SMILES IDX 22 37 81 38 23 39 24 40 25 41 75 42 26 43 80 44 74 45 76 46
REMARK SMILES IDX 27 47 79 48 73 49 72 50 28 52 60 53 40 54 59 55 41 56 44 57
REMARK SMILES IDX 58 58 77 59 42 60 43 61 57 63 78 64 45 65 29 66 30 67 38 68
REMARK SMILES IDX 31 69 37 70 39 71 36 72 32 73 33 74 34 75 35 76 61 77 62 78
REMARK SMILES IDX 70 79 63 80 69 81 71 82 68 83 64 84 65 85 66 86 67 87 46 88
REMARK SMILES IDX 47 89 55 90 48 91 54 92 56 93 53 94 49 95 50 96 51 97 52 98
REMARK H PARENT 13 7 9 12 9 13 17 32 76 51 44 62
REMARK Flexibility Score: inf
ROOT
ATOM      1  C   UNL     1      -4.285   7.893   0.113  1.00  0.00     0.118 C 
ENDROOT
BRANCH   1   2
ATOM      2  C   UNL     1      -3.435   6.696   0.524  1.00  0.00     0.042 C 
BRANCH   2   3
ATOM      3  C   UNL     1      -4.093   5.338   0.289  1.00  0.00     0.118 C 
BRANCH   3   4
ATOM      4  N   UNL     1      -3.557   4.533  -0.808  1.00  0.00    -0.351 N 
ATOM      5  C   UNL     1      -2.450   3.727  -0.870  1.00  0.00     0.278 C 
ATOM      6  O   UNL     1      -2.528   2.701  -1.560  1.00  0.00    -0.268 OA
ATOM      7  H   UNL     1      -4.078   4.579  -1.642  1.00  0.00     0.163 HD
BRANCH   5   8
ATOM      8  C   UNL     1      -1.069   4.173  -0.302  1.00  0.00     0.277 C 
ATOM      9  C   UNL     1       0.661   2.374   0.351  1.00  0.00     0.243 C 
ATOM     10  N   UNL     1      -0.009   3.189  -0.693  1.00  0.00    -0.327 N 
ATOM     11  C   UNL     1       0.628   2.886   1.825  1.00  0.00     0.196 C 
ATOM     12  H   UNL     1      -0.440   2.535  -1.348  1.00  0.00     0.347 HD
ATOM     13  H   UNL     1       0.742   3.779  -1.051  1.00  0.00     0.347 HD
ATOM     14  C   UNL     1      -0.673   3.557   2.073  1.00  0.00    -0.024 C 
ATOM     15  N   UNL     1       0.676   1.786   2.847  1.00  0.00    -0.270 NA
ATOM     16  C   UNL     1      -1.015   4.648   1.147  1.00  0.00     0.109 C 
ATOM     17  C   UNL     1      -1.353   3.004   3.063  1.00  0.00     0.002 A 
ATOM     18  C   UNL     1      -0.433   1.949   3.508  1.00  0.00     0.066 A 
ATOM     19  C   UNL     1      -2.640   3.194   3.641  1.00  0.00     0.010 A 
ATOM     20  C   UNL     1      -0.874   1.173   4.689  1.00  0.00     0.028 A 
ATOM     21  C   UNL     1      -2.997   2.416   4.674  1.00  0.00     0.001 A 
ATOM     22  C   UNL     1      -2.084   1.425   5.221  1.00  0.00     0.002 A 
BRANCH   9  23
ATOM     23  C   UNL     1       2.128   2.126  -0.045  1.00  0.00     0.015 A 
ATOM     24  C   UNL     1       2.716   4.627  -0.320  1.00  0.00     0.045 C 
ATOM     25  C   UNL     1       3.060   3.160  -0.325  1.00  0.00    -0.042 A 
ATOM     26  C   UNL     1       4.410   2.828  -0.553  1.00  0.00     0.004 A 
ATOM     27  C   UNL     1       4.841   1.504  -0.542  1.00  0.00     0.000 A 
ATOM     28  C   UNL     1       2.590   0.792  -0.053  1.00  0.00     0.010 A 
ATOM     29  C   UNL     1       3.929   0.485  -0.302  1.00  0.00     0.001 A 
ENDBRANCH   9  23
ENDBRANCH   5   8
ENDBRANCH   3   4
ENDBRANCH   2   3
ENDBRANCH   1   2
BRANCH   1  30
ATOM     30  N   UNL     1      -4.669   8.718   1.269  1.00  0.00    -0.352 N 
ATOM     31  C   UNL     1      -4.985  10.064   1.315  1.00  0.00     0.251 C 
ATOM     32  H   UNL     1      -4.707   8.245   2.132  1.00  0.00     0.163 HD
ATOM     33  O   UNL     1      -5.335  10.627   2.340  1.00  0.00    -0.269 OA
BRANCH  31  34
ATOM     34  C   UNL     1      -4.985  10.794   0.033  1.00  0.00     0.039 A 
ATOM     35  C   UNL     1      -6.232  11.110  -0.512  1.00  0.00     0.014 A 
ATOM     36  C   UNL     1      -3.826  10.807  -0.736  1.00  0.00     0.014 A 
ATOM     37  C   UNL     1      -6.356  11.196  -1.894  1.00  0.00     0.010 A 
ATOM     38  C   UNL     1      -3.968  10.803  -2.112  1.00  0.00     0.010 A 
ATOM     39  C   UNL     1      -5.241  10.919  -2.689  1.00  0.00    -0.014 A 
BRANCH  39  40
ATOM     40  C   UNL     1      -5.367  10.546  -4.097  1.00  0.00     0.031 A 
ATOM     41  C   UNL     1      -4.871  11.426  -5.171  1.00  0.00     0.074 A 
ATOM     42  C   UNL     1      -5.942   9.374  -4.454  1.00  0.00     0.049 A 
ATOM     43  N   UNL     1      -5.388  11.472  -6.355  1.00  0.00    -0.248 NA
ATOM     44  C   UNL     1      -3.763  12.352  -4.985  1.00  0.00     0.031 C 
ATOM     45  C   UNL     1      -5.947   8.764  -5.782  1.00  0.00     0.029 A 
ATOM     46  N   UNL     1      -6.878   8.637  -3.730  1.00  0.00    -0.354 N 
ATOM     47  C   UNL     1      -4.521  12.174  -7.152  1.00  0.00     0.074 A 
ATOM     48  C   UNL     1      -3.565  12.765  -6.240  1.00  0.00     0.031 C 
ATOM     49  C   UNL     1      -7.016   7.961  -5.882  1.00  0.00     0.029 A 
ATOM     50  C   UNL     1      -7.792   8.110  -4.667  1.00  0.00     0.049 A 
ATOM     51  H   UNL     1      -6.897   8.509  -2.754  1.00  0.00     0.167 HD
ATOM     52  C   UNL     1      -4.598  12.075  -8.508  1.00  0.00     0.034 A 
ATOM     53  C   UNL     1      -9.128   8.375  -4.586  1.00  0.00     0.034 A 
ATOM     54  C   UNL     1      -5.671  11.192  -8.960  1.00  0.00     0.049 A 
ATOM     55  C   UNL     1      -9.705   9.051  -5.813  1.00  0.00     0.074 A 
ATOM     56  C   UNL     1      -5.714   9.915  -9.498  1.00  0.00     0.029 A 
ATOM     57  N   UNL     1      -6.985  11.520  -8.669  1.00  0.00    -0.354 N 
ATOM     58  N   UNL     1      -9.014   9.376  -6.871  1.00  0.00    -0.248 NA
ATOM     59  C   UNL     1     -11.091   9.510  -5.901  1.00  0.00     0.031 C 
ATOM     60  C   UNL     1      -7.075   9.496  -9.556  1.00  0.00     0.029 A 
ATOM     61  C   UNL     1      -7.857  10.520  -9.057  1.00  0.00     0.049 A 
ATOM     62  H   UNL     1      -7.263  12.361  -8.239  1.00  0.00     0.167 HD
ATOM     63  C   UNL     1      -9.789  10.136  -7.713  1.00  0.00     0.074 A 
ATOM     64  C   UNL     1     -11.086  10.184  -7.063  1.00  0.00     0.031 C 
ATOM     65  C   UNL     1      -9.284  10.714  -8.845  1.00  0.00     0.034 A 
BRANCH  52  66
ATOM     66  C   UNL     1      -3.495  12.581  -9.404  1.00  0.00     0.023 A 
ATOM     67  C   UNL     1      -3.150  11.864 -10.563  1.00  0.00     0.031 A 
ATOM     68  C   UNL     1      -2.732  13.736  -9.149  1.00  0.00     0.131 A 
ATOM     69  C   UNL     1      -2.029  12.219 -11.333  1.00  0.00     0.055 A 
ATOM     70  C   UNL     1      -1.573  14.050  -9.869  1.00  0.00     0.041 A 
ATOM     71  F   UNL     1      -3.098  14.619  -8.206  1.00  0.00    -0.206 F 
ATOM     72  C   UNL     1      -1.205  13.277 -10.960  1.00  0.00     0.022 A 
BRANCH  69  73
ATOM     73  S   UNL     1      -1.670  11.280 -12.842  1.00  0.00     0.124 S 
ATOM     74  O   UNL     1      -1.588   9.910 -12.346  1.00  0.00    -0.237 OA
ATOM     75  O   UNL     1      -2.824  11.595 -13.678  1.00  0.00    -0.237 OA
ATOM     76  O   UNL     1      -0.403  11.848 -13.300  1.00  0.00    -0.744 OA
ENDBRANCH  69  73
ENDBRANCH  52  66
BRANCH  53  77
ATOM     77  C   UNL     1      -9.592   8.548  -3.178  1.00  0.00     0.023 A 
ATOM     78  C   UNL     1      -9.308   7.490  -2.288  1.00  0.00     0.031 A 
ATOM     79  C   UNL     1      -9.899   9.799  -2.629  1.00  0.00     0.131 A 
ATOM     80  C   UNL     1      -9.126   7.744  -0.922  1.00  0.00     0.055 A 
ATOM     81  C   UNL     1      -9.819  10.024  -1.248  1.00  0.00     0.041 A 
ATOM     82  F   UNL     1     -10.148  10.853  -3.419  1.00  0.00    -0.206 F 
ATOM     83  C   UNL     1      -9.379   9.009  -0.394  1.00  0.00     0.022 A 
BRANCH  80  84
ATOM     84  S   UNL     1      -8.234   6.500   0.060  1.00  0.00     0.124 S 
ATOM     85  O   UNL     1      -9.311   5.637   0.526  1.00  0.00    -0.237 OA
ATOM     86  O   UNL     1      -7.325   5.912  -0.923  1.00  0.00    -0.237 OA
ATOM     87  O   UNL     1      -7.559   7.281   1.094  1.00  0.00    -0.744 OA
ENDBRANCH  80  84
ENDBRANCH  53  77
BRANCH  65  88
ATOM     88  C   UNL     1     -10.076  11.555  -9.825  1.00  0.00     0.023 A 
ATOM     89  C   UNL     1     -11.454  11.385 -10.039  1.00  0.00     0.031 A 
ATOM     90  C   UNL     1      -9.446  12.526 -10.643  1.00  0.00     0.131 A 
ATOM     91  C   UNL     1     -12.157  12.211 -10.938  1.00  0.00     0.055 A 
ATOM     92  C   UNL     1     -10.134  13.297 -11.584  1.00  0.00     0.041 A 
ATOM     93  F   UNL     1      -8.135  12.789 -10.552  1.00  0.00    -0.206 F 
ATOM     94  C   UNL     1     -11.504  13.158 -11.723  1.00  0.00     0.022 A 
BRANCH  91  95
ATOM     95  S   UNL     1     -13.961  12.063 -11.020  1.00  0.00     0.124 S 
ATOM     96  O   UNL     1     -14.149  10.651 -11.332  1.00  0.00    -0.237 OA
ATOM     97  O   UNL     1     -14.355  12.474  -9.675  1.00  0.00    -0.237 OA
ATOM     98  O   UNL     1     -14.337  12.991 -12.085  1.00  0.00    -0.744 OA
ENDBRANCH  91  95
ENDBRANCH  65  88
ENDBRANCH  39  40
ENDBRANCH  31  34
ENDBRANCH   1  30
TORSDOF 14
