REMARK SMILES COc1cc2ccccc2cc1C(=O)Nc1cc(C(=O)NCCCNC(=O)c2ccc(-c3c4nc(c(-c5cc(S(=O)(=O)[O-])ccc5F)c5ccc([nH]5)c(-c5cc(S(=O)(=O)[O-])ccc5F)c5nc(c(-c6cc(S(=O)(=O)[O-])ccc6F)c6ccc3[nH]6)C=C5)C=C4)cc2)ccc1C
REMARK SMILES IDX 23 1 22 2 21 3 19 4 20 5 18 7 16 8 17 9 93 10 92 11 94 12
REMARK SMILES IDX 91 13 15 14 13 15 14 16 12 18 3 19 4 20 5 21 11 22 6 23
REMARK SMILES IDX 10 24 7 25 9 26 8 27 2 28 1 29 24 30 25 31 26 32 27 34 28 35
REMARK SMILES IDX 29 36 90 37 30 38 89 39 31 40 32 41 33 42 83 43 34 44 88 45
REMARK SMILES IDX 82 46 84 47 35 48 87 49 81 50 80 51 36 53 68 54 48 55 67 56
REMARK SMILES IDX 49 57 52 58 66 59 85 60 50 61 51 62 65 64 86 65 53 66 37 67
REMARK SMILES IDX 38 68 46 69 39 70 45 71 47 72 44 73 40 74 41 75 42 76 43 77
REMARK SMILES IDX 69 78 70 79 78 80 71 81 77 82 79 83 76 84 72 85 73 86 74 87
REMARK SMILES IDX 75 88 54 89 55 90 63 91 56 92 62 93 64 94 61 95 57 96 58 97
REMARK SMILES IDX 59 98 60 99
REMARK H PARENT 21 6 15 17 25 33 84 52 52 63
REMARK Flexibility Score: inf
ROOT
ATOM      1  C   UNL     1       1.558  -1.394   4.763  1.00  0.00     0.042 C 
ENDROOT
BRANCH   1   2
ATOM      2  C   UNL     1       0.168  -1.701   4.200  1.00  0.00     0.118 C 
BRANCH   2   3
ATOM      3  N   UNL     1      -0.768  -0.593   4.366  1.00  0.00    -0.352 N 
ATOM      4  C   UNL     1      -1.064   0.512   3.603  1.00  0.00     0.251 C 
ATOM      5  O   UNL     1      -2.029   1.198   3.949  1.00  0.00    -0.269 OA
ATOM      6  H   UNL     1      -1.295  -0.647   5.196  1.00  0.00     0.163 HD
BRANCH   4   7
ATOM      7  C   UNL     1      -0.306   0.941   2.385  1.00  0.00     0.041 A 
ATOM      8  C   UNL     1       1.575   0.866   0.830  1.00  0.00     0.045 A 
ATOM      9  C   UNL     1       0.948   0.466   2.017  1.00  0.00     0.040 A 
ATOM     10  C   UNL     1       1.020   1.888   0.047  1.00  0.00    -0.027 A 
ATOM     11  C   UNL     1      -0.239   2.384   0.414  1.00  0.00     0.006 A 
ATOM     12  C   UNL     1       1.612   2.340  -1.258  1.00  0.00     0.046 C 
ATOM     13  C   UNL     1      -0.897   1.906   1.555  1.00  0.00     0.014 A 
BRANCH   8  14
ATOM     14  N   UNL     1       2.735   0.200   0.403  1.00  0.00    -0.322 N 
ATOM     15  C   UNL     1       3.083  -1.134   0.493  1.00  0.00     0.259 C 
ATOM     16  O   UNL     1       4.259  -1.430   0.258  1.00  0.00    -0.269 OA
ATOM     17  H   UNL     1       3.407   0.775  -0.030  1.00  0.00     0.170 HD
BRANCH  15  18
ATOM     18  C   UNL     1       2.108  -2.243   0.749  1.00  0.00     0.082 A 
ATOM     19  C   UNL     1       0.759  -2.255   0.366  1.00  0.00     0.132 A 
ATOM     20  C   UNL     1      -0.072  -3.333   0.689  1.00  0.00     0.056 A 
ATOM     21  C   UNL     1       0.454  -4.488   1.266  1.00  0.00    -0.015 A 
ATOM     22  C   UNL     1       2.634  -3.410   1.334  1.00  0.00     0.026 A 
ATOM     23  C   UNL     1      -0.367  -5.590   1.532  1.00  0.00     0.009 A 
ATOM     24  C   UNL     1       1.832  -4.544   1.568  1.00  0.00    -0.017 A 
ATOM     25  C   UNL     1       0.179  -6.764   2.040  1.00  0.00     0.001 A 
ATOM     26  C   UNL     1       2.361  -5.731   2.098  1.00  0.00     0.009 A 
ATOM     27  C   UNL     1       1.540  -6.837   2.320  1.00  0.00     0.001 A 
BRANCH  19  28
ATOM     28  O   UNL     1       0.138  -1.230  -0.292  1.00  0.00    -0.496 OA
ATOM     29  C   UNL     1       0.323  -1.349  -1.697  1.00  0.00     0.278 C 
ENDBRANCH  19  28
ENDBRANCH  15  18
ENDBRANCH   8  14
ENDBRANCH   4   7
ENDBRANCH   2   3
ENDBRANCH   1   2
BRANCH   1  30
ATOM     30  C   UNL     1       1.717  -1.788   6.221  1.00  0.00     0.118 C 
BRANCH  30  31
ATOM     31  N   UNL     1       2.808  -2.732   6.466  1.00  0.00    -0.352 N 
ATOM     32  C   UNL     1       3.255  -3.229   7.682  1.00  0.00     0.251 C 
ATOM     33  H   UNL     1       3.286  -3.053   5.668  1.00  0.00     0.163 HD
ATOM     34  O   UNL     1       4.204  -3.987   7.764  1.00  0.00    -0.269 OA
BRANCH  32  35
ATOM     35  C   UNL     1       2.454  -2.903   8.885  1.00  0.00     0.039 A 
ATOM     36  C   UNL     1       1.837  -3.968   9.549  1.00  0.00     0.014 A 
ATOM     37  C   UNL     1       2.062  -1.589   9.119  1.00  0.00     0.014 A 
ATOM     38  C   UNL     1       0.660  -3.732  10.253  1.00  0.00     0.010 A 
ATOM     39  C   UNL     1       0.830  -1.376   9.703  1.00  0.00     0.010 A 
ATOM     40  C   UNL     1       0.100  -2.455  10.219  1.00  0.00    -0.014 A 
BRANCH  40  41
ATOM     41  C   UNL     1      -1.290  -2.190  10.575  1.00  0.00     0.031 A 
ATOM     42  C   UNL     1      -1.619  -1.411  11.786  1.00  0.00     0.074 A 
ATOM     43  C   UNL     1      -2.299  -2.634   9.793  1.00  0.00     0.049 A 
ATOM     44  N   UNL     1      -2.706  -1.554  12.468  1.00  0.00    -0.248 NA
ATOM     45  C   UNL     1      -0.707  -0.431  12.360  1.00  0.00     0.031 C 
ATOM     46  C   UNL     1      -3.705  -2.243   9.860  1.00  0.00     0.029 A 
ATOM     47  N   UNL     1      -2.287  -3.716   8.922  1.00  0.00    -0.354 N 
ATOM     48  C   UNL     1      -2.778  -0.509  13.359  1.00  0.00     0.074 A 
ATOM     49  C   UNL     1      -1.474   0.112  13.308  1.00  0.00     0.031 C 
ATOM     50  C   UNL     1      -4.451  -3.191   9.272  1.00  0.00     0.029 A 
ATOM     51  C   UNL     1      -3.566  -4.290   8.932  1.00  0.00     0.049 A 
ATOM     52  H   UNL     1      -1.517  -4.025   8.391  1.00  0.00     0.167 HD
ATOM     53  C   UNL     1      -3.974  -0.184  13.928  1.00  0.00     0.034 A 
ATOM     54  C   UNL     1      -3.763  -5.595   9.282  1.00  0.00     0.034 A 
ATOM     55  C   UNL     1      -5.044  -1.083  13.495  1.00  0.00     0.049 A 
ATOM     56  C   UNL     1      -4.682  -5.777  10.461  1.00  0.00     0.074 A 
ATOM     57  C   UNL     1      -6.047  -0.946  12.549  1.00  0.00     0.029 A 
ATOM     58  N   UNL     1      -5.029  -2.423  13.863  1.00  0.00    -0.354 N 
ATOM     59  N   UNL     1      -4.981  -4.829  11.304  1.00  0.00    -0.248 NA
ATOM     60  C   UNL     1      -5.310  -7.049  10.799  1.00  0.00     0.031 C 
ATOM     61  C   UNL     1      -6.621  -2.222  12.328  1.00  0.00     0.029 A 
ATOM     62  C   UNL     1      -5.981  -3.132  13.152  1.00  0.00     0.049 A 
ATOM     63  H   UNL     1      -4.426  -2.814  14.535  1.00  0.00     0.167 HD
ATOM     64  C   UNL     1      -5.776  -5.337  12.299  1.00  0.00     0.074 A 
ATOM     65  C   UNL     1      -5.982  -6.722  11.916  1.00  0.00     0.031 C 
ATOM     66  C   UNL     1      -6.168  -4.563  13.357  1.00  0.00     0.034 A 
BRANCH  53  67
ATOM     67  C   UNL     1      -4.249   1.144  14.605  1.00  0.00     0.023 A 
ATOM     68  C   UNL     1      -5.557   1.673  14.568  1.00  0.00     0.031 A 
ATOM     69  C   UNL     1      -3.294   1.954  15.248  1.00  0.00     0.131 A 
ATOM     70  C   UNL     1      -5.841   2.973  15.022  1.00  0.00     0.055 A 
ATOM     71  C   UNL     1      -3.559   3.272  15.644  1.00  0.00     0.041 A 
ATOM     72  F   UNL     1      -2.082   1.488  15.575  1.00  0.00    -0.206 F 
ATOM     73  C   UNL     1      -4.835   3.797  15.516  1.00  0.00     0.022 A 
BRANCH  70  74
ATOM     74  S   UNL     1      -7.553   3.568  14.964  1.00  0.00     0.124 S 
ATOM     75  O   UNL     1      -7.861   3.490  13.540  1.00  0.00    -0.237 OA
ATOM     76  O   UNL     1      -8.240   2.615  15.829  1.00  0.00    -0.237 OA
ATOM     77  O   UNL     1      -7.457   4.925  15.501  1.00  0.00    -0.744 OA
ENDBRANCH  70  74
ENDBRANCH  53  67
BRANCH  54  78
ATOM     78  C   UNL     1      -2.606  -6.472   8.963  1.00  0.00     0.023 A 
ATOM     79  C   UNL     1      -2.223  -6.540   7.612  1.00  0.00     0.031 A 
ATOM     80  C   UNL     1      -1.673  -6.857   9.936  1.00  0.00     0.131 A 
ATOM     81  C   UNL     1      -0.889  -6.789   7.277  1.00  0.00     0.055 A 
ATOM     82  C   UNL     1      -0.358  -7.189   9.587  1.00  0.00     0.041 A 
ATOM     83  F   UNL     1      -1.976  -6.789  11.240  1.00  0.00    -0.206 F 
ATOM     84  C   UNL     1       0.053  -7.106   8.257  1.00  0.00     0.022 A 
BRANCH  81  85
ATOM     85  S   UNL     1      -0.362  -6.429   5.583  1.00  0.00     0.124 S 
ATOM     86  O   UNL     1      -0.729  -7.668   4.904  1.00  0.00    -0.237 OA
ATOM     87  O   UNL     1      -1.158  -5.250   5.246  1.00  0.00    -0.237 OA
ATOM     88  O   UNL     1       1.070  -6.174   5.719  1.00  0.00    -0.744 OA
ENDBRANCH  81  85
ENDBRANCH  54  78
BRANCH  66  89
ATOM     89  C   UNL     1      -6.841  -5.055  14.624  1.00  0.00     0.023 A 
ATOM     90  C   UNL     1      -6.942  -6.409  14.975  1.00  0.00     0.031 A 
ATOM     91  C   UNL     1      -7.362  -4.144  15.577  1.00  0.00     0.131 A 
ATOM     92  C   UNL     1      -7.602  -6.818  16.149  1.00  0.00     0.055 A 
ATOM     93  C   UNL     1      -7.950  -4.547  16.780  1.00  0.00     0.041 A 
ATOM     94  F   UNL     1      -7.311  -2.817  15.390  1.00  0.00    -0.206 F 
ATOM     95  C   UNL     1      -8.091  -5.895  17.066  1.00  0.00     0.022 A 
BRANCH  92  96
ATOM     96  S   UNL     1      -7.860  -8.592  16.409  1.00  0.00     0.124 S 
ATOM     97  O   UNL     1      -8.670  -8.953  15.248  1.00  0.00    -0.237 OA
ATOM     98  O   UNL     1      -6.496  -9.111  16.414  1.00  0.00    -0.237 OA
ATOM     99  O   UNL     1      -8.555  -8.656  17.693  1.00  0.00    -0.744 OA
ENDBRANCH  92  96
ENDBRANCH  66  89
ENDBRANCH  40  41
ENDBRANCH  32  35
ENDBRANCH  30  31
ENDBRANCH   1  30
TORSDOF 16
