REMARK SMILES Cc1ccc(S(=O)(=O)n2cc(C(=O)C(=O)N[C@H](Cc3c[nH]c4ccccc34)C(=O)NCC(=O)NCCCNC(=O)c3ccc(-c4c5nc(c(-c6cc(S(=O)(=O)[O-])ccc6F)c6ccc([nH]6)c(-c6cc(S(=O)(=O)[O-])ccc6F)c6nc(c(-c7cc(S(=O)(=O)[O-])ccc7F)c7ccc4[nH]7)C=C6)C=C5)cc3)c3ccccc32)cc1
REMARK SMILES IDX 32 1 33 2 34 3 31 5 30 6 28 7 29 8 17 10 16 11 14 12 15 13
REMARK SMILES IDX 12 15 13 16 11 17 9 18 10 19 109 20 104 21 108 22 105 23
REMARK SMILES IDX 107 24 106 25 6 26 7 27 8 28 5 29 1 30 2 31 3 32 111 33 4 34
REMARK SMILES IDX 110 35 18 36 19 37 20 38 27 39 21 40 22 41 26 42 23 44 25 45
REMARK SMILES IDX 24 46 35 47 36 48 37 49 38 50 39 51 40 53 41 54 42 55 103 56
REMARK SMILES IDX 43 57 102 58 44 59 45 60 46 61 96 62 47 63 101 64 95 65
REMARK SMILES IDX 97 66 48 67 100 68 94 69 93 70 49 72 81 73 61 74 80 75 62 76
REMARK SMILES IDX 65 77 79 78 98 79 63 80 64 81 78 83 99 84 66 85 50 86 51 87
REMARK SMILES IDX 59 88 52 89 58 90 60 91 57 92 53 93 54 94 55 95 56 96 82 97
REMARK SMILES IDX 83 98 91 99 84 100 90 101 92 102 89 103 85 104 86 105 87 106
REMARK SMILES IDX 88 107 67 108 68 109 76 110 69 111 75 112 77 113 74 114
REMARK SMILES IDX 70 115 71 116 72 117 73 118
REMARK H PARENT 34 4 30 9 16 14 21 43 38 52 97 71 65 82
REMARK Flexibility Score: inf
ROOT
ATOM      1  C   UNL     1     -13.226   4.697  -2.370  1.00  0.00     0.239 C 
ATOM      2  O   UNL     1     -14.152   5.474  -2.625  1.00  0.00    -0.273 OA
ATOM      3  N   UNL     1     -11.998   4.964  -2.894  1.00  0.00    -0.355 N 
ATOM      4  H   UNL     1     -11.973   5.709  -3.538  1.00  0.00     0.163 HD
ENDROOT
BRANCH   1   5
ATOM      5  C   UNL     1     -13.449   3.553  -1.373  1.00  0.00     0.216 C 
BRANCH   5   6
ATOM      6  N   UNL     1     -12.822   2.300  -1.717  1.00  0.00    -0.345 N 
ATOM      7  C   UNL     1     -12.064   1.416  -1.038  1.00  0.00     0.243 C 
ATOM      8  O   UNL     1     -11.875   0.359  -1.659  1.00  0.00    -0.273 OA
ATOM      9  H   UNL     1     -12.982   2.033  -2.651  1.00  0.00     0.164 HD
BRANCH   7  10
ATOM     10  C   UNL     1     -11.441   1.598   0.384  1.00  0.00     0.176 C 
BRANCH  10  11
ATOM     11  N   UNL     1     -12.197   2.298   1.490  1.00  0.00    -0.337 N 
ATOM     12  C   UNL     1     -12.239   3.595   2.003  1.00  0.00     0.293 C 
ATOM     13  O   UNL     1     -12.902   3.810   3.016  1.00  0.00    -0.265 OA
ATOM     14  H   UNL     1     -12.809   1.691   1.964  1.00  0.00     0.164 HD
BRANCH  12  15
ATOM     15  C   UNL     1     -11.525   4.749   1.299  1.00  0.00     0.252 C 
ATOM     16  O   UNL     1     -10.953   4.411   0.265  1.00  0.00    -0.283 OA
BRANCH  15  17
ATOM     17  C   UNL     1     -11.491   6.164   1.717  1.00  0.00     0.054 A 
ATOM     18  N   UNL     1     -11.650   8.222   2.635  1.00  0.00    -0.240 N 
ATOM     19  C   UNL     1     -12.010   6.870   2.805  1.00  0.00     0.117 A 
ATOM     20  C   UNL     1     -10.580   8.244   1.754  1.00  0.00     0.065 A 
ATOM     21  C   UNL     1     -10.874   7.178   0.912  1.00  0.00     0.012 A 
ATOM     22  C   UNL     1      -9.680   9.257   1.407  1.00  0.00     0.028 A 
ATOM     23  C   UNL     1     -10.514   7.289  -0.436  1.00  0.00     0.011 A 
ATOM     24  C   UNL     1      -9.343   9.336   0.053  1.00  0.00     0.002 A 
ATOM     25  C   UNL     1      -9.807   8.403  -0.869  1.00  0.00     0.001 A 
BRANCH  18  26
ATOM     26  S   UNL     1     -12.905   9.435   2.246  1.00  0.00     0.268 S 
ATOM     27  O   UNL     1     -14.091   8.666   1.917  1.00  0.00    -0.201 OA
ATOM     28  O   UNL     1     -12.301  10.350   1.293  1.00  0.00    -0.201 OA
BRANCH  26  29
ATOM     29  C   UNL     1     -13.317  10.444   3.644  1.00  0.00     0.088 A 
ATOM     30  C   UNL     1     -15.218  13.057   6.495  1.00  0.00     0.044 C 
ATOM     31  C   UNL     1     -14.534  12.136   5.527  1.00  0.00    -0.051 A 
ATOM     32  C   UNL     1     -14.039  12.664   4.335  1.00  0.00     0.005 A 
ATOM     33  C   UNL     1     -14.372  10.762   5.786  1.00  0.00     0.005 A 
ATOM     34  C   UNL     1     -13.439  11.826   3.401  1.00  0.00     0.022 A 
ATOM     35  C   UNL     1     -13.773   9.908   4.843  1.00  0.00     0.022 A 
ENDBRANCH  26  29
ENDBRANCH  18  26
ENDBRANCH  15  17
ENDBRANCH  12  15
ENDBRANCH  10  11
BRANCH  10  36
ATOM     36  C   UNL     1      -9.889   1.658   0.515  1.00  0.00     0.072 C 
BRANCH  36  37
ATOM     37  C   UNL     1      -8.971   1.423  -0.663  1.00  0.00    -0.020 A 
ATOM     38  C   UNL     1      -8.019   2.345  -1.065  1.00  0.00     0.087 A 
ATOM     39  C   UNL     1      -8.761   0.265  -1.501  1.00  0.00     0.003 A 
ATOM     40  N   UNL     1      -7.284   1.821  -2.091  1.00  0.00    -0.361 N 
ATOM     41  C   UNL     1      -7.775   0.590  -2.438  1.00  0.00     0.046 A 
ATOM     42  C   UNL     1      -9.314  -1.032  -1.585  1.00  0.00     0.010 A 
ATOM     43  H   UNL     1      -6.514   2.263  -2.518  1.00  0.00     0.166 HD
ATOM     44  C   UNL     1      -7.396  -0.246  -3.498  1.00  0.00     0.026 A 
ATOM     45  C   UNL     1      -8.938  -1.893  -2.629  1.00  0.00     0.001 A 
ATOM     46  C   UNL     1      -8.007  -1.495  -3.585  1.00  0.00     0.002 A 
ENDBRANCH  36  37
ENDBRANCH  10  36
ENDBRANCH   7  10
ENDBRANCH   5   6
ENDBRANCH   1   5
BRANCH   3  47
ATOM     47  C   UNL     1     -10.713   4.316  -2.649  1.00  0.00     0.117 C 
BRANCH  47  48
ATOM     48  C   UNL     1     -10.194   3.628  -3.893  1.00  0.00     0.042 C 
BRANCH  48  49
ATOM     49  C   UNL     1      -9.063   4.422  -4.537  1.00  0.00     0.118 C 
BRANCH  49  50
ATOM     50  N   UNL     1      -7.754   4.013  -4.036  1.00  0.00    -0.352 N 
ATOM     51  C   UNL     1      -6.555   3.789  -4.696  1.00  0.00     0.251 C 
ATOM     52  H   UNL     1      -7.715   3.873  -3.062  1.00  0.00     0.163 HD
ATOM     53  O   UNL     1      -5.654   3.135  -4.205  1.00  0.00    -0.269 OA
BRANCH  51  54
ATOM     54  C   UNL     1      -6.314   4.589  -5.920  1.00  0.00     0.039 A 
ATOM     55  C   UNL     1      -5.519   5.718  -5.691  1.00  0.00     0.014 A 
ATOM     56  C   UNL     1      -7.267   4.569  -6.928  1.00  0.00     0.014 A 
ATOM     57  C   UNL     1      -5.932   6.934  -6.211  1.00  0.00     0.010 A 
ATOM     58  C   UNL     1      -7.753   5.796  -7.343  1.00  0.00     0.010 A 
ATOM     59  C   UNL     1      -7.146   6.979  -6.895  1.00  0.00    -0.014 A 
BRANCH  59  60
ATOM     60  C   UNL     1      -7.924   8.214  -6.988  1.00  0.00     0.031 A 
ATOM     61  C   UNL     1      -8.160   8.839  -8.308  1.00  0.00     0.074 A 
ATOM     62  C   UNL     1      -8.396   8.826  -5.876  1.00  0.00     0.049 A 
ATOM     63  N   UNL     1      -8.361  10.100  -8.499  1.00  0.00    -0.248 NA
ATOM     64  C   UNL     1      -8.122   8.073  -9.548  1.00  0.00     0.031 C 
ATOM     65  C   UNL     1      -9.321   9.960  -5.816  1.00  0.00     0.029 A 
ATOM     66  N   UNL     1      -8.013   8.686  -4.553  1.00  0.00    -0.354 N 
ATOM     67  C   UNL     1      -8.747  10.272  -9.808  1.00  0.00     0.074 A 
ATOM     68  C   UNL     1      -8.525   8.989 -10.430  1.00  0.00     0.031 C 
ATOM     69  C   UNL     1      -9.172  10.577  -4.631  1.00  0.00     0.029 A 
ATOM     70  C   UNL     1      -8.060   9.940  -3.948  1.00  0.00     0.049 A 
ATOM     71  H   UNL     1      -7.751   7.845  -4.114  1.00  0.00     0.167 HD
ATOM     72  C   UNL     1      -9.335  11.442 -10.193  1.00  0.00     0.034 A 
ATOM     73  C   UNL     1      -6.968  10.590  -3.448  1.00  0.00     0.034 A 
ATOM     74  C   UNL     1      -9.329  12.431  -9.113  1.00  0.00     0.049 A 
ATOM     75  C   UNL     1      -6.734  11.945  -4.096  1.00  0.00     0.074 A 
ATOM     76  C   UNL     1     -10.298  12.869  -8.224  1.00  0.00     0.029 A 
ATOM     77  N   UNL     1      -8.116  12.925  -8.639  1.00  0.00    -0.354 N 
ATOM     78  N   UNL     1      -7.285  12.333  -5.215  1.00  0.00    -0.248 NA
ATOM     79  C   UNL     1      -5.830  12.952  -3.548  1.00  0.00     0.031 C 
ATOM     80  C   UNL     1      -9.648  13.570  -7.174  1.00  0.00     0.029 A 
ATOM     81  C   UNL     1      -8.288  13.589  -7.438  1.00  0.00     0.049 A 
ATOM     82  H   UNL     1      -7.251  12.815  -9.097  1.00  0.00     0.167 HD
ATOM     83  C   UNL     1      -6.805  13.572  -5.564  1.00  0.00     0.074 A 
ATOM     84  C   UNL     1      -5.926  13.930  -4.465  1.00  0.00     0.031 C 
ATOM     85  C   UNL     1      -7.153  14.184  -6.739  1.00  0.00     0.034 A 
BRANCH  72  86
ATOM     86  C   UNL     1     -10.196  11.549 -11.437  1.00  0.00     0.023 A 
ATOM     87  C   UNL     1     -11.309  12.416 -11.443  1.00  0.00     0.031 A 
ATOM     88  C   UNL     1     -10.031  10.782 -12.607  1.00  0.00     0.131 A 
ATOM     89  C   UNL     1     -12.250  12.396 -12.491  1.00  0.00     0.055 A 
ATOM     90  C   UNL     1     -11.005  10.699 -13.611  1.00  0.00     0.041 A 
ATOM     91  F   UNL     1      -8.891  10.127 -12.862  1.00  0.00    -0.206 F 
ATOM     92  C   UNL     1     -12.135  11.498 -13.547  1.00  0.00     0.022 A 
BRANCH  89  93
ATOM     93  S   UNL     1     -13.623  13.582 -12.474  1.00  0.00     0.124 S 
ATOM     94  O   UNL     1     -14.304  13.253 -11.227  1.00  0.00    -0.237 OA
ATOM     95  O   UNL     1     -12.923  14.862 -12.511  1.00  0.00    -0.237 OA
ATOM     96  O   UNL     1     -14.368  13.256 -13.690  1.00  0.00    -0.744 OA
ENDBRANCH  89  93
ENDBRANCH  72  86
BRANCH  73  97
ATOM     97  C   UNL     1      -5.894   9.699  -2.922  1.00  0.00     0.023 A 
ATOM     98  C   UNL     1      -6.231   8.814  -1.881  1.00  0.00     0.031 A 
ATOM     99  C   UNL     1      -4.705   9.450  -3.615  1.00  0.00     0.131 A 
ATOM    100  C   UNL     1      -5.505   7.636  -1.672  1.00  0.00     0.055 A 
ATOM    101  C   UNL     1      -3.930   8.311  -3.348  1.00  0.00     0.041 A 
ATOM    102  F   UNL     1      -4.336  10.229  -4.641  1.00  0.00    -0.206 F 
ATOM    103  C   UNL     1      -4.348   7.378  -2.397  1.00  0.00     0.022 A 
BRANCH 100 104
ATOM    104  S   UNL     1      -6.228   6.359  -0.602  1.00  0.00     0.124 S 
ATOM    105  O   UNL     1      -6.566   7.108   0.603  1.00  0.00    -0.237 OA
ATOM    106  O   UNL     1      -7.345   5.894  -1.425  1.00  0.00    -0.237 OA
ATOM    107  O   UNL     1      -5.146   5.392  -0.444  1.00  0.00    -0.744 OA
ENDBRANCH 100 104
ENDBRANCH  73  97
BRANCH  85 108
ATOM    108  C   UNL     1      -6.516  15.444  -7.299  1.00  0.00     0.023 A 
ATOM    109  C   UNL     1      -5.275  15.943  -6.874  1.00  0.00     0.031 A 
ATOM    110  C   UNL     1      -7.127  16.163  -8.357  1.00  0.00     0.131 A 
ATOM    111  C   UNL     1      -4.742  17.135  -7.401  1.00  0.00     0.055 A 
ATOM    112  C   UNL     1      -6.556  17.301  -8.939  1.00  0.00     0.041 A 
ATOM    113  F   UNL     1      -8.303  15.787  -8.881  1.00  0.00    -0.206 F 
ATOM    114  C   UNL     1      -5.365  17.808  -8.447  1.00  0.00     0.022 A 
BRANCH 111 115
ATOM    115  S   UNL     1      -3.248  17.822  -6.637  1.00  0.00     0.124 S 
ATOM    116  O   UNL     1      -3.708  18.102  -5.280  1.00  0.00    -0.237 OA
ATOM    117  O   UNL     1      -2.295  16.724  -6.768  1.00  0.00    -0.237 OA
ATOM    118  O   UNL     1      -2.955  19.001  -7.449  1.00  0.00    -0.744 OA
ENDBRANCH 111 115
ENDBRANCH  85 108
ENDBRANCH  59  60
ENDBRANCH  51  54
ENDBRANCH  49  50
ENDBRANCH  48  49
ENDBRANCH  47  48
ENDBRANCH   3  47
TORSDOF 22
