REMARK SMILES CCc1nc(N2CC[N@H+](CC=C(C)C)[C@H](C(=O)NCCCNC(=O)c3ccc(-c4c5nc(c(-c6cc(S(=O)(=O)[O-])ccc6F)c6ccc([nH]6)c(-c6cc(S(=O)(=O)[O-])ccc6F)c6nc(c(-c7cc(S(=O)(=O)[O-])ccc7F)c7ccc4[nH]7)C=C6)C=C5)cc3)C2)no1
REMARK SMILES IDX 20 1 19 2 18 3 16 4 17 5 15 7 6 8 7 9 88 10 8 11 9 12 5 14
REMARK SMILES IDX 3 15 4 16 90 17 89 18 2 19 1 20 10 21 11 22 12 23 13 24
REMARK SMILES IDX 14 25 21 26 22 27 23 28 24 30 25 31 26 32 87 33 27 34 86 35
REMARK SMILES IDX 28 36 29 37 30 38 80 39 31 40 85 41 79 42 81 43 32 44 84 45
REMARK SMILES IDX 78 46 77 47 33 49 65 50 45 51 64 52 46 53 49 54 63 55 82 56
REMARK SMILES IDX 47 57 48 58 62 60 83 61 50 62 34 63 35 64 43 65 36 66 42 67
REMARK SMILES IDX 44 68 41 69 37 70 38 71 39 72 40 73 66 74 67 75 75 76 68 77
REMARK SMILES IDX 74 78 76 79 73 80 69 81 70 82 71 83 72 84 51 85 52 86 60 87
REMARK SMILES IDX 53 88 59 89 61 90 58 91 54 92 55 93 56 94 57 95
REMARK H PARENT 18 6 9 13 22 29 81 48 49 59
REMARK Flexibility Score: inf
ROOT
ATOM      1  C   UNL     1      -0.924   2.380  -6.796  1.00  0.00     0.042 C 
ENDROOT
BRANCH   1   2
ATOM      2  C   UNL     1      -0.064   1.246  -6.249  1.00  0.00     0.118 C 
BRANCH   2   3
ATOM      3  N   UNL     1       1.193   1.107  -6.968  1.00  0.00    -0.351 N 
ATOM      4  C   UNL     1       2.495   1.403  -6.725  1.00  0.00     0.280 C 
ATOM      5  O   UNL     1       3.271   1.017  -7.615  1.00  0.00    -0.268 OA
ATOM      6  H   UNL     1       1.068   0.693  -7.853  1.00  0.00     0.163 HD
BRANCH   4   7
ATOM      7  C   UNL     1       3.058   2.136  -5.476  1.00  0.00     0.294 C 
ATOM      8  N   UNL     1       2.676   3.235  -3.248  1.00  0.00    -0.326 N 
ATOM      9  C   UNL     1       3.628   4.292  -3.565  1.00  0.00     0.181 C 
ATOM     10  C   UNL     1       2.064   2.530  -4.378  1.00  0.00     0.195 C 
ATOM     11  C   UNL     1       4.620   3.824  -4.655  1.00  0.00     0.284 C 
ATOM     12  N   UNL     1       4.033   3.204  -5.857  1.00  0.00    -0.318 N 
ATOM     13  H   UNL     1       4.767   2.707  -6.362  1.00  0.00     0.349 HD
BRANCH   8  14
ATOM     14  C   UNL     1       2.070   3.189  -2.040  1.00  0.00     0.266 A 
ATOM     15  C   UNL     1       0.986   2.289  -0.490  1.00  0.00     0.227 A 
ATOM     16  N   UNL     1       1.318   2.084  -1.740  1.00  0.00    -0.176 NA
ATOM     17  O   UNL     1       1.414   3.489  -0.011  1.00  0.00    -0.337 OA
ATOM     18  N   UNL     1       2.148   4.079  -1.040  1.00  0.00    -0.038 NA
BRANCH  15  19
ATOM     19  C   UNL     1       0.307   1.378   0.457  1.00  0.00     0.097 C 
ATOM     20  C   UNL     1       0.740  -0.065   0.231  1.00  0.00     0.014 C 
ENDBRANCH  15  19
ENDBRANCH   8  14
BRANCH  12  21
ATOM     21  C   UNL     1       3.629   4.157  -6.889  1.00  0.00     0.291 C 
BRANCH  21  22
ATOM     22  C   UNL     1       2.530   5.108  -6.519  1.00  0.00     0.032 C 
ATOM     23  C   UNL     1       2.638   6.436  -6.316  1.00  0.00    -0.075 C 
ATOM     24  C   UNL     1       1.448   7.248  -5.883  1.00  0.00     0.039 C 
ATOM     25  C   UNL     1       3.928   7.195  -6.454  1.00  0.00     0.039 C 
ENDBRANCH  21  22
ENDBRANCH  12  21
ENDBRANCH   4   7
ENDBRANCH   2   3
ENDBRANCH   1   2
BRANCH   1  26
ATOM     26  C   UNL     1      -1.571   2.050  -8.138  1.00  0.00     0.118 C 
BRANCH  26  27
ATOM     27  N   UNL     1      -2.521   0.949  -8.029  1.00  0.00    -0.352 N 
ATOM     28  C   UNL     1      -3.883   0.926  -8.203  1.00  0.00     0.251 C 
ATOM     29  H   UNL     1      -2.121   0.081  -7.793  1.00  0.00     0.163 HD
ATOM     30  O   UNL     1      -4.518  -0.045  -7.804  1.00  0.00    -0.269 OA
BRANCH  28  31
ATOM     31  C   UNL     1      -4.580   2.057  -8.855  1.00  0.00     0.039 A 
ATOM     32  C   UNL     1      -5.839   2.440  -8.385  1.00  0.00     0.014 A 
ATOM     33  C   UNL     1      -4.019   2.709  -9.955  1.00  0.00     0.014 A 
ATOM     34  C   UNL     1      -6.506   3.514  -8.980  1.00  0.00     0.010 A 
ATOM     35  C   UNL     1      -4.643   3.831 -10.491  1.00  0.00     0.010 A 
ATOM     36  C   UNL     1      -5.898   4.240 -10.017  1.00  0.00    -0.014 A 
BRANCH  36  37
ATOM     37  C   UNL     1      -6.563   5.415 -10.636  1.00  0.00     0.031 A 
ATOM     38  C   UNL     1      -6.938   5.388 -12.093  1.00  0.00     0.074 A 
ATOM     39  C   UNL     1      -6.766   6.528  -9.905  1.00  0.00     0.049 A 
ATOM     40  N   UNL     1      -7.445   6.336 -12.839  1.00  0.00    -0.248 NA
ATOM     41  C   UNL     1      -6.670   4.135 -12.813  1.00  0.00     0.031 C 
ATOM     42  C   UNL     1      -6.415   6.686  -8.492  1.00  0.00     0.029 A 
ATOM     43  N   UNL     1      -7.312   7.738 -10.249  1.00  0.00    -0.354 N 
ATOM     44  C   UNL     1      -7.543   5.799 -14.119  1.00  0.00     0.074 A 
ATOM     45  C   UNL     1      -6.968   4.471 -14.057  1.00  0.00     0.031 C 
ATOM     46  C   UNL     1      -6.791   7.908  -8.081  1.00  0.00     0.029 A 
ATOM     47  C   UNL     1      -7.361   8.637  -9.209  1.00  0.00     0.049 A 
ATOM     48  H   UNL     1      -7.638   7.944 -11.155  1.00  0.00     0.167 HD
ATOM     49  C   UNL     1      -8.087   6.350 -15.234  1.00  0.00     0.034 A 
ATOM     50  C   UNL     1      -7.810   9.906  -9.172  1.00  0.00     0.034 A 
ATOM     51  C   UNL     1      -8.659   7.675 -15.272  1.00  0.00     0.049 A 
ATOM     52  C   UNL     1      -8.365  10.518 -10.432  1.00  0.00     0.074 A 
ATOM     53  C   UNL     1      -9.280   8.320 -16.327  1.00  0.00     0.029 A 
ATOM     54  N   UNL     1      -8.669   8.566 -14.205  1.00  0.00    -0.354 N 
ATOM     55  N   UNL     1      -8.492   9.985 -11.626  1.00  0.00    -0.248 NA
ATOM     56  C   UNL     1      -8.843  11.903 -10.335  1.00  0.00     0.031 C 
ATOM     57  C   UNL     1      -9.602   9.620 -15.920  1.00  0.00     0.029 A 
ATOM     58  C   UNL     1      -9.254   9.765 -14.587  1.00  0.00     0.049 A 
ATOM     59  H   UNL     1      -8.313   8.374 -13.307  1.00  0.00     0.167 HD
ATOM     60  C   UNL     1      -9.098  10.960 -12.414  1.00  0.00     0.074 A 
ATOM     61  C   UNL     1      -9.317  12.107 -11.556  1.00  0.00     0.031 C 
ATOM     62  C   UNL     1      -9.449  10.908 -13.724  1.00  0.00     0.034 A 
BRANCH  49  63
ATOM     63  C   UNL     1      -8.052   5.519 -16.498  1.00  0.00     0.023 A 
ATOM     64  C   UNL     1      -8.675   4.259 -16.568  1.00  0.00     0.031 A 
ATOM     65  C   UNL     1      -7.330   5.953 -17.624  1.00  0.00     0.131 A 
ATOM     66  C   UNL     1      -8.471   3.435 -17.685  1.00  0.00     0.055 A 
ATOM     67  C   UNL     1      -7.215   5.168 -18.774  1.00  0.00     0.041 A 
ATOM     68  F   UNL     1      -6.697   7.137 -17.616  1.00  0.00    -0.206 F 
ATOM     69  C   UNL     1      -7.767   3.891 -18.800  1.00  0.00     0.022 A 
BRANCH  66  70
ATOM     70  S   UNL     1      -8.968   1.693 -17.572  1.00  0.00     0.124 S 
ATOM     71  O   UNL     1      -8.232   1.253 -16.388  1.00  0.00    -0.237 OA
ATOM     72  O   UNL     1     -10.415   1.787 -17.427  1.00  0.00    -0.237 OA
ATOM     73  O   UNL     1      -8.501   1.121 -18.833  1.00  0.00    -0.744 OA
ENDBRANCH  66  70
ENDBRANCH  49  63
BRANCH  50  74
ATOM     74  C   UNL     1      -7.772  10.681  -7.901  1.00  0.00     0.023 A 
ATOM     75  C   UNL     1      -8.962  11.067  -7.264  1.00  0.00     0.031 A 
ATOM     76  C   UNL     1      -6.554  11.065  -7.314  1.00  0.00     0.131 A 
ATOM     77  C   UNL     1      -8.911  11.845  -6.098  1.00  0.00     0.055 A 
ATOM     78  C   UNL     1      -6.507  11.799  -6.128  1.00  0.00     0.041 A 
ATOM     79  F   UNL     1      -5.387  10.714  -7.878  1.00  0.00    -0.206 F 
ATOM     80  C   UNL     1      -7.692  12.204  -5.519  1.00  0.00     0.022 A 
BRANCH  77  81
ATOM     81  S   UNL     1     -10.468  12.438  -5.383  1.00  0.00     0.124 S 
ATOM     82  O   UNL     1     -11.017  13.228  -6.479  1.00  0.00    -0.237 OA
ATOM     83  O   UNL     1     -11.159  11.188  -5.082  1.00  0.00    -0.237 OA
ATOM     84  O   UNL     1     -10.036  13.204  -4.216  1.00  0.00    -0.744 OA
ENDBRANCH  77  81
ENDBRANCH  50  74
BRANCH  62  85
ATOM     85  C   UNL     1     -10.149  12.120 -14.290  1.00  0.00     0.023 A 
ATOM     86  C   UNL     1      -9.495  13.357 -14.430  1.00  0.00     0.031 A 
ATOM     87  C   UNL     1     -11.499  12.039 -14.675  1.00  0.00     0.131 A 
ATOM     88  C   UNL     1     -10.207  14.476 -14.886  1.00  0.00     0.055 A 
ATOM     89  C   UNL     1     -12.186  13.141 -15.187  1.00  0.00     0.041 A 
ATOM     90  F   UNL     1     -12.175  10.884 -14.560  1.00  0.00    -0.206 F 
ATOM     91  C   UNL     1     -11.543  14.372 -15.281  1.00  0.00     0.022 A 
BRANCH  88  92
ATOM     92  S   UNL     1      -9.391  16.096 -14.864  1.00  0.00     0.124 S 
ATOM     93  O   UNL     1      -9.045  16.242 -13.454  1.00  0.00    -0.237 OA
ATOM     94  O   UNL     1      -8.271  15.894 -15.778  1.00  0.00    -0.237 OA
ATOM     95  O   UNL     1     -10.427  17.009 -15.346  1.00  0.00    -0.744 OA
ENDBRANCH  88  92
ENDBRANCH  62  85
ENDBRANCH  36  37
ENDBRANCH  28  31
ENDBRANCH  26  27
ENDBRANCH   1  26
TORSDOF 17
