REMARK SMILES O=C(NCCCNC(=O)[C@H]1C=C[C@H](NS(=O)(=O)c2ccc(F)c(F)c2F)C1)c1ccc(-c2c3nc(c(-c4cc(S(=O)(=O)[O-])ccc4F)c4ccc([nH]4)c(-c4cc(S(=O)(=O)[O-])ccc4F)c4nc(c(-c5cc(S(=O)(=O)[O-])ccc5F)c5ccc2[nH]5)C=C4)C=C3)cc1
REMARK SMILES IDX 5 1 4 2 3 3 1 4 2 5 28 7 29 8 90 9 30 10 89 11 31 12 32 13
REMARK SMILES IDX 33 14 83 15 34 16 88 17 82 18 84 19 35 20 87 21 81 22 80 23
REMARK SMILES IDX 36 25 68 26 48 27 67 28 49 29 52 30 66 31 85 32 50 33 51 34
REMARK SMILES IDX 65 36 86 37 53 38 37 39 38 40 46 41 39 42 45 43 47 44 44 45
REMARK SMILES IDX 40 46 41 47 42 48 43 49 69 50 70 51 78 52 71 53 77 54 79 55
REMARK SMILES IDX 76 56 72 57 73 58 74 59 75 60 54 61 55 62 63 63 56 64 62 65
REMARK SMILES IDX 64 66 61 67 57 68 58 69 59 70 60 71 6 72 7 73 8 74 9 76
REMARK SMILES IDX 10 77 11 78 27 79 12 80 13 81 14 82 15 84 16 85 17 86 18 87
REMARK SMILES IDX 19 88 25 89 20 90 23 91 26 92 21 93 24 94 22 95
REMARK H PARENT 3 6 84 24 52 35 7 75 14 83
REMARK Flexibility Score: inf
ROOT
ATOM      1  C   UNL     1       4.684   1.657  -2.242  1.00  0.00     0.042 C 
ENDROOT
BRANCH   1   2
ATOM      2  C   UNL     1       4.446   1.209  -0.804  1.00  0.00     0.118 C 
BRANCH   2   3
ATOM      3  N   UNL     1       3.034   1.026  -0.497  1.00  0.00    -0.352 N 
ATOM      4  O   UNL     1       1.139  -0.088  -0.026  1.00  0.00    -0.269 OA
ATOM      5  C   UNL     1       2.367  -0.094  -0.060  1.00  0.00     0.251 C 
ATOM      6  H   UNL     1       2.473   1.825  -0.620  1.00  0.00     0.163 HD
BRANCH   5   7
ATOM      7  C   UNL     1       3.118  -1.300   0.355  1.00  0.00     0.039 A 
ATOM      8  C   UNL     1       4.269  -1.190   1.137  1.00  0.00     0.014 A 
ATOM      9  C   UNL     1       2.643  -2.562  -0.014  1.00  0.00     0.014 A 
ATOM     10  C   UNL     1       5.019  -2.324   1.429  1.00  0.00     0.010 A 
ATOM     11  C   UNL     1       3.351  -3.710   0.357  1.00  0.00     0.010 A 
ATOM     12  C   UNL     1       4.559  -3.599   1.062  1.00  0.00    -0.014 A 
BRANCH  12  13
ATOM     13  C   UNL     1       5.329  -4.793   1.496  1.00  0.00     0.031 A 
ATOM     14  C   UNL     1       6.003  -5.693   0.498  1.00  0.00     0.074 A 
ATOM     15  C   UNL     1       5.453  -5.029   2.818  1.00  0.00     0.049 A 
ATOM     16  N   UNL     1       6.748  -6.747   0.713  1.00  0.00    -0.248 NA
ATOM     17  C   UNL     1       5.810  -5.375  -0.924  1.00  0.00     0.031 C 
ATOM     18  C   UNL     1       4.829  -4.226   3.875  1.00  0.00     0.029 A 
ATOM     19  N   UNL     1       6.158  -5.984   3.503  1.00  0.00    -0.354 N 
ATOM     20  C   UNL     1       7.109  -7.226  -0.542  1.00  0.00     0.074 A 
ATOM     21  C   UNL     1       6.470  -6.364  -1.515  1.00  0.00     0.031 C 
ATOM     22  C   UNL     1       5.222  -4.690   5.070  1.00  0.00     0.029 A 
ATOM     23  C   UNL     1       6.068  -5.860   4.870  1.00  0.00     0.049 A 
ATOM     24  H   UNL     1       6.679  -6.692   3.058  1.00  0.00     0.167 HD
ATOM     25  C   UNL     1       7.906  -8.280  -0.850  1.00  0.00     0.034 A 
ATOM     26  C   UNL     1       6.593  -6.612   5.856  1.00  0.00     0.034 A 
ATOM     27  C   UNL     1       8.535  -9.130   0.134  1.00  0.00     0.049 A 
ATOM     28  C   UNL     1       7.451  -7.790   5.482  1.00  0.00     0.074 A 
ATOM     29  C   UNL     1       9.376 -10.211  -0.070  1.00  0.00     0.029 A 
ATOM     30  N   UNL     1       8.389  -8.999   1.510  1.00  0.00    -0.354 N 
ATOM     31  N   UNL     1       7.793  -8.215   4.288  1.00  0.00    -0.248 NA
ATOM     32  C   UNL     1       7.997  -8.584   6.588  1.00  0.00     0.031 C 
ATOM     33  C   UNL     1       9.689 -10.768   1.176  1.00  0.00     0.029 A 
ATOM     34  C   UNL     1       9.100  -9.995   2.163  1.00  0.00     0.049 A 
ATOM     35  H   UNL     1       7.857  -8.301   1.957  1.00  0.00     0.167 HD
ATOM     36  C   UNL     1       8.604  -9.325   4.502  1.00  0.00     0.074 A 
ATOM     37  C   UNL     1       8.726  -9.478   5.938  1.00  0.00     0.031 C 
ATOM     38  C   UNL     1       9.190 -10.148   3.596  1.00  0.00     0.034 A 
BRANCH  25  39
ATOM     39  C   UNL     1       8.113  -8.594  -2.312  1.00  0.00     0.023 A 
ATOM     40  C   UNL     1       8.807  -7.720  -3.165  1.00  0.00     0.031 A 
ATOM     41  C   UNL     1       7.609  -9.787  -2.860  1.00  0.00     0.131 A 
ATOM     42  C   UNL     1       8.932  -8.024  -4.530  1.00  0.00     0.055 A 
ATOM     43  C   UNL     1       7.796 -10.117  -4.204  1.00  0.00     0.041 A 
ATOM     44  F   UNL     1       6.921 -10.652  -2.098  1.00  0.00    -0.206 F 
ATOM     45  C   UNL     1       8.452  -9.228  -5.050  1.00  0.00     0.022 A 
BRANCH  42  46
ATOM     46  S   UNL     1       9.634  -6.772  -5.638  1.00  0.00     0.124 S 
ATOM     47  O   UNL     1       8.701  -5.661  -5.459  1.00  0.00    -0.237 OA
ATOM     48  O   UNL     1      10.970  -6.577  -5.088  1.00  0.00    -0.237 OA
ATOM     49  O   UNL     1       9.586  -7.410  -6.952  1.00  0.00    -0.744 OA
ENDBRANCH  42  46
ENDBRANCH  25  39
BRANCH  26  50
ATOM     50  C   UNL     1       6.296  -6.300   7.282  1.00  0.00     0.023 A 
ATOM     51  C   UNL     1       7.315  -5.933   8.174  1.00  0.00     0.031 A 
ATOM     52  C   UNL     1       4.985  -6.402   7.783  1.00  0.00     0.131 A 
ATOM     53  C   UNL     1       7.015  -5.726   9.529  1.00  0.00     0.055 A 
ATOM     54  C   UNL     1       4.683  -6.141   9.119  1.00  0.00     0.041 A 
ATOM     55  F   UNL     1       3.972  -6.745   6.971  1.00  0.00    -0.206 F 
ATOM     56  C   UNL     1       5.704  -5.814  10.005  1.00  0.00     0.022 A 
BRANCH  53  57
ATOM     57  S   UNL     1       8.381  -5.431  10.684  1.00  0.00     0.124 S 
ATOM     58  O   UNL     1       9.232  -6.591  10.443  1.00  0.00    -0.237 OA
ATOM     59  O   UNL     1       8.898  -4.149  10.218  1.00  0.00    -0.237 OA
ATOM     60  O   UNL     1       7.723  -5.399  11.988  1.00  0.00    -0.744 OA
ENDBRANCH  53  57
ENDBRANCH  26  50
BRANCH  38  61
ATOM     61  C   UNL     1      10.028 -11.271   4.154  1.00  0.00     0.023 A 
ATOM     62  C   UNL     1       9.448 -12.327   4.878  1.00  0.00     0.031 A 
ATOM     63  C   UNL     1      11.425 -11.258   4.001  1.00  0.00     0.131 A 
ATOM     64  C   UNL     1      10.267 -13.291   5.482  1.00  0.00     0.055 A 
ATOM     65  C   UNL     1      12.230 -12.254   4.554  1.00  0.00     0.041 A 
ATOM     66  F   UNL     1      12.029 -10.271   3.321  1.00  0.00    -0.206 F 
ATOM     67  C   UNL     1      11.654 -13.269   5.314  1.00  0.00     0.022 A 
BRANCH  64  68
ATOM     68  S   UNL     1       9.503 -14.514   6.583  1.00  0.00     0.124 S 
ATOM     69  O   UNL     1       8.859 -13.664   7.579  1.00  0.00    -0.237 OA
ATOM     70  O   UNL     1       8.608 -15.229   5.680  1.00  0.00    -0.237 OA
ATOM     71  O   UNL     1      10.640 -15.291   7.073  1.00  0.00    -0.744 OA
ENDBRANCH  64  68
ENDBRANCH  38  61
ENDBRANCH  12  13
ENDBRANCH   5   7
ENDBRANCH   2   3
ENDBRANCH   1   2
BRANCH   1  72
ATOM     72  C   UNL     1       4.105   3.027  -2.569  1.00  0.00     0.117 C 
BRANCH  72  73
ATOM     73  N   UNL     1       4.705   4.076  -1.765  1.00  0.00    -0.356 N 
ATOM     74  C   UNL     1       5.600   5.040  -2.125  1.00  0.00     0.226 C 
ATOM     75  H   UNL     1       4.425   4.095  -0.822  1.00  0.00     0.163 HD
ATOM     76  O   UNL     1       6.009   5.803  -1.250  1.00  0.00    -0.274 OA
BRANCH  74  77
ATOM     77  C   UNL     1       6.041   5.128  -3.588  1.00  0.00     0.103 C 
ATOM     78  C   UNL     1       6.699   6.438  -3.875  1.00  0.00    -0.016 C 
ATOM     79  C   UNL     1       7.127   4.092  -3.925  1.00  0.00     0.042 C 
ATOM     80  C   UNL     1       7.935   6.287  -4.352  1.00  0.00    -0.011 C 
ATOM     81  C   UNL     1       8.340   4.863  -4.485  1.00  0.00     0.093 C 
BRANCH  81  82
ATOM     82  N   UNL     1       8.568   4.518  -5.880  1.00  0.00    -0.204 NA
ATOM     83  H   UNL     1       7.710   4.770  -6.370  1.00  0.00     0.142 HD
BRANCH  82  84
ATOM     84  S   UNL     1       9.818   5.136  -6.806  1.00  0.00     0.244 S 
ATOM     85  O   UNL     1       9.554   4.669  -8.148  1.00  0.00    -0.207 OA
ATOM     86  O   UNL     1       9.967   6.549  -6.539  1.00  0.00    -0.207 OA
BRANCH  84  87
ATOM     87  C   UNL     1      11.261   4.345  -6.173  1.00  0.00     0.121 A 
ATOM     88  C   UNL     1      11.768   4.764  -4.931  1.00  0.00     0.028 A 
ATOM     89  C   UNL     1      11.961   3.413  -6.931  1.00  0.00     0.181 A 
ATOM     90  C   UNL     1      12.944   4.204  -4.431  1.00  0.00     0.044 A 
ATOM     91  C   UNL     1      13.148   2.878  -6.439  1.00  0.00     0.195 A 
ATOM     92  F   UNL     1      11.544   3.032  -8.145  1.00  0.00    -0.202 F 
ATOM     93  C   UNL     1      13.629   3.264  -5.193  1.00  0.00     0.161 A 
ATOM     94  F   UNL     1      13.845   2.006  -7.181  1.00  0.00    -0.200 F 
ATOM     95  F   UNL     1      14.776   2.757  -4.724  1.00  0.00    -0.204 F 
ENDBRANCH  84  87
ENDBRANCH  82  84
ENDBRANCH  81  82
ENDBRANCH  74  77
ENDBRANCH  72  73
ENDBRANCH   1  72
TORSDOF 16
