REMARK SMILES CCOC(=O)c1c(NC(=O)[C@H]2[C@@H]3CC[C@@H](C3)[C@@H]2C(=O)NCCCNC(=O)c2ccc(-c3c4nc(c(-c5cc(S(=O)(=O)[O-])ccc5F)c5ccc([nH]5)c(-c5cc(S(=O)(=O)[O-])ccc5F)c5nc(c(-c6cc(S(=O)(=O)[O-])ccc6F)c6ccc3[nH]6)C=C5)C=C4)cc2)sc2c1CCCC2
REMARK SMILES IDX 21 1 20 2 18 3 19 4 17 6 11 7 12 8 13 9 16 10 15 11 14 12
REMARK SMILES IDX 9 13 8 14 10 16 7 17 6 18 92 19 90 20 91 21 93 22 96 23
REMARK SMILES IDX 94 24 95 25 4 26 5 27 3 28 2 29 1 30 22 31 23 32 24 33 25 34
REMARK SMILES IDX 26 36 27 37 28 38 89 39 29 40 88 41 30 42 31 43 32 44 82 45
REMARK SMILES IDX 33 46 87 47 81 48 83 49 34 50 86 51 80 52 79 53 35 55 67 56
REMARK SMILES IDX 47 57 66 58 48 59 51 60 65 61 84 62 49 63 50 64 64 66 85 67
REMARK SMILES IDX 52 68 36 69 37 70 45 71 38 72 44 73 46 74 43 75 39 76 40 77
REMARK SMILES IDX 41 78 42 79 68 80 69 81 77 82 70 83 76 84 78 85 75 86 71 87
REMARK SMILES IDX 72 88 73 89 74 90 53 91 54 92 62 93 55 94 61 95 63 96 60 97
REMARK SMILES IDX 56 98 57 99 58 100 59 101
REMARK H PARENT 20 5 8 15 24 35 83 54 51 65
REMARK Flexibility Score: inf
ROOT
ATOM      1  C   UNL     1       4.330  -0.178   2.021  1.00  0.00     0.117 C 
ENDROOT
BRANCH   1   2
ATOM      2  N   UNL     1       2.975  -0.670   1.839  1.00  0.00    -0.356 N 
ATOM      3  C   UNL     1       2.201  -0.777   0.724  1.00  0.00     0.224 C 
ATOM      4  O   UNL     1       1.130  -1.369   0.862  1.00  0.00    -0.275 OA
ATOM      5  H   UNL     1       2.541  -0.981   2.666  1.00  0.00     0.163 HD
BRANCH   3   6
ATOM      6  C   UNL     1       2.679  -0.241  -0.626  1.00  0.00     0.094 C 
ATOM      7  C   UNL     1       2.672   1.310  -0.796  1.00  0.00     0.094 C 
ATOM      8  C   UNL     1       1.937   1.495  -2.155  1.00  0.00     0.002 C 
ATOM      9  C   UNL     1       0.434   1.286  -1.940  1.00  0.00     0.005 C 
ATOM     10  C   UNL     1       2.321   0.228  -2.925  1.00  0.00     0.009 C 
ATOM     11  C   UNL     1       1.803  -0.703  -1.828  1.00  0.00     0.002 C 
ATOM     12  C   UNL     1       0.335  -0.228  -1.739  1.00  0.00     0.005 C 
BRANCH   7  13
ATOM     13  C   UNL     1       4.069   1.915  -0.906  1.00  0.00     0.229 C 
ATOM     14  N   UNL     1       4.268   3.244  -1.125  1.00  0.00    -0.317 N 
ATOM     15  H   UNL     1       5.196   3.472  -1.360  1.00  0.00     0.170 HD
ATOM     16  O   UNL     1       5.077   1.200  -0.904  1.00  0.00    -0.274 OA
BRANCH  14  17
ATOM     17  C   UNL     1       3.427   4.331  -1.083  1.00  0.00     0.110 A 
ATOM     18  C   UNL     1       2.309   4.739  -0.375  1.00  0.00     0.098 A 
ATOM     19  C   UNL     1       1.846   6.030  -0.854  1.00  0.00    -0.017 A 
ATOM     20  S   UNL     1       3.979   5.524  -2.178  1.00  0.00    -0.122 S 
ATOM     21  C   UNL     1       2.681   6.548  -1.824  1.00  0.00     0.011 A 
ATOM     22  C   UNL     1       0.710   6.841  -0.284  1.00  0.00     0.038 C 
ATOM     23  C   UNL     1       2.528   7.888  -2.475  1.00  0.00     0.047 C 
ATOM     24  C   UNL     1       0.387   8.079  -1.135  1.00  0.00     0.005 C 
ATOM     25  C   UNL     1       1.656   8.802  -1.603  1.00  0.00     0.006 C 
BRANCH  18  26
ATOM     26  C   UNL     1       1.786   4.100   0.822  1.00  0.00     0.341 C 
ATOM     27  O   UNL     1       2.501   3.763   1.755  1.00  0.00    -0.246 OA
BRANCH  26  28
ATOM     28  O   UNL     1       0.431   3.955   0.799  1.00  0.00    -0.462 OA
BRANCH  28  29
ATOM     29  C   UNL     1      -0.164   3.493   2.023  1.00  0.00     0.230 C 
ATOM     30  C   UNL     1      -0.076   1.982   2.147  1.00  0.00     0.049 C 
ENDBRANCH  28  29
ENDBRANCH  26  28
ENDBRANCH  18  26
ENDBRANCH  14  17
ENDBRANCH   7  13
ENDBRANCH   3   6
ENDBRANCH   1   2
BRANCH   1  31
ATOM     31  C   UNL     1       4.363   1.289   2.432  1.00  0.00     0.042 C 
BRANCH  31  32
ATOM     32  C   UNL     1       3.792   1.574   3.824  1.00  0.00     0.118 C 
BRANCH  32  33
ATOM     33  N   UNL     1       4.831   1.547   4.838  1.00  0.00    -0.352 N 
ATOM     34  C   UNL     1       5.040   2.422   5.875  1.00  0.00     0.251 C 
ATOM     35  H   UNL     1       5.470   0.801   4.773  1.00  0.00     0.163 HD
ATOM     36  O   UNL     1       6.126   2.401   6.453  1.00  0.00    -0.269 OA
BRANCH  34  37
ATOM     37  C   UNL     1       3.990   3.376   6.321  1.00  0.00     0.039 A 
ATOM     38  C   UNL     1       4.387   4.650   6.748  1.00  0.00     0.014 A 
ATOM     39  C   UNL     1       2.651   2.992   6.458  1.00  0.00     0.014 A 
ATOM     40  C   UNL     1       3.457   5.530   7.315  1.00  0.00     0.010 A 
ATOM     41  C   UNL     1       1.718   3.878   7.012  1.00  0.00     0.010 A 
ATOM     42  C   UNL     1       2.118   5.144   7.468  1.00  0.00    -0.014 A 
BRANCH  42  43
ATOM     43  C   UNL     1       1.158   6.012   8.198  1.00  0.00     0.031 A 
ATOM     44  C   UNL     1       0.794   5.687   9.623  1.00  0.00     0.074 A 
ATOM     45  C   UNL     1       0.604   7.083   7.600  1.00  0.00     0.049 A 
ATOM     46  N   UNL     1      -0.098   6.246  10.400  1.00  0.00    -0.248 NA
ATOM     47  C   UNL     1       1.528   4.576  10.248  1.00  0.00     0.031 C 
ATOM     48  C   UNL     1       0.876   7.528   6.234  1.00  0.00     0.029 A 
ATOM     49  N   UNL     1      -0.310   7.991   8.073  1.00  0.00    -0.354 N 
ATOM     50  C   UNL     1      -0.053   5.541  11.598  1.00  0.00     0.074 A 
ATOM     51  C   UNL     1       0.955   4.512  11.441  1.00  0.00     0.031 C 
ATOM     52  C   UNL     1       0.141   8.625   5.978  1.00  0.00     0.029 A 
ATOM     53  C   UNL     1      -0.667   8.946   7.153  1.00  0.00     0.049 A 
ATOM     54  H   UNL     1      -0.676   7.961   8.987  1.00  0.00     0.167 HD
ATOM     55  C   UNL     1      -0.785   5.726  12.725  1.00  0.00     0.034 A 
ATOM     56  C   UNL     1      -1.556   9.954   7.239  1.00  0.00     0.034 A 
ATOM     57  C   UNL     1      -1.779   6.755  12.896  1.00  0.00     0.049 A 
ATOM     58  C   UNL     1      -2.340  10.157   8.507  1.00  0.00     0.074 A 
ATOM     59  C   UNL     1      -2.589   7.005  13.991  1.00  0.00     0.029 A 
ATOM     60  N   UNL     1      -2.090   7.717  11.947  1.00  0.00    -0.354 N 
ATOM     61  N   UNL     1      -2.336   9.437   9.602  1.00  0.00    -0.248 NA
ATOM     62  C   UNL     1      -3.251  11.311   8.543  1.00  0.00     0.031 C 
ATOM     63  C   UNL     1      -3.404   8.107  13.696  1.00  0.00     0.029 A 
ATOM     64  C   UNL     1      -3.077   8.561  12.430  1.00  0.00     0.049 A 
ATOM     65  H   UNL     1      -1.671   7.789  11.059  1.00  0.00     0.167 HD
ATOM     66  C   UNL     1      -3.245  10.050  10.458  1.00  0.00     0.074 A 
ATOM     67  C   UNL     1      -3.775  11.201   9.756  1.00  0.00     0.031 C 
ATOM     68  C   UNL     1      -3.607   9.692  11.714  1.00  0.00     0.034 A 
BRANCH  55  69
ATOM     69  C   UNL     1      -0.567   4.744  13.841  1.00  0.00     0.023 A 
ATOM     70  C   UNL     1       0.586   4.788  14.643  1.00  0.00     0.031 A 
ATOM     71  C   UNL     1      -1.508   3.728  14.077  1.00  0.00     0.131 A 
ATOM     72  C   UNL     1       0.791   3.799  15.616  1.00  0.00     0.055 A 
ATOM     73  C   UNL     1      -1.322   2.776  15.079  1.00  0.00     0.041 A 
ATOM     74  F   UNL     1      -2.614   3.634  13.321  1.00  0.00    -0.206 F 
ATOM     75  C   UNL     1      -0.162   2.803  15.850  1.00  0.00     0.022 A 
BRANCH  72  76
ATOM     76  S   UNL     1       2.365   3.775  16.516  1.00  0.00     0.124 S 
ATOM     77  O   UNL     1       3.319   3.534  15.436  1.00  0.00    -0.237 OA
ATOM     78  O   UNL     1       2.404   5.101  17.121  1.00  0.00    -0.237 OA
ATOM     79  O   UNL     1       2.205   2.667  17.456  1.00  0.00    -0.744 OA
ENDBRANCH  72  76
ENDBRANCH  55  69
BRANCH  56  80
ATOM     80  C   UNL     1      -1.799  10.831   6.068  1.00  0.00     0.023 A 
ATOM     81  C   UNL     1      -1.234  12.112   5.992  1.00  0.00     0.031 A 
ATOM     82  C   UNL     1      -2.630  10.399   5.021  1.00  0.00     0.131 A 
ATOM     83  C   UNL     1      -1.526  12.932   4.893  1.00  0.00     0.055 A 
ATOM     84  C   UNL     1      -2.907  11.213   3.924  1.00  0.00     0.041 A 
ATOM     85  F   UNL     1      -3.180   9.175   5.055  1.00  0.00    -0.206 F 
ATOM     86  C   UNL     1      -2.358  12.491   3.859  1.00  0.00     0.022 A 
BRANCH  83  87
ATOM     87  S   UNL     1      -0.825  14.604   4.844  1.00  0.00     0.124 S 
ATOM     88  O   UNL     1      -1.326  15.179   6.087  1.00  0.00    -0.237 OA
ATOM     89  O   UNL     1       0.607  14.327   4.795  1.00  0.00    -0.237 OA
ATOM     90  O   UNL     1      -1.389  15.173   3.622  1.00  0.00    -0.744 OA
ENDBRANCH  83  87
ENDBRANCH  56  80
BRANCH  68  91
ATOM     91  C   UNL     1      -4.606  10.573  12.406  1.00  0.00     0.023 A 
ATOM     92  C   UNL     1      -5.982  10.449  12.157  1.00  0.00     0.031 A 
ATOM     93  C   UNL     1      -4.171  11.553  13.314  1.00  0.00     0.131 A 
ATOM     94  C   UNL     1      -6.883  11.316  12.794  1.00  0.00     0.055 A 
ATOM     95  C   UNL     1      -5.073  12.400  13.959  1.00  0.00     0.041 A 
ATOM     96  F   UNL     1      -2.864  11.707  13.575  1.00  0.00    -0.206 F 
ATOM     97  C   UNL     1      -6.437  12.287  13.697  1.00  0.00     0.022 A 
BRANCH  94  98
ATOM     98  S   UNL     1      -8.649  11.184  12.403  1.00  0.00     0.124 S 
ATOM     99  O   UNL     1      -8.666  11.448  10.967  1.00  0.00    -0.237 OA
ATOM    100  O   UNL     1      -8.958   9.815  12.803  1.00  0.00    -0.237 OA
ATOM    101  O   UNL     1      -9.263  12.222  13.230  1.00  0.00    -0.744 OA
ENDBRANCH  94  98
ENDBRANCH  68  91
ENDBRANCH  42  43
ENDBRANCH  34  37
ENDBRANCH  32  33
ENDBRANCH  31  32
ENDBRANCH   1  31
TORSDOF 18
