REMARK SMILES Cc1cc(F)c([C@@](C)(C(=O)NCCCNC(=O)c2ccc(-c3c4nc(c(-c5cc(S(=O)(=O)[O-])ccc5F)c5ccc([nH]5)c(-c5cc(S(=O)(=O)[O-])ccc5F)c5nc(c(-c6cc(S(=O)(=O)[O-])ccc6F)c6ccc3[nH]6)C=C5)C=C4)cc2)[NH+]2CC[NH2+]CC2)cc1F
REMARK SMILES IDX 14 1 13 2 12 3 11 4 9 5 10 6 7 8 8 9 6 10 1 11 2 12 3 13
REMARK SMILES IDX 88 14 4 15 87 16 89 17 5 18 81 19 82 20 86 21 83 23 85 24
REMARK SMILES IDX 84 25 15 28 16 29 17 31 18 32 19 33 80 34 20 35 79 36 21 37
REMARK SMILES IDX 22 38 23 39 73 40 24 41 78 42 72 43 74 44 25 45 77 46 71 47
REMARK SMILES IDX 70 48 26 50 58 51 38 52 57 53 39 54 42 55 56 56 75 57 40 58
REMARK SMILES IDX 41 59 55 61 76 62 43 63 27 64 28 65 36 66 29 67 35 68 37 69
REMARK SMILES IDX 34 70 30 71 31 72 32 73 33 74 59 75 60 76 68 77 61 78 67 79
REMARK SMILES IDX 69 80 66 81 62 82 63 83 64 84 65 85 44 86 45 87 53 88 46 89
REMARK SMILES IDX 52 90 54 91 51 92 47 93 48 94 49 95 50 96
REMARK H PARENT 11 7 81 22 84 26 84 27 15 30 74 49 42 60
REMARK Flexibility Score: inf
ROOT
ATOM      1  C   UNL     1      -2.817  -1.412  -5.935  1.00  0.00     0.118 C 
ENDROOT
BRANCH   1   2
ATOM      2  C   UNL     1      -1.445  -0.962  -5.464  1.00  0.00     0.042 C 
BRANCH   2   3
ATOM      3  C   UNL     1      -0.780   0.022  -6.420  1.00  0.00     0.118 C 
BRANCH   3   4
ATOM      4  N   UNL     1      -1.283   1.358  -6.208  1.00  0.00    -0.350 N 
ATOM      5  C   UNL     1      -0.925   2.447  -5.495  1.00  0.00     0.286 C 
ATOM      6  O   UNL     1      -1.710   3.380  -5.761  1.00  0.00    -0.267 OA
ATOM      7  H   UNL     1      -2.108   1.518  -6.721  1.00  0.00     0.163 HD
BRANCH   5   8
ATOM      8  C   UNL     1       0.379   2.692  -4.542  1.00  0.00     0.203 C 
ATOM      9  C   UNL     1       1.593   2.565  -5.489  1.00  0.00     0.096 C 
BRANCH   8  10
ATOM     10  C   UNL     1       0.599   1.754  -3.310  1.00  0.00     0.060 A 
ATOM     11  C   UNL     1       0.862  -0.608   0.378  1.00  0.00     0.047 C 
ATOM     12  C   UNL     1       0.817   0.173  -0.893  1.00  0.00    -0.012 A 
ATOM     13  C   UNL     1       0.721  -0.422  -2.147  1.00  0.00     0.046 A 
ATOM     14  C   UNL     1       0.990   1.540  -0.872  1.00  0.00     0.126 A 
ATOM     15  C   UNL     1       0.681   0.364  -3.318  1.00  0.00     0.133 A 
ATOM     16  C   UNL     1       0.901   2.289  -2.045  1.00  0.00     0.053 A 
ATOM     17  F   UNL     1       1.257   2.175   0.277  1.00  0.00    -0.207 F 
ATOM     18  F   UNL     1       0.880  -0.297  -4.455  1.00  0.00    -0.206 F 
ENDBRANCH   8  10
BRANCH   8  19
ATOM     19  N   UNL     1       0.214   4.117  -4.067  1.00  0.00    -0.309 N 
ATOM     20  C   UNL     1      -1.033   4.531  -3.414  1.00  0.00     0.325 C 
ATOM     21  C   UNL     1       1.268   5.107  -3.970  1.00  0.00     0.325 C 
ATOM     22  H   UNL     1       0.281   3.998  -5.078  1.00  0.00     0.349 HD
ATOM     23  C   UNL     1      -0.860   5.032  -1.968  1.00  0.00     0.322 C 
ATOM     24  C   UNL     1       1.438   5.733  -2.556  1.00  0.00     0.322 C 
ATOM     25  N   UNL     1       0.237   5.983  -1.742  1.00  0.00    -0.337 N 
ATOM     26  H   UNL     1       0.503   5.935  -0.758  1.00  0.00     0.346 HD
ATOM     27  H   UNL     1      -0.114   6.901  -2.015  1.00  0.00     0.346 HD
ENDBRANCH   8  19
ENDBRANCH   5   8
ENDBRANCH   3   4
ENDBRANCH   2   3
ENDBRANCH   1   2
BRANCH   1  28
ATOM     28  N   UNL     1      -2.727  -2.321  -7.073  1.00  0.00    -0.352 N 
ATOM     29  C   UNL     1      -2.988  -3.668  -7.152  1.00  0.00     0.251 C 
ATOM     30  H   UNL     1      -2.433  -1.905  -7.915  1.00  0.00     0.163 HD
ATOM     31  O   UNL     1      -2.589  -4.300  -8.132  1.00  0.00    -0.269 OA
BRANCH  29  32
ATOM     32  C   UNL     1      -3.715  -4.356  -6.064  1.00  0.00     0.039 A 
ATOM     33  C   UNL     1      -4.746  -3.711  -5.384  1.00  0.00     0.014 A 
ATOM     34  C   UNL     1      -3.368  -5.664  -5.712  1.00  0.00     0.014 A 
ATOM     35  C   UNL     1      -5.263  -4.269  -4.225  1.00  0.00     0.010 A 
ATOM     36  C   UNL     1      -3.997  -6.284  -4.626  1.00  0.00     0.010 A 
ATOM     37  C   UNL     1      -4.909  -5.570  -3.835  1.00  0.00    -0.014 A 
BRANCH  37  38
ATOM     38  C   UNL     1      -5.528  -6.146  -2.609  1.00  0.00     0.031 A 
ATOM     39  C   UNL     1      -4.683  -6.583  -1.442  1.00  0.00     0.074 A 
ATOM     40  C   UNL     1      -6.874  -6.205  -2.527  1.00  0.00     0.049 A 
ATOM     41  N   UNL     1      -5.067  -7.045  -0.280  1.00  0.00    -0.248 NA
ATOM     42  C   UNL     1      -3.222  -6.505  -1.597  1.00  0.00     0.031 C 
ATOM     43  C   UNL     1      -7.791  -5.813  -3.599  1.00  0.00     0.029 A 
ATOM     44  N   UNL     1      -7.707  -6.571  -1.499  1.00  0.00    -0.354 N 
ATOM     45  C   UNL     1      -3.902  -7.330   0.425  1.00  0.00     0.074 A 
ATOM     46  C   UNL     1      -2.796  -7.031  -0.456  1.00  0.00     0.031 C 
ATOM     47  C   UNL     1      -9.050  -5.880  -3.149  1.00  0.00     0.029 A 
ATOM     48  C   UNL     1      -9.043  -6.411  -1.790  1.00  0.00     0.049 A 
ATOM     49  H   UNL     1      -7.380  -6.916  -0.637  1.00  0.00     0.167 HD
ATOM     50  C   UNL     1      -3.771  -7.779   1.696  1.00  0.00     0.034 A 
ATOM     51  C   UNL     1     -10.145  -6.670  -1.057  1.00  0.00     0.034 A 
ATOM     52  C   UNL     1      -4.888  -8.049   2.567  1.00  0.00     0.049 A 
ATOM     53  C   UNL     1      -9.971  -7.186   0.346  1.00  0.00     0.074 A 
ATOM     54  C   UNL     1      -4.859  -8.483   3.881  1.00  0.00     0.029 A 
ATOM     55  N   UNL     1      -6.226  -7.906   2.226  1.00  0.00    -0.354 N 
ATOM     56  N   UNL     1      -8.861  -7.407   1.009  1.00  0.00    -0.248 NA
ATOM     57  C   UNL     1     -11.192  -7.483   1.106  1.00  0.00     0.031 C 
ATOM     58  C   UNL     1      -6.172  -8.678   4.306  1.00  0.00     0.029 A 
ATOM     59  C   UNL     1      -7.029  -8.271   3.295  1.00  0.00     0.049 A 
ATOM     60  H   UNL     1      -6.556  -7.592   1.353  1.00  0.00     0.167 HD
ATOM     61  C   UNL     1      -9.248  -7.844   2.272  1.00  0.00     0.074 A 
ATOM     62  C   UNL     1     -10.696  -7.826   2.288  1.00  0.00     0.031 C 
ATOM     63  C   UNL     1      -8.473  -8.231   3.316  1.00  0.00     0.034 A 
BRANCH  50  64
ATOM     64  C   UNL     1      -2.383  -8.009   2.250  1.00  0.00     0.023 A 
ATOM     65  C   UNL     1      -2.006  -9.294   2.686  1.00  0.00     0.031 A 
ATOM     66  C   UNL     1      -1.493  -6.945   2.480  1.00  0.00     0.131 A 
ATOM     67  C   UNL     1      -0.797  -9.474   3.369  1.00  0.00     0.055 A 
ATOM     68  C   UNL     1      -0.264  -7.139   3.115  1.00  0.00     0.041 A 
ATOM     69  F   UNL     1      -1.801  -5.698   2.087  1.00  0.00    -0.206 F 
ATOM     70  C   UNL     1       0.080  -8.405   3.577  1.00  0.00     0.022 A 
BRANCH  67  71
ATOM     71  S   UNL     1      -0.355 -11.080   4.087  1.00  0.00     0.124 S 
ATOM     72  O   UNL     1       0.915 -11.365   3.422  1.00  0.00    -0.237 OA
ATOM     73  O   UNL     1      -0.257 -10.761   5.508  1.00  0.00    -0.237 OA
ATOM     74  O   UNL     1      -1.462 -11.951   3.709  1.00  0.00    -0.744 OA
ENDBRANCH  67  71
ENDBRANCH  50  64
BRANCH  51  75
ATOM     75  C   UNL     1     -11.491  -6.394  -1.645  1.00  0.00     0.023 A 
ATOM     76  C   UNL     1     -11.899  -7.024  -2.837  1.00  0.00     0.031 A 
ATOM     77  C   UNL     1     -12.334  -5.413  -1.099  1.00  0.00     0.131 A 
ATOM     78  C   UNL     1     -13.066  -6.603  -3.486  1.00  0.00     0.055 A 
ATOM     79  C   UNL     1     -13.541  -5.058  -1.703  1.00  0.00     0.041 A 
ATOM     80  F   UNL     1     -11.985  -4.771   0.028  1.00  0.00    -0.206 F 
ATOM     81  C   UNL     1     -13.902  -5.639  -2.916  1.00  0.00     0.022 A 
BRANCH  78  82
ATOM     82  S   UNL     1     -13.452  -7.178  -5.163  1.00  0.00     0.124 S 
ATOM     83  O   UNL     1     -14.751  -7.815  -4.976  1.00  0.00    -0.237 OA
ATOM     84  O   UNL     1     -13.465  -5.923  -5.911  1.00  0.00    -0.237 OA
ATOM     85  O   UNL     1     -12.347  -8.076  -5.482  1.00  0.00    -0.744 OA
ENDBRANCH  78  82
ENDBRANCH  51  75
BRANCH  63  86
ATOM     86  C   UNL     1      -9.148  -8.655   4.601  1.00  0.00     0.023 A 
ATOM     87  C   UNL     1      -8.876  -7.957   5.795  1.00  0.00     0.031 A 
ATOM     88  C   UNL     1      -9.921  -9.825   4.680  1.00  0.00     0.131 A 
ATOM     89  C   UNL     1      -9.332  -8.461   7.018  1.00  0.00     0.055 A 
ATOM     90  C   UNL     1     -10.426 -10.291   5.895  1.00  0.00     0.041 A 
ATOM     91  F   UNL     1     -10.196 -10.537   3.575  1.00  0.00    -0.206 F 
ATOM     92  C   UNL     1     -10.117  -9.617   7.074  1.00  0.00     0.022 A 
BRANCH  89  93
ATOM     93  S   UNL     1      -8.833  -7.700   8.588  1.00  0.00     0.124 S 
ATOM     94  O   UNL     1     -10.119  -7.289   9.146  1.00  0.00    -0.237 OA
ATOM     95  O   UNL     1      -8.182  -8.812   9.275  1.00  0.00    -0.237 OA
ATOM     96  O   UNL     1      -7.952  -6.608   8.186  1.00  0.00    -0.744 OA
ENDBRANCH  89  93
ENDBRANCH  63  86
ENDBRANCH  37  38
ENDBRANCH  29  32
ENDBRANCH   1  28
TORSDOF 15
