REMARK SMILES O=C(NCCCNC(=O)[C@@H]1[C@H](C(=O)NCc2ccncc2)[C@H]2C=C[C@@H]1O2)c1ccc(-c2c3nc(c(-c4cc(S(=O)(=O)[O-])ccc4F)c4ccc([nH]4)c(-c4cc(S(=O)(=O)[O-])ccc4F)c4nc(c(-c5cc(S(=O)(=O)[O-])ccc5F)c5ccc2[nH]5)C=C4)C=C3)cc1
REMARK SMILES IDX 5 1 4 2 3 3 1 4 2 5 27 7 28 8 89 9 29 10 88 11 30 12 31 13
REMARK SMILES IDX 32 14 82 15 33 16 87 17 81 18 83 19 34 20 86 21 80 22 79 23
REMARK SMILES IDX 35 25 67 26 47 27 66 28 48 29 51 30 65 31 84 32 49 33 50 34
REMARK SMILES IDX 64 36 85 37 52 38 36 39 37 40 45 41 38 42 44 43 46 44 43 45
REMARK SMILES IDX 39 46 40 47 41 48 42 49 68 50 69 51 77 52 70 53 76 54 78 55
REMARK SMILES IDX 75 56 71 57 72 58 73 59 74 60 53 61 54 62 62 63 55 64 61 65
REMARK SMILES IDX 63 66 60 67 56 68 57 69 58 70 59 71 6 72 7 73 8 74 9 76
REMARK SMILES IDX 10 77 11 78 25 79 22 80 24 81 26 82 23 83 12 84 13 85 14 86
REMARK SMILES IDX 15 88 16 89 17 90 21 91 18 92 20 93 19 94
REMARK H PARENT 3 6 83 24 51 35 7 75 14 87
REMARK Flexibility Score: inf
ROOT
ATOM      1  C   UNL     1       4.765  -2.388  -0.328  1.00  0.00     0.042 C 
ENDROOT
BRANCH   1   2
ATOM      2  C   UNL     1       4.466  -0.972  -0.804  1.00  0.00     0.118 C 
BRANCH   2   3
ATOM      3  N   UNL     1       3.041  -0.668  -0.852  1.00  0.00    -0.352 N 
ATOM      4  O   UNL     1       1.063   0.153  -0.146  1.00  0.00    -0.269 OA
ATOM      5  C   UNL     1       2.288   0.161  -0.052  1.00  0.00     0.251 C 
ATOM      6  H   UNL     1       2.541  -1.127  -1.565  1.00  0.00     0.163 HD
BRANCH   5   7
ATOM      7  C   UNL     1       2.954   1.036   0.940  1.00  0.00     0.039 A 
ATOM      8  C   UNL     1       4.105   1.744   0.598  1.00  0.00     0.014 A 
ATOM      9  C   UNL     1       2.434   1.137   2.233  1.00  0.00     0.014 A 
ATOM     10  C   UNL     1       4.849   2.370   1.590  1.00  0.00     0.010 A 
ATOM     11  C   UNL     1       3.125   1.869   3.205  1.00  0.00     0.010 A 
ATOM     12  C   UNL     1       4.370   2.446   2.908  1.00  0.00    -0.014 A 
BRANCH  12  13
ATOM     13  C   UNL     1       5.194   3.139   3.936  1.00  0.00     0.031 A 
ATOM     14  C   UNL     1       5.726   2.400   5.137  1.00  0.00     0.074 A 
ATOM     15  C   UNL     1       5.518   4.434   3.747  1.00  0.00     0.049 A 
ATOM     16  N   UNL     1       6.498   2.836   6.102  1.00  0.00    -0.248 NA
ATOM     17  C   UNL     1       5.329   0.992   5.284  1.00  0.00     0.031 C 
ATOM     18  C   UNL     1       5.057   5.260   2.626  1.00  0.00     0.029 A 
ATOM     19  N   UNL     1       6.333   5.275   4.461  1.00  0.00    -0.354 N 
ATOM     20  C   UNL     1       6.654   1.771   6.984  1.00  0.00     0.074 A 
ATOM     21  C   UNL     1       5.869   0.676   6.452  1.00  0.00     0.031 C 
ATOM     22  C   UNL     1       5.651   6.460   2.689  1.00  0.00     0.029 A 
ATOM     23  C   UNL     1       6.476   6.518   3.889  1.00  0.00     0.049 A 
ATOM     24  H   UNL     1       6.773   5.013   5.302  1.00  0.00     0.167 HD
ATOM     25  C   UNL     1       7.387   1.710   8.124  1.00  0.00     0.034 A 
ATOM     26  C   UNL     1       7.185   7.592   4.288  1.00  0.00     0.034 A 
ATOM     27  C   UNL     1       8.184   2.804   8.629  1.00  0.00     0.049 A 
ATOM     28  C   UNL     1       7.990   7.498   5.554  1.00  0.00     0.074 A 
ATOM     29  C   UNL     1       8.991   2.839   9.754  1.00  0.00     0.029 A 
ATOM     30  N   UNL     1       8.276   4.060   8.041  1.00  0.00    -0.354 N 
ATOM     31  N   UNL     1       8.130   6.479   6.370  1.00  0.00    -0.248 NA
ATOM     32  C   UNL     1       8.736   8.698   5.950  1.00  0.00     0.031 C 
ATOM     33  C   UNL     1       9.521   4.129   9.879  1.00  0.00     0.029 A 
ATOM     34  C   UNL     1       9.104   4.882   8.794  1.00  0.00     0.049 A 
ATOM     35  H   UNL     1       7.820   4.329   7.211  1.00  0.00     0.167 HD
ATOM     36  C   UNL     1       8.995   6.912   7.369  1.00  0.00     0.074 A 
ATOM     37  C   UNL     1       9.362   8.275   7.038  1.00  0.00     0.031 C 
ATOM     38  C   UNL     1       9.447   6.245   8.461  1.00  0.00     0.034 A 
BRANCH  25  39
ATOM     39  C   UNL     1       7.319   0.431   8.928  1.00  0.00     0.023 A 
ATOM     40  C   UNL     1       7.800  -0.792   8.428  1.00  0.00     0.031 A 
ATOM     41  C   UNL     1       6.737   0.432  10.209  1.00  0.00     0.131 A 
ATOM     42  C   UNL     1       7.624  -1.971   9.169  1.00  0.00     0.055 A 
ATOM     43  C   UNL     1       6.635  -0.731  10.975  1.00  0.00     0.041 A 
ATOM     44  F   UNL     1       6.242   1.565  10.733  1.00  0.00    -0.206 F 
ATOM     45  C   UNL     1       7.066  -1.946  10.449  1.00  0.00     0.022 A 
BRANCH  42  46
ATOM     46  S   UNL     1       8.002  -3.559   8.377  1.00  0.00     0.124 S 
ATOM     47  O   UNL     1       7.140  -3.516   7.197  1.00  0.00    -0.237 OA
ATOM     48  O   UNL     1       9.434  -3.454   8.125  1.00  0.00    -0.237 OA
ATOM     49  O   UNL     1       7.615  -4.546   9.383  1.00  0.00    -0.744 OA
ENDBRANCH  42  46
ENDBRANCH  25  39
BRANCH  26  50
ATOM     50  C   UNL     1       7.149   8.851   3.493  1.00  0.00     0.023 A 
ATOM     51  C   UNL     1       8.301   9.342   2.861  1.00  0.00     0.031 A 
ATOM     52  C   UNL     1       5.960   9.592   3.371  1.00  0.00     0.131 A 
ATOM     53  C   UNL     1       8.249  10.560   2.165  1.00  0.00     0.055 A 
ATOM     54  C   UNL     1       5.901  10.775   2.635  1.00  0.00     0.041 A 
ATOM     55  F   UNL     1       4.828   9.161   3.952  1.00  0.00    -0.206 F 
ATOM     56  C   UNL     1       7.054  11.272   2.036  1.00  0.00     0.022 A 
BRANCH  53  57
ATOM     57  S   UNL     1       9.787  11.239   1.486  1.00  0.00     0.124 S 
ATOM     58  O   UNL     1      10.618  11.347   2.681  1.00  0.00    -0.237 OA
ATOM     59  O   UNL     1      10.175  10.210   0.526  1.00  0.00    -0.237 OA
ATOM     60  O   UNL     1       9.369  12.510   0.900  1.00  0.00    -0.744 OA
ENDBRANCH  53  57
ENDBRANCH  26  50
BRANCH  38  61
ATOM     61  C   UNL     1      10.418   6.982   9.348  1.00  0.00     0.023 A 
ATOM     62  C   UNL     1      10.026   8.105  10.098  1.00  0.00     0.031 A 
ATOM     63  C   UNL     1      11.763   6.580   9.410  1.00  0.00     0.131 A 
ATOM     64  C   UNL     1      10.984   8.828  10.825  1.00  0.00     0.055 A 
ATOM     65  C   UNL     1      12.700   7.268  10.182  1.00  0.00     0.041 A 
ATOM     66  F   UNL     1      12.191   5.515   8.713  1.00  0.00    -0.206 F 
ATOM     67  C   UNL     1      12.316   8.408  10.882  1.00  0.00     0.022 A 
BRANCH  64  68
ATOM     68  S   UNL     1      10.488  10.386  11.611  1.00  0.00     0.124 S 
ATOM     69  O   UNL     1       9.967  11.146  10.478  1.00  0.00    -0.237 OA
ATOM     70  O   UNL     1       9.499   9.940  12.588  1.00  0.00    -0.237 OA
ATOM     71  O   UNL     1      11.734  10.896  12.179  1.00  0.00    -0.744 OA
ENDBRANCH  64  68
ENDBRANCH  38  61
ENDBRANCH  12  13
ENDBRANCH   5   7
ENDBRANCH   2   3
ENDBRANCH   1   2
BRANCH   1  72
ATOM     72  C   UNL     1       4.306  -3.487  -1.276  1.00  0.00     0.117 C 
BRANCH  72  73
ATOM     73  N   UNL     1       4.868  -3.318  -2.601  1.00  0.00    -0.356 N 
ATOM     74  C   UNL     1       5.796  -4.042  -3.267  1.00  0.00     0.227 C 
ATOM     75  H   UNL     1       4.516  -2.546  -3.100  1.00  0.00     0.163 HD
ATOM     76  O   UNL     1       6.497  -3.428  -4.074  1.00  0.00    -0.275 OA
BRANCH  74  77
ATOM     77  C   UNL     1       6.061  -5.494  -2.966  1.00  0.00     0.127 C 
ATOM     78  C   UNL     1       6.602  -6.290  -4.192  1.00  0.00     0.127 C 
ATOM     79  C   UNL     1       4.915  -6.420  -2.513  1.00  0.00     0.155 C 
ATOM     80  C   UNL     1       5.800  -7.592  -4.117  1.00  0.00     0.155 C 
ATOM     81  C   UNL     1       5.533  -7.622  -1.853  1.00  0.00     0.004 C 
ATOM     82  O   UNL     1       4.503  -7.068  -3.745  1.00  0.00    -0.365 OA
ATOM     83  C   UNL     1       6.098  -8.333  -2.841  1.00  0.00     0.004 C 
BRANCH  78  84
ATOM     84  C   UNL     1       6.572  -5.718  -5.612  1.00  0.00     0.227 C 
ATOM     85  O   UNL     1       7.597  -5.829  -6.303  1.00  0.00    -0.275 OA
ATOM     86  N   UNL     1       5.510  -5.169  -6.252  1.00  0.00    -0.352 N 
ATOM     87  H   UNL     1       5.737  -4.849  -7.156  1.00  0.00     0.163 HD
BRANCH  86  88
ATOM     88  C   UNL     1       4.117  -4.942  -5.915  1.00  0.00     0.151 C 
BRANCH  88  89
ATOM     89  C   UNL     1       3.704  -3.498  -5.745  1.00  0.00    -0.026 A 
ATOM     90  C   UNL     1       4.510  -2.411  -6.095  1.00  0.00     0.025 A 
ATOM     91  C   UNL     1       2.451  -3.224  -5.175  1.00  0.00     0.025 A 
ATOM     92  C   UNL     1       4.064  -1.128  -5.812  1.00  0.00     0.111 A 
ATOM     93  C   UNL     1       2.087  -1.907  -4.942  1.00  0.00     0.111 A 
ATOM     94  N   UNL     1       2.873  -0.854  -5.238  1.00  0.00    -0.265 NA
ENDBRANCH  88  89
ENDBRANCH  86  88
ENDBRANCH  78  84
ENDBRANCH  74  77
ENDBRANCH  72  73
ENDBRANCH   1  72
TORSDOF 16
