REMARK SMILES C[C@H](Cc1ccc(N)cc1)C(=O)NCCCNC(=O)c1ccc(-c2c3nc(c(-c4cc(S(=O)(=O)[O-])ccc4F)c4ccc([nH]4)c(-c4cc(S(=O)(=O)[O-])ccc4F)c4nc(c(-c5cc(S(=O)(=O)[O-])ccc5F)c5ccc2[nH]5)C=C4)C=C3)cc1
REMARK SMILES IDX 15 1 14 2 13 3 11 4 12 5 2 7 1 8 3 9 4 10 5 11 10 12 6 13
REMARK SMILES IDX 9 14 7 15 8 16 16 19 17 20 18 21 19 23 20 24 21 25 82 26
REMARK SMILES IDX 22 27 81 28 23 29 24 30 25 31 75 32 26 33 80 34 74 35 76 36
REMARK SMILES IDX 27 37 79 38 73 39 72 40 28 42 60 43 40 44 59 45 41 46 44 47
REMARK SMILES IDX 58 48 77 49 42 50 43 51 57 53 78 54 45 55 29 56 30 57 38 58
REMARK SMILES IDX 31 59 37 60 39 61 36 62 32 63 33 64 34 65 35 66 61 67 62 68
REMARK SMILES IDX 70 69 63 70 69 71 71 72 68 73 64 74 65 75 66 76 67 77 46 78
REMARK SMILES IDX 47 79 55 80 48 81 54 82 56 83 53 84 49 85 50 86 51 87 52 88
REMARK H PARENT 13 6 8 17 8 18 17 22 76 41 44 52
REMARK Flexibility Score: inf
ROOT
ATOM      1  C   UNL     1      -1.706   2.642   0.442  1.00  0.00     0.042 C 
ENDROOT
BRANCH   1   2
ATOM      2  C   UNL     1      -1.311   1.794   1.646  1.00  0.00     0.117 C 
BRANCH   2   3
ATOM      3  N   UNL     1      -1.634   0.397   1.421  1.00  0.00    -0.356 N 
ATOM      4  C   UNL     1      -0.849  -0.680   1.177  1.00  0.00     0.223 C 
ATOM      5  O   UNL     1      -1.427  -1.734   0.889  1.00  0.00    -0.275 OA
ATOM      6  H   UNL     1      -2.597   0.196   1.450  1.00  0.00     0.163 HD
BRANCH   4   7
ATOM      7  C   UNL     1       0.672  -0.659   1.306  1.00  0.00     0.079 C 
ATOM      8  C   UNL     1       1.094  -0.380   2.747  1.00  0.00     0.018 C 
BRANCH   7   9
ATOM      9  C   UNL     1       1.419   0.056   0.153  1.00  0.00     0.048 C 
BRANCH   9  10
ATOM     10  C   UNL     1       1.924   1.464   0.367  1.00  0.00    -0.047 A 
ATOM     11  C   UNL     1       2.890   1.754   1.336  1.00  0.00     0.006 A 
ATOM     12  C   UNL     1       1.452   2.520  -0.418  1.00  0.00     0.006 A 
ATOM     13  C   UNL     1       3.234   3.076   1.631  1.00  0.00     0.026 A 
ATOM     14  C   UNL     1       1.797   3.843  -0.120  1.00  0.00     0.026 A 
ATOM     15  C   UNL     1       2.635   4.136   0.954  1.00  0.00     0.031 A 
BRANCH  15  16
ATOM     16  N   UNL     1       2.967   5.445   1.256  1.00  0.00    -0.399 N 
ATOM     17  H   UNL     1       3.560   5.639   2.017  1.00  0.00     0.156 HD
ATOM     18  H   UNL     1       2.612   6.182   0.709  1.00  0.00     0.156 HD
ENDBRANCH  15  16
ENDBRANCH   9  10
ENDBRANCH   7   9
ENDBRANCH   4   7
ENDBRANCH   2   3
ENDBRANCH   1   2
BRANCH   1  19
ATOM     19  C   UNL     1      -3.208   2.843   0.298  1.00  0.00     0.118 C 
BRANCH  19  20
ATOM     20  N   UNL     1      -3.737   3.758   1.299  1.00  0.00    -0.352 N 
ATOM     21  C   UNL     1      -4.131   5.067   1.184  1.00  0.00     0.251 C 
ATOM     22  H   UNL     1      -3.827   3.376   2.202  1.00  0.00     0.163 HD
ATOM     23  O   UNL     1      -4.308   5.727   2.214  1.00  0.00    -0.269 OA
BRANCH  21  24
ATOM     24  C   UNL     1      -4.320   5.702  -0.140  1.00  0.00     0.039 A 
ATOM     25  C   UNL     1      -3.929   7.034  -0.317  1.00  0.00     0.014 A 
ATOM     26  C   UNL     1      -4.911   5.012  -1.200  1.00  0.00     0.014 A 
ATOM     27  C   UNL     1      -4.059   7.641  -1.570  1.00  0.00     0.010 A 
ATOM     28  C   UNL     1      -4.955   5.586  -2.470  1.00  0.00     0.010 A 
ATOM     29  C   UNL     1      -4.530   6.907  -2.671  1.00  0.00    -0.014 A 
BRANCH  29  30
ATOM     30  C   UNL     1      -4.592   7.497  -4.036  1.00  0.00     0.031 A 
ATOM     31  C   UNL     1      -5.914   7.618  -4.748  1.00  0.00     0.074 A 
ATOM     32  C   UNL     1      -3.453   7.850  -4.665  1.00  0.00     0.049 A 
ATOM     33  N   UNL     1      -6.162   7.986  -5.979  1.00  0.00    -0.248 NA
ATOM     34  C   UNL     1      -7.112   7.245  -3.980  1.00  0.00     0.031 C 
ATOM     35  C   UNL     1      -2.107   7.752  -4.094  1.00  0.00     0.029 A 
ATOM     36  N   UNL     1      -3.239   8.348  -5.926  1.00  0.00    -0.354 N 
ATOM     37  C   UNL     1      -7.540   7.871  -6.140  1.00  0.00     0.074 A 
ATOM     38  C   UNL     1      -8.062   7.342  -4.897  1.00  0.00     0.031 C 
ATOM     39  C   UNL     1      -1.214   8.194  -4.992  1.00  0.00     0.029 A 
ATOM     40  C   UNL     1      -1.911   8.553  -6.223  1.00  0.00     0.049 A 
ATOM     41  H   UNL     1      -3.968   8.540  -6.560  1.00  0.00     0.167 HD
ATOM     42  C   UNL     1      -8.300   8.196  -7.215  1.00  0.00     0.034 A 
ATOM     43  C   UNL     1      -1.317   8.960  -7.364  1.00  0.00     0.034 A 
ATOM     44  C   UNL     1      -7.764   8.736  -8.441  1.00  0.00     0.049 A 
ATOM     45  C   UNL     1      -2.179   9.275  -8.560  1.00  0.00     0.074 A 
ATOM     46  C   UNL     1      -8.448   9.157  -9.569  1.00  0.00     0.029 A 
ATOM     47  N   UNL     1      -6.413   8.922  -8.707  1.00  0.00    -0.354 N 
ATOM     48  N   UNL     1      -3.485   9.205  -8.680  1.00  0.00    -0.248 NA
ATOM     49  C   UNL     1      -1.487   9.728  -9.774  1.00  0.00     0.031 C 
ATOM     50  C   UNL     1      -7.511   9.526 -10.540  1.00  0.00     0.029 A 
ATOM     51  C   UNL     1      -6.243   9.414  -9.992  1.00  0.00     0.049 A 
ATOM     52  H   UNL     1      -5.683   8.732  -8.075  1.00  0.00     0.167 HD
ATOM     53  C   UNL     1      -3.770   9.632  -9.974  1.00  0.00     0.074 A 
ATOM     54  C   UNL     1      -2.504   9.973 -10.588  1.00  0.00     0.031 C 
ATOM     55  C   UNL     1      -4.971   9.736 -10.598  1.00  0.00     0.034 A 
BRANCH  42  56
ATOM     56  C   UNL     1      -9.787   7.949  -7.118  1.00  0.00     0.023 A 
ATOM     57  C   UNL     1     -10.587   8.609  -6.168  1.00  0.00     0.031 A 
ATOM     58  C   UNL     1     -10.414   7.023  -7.972  1.00  0.00     0.131 A 
ATOM     59  C   UNL     1     -11.944   8.279  -6.042  1.00  0.00     0.055 A 
ATOM     60  C   UNL     1     -11.784   6.762  -7.898  1.00  0.00     0.041 A 
ATOM     61  F   UNL     1      -9.702   6.346  -8.887  1.00  0.00    -0.206 F 
ATOM     62  C   UNL     1     -12.555   7.379  -6.918  1.00  0.00     0.022 A 
BRANCH  59  63
ATOM     63  S   UNL     1     -12.864   8.931  -4.621  1.00  0.00     0.124 S 
ATOM     64  O   UNL     1     -12.082   8.413  -3.501  1.00  0.00    -0.237 OA
ATOM     65  O   UNL     1     -12.796  10.372  -4.836  1.00  0.00    -0.237 OA
ATOM     66  O   UNL     1     -14.192   8.339  -4.771  1.00  0.00    -0.744 OA
ENDBRANCH  59  63
ENDBRANCH  42  56
BRANCH  43  67
ATOM     67  C   UNL     1       0.168   9.072  -7.445  1.00  0.00     0.023 A 
ATOM     68  C   UNL     1       0.788  10.313  -7.661  1.00  0.00     0.031 A 
ATOM     69  C   UNL     1       0.989   7.933  -7.352  1.00  0.00     0.131 A 
ATOM     70  C   UNL     1       2.181  10.381  -7.824  1.00  0.00     0.055 A 
ATOM     71  C   UNL     1       2.378   8.014  -7.458  1.00  0.00     0.041 A 
ATOM     72  F   UNL     1       0.449   6.722  -7.143  1.00  0.00    -0.206 F 
ATOM     73  C   UNL     1       2.981   9.242  -7.710  1.00  0.00     0.022 A 
BRANCH  70  74
ATOM     74  S   UNL     1       2.924  11.972  -8.278  1.00  0.00     0.124 S 
ATOM     75  O   UNL     1       2.227  12.281  -9.521  1.00  0.00    -0.237 OA
ATOM     76  O   UNL     1       2.586  12.803  -7.127  1.00  0.00    -0.237 OA
ATOM     77  O   UNL     1       4.344  11.655  -8.420  1.00  0.00    -0.744 OA
ENDBRANCH  70  74
ENDBRANCH  43  67
BRANCH  55  78
ATOM     78  C   UNL     1      -4.969  10.278 -12.006  1.00  0.00     0.023 A 
ATOM     79  C   UNL     1      -4.396   9.565 -13.073  1.00  0.00     0.031 A 
ATOM     80  C   UNL     1      -5.548  11.530 -12.283  1.00  0.00     0.131 A 
ATOM     81  C   UNL     1      -4.369  10.130 -14.357  1.00  0.00     0.055 A 
ATOM     82  C   UNL     1      -5.572  12.060 -13.573  1.00  0.00     0.041 A 
ATOM     83  F   UNL     1      -6.106  12.257 -11.301  1.00  0.00    -0.206 F 
ATOM     84  C   UNL     1      -4.970  11.364 -14.617  1.00  0.00     0.022 A 
BRANCH  81  85
ATOM     85  S   UNL     1      -3.462   9.268 -15.670  1.00  0.00     0.124 S 
ATOM     86  O   UNL     1      -2.111   9.217 -15.122  1.00  0.00    -0.237 OA
ATOM     87  O   UNL     1      -4.166   7.992 -15.751  1.00  0.00    -0.237 OA
ATOM     88  O   UNL     1      -3.628  10.140 -16.832  1.00  0.00    -0.744 OA
ENDBRANCH  81  85
ENDBRANCH  55  78
ENDBRANCH  29  30
ENDBRANCH  21  24
ENDBRANCH  19  20
ENDBRANCH   1  19
TORSDOF 16
