REMARK SMILES Cc1cc(NC(=O)c2ccccc2I)sc1C(=O)NCCCNC(=O)c1ccc(-c2c3nc(c(-c4cc(S(=O)(=O)[O-])ccc4F)c4ccc([nH]4)c(-c4cc(S(=O)(=O)[O-])ccc4F)c4nc(c(-c5cc(S(=O)(=O)[O-])ccc5F)c5ccc2[nH]5)C=C4)C=C3)cc1
REMARK SMILES IDX 21 1 20 2 19 3 17 4 18 5 16 7 1 8 2 9 3 10 4 11 15 12 5 13
REMARK SMILES IDX 6 14 7 16 8 17 9 18 13 19 10 20 12 21 14 22 11 23 22 24
REMARK SMILES IDX 23 25 24 26 25 28 26 29 27 30 88 31 28 32 87 33 29 34 30 35
REMARK SMILES IDX 31 36 81 37 32 38 86 39 80 40 82 41 33 42 85 43 79 44 78 45
REMARK SMILES IDX 34 47 66 48 46 49 65 50 47 51 50 52 64 53 83 54 48 55 49 56
REMARK SMILES IDX 63 58 84 59 51 60 35 61 36 62 44 63 37 64 43 65 45 66 42 67
REMARK SMILES IDX 38 68 39 69 40 70 41 71 67 72 68 73 76 74 69 75 75 76 77 77
REMARK SMILES IDX 74 78 70 79 71 80 72 81 73 82 52 83 53 84 61 85 54 86 60 87
REMARK SMILES IDX 62 88 59 89 55 90 56 91 57 92 58 93
REMARK H PARENT 19 6 5 15 23 27 82 46 50 57
REMARK Flexibility Score: inf
ROOT
ATOM      1  C   UNL     1       3.746  -2.722   0.682  1.00  0.00     0.042 C 
ENDROOT
BRANCH   1   2
ATOM      2  C   UNL     1       2.837  -2.683  -0.542  1.00  0.00     0.118 C 
BRANCH   2   3
ATOM      3  N   UNL     1       1.470  -2.995  -0.204  1.00  0.00    -0.351 N 
ATOM      4  C   UNL     1       0.359  -2.235   0.059  1.00  0.00     0.261 C 
ATOM      5  O   UNL     1      -0.671  -2.920   0.134  1.00  0.00    -0.268 OA
ATOM      6  H   UNL     1       1.296  -3.962  -0.151  1.00  0.00     0.163 HD
BRANCH   4   7
ATOM      7  C   UNL     1       0.341  -0.777   0.243  1.00  0.00     0.097 A 
ATOM      8  C   UNL     1       2.740   0.285   0.607  1.00  0.00     0.046 C 
ATOM      9  C   UNL     1       1.253   0.242   0.537  1.00  0.00    -0.025 A 
ATOM     10  C   UNL     1       0.569   1.460   0.856  1.00  0.00     0.042 A 
ATOM     11  C   UNL     1      -0.699   1.486   0.363  1.00  0.00     0.096 A 
ATOM     12  S   UNL     1      -1.270  -0.070   0.084  1.00  0.00    -0.112 S 
BRANCH  11  13
ATOM     13  N   UNL     1      -1.544   2.524   0.056  1.00  0.00    -0.314 N 
ATOM     14  C   UNL     1      -1.159   3.826  -0.226  1.00  0.00     0.257 C 
ATOM     15  H   UNL     1      -2.509   2.326   0.033  1.00  0.00     0.171 HD
ATOM     16  O   UNL     1      -1.989   4.715  -0.396  1.00  0.00    -0.269 OA
BRANCH  14  17
ATOM     17  C   UNL     1       0.279   4.167  -0.363  1.00  0.00     0.053 A 
ATOM     18  C   UNL     1       0.858   4.896   0.689  1.00  0.00     0.015 A 
ATOM     19  C   UNL     1       1.085   3.694  -1.412  1.00  0.00     0.026 A 
ATOM     20  C   UNL     1       2.243   5.073   0.737  1.00  0.00     0.001 A 
ATOM     21  C   UNL     1       2.474   3.871  -1.350  1.00  0.00     0.015 A 
ATOM     22  I   UNL     1       0.328   2.700  -3.098  1.00  0.00    -0.043 I 
ATOM     23  C   UNL     1       3.050   4.543  -0.270  1.00  0.00     0.001 A 
ENDBRANCH  14  17
ENDBRANCH  11  13
ENDBRANCH   4   7
ENDBRANCH   2   3
ENDBRANCH   1   2
BRANCH   1  24
ATOM     24  C   UNL     1       4.350  -4.087   0.973  1.00  0.00     0.118 C 
BRANCH  24  25
ATOM     25  N   UNL     1       5.368  -4.439  -0.003  1.00  0.00    -0.352 N 
ATOM     26  C   UNL     1       6.728  -4.584   0.135  1.00  0.00     0.251 C 
ATOM     27  H   UNL     1       5.028  -4.601  -0.913  1.00  0.00     0.163 HD
ATOM     28  O   UNL     1       7.418  -4.602  -0.880  1.00  0.00    -0.269 OA
BRANCH  26  29
ATOM     29  C   UNL     1       7.365  -4.704   1.470  1.00  0.00     0.039 A 
ATOM     30  C   UNL     1       8.656  -4.194   1.646  1.00  0.00     0.014 A 
ATOM     31  C   UNL     1       6.741  -5.370   2.528  1.00  0.00     0.014 A 
ATOM     32  C   UNL     1       9.294  -4.311   2.885  1.00  0.00     0.010 A 
ATOM     33  C   UNL     1       7.338  -5.403   3.787  1.00  0.00     0.010 A 
ATOM     34  C   UNL     1       8.629  -4.890   3.976  1.00  0.00    -0.014 A 
BRANCH  34  35
ATOM     35  C   UNL     1       9.275  -5.001   5.311  1.00  0.00     0.031 A 
ATOM     36  C   UNL     1       9.534  -6.358   5.913  1.00  0.00     0.074 A 
ATOM     37  C   UNL     1       9.572  -3.884   6.005  1.00  0.00     0.049 A 
ATOM     38  N   UNL     1       9.999  -6.666   7.097  1.00  0.00    -0.248 NA
ATOM     39  C   UNL     1       9.190  -7.522   5.083  1.00  0.00     0.031 C 
ATOM     40  C   UNL     1       9.332  -2.515   5.543  1.00  0.00     0.029 A 
ATOM     41  N   UNL     1      10.129  -3.720   7.248  1.00  0.00    -0.354 N 
ATOM     42  C   UNL     1       9.987  -8.056   7.160  1.00  0.00     0.074 A 
ATOM     43  C   UNL     1       9.406  -8.525   5.920  1.00  0.00     0.031 C 
ATOM     44  C   UNL     1       9.761  -1.653   6.479  1.00  0.00     0.029 A 
ATOM     45  C   UNL     1      10.261  -2.404   7.626  1.00  0.00     0.049 A 
ATOM     46  H   UNL     1      10.409  -4.474   7.816  1.00  0.00     0.167 HD
ATOM     47  C   UNL     1      10.442  -8.867   8.148  1.00  0.00     0.034 A 
ATOM     48  C   UNL     1      10.721  -1.863   8.772  1.00  0.00     0.034 A 
ATOM     49  C   UNL     1      11.033  -8.380   9.371  1.00  0.00     0.049 A 
ATOM     50  C   UNL     1      11.209  -2.782   9.863  1.00  0.00     0.074 A 
ATOM     51  C   UNL     1      11.571  -9.107  10.419  1.00  0.00     0.029 A 
ATOM     52  N   UNL     1      11.160  -7.039   9.714  1.00  0.00    -0.354 N 
ATOM     53  N   UNL     1      11.229  -4.095   9.889  1.00  0.00    -0.248 NA
ATOM     54  C   UNL     1      11.747  -2.146  11.072  1.00  0.00     0.031 C 
ATOM     55  C   UNL     1      11.963  -8.210  11.420  1.00  0.00     0.029 A 
ATOM     56  C   UNL     1      11.743  -6.920  10.966  1.00  0.00     0.049 A 
ATOM     57  H   UNL     1      10.878  -6.284   9.149  1.00  0.00     0.167 HD
ATOM     58  C   UNL     1      11.810  -4.440  11.107  1.00  0.00     0.074 A 
ATOM     59  C   UNL     1      12.140  -3.197  11.775  1.00  0.00     0.031 C 
ATOM     60  C   UNL     1      12.053  -5.672  11.624  1.00  0.00     0.034 A 
BRANCH  47  61
ATOM     61  C   UNL     1      10.293 -10.358   7.949  1.00  0.00     0.023 A 
ATOM     62  C   UNL     1      10.928 -11.029   6.888  1.00  0.00     0.031 A 
ATOM     63  C   UNL     1       9.478 -11.117   8.808  1.00  0.00     0.131 A 
ATOM     64  C   UNL     1      10.673 -12.390   6.664  1.00  0.00     0.055 A 
ATOM     65  C   UNL     1       9.297 -12.491   8.631  1.00  0.00     0.041 A 
ATOM     66  F   UNL     1       8.828 -10.533   9.826  1.00  0.00    -0.206 F 
ATOM     67  C   UNL     1       9.883 -13.133   7.544  1.00  0.00     0.022 A 
BRANCH  64  68
ATOM     68  S   UNL     1      11.264 -13.138   5.120  1.00  0.00     0.124 S 
ATOM     69  O   UNL     1      10.599 -12.308   4.119  1.00  0.00    -0.237 OA
ATOM     70  O   UNL     1      12.709 -12.979   5.225  1.00  0.00    -0.237 OA
ATOM     71  O   UNL     1      10.779 -14.515   5.199  1.00  0.00    -0.744 OA
ENDBRANCH  64  68
ENDBRANCH  47  61
BRANCH  48  72
ATOM     72  C   UNL     1      10.737  -0.383   8.954  1.00  0.00     0.023 A 
ATOM     73  C   UNL     1      11.946   0.317   9.086  1.00  0.00     0.031 A 
ATOM     74  C   UNL     1       9.539   0.350   9.028  1.00  0.00     0.131 A 
ATOM     75  C   UNL     1      11.932   1.699   9.329  1.00  0.00     0.055 A 
ATOM     76  C   UNL     1       9.531   1.733   9.218  1.00  0.00     0.041 A 
ATOM     77  F   UNL     1       8.355  -0.268   8.899  1.00  0.00    -0.206 F 
ATOM     78  C   UNL     1      10.733   2.414   9.383  1.00  0.00     0.022 A 
BRANCH  75  79
ATOM     79  S   UNL     1      13.506   2.540   9.653  1.00  0.00     0.124 S 
ATOM     80  O   UNL     1      14.004   1.805  10.810  1.00  0.00    -0.237 OA
ATOM     81  O   UNL     1      14.224   2.329   8.400  1.00  0.00    -0.237 OA
ATOM     82  O   UNL     1      13.106   3.921   9.914  1.00  0.00    -0.744 OA
ENDBRANCH  75  79
ENDBRANCH  48  72
BRANCH  60  83
ATOM     83  C   UNL     1      12.748  -5.725  12.963  1.00  0.00     0.023 A 
ATOM     84  C   UNL     1      12.130  -5.261  14.137  1.00  0.00     0.031 A 
ATOM     85  C   UNL     1      14.056  -6.234  13.060  1.00  0.00     0.131 A 
ATOM     86  C   UNL     1      12.841  -5.261  15.347  1.00  0.00     0.055 A 
ATOM     87  C   UNL     1      14.735  -6.289  14.277  1.00  0.00     0.041 A 
ATOM     88  F   UNL     1      14.695  -6.688  11.970  1.00  0.00    -0.206 F 
ATOM     89  C   UNL     1      14.132  -5.788  15.428  1.00  0.00     0.022 A 
BRANCH  86  90
ATOM     90  S   UNL     1      12.090  -4.471  16.796  1.00  0.00     0.124 S 
ATOM     91  O   UNL     1      11.865  -3.110  16.317  1.00  0.00    -0.237 OA
ATOM     92  O   UNL     1      10.893  -5.278  17.007  1.00  0.00    -0.237 OA
ATOM     93  O   UNL     1      13.116  -4.603  17.829  1.00  0.00    -0.744 OA
ENDBRANCH  86  90
ENDBRANCH  60  83
ENDBRANCH  34  35
ENDBRANCH  26  29
ENDBRANCH  24  25
ENDBRANCH   1  24
TORSDOF 15
