REMARK SMILES Cc1coc2c(C)c3oc(=O)c(CC(=O)NCC(=O)N[C@H](C(=O)NCCCNC(=O)c4ccc(-c5c6nc(c(-c7cc(S(=O)(=O)[O-])ccc7F)c7ccc([nH]7)c(-c7cc(S(=O)(=O)[O-])ccc7F)c7nc(c(-c8cc(S(=O)(=O)[O-])ccc8F)c8ccc5[nH]8)C=C7)C=C6)cc4)C(C)C)c(C)c3cc12
REMARK SMILES IDX 25 1 24 2 22 3 23 4 21 6 20 7 18 8 19 9 17 11 16 12 14 13
REMARK SMILES IDX 15 14 13 16 12 17 1 18 2 19 3 20 101 21 4 22 5 23 100 24
REMARK SMILES IDX 6 25 99 26 7 27 8 28 97 29 9 30 98 31 10 32 11 33 94 34
REMARK SMILES IDX 95 35 96 36 26 37 27 38 28 39 29 40 30 42 31 43 32 44 93 45
REMARK SMILES IDX 33 46 92 47 34 48 35 49 36 50 86 51 37 52 91 53 85 54 87 55
REMARK SMILES IDX 38 56 90 57 84 58 83 59 39 61 71 62 51 63 70 64 52 65 55 66
REMARK SMILES IDX 69 67 88 68 53 69 54 70 68 72 89 73 56 74 40 75 41 76 49 77
REMARK SMILES IDX 42 78 48 79 50 80 47 81 43 82 44 83 45 84 46 85 72 86 73 87
REMARK SMILES IDX 81 88 74 89 80 90 82 91 79 92 75 93 76 94 77 95 78 96 57 97
REMARK SMILES IDX 58 98 66 99 59 100 65 101 67 102 64 103 60 104 61 105 62 106
REMARK SMILES IDX 63 107
REMARK H PARENT 24 5 20 10 16 15 28 41 87 60 55 71
REMARK Flexibility Score: inf
ROOT
ATOM      1  C   UNL     1      -0.944   6.727   4.393  1.00  0.00     0.117 C 
ENDROOT
BRANCH   1   2
ATOM      2  N   UNL     1       0.070   5.694   4.502  1.00  0.00    -0.354 N 
ATOM      3  C   UNL     1       0.533   4.694   3.695  1.00  0.00     0.242 C 
ATOM      4  O   UNL     1       1.450   3.977   4.102  1.00  0.00    -0.273 OA
ATOM      5  H   UNL     1       0.539   5.722   5.367  1.00  0.00     0.163 HD
BRANCH   3   6
ATOM      6  C   UNL     1       0.008   4.443   2.300  1.00  0.00     0.173 C 
BRANCH   6   7
ATOM      7  N   UNL     1       1.149   4.363   1.349  1.00  0.00    -0.343 N 
ATOM      8  C   UNL     1       2.330   5.027   1.210  1.00  0.00     0.240 C 
ATOM      9  O   UNL     1       2.904   4.866   0.123  1.00  0.00    -0.273 OA
ATOM     10  H   UNL     1       1.020   3.672   0.660  1.00  0.00     0.164 HD
BRANCH   8  11
ATOM     11  C   UNL     1       3.068   5.758   2.355  1.00  0.00     0.216 C 
BRANCH  11  12
ATOM     12  N   UNL     1       2.331   6.794   3.040  1.00  0.00    -0.347 N 
ATOM     13  C   UNL     1       2.423   7.243   4.319  1.00  0.00     0.225 C 
ATOM     14  O   UNL     1       1.892   8.348   4.487  1.00  0.00    -0.275 OA
ATOM     15  H   UNL     1       1.651   7.248   2.491  1.00  0.00     0.164 HD
BRANCH  13  16
ATOM     16  C   UNL     1       3.189   6.535   5.484  1.00  0.00     0.143 C 
BRANCH  16  17
ATOM     17  C   UNL     1       2.935   5.160   6.179  1.00  0.00     0.051 A 
ATOM     18  C   UNL     1      -1.444  -0.246   6.278  1.00  0.00     0.048 C 
ATOM     19  C   UNL     1       0.037  -0.277   6.222  1.00  0.00    -0.005 A 
ATOM     20  C   UNL     1       0.817  -1.372   5.906  1.00  0.00     0.199 A 
ATOM     21  C   UNL     1       0.960   0.796   6.435  1.00  0.00     0.024 A 
ATOM     22  O   UNL     1       2.129  -1.039   5.851  1.00  0.00    -0.464 OA
ATOM     23  C   UNL     1       2.220   0.286   6.153  1.00  0.00     0.140 A 
ATOM     24  C   UNL     1       0.860   2.162   6.776  1.00  0.00     0.024 A 
ATOM     25  C   UNL     1       3.397   1.036   6.147  1.00  0.00     0.036 A 
ATOM     26  C   UNL     1       2.013   2.986   6.779  1.00  0.00     0.022 A 
ATOM     27  C   UNL     1       4.729   0.468   5.779  1.00  0.00     0.052 C 
ATOM     28  C   UNL     1       3.232   2.392   6.477  1.00  0.00     0.145 A 
ATOM     29  C   UNL     1       1.946   4.488   6.858  1.00  0.00    -0.029 A 
ATOM     30  O   UNL     1       4.390   3.172   6.464  1.00  0.00    -0.422 OA
ATOM     31  C   UNL     1       0.633   4.917   7.483  1.00  0.00     0.046 C 
ATOM     32  C   UNL     1       4.294   4.534   6.378  1.00  0.00     0.340 A 
ATOM     33  O   UNL     1       5.303   5.231   6.458  1.00  0.00    -0.246 OA
ENDBRANCH  16  17
ENDBRANCH  13  16
ENDBRANCH  11  12
ENDBRANCH   8  11
ENDBRANCH   6   7
BRANCH   6  34
ATOM     34  C   UNL     1      -0.695   3.039   2.354  1.00  0.00     0.015 C 
ATOM     35  C   UNL     1      -1.728   2.932   3.485  1.00  0.00     0.010 C 
ATOM     36  C   UNL     1      -1.363   2.649   1.032  1.00  0.00     0.010 C 
ENDBRANCH   6  34
ENDBRANCH   3   6
ENDBRANCH   1   2
BRANCH   1  37
ATOM     37  C   UNL     1      -0.903   7.956   5.383  1.00  0.00     0.042 C 
BRANCH  37  38
ATOM     38  C   UNL     1       0.060   8.050   6.595  1.00  0.00     0.118 C 
BRANCH  38  39
ATOM     39  N   UNL     1       0.720   9.346   6.763  1.00  0.00    -0.352 N 
ATOM     40  C   UNL     1       1.428   9.906   7.815  1.00  0.00     0.251 C 
ATOM     41  H   UNL     1       0.646   9.934   5.976  1.00  0.00     0.163 HD
ATOM     42  O   UNL     1       1.836  11.052   7.711  1.00  0.00    -0.269 OA
BRANCH  40  43
ATOM     43  C   UNL     1       1.719   9.146   9.062  1.00  0.00     0.039 A 
ATOM     44  C   UNL     1       1.689   9.797  10.300  1.00  0.00     0.014 A 
ATOM     45  C   UNL     1       2.129   7.817   9.018  1.00  0.00     0.014 A 
ATOM     46  C   UNL     1       1.960   9.082  11.476  1.00  0.00     0.010 A 
ATOM     47  C   UNL     1       2.357   7.090  10.181  1.00  0.00     0.010 A 
ATOM     48  C   UNL     1       2.267   7.713  11.423  1.00  0.00    -0.014 A 
BRANCH  48  49
ATOM     49  C   UNL     1       2.308   6.918  12.662  1.00  0.00     0.031 A 
ATOM     50  C   UNL     1       1.069   6.974  13.503  1.00  0.00     0.074 A 
ATOM     51  C   UNL     1       3.218   5.964  12.959  1.00  0.00     0.049 A 
ATOM     52  N   UNL     1       0.938   7.359  14.731  1.00  0.00    -0.248 NA
ATOM     53  C   UNL     1      -0.202   6.599  12.863  1.00  0.00     0.031 C 
ATOM     54  C   UNL     1       4.334   5.482  12.143  1.00  0.00     0.029 A 
ATOM     55  N   UNL     1       3.251   5.128  14.040  1.00  0.00    -0.354 N 
ATOM     56  C   UNL     1      -0.391   7.122  15.083  1.00  0.00     0.074 A 
ATOM     57  C   UNL     1      -1.070   6.776  13.860  1.00  0.00     0.031 C 
ATOM     58  C   UNL     1       4.788   4.312  12.646  1.00  0.00     0.029 A 
ATOM     59  C   UNL     1       4.107   4.040  13.900  1.00  0.00     0.049 A 
ATOM     60  H   UNL     1       2.712   5.282  14.850  1.00  0.00     0.167 HD
ATOM     61  C   UNL     1      -0.814   7.071  16.379  1.00  0.00     0.034 A 
ATOM     62  C   UNL     1       4.231   2.982  14.742  1.00  0.00     0.034 A 
ATOM     63  C   UNL     1       0.149   7.648  17.281  1.00  0.00     0.049 A 
ATOM     64  C   UNL     1       3.743   3.425  16.068  1.00  0.00     0.074 A 
ATOM     65  C   UNL     1       0.738   8.893  17.407  1.00  0.00     0.029 A 
ATOM     66  N   UNL     1       0.941   6.803  18.022  1.00  0.00    -0.354 N 
ATOM     67  N   UNL     1       4.315   4.359  16.774  1.00  0.00    -0.248 NA
ATOM     68  C   UNL     1       2.378   3.107  16.451  1.00  0.00     0.031 C 
ATOM     69  C   UNL     1       2.099   8.621  17.742  1.00  0.00     0.029 A 
ATOM     70  C   UNL     1       2.235   7.237  17.856  1.00  0.00     0.049 A 
ATOM     71  H   UNL     1       0.640   6.038  18.564  1.00  0.00     0.167 HD
ATOM     72  C   UNL     1       3.273   5.034  17.385  1.00  0.00     0.074 A 
ATOM     73  C   UNL     1       2.121   4.147  17.249  1.00  0.00     0.031 C 
ATOM     74  C   UNL     1       3.377   6.358  17.701  1.00  0.00     0.034 A 
BRANCH  61  75
ATOM     75  C   UNL     1      -1.998   6.270  16.872  1.00  0.00     0.023 A 
ATOM     76  C   UNL     1      -2.466   6.476  18.186  1.00  0.00     0.031 A 
ATOM     77  C   UNL     1      -2.527   5.147  16.198  1.00  0.00     0.131 A 
ATOM     78  C   UNL     1      -3.386   5.585  18.774  1.00  0.00     0.055 A 
ATOM     79  C   UNL     1      -3.490   4.303  16.761  1.00  0.00     0.041 A 
ATOM     80  F   UNL     1      -2.073   4.755  15.001  1.00  0.00    -0.206 F 
ATOM     81  C   UNL     1      -3.912   4.508  18.063  1.00  0.00     0.022 A 
BRANCH  78  82
ATOM     82  S   UNL     1      -3.784   5.765  20.536  1.00  0.00     0.124 S 
ATOM     83  O   UNL     1      -2.462   5.712  21.149  1.00  0.00    -0.237 OA
ATOM     84  O   UNL     1      -4.457   7.059  20.564  1.00  0.00    -0.237 OA
ATOM     85  O   UNL     1      -4.642   4.614  20.810  1.00  0.00    -0.744 OA
ENDBRANCH  78  82
ENDBRANCH  61  75
BRANCH  62  86
ATOM     86  C   UNL     1       4.506   1.555  14.423  1.00  0.00     0.023 A 
ATOM     87  C   UNL     1       4.854   0.629  15.430  1.00  0.00     0.031 A 
ATOM     88  C   UNL     1       4.158   1.021  13.164  1.00  0.00     0.131 A 
ATOM     89  C   UNL     1       4.824  -0.758  15.167  1.00  0.00     0.055 A 
ATOM     90  C   UNL     1       4.145  -0.352  12.904  1.00  0.00     0.041 A 
ATOM     91  F   UNL     1       3.723   1.810  12.169  1.00  0.00    -0.206 F 
ATOM     92  C   UNL     1       4.463  -1.250  13.911  1.00  0.00     0.022 A 
BRANCH  89  93
ATOM     93  S   UNL     1       5.103  -1.957  16.509  1.00  0.00     0.124 S 
ATOM     94  O   UNL     1       6.558  -2.047  16.543  1.00  0.00    -0.237 OA
ATOM     95  O   UNL     1       4.467  -1.315  17.654  1.00  0.00    -0.237 OA
ATOM     96  O   UNL     1       4.420  -3.159  16.030  1.00  0.00    -0.744 OA
ENDBRANCH  89  93
ENDBRANCH  62  86
BRANCH  74  97
ATOM     97  C   UNL     1       4.746   7.006  17.640  1.00  0.00     0.023 A 
ATOM     98  C   UNL     1       5.548   7.080  16.477  1.00  0.00     0.031 A 
ATOM     99  C   UNL     1       5.198   7.681  18.786  1.00  0.00     0.131 A 
ATOM    100  C   UNL     1       6.760   7.799  16.498  1.00  0.00     0.055 A 
ATOM    101  C   UNL     1       6.388   8.409  18.798  1.00  0.00     0.041 A 
ATOM    102  F   UNL     1       4.466   7.675  19.912  1.00  0.00    -0.206 F 
ATOM    103  C   UNL     1       7.177   8.467  17.654  1.00  0.00     0.022 A 
BRANCH 100 104
ATOM    104  S   UNL     1       7.810   7.888  15.011  1.00  0.00     0.124 S 
ATOM    105  O   UNL     1       8.039   6.487  14.676  1.00  0.00    -0.237 OA
ATOM    106  O   UNL     1       6.980   8.645  14.079  1.00  0.00    -0.237 OA
ATOM    107  O   UNL     1       9.001   8.602  15.476  1.00  0.00    -0.744 OA
ENDBRANCH 100 104
ENDBRANCH  74  97
ENDBRANCH  48  49
ENDBRANCH  40  43
ENDBRANCH  38  39
ENDBRANCH  37  38
ENDBRANCH   1  37
TORSDOF 19
