REMARK SMILES O=C1CC[C@@H](CC(=O)N2CCC(Oc3ccccc3)(C(=O)NCCCNC(=O)c3ccc(-c4c5nc(c(-c6cc(S(=O)(=O)[O-])ccc6F)c6ccc([nH]6)c(-c6cc(S(=O)(=O)[O-])ccc6F)c6nc(c(-c7cc(S(=O)(=O)[O-])ccc7F)c7ccc4[nH]7)C=C6)C=C5)cc3)CC2)N1
REMARK SMILES IDX 24 1 23 2 22 3 20 4 21 5 12 7 7 8 8 9 9 10 10 11 93 12 11 13
REMARK SMILES IDX 92 14 6 15 5 16 1 17 2 18 3 19 94 20 4 21 13 23 14 24 15 25
REMARK SMILES IDX 19 26 16 27 18 28 17 29 25 30 26 31 27 32 28 34 29 35 30 36
REMARK SMILES IDX 91 37 31 38 90 39 32 40 33 41 34 42 84 43 35 44 89 45 83 46
REMARK SMILES IDX 85 47 36 48 88 49 82 50 81 51 37 53 69 54 49 55 68 56 50 57
REMARK SMILES IDX 53 58 67 59 86 60 51 61 52 62 66 64 87 65 54 66 38 67 39 68
REMARK SMILES IDX 47 69 40 70 46 71 48 72 45 73 41 74 42 75 43 76 44 77 70 78
REMARK SMILES IDX 71 79 79 80 72 81 78 82 80 83 77 84 73 85 74 86 75 87 76 88
REMARK SMILES IDX 55 89 56 90 64 91 57 92 63 93 65 94 62 95 58 96 59 97 60 98
REMARK SMILES IDX 61 99
REMARK H PARENT 22 6 94 22 26 33 85 52 53 63
REMARK Flexibility Score: inf
ROOT
ATOM      1  C   UNL     1       0.755   1.596  -7.961  1.00  0.00     0.042 C 
ENDROOT
BRANCH   1   2
ATOM      2  C   UNL     1       1.895   1.728  -6.965  1.00  0.00     0.118 C 
BRANCH   2   3
ATOM      3  N   UNL     1       1.439   2.352  -5.743  1.00  0.00    -0.353 N 
ATOM      4  C   UNL     1       1.289   1.843  -4.495  1.00  0.00     0.264 C 
ATOM      5  O   UNL     1       0.934   2.659  -3.637  1.00  0.00    -0.270 OA
ATOM      6  H   UNL     1       1.198   3.303  -5.832  1.00  0.00     0.163 HD
BRANCH   4   7
ATOM      7  C   UNL     1       1.575   0.347  -4.171  1.00  0.00     0.190 C 
ATOM      8  C   UNL     1      -1.541  -1.654  -2.268  1.00  0.00     0.224 C 
ATOM      9  O   UNL     1      -1.765  -2.709  -2.877  1.00  0.00    -0.275 OA
ATOM     10  N   UNL     1      -0.883  -0.620  -2.905  1.00  0.00    -0.342 N 
ATOM     11  C   UNL     1      -0.825  -0.556  -4.365  1.00  0.00     0.124 C 
ATOM     12  C   UNL     1      -0.034   0.337  -2.244  1.00  0.00     0.124 C 
ATOM     13  C   UNL     1       0.612  -0.635  -4.878  1.00  0.00     0.080 C 
ATOM     14  C   UNL     1       1.424   0.175  -2.655  1.00  0.00     0.080 C 
BRANCH   8  15
ATOM     15  C   UNL     1      -2.226  -1.471  -0.899  1.00  0.00     0.125 C 
BRANCH  15  16
ATOM     16  C   UNL     1      -1.644  -0.861   0.379  1.00  0.00     0.091 C 
ATOM     17  O   UNL     1       1.608  -0.162   1.515  1.00  0.00    -0.275 OA
ATOM     18  C   UNL     1       0.442  -0.111   1.154  1.00  0.00     0.220 C 
ATOM     19  C   UNL     1      -0.416   1.128   1.096  1.00  0.00     0.102 C 
ATOM     20  N   UNL     1      -0.283  -1.184   0.689  1.00  0.00    -0.353 N 
ATOM     21  C   UNL     1      -1.748   0.662   0.502  1.00  0.00     0.035 C 
ATOM     22  H   UNL     1       0.096  -2.086   0.579  1.00  0.00     0.163 HD
ENDBRANCH  15  16
ENDBRANCH   8  15
BRANCH   7  23
ATOM     23  O   UNL     1       2.964   0.245  -4.580  1.00  0.00    -0.477 OA
BRANCH  23  24
ATOM     24  C   UNL     1       3.614  -0.935  -4.388  1.00  0.00     0.120 A 
ATOM     25  C   UNL     1       4.593  -0.990  -3.400  1.00  0.00     0.046 A 
ATOM     26  C   UNL     1       3.434  -2.011  -5.254  1.00  0.00     0.046 A 
ATOM     27  C   UNL     1       5.337  -2.156  -3.224  1.00  0.00     0.004 A 
ATOM     28  C   UNL     1       4.159  -3.186  -5.064  1.00  0.00     0.004 A 
ATOM     29  C   UNL     1       5.108  -3.260  -4.046  1.00  0.00     0.000 A 
ENDBRANCH  23  24
ENDBRANCH   7  23
ENDBRANCH   4   7
ENDBRANCH   2   3
ENDBRANCH   1   2
BRANCH   1  30
ATOM     30  C   UNL     1       0.129   2.933  -8.337  1.00  0.00     0.118 C 
BRANCH  30  31
ATOM     31  N   UNL     1       1.089   3.835  -8.957  1.00  0.00    -0.352 N 
ATOM     32  C   UNL     1       1.154   4.285 -10.252  1.00  0.00     0.251 C 
ATOM     33  H   UNL     1       1.794   4.172  -8.359  1.00  0.00     0.163 HD
ATOM     34  O   UNL     1       2.179   4.829 -10.652  1.00  0.00    -0.269 OA
BRANCH  32  35
ATOM     35  C   UNL     1       0.001   4.091 -11.155  1.00  0.00     0.039 A 
ATOM     36  C   UNL     1       0.231   3.693 -12.473  1.00  0.00     0.014 A 
ATOM     37  C   UNL     1      -1.304   4.302 -10.701  1.00  0.00     0.014 A 
ATOM     38  C   UNL     1      -0.854   3.445 -13.315  1.00  0.00     0.010 A 
ATOM     39  C   UNL     1      -2.381   3.960 -11.509  1.00  0.00     0.010 A 
ATOM     40  C   UNL     1      -2.169   3.537 -12.829  1.00  0.00    -0.014 A 
BRANCH  40  41
ATOM     41  C   UNL     1      -3.334   3.208 -13.689  1.00  0.00     0.031 A 
ATOM     42  C   UNL     1      -4.357   4.265 -14.006  1.00  0.00     0.074 A 
ATOM     43  C   UNL     1      -3.497   1.947 -14.137  1.00  0.00     0.049 A 
ATOM     44  N   UNL     1      -5.475   4.160 -14.677  1.00  0.00    -0.248 NA
ATOM     45  C   UNL     1      -4.104   5.612 -13.469  1.00  0.00     0.031 C 
ATOM     46  C   UNL     1      -2.591   0.830 -13.863  1.00  0.00     0.029 A 
ATOM     47  N   UNL     1      -4.483   1.390 -14.912  1.00  0.00    -0.354 N 
ATOM     48  C   UNL     1      -6.062   5.421 -14.636  1.00  0.00     0.074 A 
ATOM     49  C   UNL     1      -5.210   6.253 -13.814  1.00  0.00     0.031 C 
ATOM     50  C   UNL     1      -3.044  -0.268 -14.488  1.00  0.00     0.029 A 
ATOM     51  C   UNL     1      -4.300   0.048 -15.159  1.00  0.00     0.049 A 
ATOM     52  H   UNL     1      -5.248   1.902 -15.260  1.00  0.00     0.167 HD
ATOM     53  C   UNL     1      -7.192   5.850 -15.250  1.00  0.00     0.034 A 
ATOM     54  C   UNL     1      -5.066  -0.831 -15.836  1.00  0.00     0.034 A 
ATOM     55  C   UNL     1      -8.024   5.006 -16.073  1.00  0.00     0.049 A 
ATOM     56  C   UNL     1      -6.341  -0.339 -16.475  1.00  0.00     0.074 A 
ATOM     57  C   UNL     1      -9.162   5.348 -16.782  1.00  0.00     0.029 A 
ATOM     58  N   UNL     1      -7.815   3.649 -16.290  1.00  0.00    -0.354 N 
ATOM     59  N   UNL     1      -6.857   0.869 -16.468  1.00  0.00    -0.248 NA
ATOM     60  C   UNL     1      -7.132  -1.327 -17.220  1.00  0.00     0.031 C 
ATOM     61  C   UNL     1      -9.686   4.186 -17.357  1.00  0.00     0.029 A 
ATOM     62  C   UNL     1      -8.825   3.134 -17.088  1.00  0.00     0.049 A 
ATOM     63  H   UNL     1      -7.061   3.130 -15.928  1.00  0.00     0.167 HD
ATOM     64  C   UNL     1      -8.014   0.792 -17.238  1.00  0.00     0.074 A 
ATOM     65  C   UNL     1      -8.110  -0.577 -17.705  1.00  0.00     0.031 C 
ATOM     66  C   UNL     1      -8.914   1.764 -17.538  1.00  0.00     0.034 A 
BRANCH  53  67
ATOM     67  C   UNL     1      -7.603   7.287 -15.028  1.00  0.00     0.023 A 
ATOM     68  C   UNL     1      -6.788   8.361 -15.429  1.00  0.00     0.031 A 
ATOM     69  C   UNL     1      -8.817   7.590 -14.387  1.00  0.00     0.131 A 
ATOM     70  C   UNL     1      -7.157   9.678 -15.116  1.00  0.00     0.055 A 
ATOM     71  C   UNL     1      -9.222   8.907 -14.158  1.00  0.00     0.041 A 
ATOM     72  F   UNL     1      -9.628   6.610 -13.959  1.00  0.00    -0.206 F 
ATOM     73  C   UNL     1      -8.383   9.960 -14.509  1.00  0.00     0.022 A 
BRANCH  70  74
ATOM     74  S   UNL     1      -5.944  11.001 -15.373  1.00  0.00     0.124 S 
ATOM     75  O   UNL     1      -4.829  10.542 -14.547  1.00  0.00    -0.237 OA
ATOM     76  O   UNL     1      -5.731  10.959 -16.815  1.00  0.00    -0.237 OA
ATOM     77  O   UNL     1      -6.627  12.194 -14.876  1.00  0.00    -0.744 OA
ENDBRANCH  70  74
ENDBRANCH  53  67
BRANCH  54  78
ATOM     78  C   UNL     1      -4.664  -2.264 -15.938  1.00  0.00     0.023 A 
ATOM     79  C   UNL     1      -4.383  -2.850 -17.182  1.00  0.00     0.031 A 
ATOM     80  C   UNL     1      -4.601  -3.083 -14.796  1.00  0.00     0.131 A 
ATOM     81  C   UNL     1      -4.106  -4.224 -17.262  1.00  0.00     0.055 A 
ATOM     82  C   UNL     1      -4.263  -4.435 -14.873  1.00  0.00     0.041 A 
ATOM     83  F   UNL     1      -4.858  -2.574 -13.580  1.00  0.00    -0.206 F 
ATOM     84  C   UNL     1      -4.028  -5.017 -16.115  1.00  0.00     0.022 A 
BRANCH  81  85
ATOM     85  S   UNL     1      -3.948  -4.983 -18.902  1.00  0.00     0.124 S 
ATOM     86  O   UNL     1      -5.234  -4.655 -19.505  1.00  0.00    -0.237 OA
ATOM     87  O   UNL     1      -2.787  -4.287 -19.447  1.00  0.00    -0.237 OA
ATOM     88  O   UNL     1      -3.740  -6.398 -18.602  1.00  0.00    -0.744 OA
ENDBRANCH  81  85
ENDBRANCH  54  78
BRANCH  66  89
ATOM     89  C   UNL     1     -10.054   1.388 -18.455  1.00  0.00     0.023 A 
ATOM     90  C   UNL     1     -11.036   0.456 -18.078  1.00  0.00     0.031 A 
ATOM     91  C   UNL     1     -10.151   1.969 -19.733  1.00  0.00     0.131 A 
ATOM     92  C   UNL     1     -12.037   0.088 -18.990  1.00  0.00     0.055 A 
ATOM     93  C   UNL     1     -11.189   1.651 -20.609  1.00  0.00     0.041 A 
ATOM     94  F   UNL     1      -9.239   2.861 -20.150  1.00  0.00    -0.206 F 
ATOM     95  C   UNL     1     -12.132   0.695 -20.245  1.00  0.00     0.022 A 
BRANCH  92  96
ATOM     96  S   UNL     1     -13.153  -1.273 -18.554  1.00  0.00     0.124 S 
ATOM     97  O   UNL     1     -12.218  -2.369 -18.321  1.00  0.00    -0.237 OA
ATOM     98  O   UNL     1     -13.833  -0.753 -17.372  1.00  0.00    -0.237 OA
ATOM     99  O   UNL     1     -13.996  -1.419 -19.739  1.00  0.00    -0.744 OA
ENDBRANCH  92  96
ENDBRANCH  66  89
ENDBRANCH  40  41
ENDBRANCH  32  35
ENDBRANCH  30  31
ENDBRANCH   1  30
TORSDOF 17
