REMARK SMILES CC[N@@H+](C)Cc1cc2c(cc1Cl)C=C(C(=O)NCCCNC(=O)c1ccc(-c3c4nc(c(-c5cc(S(=O)(=O)[O-])ccc5F)c5ccc([nH]5)c(-c5cc(S(=O)(=O)[O-])ccc5F)c5nc(c(-c6cc(S(=O)(=O)[O-])ccc6F)c6ccc3[nH]6)C=C5)C=C4)cc1)[C@@H](C(F)(F)F)O2
REMARK SMILES IDX 19 1 18 2 17 3 15 4 16 5 14 7 6 8 7 9 11 10 8 11 10 12 12 13
REMARK SMILES IDX 9 14 92 15 13 16 87 17 5 18 3 19 4 20 2 22 1 23 88 24 89 25
REMARK SMILES IDX 90 26 91 27 20 28 21 29 22 30 23 32 24 33 25 34 86 35 26 36
REMARK SMILES IDX 85 37 27 38 28 39 29 40 79 41 30 42 84 43 78 44 80 45 31 46
REMARK SMILES IDX 83 47 77 48 76 49 32 51 64 52 44 53 63 54 45 55 48 56 62 57
REMARK SMILES IDX 81 58 46 59 47 60 61 62 82 63 49 64 33 65 34 66 42 67 35 68
REMARK SMILES IDX 41 69 43 70 40 71 36 72 37 73 38 74 39 75 65 76 66 77 74 78
REMARK SMILES IDX 67 79 73 80 75 81 72 82 68 83 69 84 70 85 71 86 50 87 51 88
REMARK SMILES IDX 59 89 52 90 58 91 60 92 57 93 53 94 54 95 55 96 56 97
REMARK H PARENT 17 6 3 21 21 31 80 50 48 61
REMARK Flexibility Score: inf
ROOT
ATOM      1  C   UNL     1       1.807  10.683   1.798  1.00  0.00     0.042 C 
ENDROOT
BRANCH   1   2
ATOM      2  C   UNL     1       3.231  10.207   1.561  1.00  0.00     0.118 C 
BRANCH   2   3
ATOM      3  N   UNL     1       3.695   9.324   2.621  1.00  0.00    -0.352 N 
ATOM      4  C   UNL     1       3.933   8.001   2.777  1.00  0.00     0.251 C 
ATOM      5  O   UNL     1       4.351   7.668   3.891  1.00  0.00    -0.270 OA
ATOM      6  H   UNL     1       3.887   9.823   3.447  1.00  0.00     0.163 HD
BRANCH   4   7
ATOM      7  C   UNL     1       3.729   6.964   1.726  1.00  0.00     0.067 C 
ATOM      8  C   UNL     1       3.049   2.571  -0.677  1.00  0.00     0.029 A 
ATOM      9  C   UNL     1       2.804   3.920  -0.976  1.00  0.00     0.058 A 
ATOM     10  C   UNL     1       3.743   2.282   0.510  1.00  0.00     0.050 A 
ATOM     11  C   UNL     1       3.113   4.924  -0.068  1.00  0.00     0.128 A 
ATOM     12  C   UNL     1       4.073   3.302   1.416  1.00  0.00     0.033 A 
ATOM     13  Cl  UNL     1       4.242   0.683   0.932  1.00  0.00    -0.084 Cl
ATOM     14  C   UNL     1       3.727   4.625   1.142  1.00  0.00     0.019 A 
ATOM     15  O   UNL     1       2.707   6.178  -0.409  1.00  0.00    -0.475 OA
ATOM     16  C   UNL     1       3.935   5.691   2.112  1.00  0.00     0.025 C 
ATOM     17  C   UNL     1       3.334   7.271   0.309  1.00  0.00     0.314 C 
BRANCH   8  18
ATOM     18  C   UNL     1       2.500   1.517  -1.621  1.00  0.00     0.300 C 
BRANCH  18  19
ATOM     19  N   UNL     1       1.030   1.343  -1.634  1.00  0.00    -0.334 N 
ATOM     20  C   UNL     1       0.307   2.446  -2.265  1.00  0.00     0.333 C 
ATOM     21  H   UNL     1       0.910   0.518  -2.221  1.00  0.00     0.348 HD
BRANCH  19  22
ATOM     22  C   UNL     1       0.436   1.024  -0.329  1.00  0.00     0.258 C 
ATOM     23  C   UNL     1       0.721  -0.407   0.105  1.00  0.00     0.071 C 
ENDBRANCH  19  22
ENDBRANCH  18  19
ENDBRANCH   8  18
BRANCH  17  24
ATOM     24  C   UNL     1       4.513   7.797  -0.530  1.00  0.00     0.429 C 
ATOM     25  F   UNL     1       4.063   8.387  -1.665  1.00  0.00    -0.167 F 
ATOM     26  F   UNL     1       5.248   8.727   0.123  1.00  0.00    -0.167 F 
ATOM     27  F   UNL     1       5.368   6.814  -0.898  1.00  0.00    -0.167 F 
ENDBRANCH  17  24
ENDBRANCH   4   7
ENDBRANCH   2   3
ENDBRANCH   1   2
BRANCH   1  28
ATOM     28  C   UNL     1       1.744  11.815   2.814  1.00  0.00     0.118 C 
BRANCH  28  29
ATOM     29  N   UNL     1       2.384  13.032   2.317  1.00  0.00    -0.352 N 
ATOM     30  C   UNL     1       1.835  14.232   1.930  1.00  0.00     0.251 C 
ATOM     31  H   UNL     1       3.365  12.984   2.247  1.00  0.00     0.163 HD
ATOM     32  O   UNL     1       2.520  15.036   1.303  1.00  0.00    -0.269 OA
BRANCH  30  33
ATOM     33  C   UNL     1       0.426  14.535   2.252  1.00  0.00     0.039 A 
ATOM     34  C   UNL     1      -0.099  14.174   3.492  1.00  0.00     0.014 A 
ATOM     35  C   UNL     1      -0.381  15.178   1.310  1.00  0.00     0.014 A 
ATOM     36  C   UNL     1      -1.465  14.259   3.710  1.00  0.00     0.010 A 
ATOM     37  C   UNL     1      -1.740  15.373   1.581  1.00  0.00     0.010 A 
ATOM     38  C   UNL     1      -2.304  14.867   2.762  1.00  0.00    -0.014 A 
BRANCH  38  39
ATOM     39  C   UNL     1      -3.758  14.969   3.051  1.00  0.00     0.031 A 
ATOM     40  C   UNL     1      -4.772  14.286   2.174  1.00  0.00     0.074 A 
ATOM     41  C   UNL     1      -4.154  15.626   4.161  1.00  0.00     0.049 A 
ATOM     42  N   UNL     1      -6.073  14.250   2.301  1.00  0.00    -0.248 NA
ATOM     43  C   UNL     1      -4.269  13.553   1.000  1.00  0.00     0.031 C 
ATOM     44  C   UNL     1      -3.252  16.322   5.081  1.00  0.00     0.029 A 
ATOM     45  N   UNL     1      -5.394  15.794   4.724  1.00  0.00    -0.354 N 
ATOM     46  C   UNL     1      -6.545  13.517   1.218  1.00  0.00     0.074 A 
ATOM     47  C   UNL     1      -5.394  13.146   0.426  1.00  0.00     0.031 C 
ATOM     48  C   UNL     1      -3.955  16.782   6.123  1.00  0.00     0.029 A 
ATOM     49  C   UNL     1      -5.370  16.496   5.907  1.00  0.00     0.049 A 
ATOM     50  H   UNL     1      -6.221  15.445   4.320  1.00  0.00     0.167 HD
ATOM     51  C   UNL     1      -7.822  13.177   0.924  1.00  0.00     0.034 A 
ATOM     52  C   UNL     1      -6.371  16.889   6.721  1.00  0.00     0.034 A 
ATOM     53  C   UNL     1      -8.953  13.527   1.745  1.00  0.00     0.049 A 
ATOM     54  C   UNL     1      -7.781  16.496   6.367  1.00  0.00     0.074 A 
ATOM     55  C   UNL     1     -10.284  13.211   1.540  1.00  0.00     0.029 A 
ATOM     56  N   UNL     1      -8.892  14.252   2.926  1.00  0.00    -0.354 N 
ATOM     57  N   UNL     1      -8.202  15.777   5.353  1.00  0.00    -0.248 NA
ATOM     58  C   UNL     1      -8.852  16.961   7.258  1.00  0.00     0.031 C 
ATOM     59  C   UNL     1     -11.033  13.789   2.564  1.00  0.00     0.029 A 
ATOM     60  C   UNL     1     -10.165  14.409   3.449  1.00  0.00     0.049 A 
ATOM     61  H   UNL     1      -8.066  14.604   3.332  1.00  0.00     0.167 HD
ATOM     62  C   UNL     1      -9.584  15.697   5.489  1.00  0.00     0.074 A 
ATOM     63  C   UNL     1      -9.923  16.407   6.704  1.00  0.00     0.031 C 
ATOM     64  C   UNL     1     -10.489  15.102   4.672  1.00  0.00     0.034 A 
BRANCH  51  65
ATOM     65  C   UNL     1      -8.097  12.371  -0.321  1.00  0.00     0.023 A 
ATOM     66  C   UNL     1      -8.874  12.925  -1.356  1.00  0.00     0.031 A 
ATOM     67  C   UNL     1      -7.736  11.016  -0.410  1.00  0.00     0.131 A 
ATOM     68  C   UNL     1      -9.306  12.113  -2.412  1.00  0.00     0.055 A 
ATOM     69  C   UNL     1      -8.136  10.221  -1.486  1.00  0.00     0.041 A 
ATOM     70  F   UNL     1      -6.992  10.444   0.550  1.00  0.00    -0.206 F 
ATOM     71  C   UNL     1      -8.938  10.766  -2.485  1.00  0.00     0.022 A 
BRANCH  68  72
ATOM     72  S   UNL     1     -10.415  12.756  -3.695  1.00  0.00     0.124 S 
ATOM     73  O   UNL     1      -9.675  12.445  -4.916  1.00  0.00    -0.237 OA
ATOM     74  O   UNL     1     -11.623  11.965  -3.478  1.00  0.00    -0.237 OA
ATOM     75  O   UNL     1     -10.524  14.177  -3.383  1.00  0.00    -0.744 OA
ENDBRANCH  68  72
ENDBRANCH  51  65
BRANCH  52  76
ATOM     76  C   UNL     1      -6.046  17.675   7.948  1.00  0.00     0.023 A 
ATOM     77  C   UNL     1      -5.381  18.912   7.851  1.00  0.00     0.031 A 
ATOM     78  C   UNL     1      -6.287  17.156   9.230  1.00  0.00     0.131 A 
ATOM     79  C   UNL     1      -4.909  19.546   9.008  1.00  0.00     0.055 A 
ATOM     80  C   UNL     1      -5.886  17.832  10.385  1.00  0.00     0.041 A 
ATOM     81  F   UNL     1      -6.904  15.974   9.377  1.00  0.00    -0.206 F 
ATOM     82  C   UNL     1      -5.173  19.022  10.276  1.00  0.00     0.022 A 
BRANCH  79  83
ATOM     83  S   UNL     1      -3.793  20.973   8.888  1.00  0.00     0.124 S 
ATOM     84  O   UNL     1      -4.613  22.045   9.440  1.00  0.00    -0.237 OA
ATOM     85  O   UNL     1      -2.667  20.546   9.717  1.00  0.00    -0.237 OA
ATOM     86  O   UNL     1      -3.505  21.063   7.460  1.00  0.00    -0.744 OA
ENDBRANCH  79  83
ENDBRANCH  52  76
BRANCH  64  87
ATOM     87  C   UNL     1     -11.949  15.178   5.041  1.00  0.00     0.023 A 
ATOM     88  C   UNL     1     -12.665  13.998   5.320  1.00  0.00     0.031 A 
ATOM     89  C   UNL     1     -12.660  16.387   4.955  1.00  0.00     0.131 A 
ATOM     90  C   UNL     1     -14.057  14.047   5.460  1.00  0.00     0.055 A 
ATOM     91  C   UNL     1     -14.041  16.437   5.142  1.00  0.00     0.041 A 
ATOM     92  F   UNL     1     -12.021  17.535   4.680  1.00  0.00    -0.206 F 
ATOM     93  C   UNL     1     -14.748  15.261   5.380  1.00  0.00     0.022 A 
BRANCH  90  94
ATOM     94  S   UNL     1     -15.031  12.530   5.657  1.00  0.00     0.124 S 
ATOM     95  O   UNL     1     -15.660  12.743   6.958  1.00  0.00    -0.237 OA
ATOM     96  O   UNL     1     -15.934  12.593   4.510  1.00  0.00    -0.237 OA
ATOM     97  O   UNL     1     -14.036  11.464   5.614  1.00  0.00    -0.744 OA
ENDBRANCH  90  94
ENDBRANCH  64  87
ENDBRANCH  38  39
ENDBRANCH  30  33
ENDBRANCH  28  29
ENDBRANCH   1  28
TORSDOF 17
