REMARK SMILES NS(=O)(=O)c1ccc(N2N=C(C(=O)NCCCNC(=O)c3ccc(-c4c5nc(c(-c6cc(S(=O)(=O)[O-])ccc6F)c6ccc([nH]6)c(-c6cc(S(=O)(=O)[O-])ccc6F)c6nc(c(-c7cc(S(=O)(=O)[O-])ccc7F)c7ccc4[nH]7)C=C6)C=C5)cc3)C[C@H]2c2cccs2)cc1
REMARK SMILES IDX 16 1 15 2 14 3 12 4 13 5 11 7 9 8 10 9 85 10 84 11 8 12 5 13
REMARK SMILES IDX 6 14 92 15 7 16 91 17 2 18 3 19 4 20 1 21 86 24 87 25 90 26
REMARK SMILES IDX 88 27 89 28 17 29 18 30 19 31 20 33 21 34 22 35 83 36 23 37
REMARK SMILES IDX 82 38 24 39 25 40 26 41 76 42 27 43 81 44 75 45 77 46 28 47
REMARK SMILES IDX 80 48 74 49 73 50 29 52 61 53 41 54 60 55 42 56 45 57 59 58
REMARK SMILES IDX 78 59 43 60 44 61 58 63 79 64 46 65 30 66 31 67 39 68 32 69
REMARK SMILES IDX 38 70 40 71 37 72 33 73 34 74 35 75 36 76 62 77 63 78 71 79
REMARK SMILES IDX 64 80 70 81 72 82 69 83 65 84 66 85 67 86 68 87 47 88 48 89
REMARK SMILES IDX 56 90 49 91 55 92 57 93 54 94 50 95 51 96 52 97 53 98
REMARK H PARENT 14 6 1 22 1 23 18 32 77 51 45 62
REMARK Flexibility Score: inf
ROOT
ATOM      1  C   UNL     1       1.235  -8.782   8.804  1.00  0.00     0.042 C 
ENDROOT
BRANCH   1   2
ATOM      2  C   UNL     1       2.333  -7.730   8.763  1.00  0.00     0.118 C 
BRANCH   2   3
ATOM      3  N   UNL     1       3.018  -7.722   7.483  1.00  0.00    -0.351 N 
ATOM      4  C   UNL     1       3.050  -6.876   6.404  1.00  0.00     0.267 C 
ATOM      5  O   UNL     1       3.695  -7.236   5.422  1.00  0.00    -0.268 OA
ATOM      6  H   UNL     1       3.595  -8.510   7.360  1.00  0.00     0.163 HD
BRANCH   4   7
ATOM      7  C   UNL     1       2.386  -5.508   6.369  1.00  0.00     0.128 C 
ATOM      8  N   UNL     1       2.023  -3.495   5.736  1.00  0.00    -0.256 N 
ATOM      9  N   UNL     1       2.670  -4.655   5.431  1.00  0.00    -0.171 NA
ATOM     10  C   UNL     1       1.138  -3.609   6.904  1.00  0.00     0.154 C 
ATOM     11  C   UNL     1       1.371  -5.053   7.358  1.00  0.00     0.097 C 
BRANCH   8  12
ATOM     12  C   UNL     1       1.715  -2.587   4.721  1.00  0.00     0.060 A 
ATOM     13  C   UNL     1       0.995  -0.705   2.764  1.00  0.00     0.082 A 
ATOM     14  C   UNL     1       0.818  -2.068   2.513  1.00  0.00     0.024 A 
ATOM     15  C   UNL     1       1.552  -0.274   3.967  1.00  0.00     0.024 A 
ATOM     16  C   UNL     1       1.190  -3.002   3.488  1.00  0.00     0.029 A 
ATOM     17  C   UNL     1       1.911  -1.215   4.931  1.00  0.00     0.029 A 
BRANCH  13  18
ATOM     18  S   UNL     1       0.524   0.487   1.551  1.00  0.00     0.238 S 
ATOM     19  O   UNL     1       1.151   1.757   1.863  1.00  0.00    -0.207 OA
ATOM     20  O   UNL     1      -0.887   0.366   1.300  1.00  0.00    -0.207 OA
BRANCH  18  21
ATOM     21  N   UNL     1       1.305  -0.049   0.166  1.00  0.00    -0.225 NA
ATOM     22  H   UNL     1       1.095   0.581  -0.609  1.00  0.00     0.137 HD
ATOM     23  H   UNL     1       0.982  -0.989  -0.064  1.00  0.00     0.137 HD
ENDBRANCH  18  21
ENDBRANCH  13  18
ENDBRANCH   8  12
BRANCH  10  24
ATOM     24  C   UNL     1       1.325  -2.568   8.005  1.00  0.00     0.030 A 
ATOM     25  C   UNL     1       0.711  -1.327   8.084  1.00  0.00     0.017 A 
ATOM     26  S   UNL     1       2.386  -2.788   9.342  1.00  0.00    -0.147 S 
ATOM     27  C   UNL     1       1.079  -0.594   9.248  1.00  0.00     0.012 A 
ATOM     28  C   UNL     1       1.938  -1.306  10.051  1.00  0.00     0.065 A 
ENDBRANCH  10  24
ENDBRANCH   4   7
ENDBRANCH   2   3
ENDBRANCH   1   2
BRANCH   1  29
ATOM     29  C   UNL     1       1.784 -10.194   8.953  1.00  0.00     0.118 C 
BRANCH  29  30
ATOM     30  N   UNL     1       2.466 -10.380  10.229  1.00  0.00    -0.352 N 
ATOM     31  C   UNL     1       2.122 -11.147  11.314  1.00  0.00     0.251 C 
ATOM     32  H   UNL     1       3.305  -9.875  10.328  1.00  0.00     0.163 HD
ATOM     33  O   UNL     1       2.687 -10.953  12.387  1.00  0.00    -0.269 OA
BRANCH  31  34
ATOM     34  C   UNL     1       1.074 -12.182  11.194  1.00  0.00     0.039 A 
ATOM     35  C   UNL     1       0.188 -12.383  12.255  1.00  0.00     0.014 A 
ATOM     36  C   UNL     1       0.977 -12.969  10.044  1.00  0.00     0.014 A 
ATOM     37  C   UNL     1      -0.835 -13.326  12.131  1.00  0.00     0.010 A 
ATOM     38  C   UNL     1      -0.100 -13.831   9.882  1.00  0.00     0.010 A 
ATOM     39  C   UNL     1      -1.012 -14.028  10.928  1.00  0.00    -0.014 A 
BRANCH  39  40
ATOM     40  C   UNL     1      -2.129 -14.990  10.745  1.00  0.00     0.031 A 
ATOM     41  C   UNL     1      -1.832 -16.439  10.463  1.00  0.00     0.074 A 
ATOM     42  C   UNL     1      -3.402 -14.546  10.762  1.00  0.00     0.049 A 
ATOM     43  N   UNL     1      -2.657 -17.412  10.173  1.00  0.00    -0.248 NA
ATOM     44  C   UNL     1      -0.416 -16.835  10.472  1.00  0.00     0.031 C 
ATOM     45  C   UNL     1      -3.810 -13.157  10.987  1.00  0.00     0.029 A 
ATOM     46  N   UNL     1      -4.587 -15.212  10.578  1.00  0.00    -0.354 N 
ATOM     47  C   UNL     1      -1.859 -18.530   9.950  1.00  0.00     0.074 A 
ATOM     48  C   UNL     1      -0.485 -18.094  10.069  1.00  0.00     0.031 C 
ATOM     49  C   UNL     1      -5.150 -13.082  10.957  1.00  0.00     0.029 A 
ATOM     50  C   UNL     1      -5.696 -14.401  10.656  1.00  0.00     0.049 A 
ATOM     51  H   UNL     1      -4.639 -16.180  10.406  1.00  0.00     0.167 HD
ATOM     52  C   UNL     1      -2.240 -19.806   9.697  1.00  0.00     0.034 A 
ATOM     53  C   UNL     1      -7.003 -14.685  10.488  1.00  0.00     0.034 A 
ATOM     54  C   UNL     1      -3.617 -20.223   9.597  1.00  0.00     0.049 A 
ATOM     55  C   UNL     1      -7.401 -16.106  10.177  1.00  0.00     0.074 A 
ATOM     56  C   UNL     1      -4.120 -21.496   9.396  1.00  0.00     0.029 A 
ATOM     57  N   UNL     1      -4.714 -19.373   9.682  1.00  0.00    -0.354 N 
ATOM     58  N   UNL     1      -6.636 -17.162  10.017  1.00  0.00    -0.248 NA
ATOM     59  C   UNL     1      -8.837 -16.375  10.034  1.00  0.00     0.031 C 
ATOM     60  C   UNL     1      -5.511 -21.406   9.286  1.00  0.00     0.029 A 
ATOM     61  C   UNL     1      -5.887 -20.090   9.505  1.00  0.00     0.049 A 
ATOM     62  H   UNL     1      -4.664 -18.403   9.845  1.00  0.00     0.167 HD
ATOM     63  C   UNL     1      -7.505 -18.227   9.790  1.00  0.00     0.074 A 
ATOM     64  C   UNL     1      -8.847 -17.686   9.848  1.00  0.00     0.031 C 
ATOM     65  C   UNL     1      -7.219 -19.534   9.558  1.00  0.00     0.034 A 
BRANCH  52  66
ATOM     66  C   UNL     1      -1.148 -20.830   9.486  1.00  0.00     0.023 A 
ATOM     67  C   UNL     1      -0.218 -21.138  10.496  1.00  0.00     0.031 A 
ATOM     68  C   UNL     1      -1.016 -21.489   8.251  1.00  0.00     0.131 A 
ATOM     69  C   UNL     1       0.845 -22.012  10.227  1.00  0.00     0.055 A 
ATOM     70  C   UNL     1      -0.007 -22.426   8.019  1.00  0.00     0.041 A 
ATOM     71  F   UNL     1      -1.858 -21.222   7.240  1.00  0.00    -0.206 F 
ATOM     72  C   UNL     1       0.942 -22.681   9.005  1.00  0.00     0.022 A 
BRANCH  69  73
ATOM     73  S   UNL     1       2.185 -22.143  11.443  1.00  0.00     0.124 S 
ATOM     74  O   UNL     1       2.642 -20.758  11.527  1.00  0.00    -0.237 OA
ATOM     75  O   UNL     1       1.495 -22.661  12.619  1.00  0.00    -0.237 OA
ATOM     76  O   UNL     1       3.129 -23.065  10.816  1.00  0.00    -0.744 OA
ENDBRANCH  69  73
ENDBRANCH  52  66
BRANCH  53  77
ATOM     77  C   UNL     1      -8.031 -13.611  10.600  1.00  0.00     0.023 A 
ATOM     78  C   UNL     1      -9.011 -13.650  11.604  1.00  0.00     0.031 A 
ATOM     79  C   UNL     1      -8.078 -12.550   9.677  1.00  0.00     0.131 A 
ATOM     80  C   UNL     1     -10.025 -12.680  11.632  1.00  0.00     0.055 A 
ATOM     81  C   UNL     1      -9.054 -11.555   9.744  1.00  0.00     0.041 A 
ATOM     82  F   UNL     1      -7.162 -12.460   8.699  1.00  0.00    -0.206 F 
ATOM     83  C   UNL     1     -10.045 -11.625  10.717  1.00  0.00     0.022 A 
BRANCH  80  84
ATOM     84  S   UNL     1     -11.377 -12.872  12.826  1.00  0.00     0.124 S 
ATOM     85  O   UNL     1     -11.899 -14.188  12.474  1.00  0.00    -0.237 OA
ATOM     86  O   UNL     1     -10.670 -12.781  14.099  1.00  0.00    -0.237 OA
ATOM     87  O   UNL     1     -12.260 -11.748  12.523  1.00  0.00    -0.744 OA
ENDBRANCH  80  84
ENDBRANCH  53  77
BRANCH  65  88
ATOM     88  C   UNL     1      -8.389 -20.476   9.405  1.00  0.00     0.023 A 
ATOM     89  C   UNL     1      -9.278 -20.386   8.320  1.00  0.00     0.031 A 
ATOM     90  C   UNL     1      -8.620 -21.476  10.367  1.00  0.00     0.131 A 
ATOM     91  C   UNL     1     -10.389 -21.241   8.254  1.00  0.00     0.055 A 
ATOM     92  C   UNL     1      -9.688 -22.367  10.260  1.00  0.00     0.041 A 
ATOM     93  F   UNL     1      -7.806 -21.606  11.427  1.00  0.00    -0.206 F 
ATOM     94  C   UNL     1     -10.588 -22.243   9.206  1.00  0.00     0.022 A 
BRANCH  91  95
ATOM     95  S   UNL     1     -11.627 -20.961   6.958  1.00  0.00     0.124 S 
ATOM     96  O   UNL     1     -12.037 -19.585   7.223  1.00  0.00    -0.237 OA
ATOM     97  O   UNL     1     -10.855 -21.172   5.738  1.00  0.00    -0.237 OA
ATOM     98  O   UNL     1     -12.644 -21.975   7.231  1.00  0.00    -0.744 OA
ENDBRANCH  91  95
ENDBRANCH  65  88
ENDBRANCH  39  40
ENDBRANCH  31  34
ENDBRANCH  29  30
ENDBRANCH   1  29
TORSDOF 17
