REMARK SMILES O=C(CN1C(=O)/C(=C\c2cccs2)SC1=S)Nc1ccccc1C(=O)NCCCNC(=O)c1ccc(-c2c3nc(c(-c4cc(S(=O)(=O)[O-])ccc4F)c4ccc([nH]4)c(-c4cc(S(=O)(=O)[O-])ccc4F)c4nc(c(-c5cc(S(=O)(=O)[O-])ccc5F)c5ccc2[nH]5)C=C4)C=C3)cc1
REMARK SMILES IDX 27 1 26 2 24 3 25 4 23 6 18 7 19 8 20 9 22 10 21 11 17 12
REMARK SMILES IDX 1 13 2 14 3 16 4 17 5 18 15 19 6 20 7 21 14 22 16 23 8 24
REMARK SMILES IDX 9 25 10 26 13 27 11 28 12 29 28 30 29 31 30 32 31 33 32 35
REMARK SMILES IDX 33 36 34 37 95 38 35 39 94 40 36 41 37 42 38 43 88 44 39 45
REMARK SMILES IDX 93 46 87 47 89 48 40 49 92 50 86 51 85 52 41 54 73 55 53 56
REMARK SMILES IDX 72 57 54 58 57 59 71 60 90 61 55 62 56 63 70 65 91 66 58 67
REMARK SMILES IDX 42 68 43 69 51 70 44 71 50 72 52 73 49 74 45 75 46 76 47 77
REMARK SMILES IDX 48 78 74 79 75 80 83 81 76 82 82 83 84 84 81 85 77 86 78 87
REMARK SMILES IDX 79 88 80 89 59 90 60 91 68 92 61 93 67 94 69 95 66 96 62 97
REMARK SMILES IDX 63 98 64 99 65 100
REMARK H PARENT 26 5 17 15 30 34 89 53 57 64
REMARK Flexibility Score: inf
ROOT
ATOM      1  C   UNL     1       2.696   1.302   1.456  1.00  0.00     0.118 C 
ENDROOT
BRANCH   1   2
ATOM      2  N   UNL     1       1.377   1.856   1.585  1.00  0.00    -0.352 N 
ATOM      3  C   UNL     1       0.535   2.222   0.549  1.00  0.00     0.253 C 
ATOM      4  O   UNL     1      -0.646   2.451   0.818  1.00  0.00    -0.269 OA
ATOM      5  H   UNL     1       1.038   1.987   2.500  1.00  0.00     0.163 HD
BRANCH   3   6
ATOM      6  C   UNL     1       1.052   2.568  -0.816  1.00  0.00     0.063 A 
ATOM      7  C   UNL     1       2.004   1.889  -1.605  1.00  0.00     0.054 A 
ATOM      8  C   UNL     1       2.604   2.582  -2.678  1.00  0.00     0.027 A 
ATOM      9  C   UNL     1       2.192   3.864  -3.050  1.00  0.00     0.002 A 
ATOM     10  C   UNL     1       0.627   3.854  -1.231  1.00  0.00     0.016 A 
ATOM     11  C   UNL     1       1.179   4.490  -2.342  1.00  0.00     0.001 A 
BRANCH   7  12
ATOM     12  N   UNL     1       2.505   0.576  -1.427  1.00  0.00    -0.324 N 
ATOM     13  O   UNL     1       0.611  -0.571  -0.809  1.00  0.00    -0.273 OA
ATOM     14  C   UNL     1       1.828  -0.544  -0.977  1.00  0.00     0.244 C 
ATOM     15  H   UNL     1       3.454   0.443  -1.651  1.00  0.00     0.170 HD
BRANCH  14  16
ATOM     16  C   UNL     1       2.733  -1.710  -0.466  1.00  0.00     0.227 C 
BRANCH  16  17
ATOM     17  N   UNL     1       3.771  -2.223  -1.359  1.00  0.00    -0.283 N 
ATOM     18  C   UNL     1       4.845  -1.411  -1.648  1.00  0.00     0.266 C 
ATOM     19  C   UNL     1       3.885  -3.535  -1.764  1.00  0.00     0.148 C 
ATOM     20  O   UNL     1       4.974  -0.271  -1.213  1.00  0.00    -0.268 OA
ATOM     21  C   UNL     1       5.776  -2.073  -2.592  1.00  0.00     0.081 C 
ATOM     22  S   UNL     1       5.374  -3.744  -2.692  1.00  0.00    -0.054 SA
ATOM     23  S   UNL     1       2.842  -4.804  -1.484  1.00  0.00    -0.052 S 
ATOM     24  C   UNL     1       6.698  -1.476  -3.362  1.00  0.00     0.040 C 
BRANCH  24  25
ATOM     25  C   UNL     1       6.868  -0.065  -3.378  1.00  0.00     0.028 A 
ATOM     26  C   UNL     1       7.476   0.761  -2.450  1.00  0.00     0.020 A 
ATOM     27  S   UNL     1       6.226   0.854  -4.684  1.00  0.00    -0.144 S 
ATOM     28  C   UNL     1       7.342   2.144  -2.770  1.00  0.00     0.012 A 
ATOM     29  C   UNL     1       6.673   2.334  -3.957  1.00  0.00     0.065 A 
ENDBRANCH  24  25
ENDBRANCH  16  17
ENDBRANCH  14  16
ENDBRANCH   7  12
ENDBRANCH   3   6
ENDBRANCH   1   2
BRANCH   1  30
ATOM     30  C   UNL     1       3.576   1.204   2.679  1.00  0.00     0.042 C 
BRANCH  30  31
ATOM     31  C   UNL     1       3.140   0.174   3.715  1.00  0.00     0.118 C 
BRANCH  31  32
ATOM     32  N   UNL     1       2.991  -1.195   3.210  1.00  0.00    -0.352 N 
ATOM     33  C   UNL     1       3.744  -2.339   3.382  1.00  0.00     0.251 C 
ATOM     34  H   UNL     1       2.201  -1.323   2.636  1.00  0.00     0.163 HD
ATOM     35  O   UNL     1       3.504  -3.314   2.671  1.00  0.00    -0.269 OA
BRANCH  33  36
ATOM     36  C   UNL     1       4.855  -2.389   4.363  1.00  0.00     0.039 A 
ATOM     37  C   UNL     1       5.992  -3.162   4.103  1.00  0.00     0.014 A 
ATOM     38  C   UNL     1       4.790  -1.658   5.544  1.00  0.00     0.014 A 
ATOM     39  C   UNL     1       7.099  -3.086   4.959  1.00  0.00     0.010 A 
ATOM     40  C   UNL     1       5.935  -1.456   6.299  1.00  0.00     0.010 A 
ATOM     41  C   UNL     1       7.107  -2.173   6.026  1.00  0.00    -0.014 A 
BRANCH  41  42
ATOM     42  C   UNL     1       8.297  -1.948   6.892  1.00  0.00     0.031 A 
ATOM     43  C   UNL     1       8.168  -2.093   8.389  1.00  0.00     0.074 A 
ATOM     44  C   UNL     1       9.449  -1.498   6.354  1.00  0.00     0.049 A 
ATOM     45  N   UNL     1       9.014  -1.771   9.332  1.00  0.00    -0.248 NA
ATOM     46  C   UNL     1       6.886  -2.615   8.890  1.00  0.00     0.031 C 
ATOM     47  C   UNL     1       9.683  -1.256   4.928  1.00  0.00     0.029 A 
ATOM     48  N   UNL     1      10.638  -1.145   6.944  1.00  0.00    -0.354 N 
ATOM     49  C   UNL     1       8.353  -2.015  10.533  1.00  0.00     0.074 A 
ATOM     50  C   UNL     1       7.009  -2.426  10.194  1.00  0.00     0.031 C 
ATOM     51  C   UNL     1      10.944  -0.832   4.752  1.00  0.00     0.029 A 
ATOM     52  C   UNL     1      11.593  -0.710   6.053  1.00  0.00     0.049 A 
ATOM     53  H   UNL     1      10.793  -1.197   7.915  1.00  0.00     0.167 HD
ATOM     54  C   UNL     1       8.831  -1.938  11.800  1.00  0.00     0.034 A 
ATOM     55  C   UNL     1      12.844  -0.251   6.260  1.00  0.00     0.034 A 
ATOM     56  C   UNL     1      10.187  -1.561  12.113  1.00  0.00     0.049 A 
ATOM     57  C   UNL     1      13.360  -0.176   7.675  1.00  0.00     0.074 A 
ATOM     58  C   UNL     1      10.807  -1.519  13.348  1.00  0.00     0.029 A 
ATOM     59  N   UNL     1      11.135  -1.159  11.179  1.00  0.00    -0.354 N 
ATOM     60  N   UNL     1      12.740  -0.464   8.797  1.00  0.00    -0.248 NA
ATOM     61  C   UNL     1      14.745   0.276   7.851  1.00  0.00     0.031 C 
ATOM     62  C   UNL     1      12.103  -1.021  13.171  1.00  0.00     0.029 A 
ATOM     63  C   UNL     1      12.323  -0.837  11.815  1.00  0.00     0.049 A 
ATOM     64  H   UNL     1      10.984  -1.109  10.207  1.00  0.00     0.167 HD
ATOM     65  C   UNL     1      13.674  -0.260   9.810  1.00  0.00     0.074 A 
ATOM     66  C   UNL     1      14.900   0.160   9.161  1.00  0.00     0.031 C 
ATOM     67  C   UNL     1      13.534  -0.410  11.152  1.00  0.00     0.034 A 
BRANCH  54  68
ATOM     68  C   UNL     1       7.872  -2.251  12.928  1.00  0.00     0.023 A 
ATOM     69  C   UNL     1       7.240  -3.503  13.036  1.00  0.00     0.031 A 
ATOM     70  C   UNL     1       7.548  -1.272  13.883  1.00  0.00     0.131 A 
ATOM     71  C   UNL     1       6.248  -3.709  14.006  1.00  0.00     0.055 A 
ATOM     72  C   UNL     1       6.631  -1.517  14.909  1.00  0.00     0.041 A 
ATOM     73  F   UNL     1       8.099  -0.050  13.825  1.00  0.00    -0.206 F 
ATOM     74  C   UNL     1       5.959  -2.735  14.962  1.00  0.00     0.022 A 
BRANCH  71  75
ATOM     75  S   UNL     1       5.219  -5.199  13.884  1.00  0.00     0.124 S 
ATOM     76  O   UNL     1       4.650  -5.053  12.546  1.00  0.00    -0.237 OA
ATOM     77  O   UNL     1       6.194  -6.270  14.051  1.00  0.00    -0.237 OA
ATOM     78  O   UNL     1       4.264  -5.046  14.980  1.00  0.00    -0.744 OA
ENDBRANCH  71  75
ENDBRANCH  54  68
BRANCH  55  79
ATOM     79  C   UNL     1      13.696   0.170   5.110  1.00  0.00     0.023 A 
ATOM     80  C   UNL     1      14.876  -0.523   4.793  1.00  0.00     0.031 A 
ATOM     81  C   UNL     1      13.361   1.288   4.325  1.00  0.00     0.131 A 
ATOM     82  C   UNL     1      15.699  -0.068   3.751  1.00  0.00     0.055 A 
ATOM     83  C   UNL     1      14.154   1.704   3.254  1.00  0.00     0.041 A 
ATOM     84  F   UNL     1      12.241   1.984   4.578  1.00  0.00    -0.206 F 
ATOM     85  C   UNL     1      15.338   1.031   2.970  1.00  0.00     0.022 A 
BRANCH  82  86
ATOM     86  S   UNL     1      17.294  -0.890   3.481  1.00  0.00     0.124 S 
ATOM     87  O   UNL     1      17.942  -0.712   4.775  1.00  0.00    -0.237 OA
ATOM     88  O   UNL     1      16.881  -2.249   3.150  1.00  0.00    -0.237 OA
ATOM     89  O   UNL     1      17.882  -0.134   2.377  1.00  0.00    -0.744 OA
ENDBRANCH  82  86
ENDBRANCH  55  79
BRANCH  67  90
ATOM     90  C   UNL     1      14.758  -0.166  12.002  1.00  0.00     0.023 A 
ATOM     91  C   UNL     1      15.346   1.106  12.109  1.00  0.00     0.031 A 
ATOM     92  C   UNL     1      15.349  -1.229  12.709  1.00  0.00     0.131 A 
ATOM     93  C   UNL     1      16.522   1.271  12.855  1.00  0.00     0.055 A 
ATOM     94  C   UNL     1      16.478  -1.044  13.506  1.00  0.00     0.041 A 
ATOM     95  F   UNL     1      14.833  -2.467  12.640  1.00  0.00    -0.206 F 
ATOM     96  C   UNL     1      17.081   0.208  13.571  1.00  0.00     0.022 A 
BRANCH  93  97
ATOM     97  S   UNL     1      17.375   2.870  12.790  1.00  0.00     0.124 S 
ATOM     98  O   UNL     1      17.620   3.024  11.360  1.00  0.00    -0.237 OA
ATOM     99  O   UNL     1      16.387   3.774  13.368  1.00  0.00    -0.237 OA
ATOM    100  O   UNL     1      18.570   2.654  13.604  1.00  0.00    -0.744 OA
ENDBRANCH  93  97
ENDBRANCH  67  90
ENDBRANCH  41  42
ENDBRANCH  33  36
ENDBRANCH  31  32
ENDBRANCH  30  31
ENDBRANCH   1  30
TORSDOF 17
