REMARK SMILES CC(C)N(CC1CC1)C(=O)NC1(CC(=O)NCCCNC(=O)c2ccc(-c3c4nc(c(-c5cc(S(=O)(=O)[O-])ccc5F)c5ccc([nH]5)c(-c5cc(S(=O)(=O)[O-])ccc5F)c5nc(c(-c6cc(S(=O)(=O)[O-])ccc6F)c6ccc3[nH]6)C=C5)C=C4)cc2)CCC1
REMARK SMILES IDX 17 1 16 2 14 3 15 4 13 6 12 7 86 8 88 9 87 10 11 11 9 12
REMARK SMILES IDX 10 13 4 15 2 16 1 17 3 18 5 19 6 20 7 21 8 22 18 23 19 24
REMARK SMILES IDX 20 25 21 26 22 28 23 29 24 30 85 31 25 32 84 33 26 34 27 35
REMARK SMILES IDX 28 36 78 37 29 38 83 39 77 40 79 41 30 42 82 43 76 44 75 45
REMARK SMILES IDX 31 47 63 48 43 49 62 50 44 51 47 52 61 53 80 54 45 55 46 56
REMARK SMILES IDX 60 58 81 59 48 60 32 61 33 62 41 63 34 64 40 65 42 66 39 67
REMARK SMILES IDX 35 68 36 69 37 70 38 71 64 72 65 73 73 74 66 75 72 76 74 77
REMARK SMILES IDX 71 78 67 79 68 80 69 81 70 82 49 83 50 84 58 85 51 86 57 87
REMARK SMILES IDX 59 88 56 89 52 90 53 91 54 92 55 93
REMARK H PARENT 16 5 11 14 20 27 79 46 47 57
REMARK Flexibility Score: inf
ROOT
ATOM      1  C   UNL     1      -4.052   2.656  -2.854  1.00  0.00     0.117 C 
ENDROOT
BRANCH   1   2
ATOM      2  N   UNL     1      -2.799   1.948  -2.681  1.00  0.00    -0.356 N 
ATOM      3  C   UNL     1      -2.595   0.816  -1.952  1.00  0.00     0.222 C 
ATOM      4  O   UNL     1      -1.524   0.730  -1.360  1.00  0.00    -0.275 OA
ATOM      5  H   UNL     1      -2.014   2.326  -3.139  1.00  0.00     0.163 HD
BRANCH   3   6
ATOM      6  C   UNL     1      -3.606  -0.298  -2.042  1.00  0.00     0.128 C 
BRANCH   6   7
ATOM      7  C   UNL     1      -3.991  -1.063  -0.774  1.00  0.00     0.051 C 
ATOM      8  C   UNL     1      -5.090  -2.182  -0.969  1.00  0.00     0.029 C 
ATOM      9  C   UNL     1      -5.126  -0.312   0.033  1.00  0.00     0.029 C 
ATOM     10  C   UNL     1      -6.171  -1.115  -0.758  1.00  0.00     0.005 C 
BRANCH   7  11
ATOM     11  N   UNL     1      -2.932  -1.520   0.154  1.00  0.00    -0.332 N 
ATOM     12  C   UNL     1      -1.639  -1.876   0.236  1.00  0.00     0.318 C 
ATOM     13  O   UNL     1      -1.268  -2.033   1.410  1.00  0.00    -0.249 OA
ATOM     14  H   UNL     1      -3.325  -1.588   1.054  1.00  0.00     0.165 HD
BRANCH  12  15
ATOM     15  N   UNL     1      -0.770  -2.045  -0.795  1.00  0.00    -0.322 N 
BRANCH  15  16
ATOM     16  C   UNL     1       0.674  -1.827  -0.508  1.00  0.00     0.080 C 
ATOM     17  C   UNL     1       1.005  -0.542   0.269  1.00  0.00     0.031 C 
ATOM     18  C   UNL     1       1.321  -3.047   0.149  1.00  0.00     0.031 C 
ENDBRANCH  15  16
BRANCH  15  19
ATOM     19  C   UNL     1      -1.048  -2.403  -2.183  1.00  0.00     0.125 C 
BRANCH  19  20
ATOM     20  C   UNL     1      -2.123  -3.417  -2.392  1.00  0.00     0.009 C 
ATOM     21  C   UNL     1      -2.050  -4.340  -3.582  1.00  0.00     0.006 C 
ATOM     22  C   UNL     1      -1.943  -4.894  -2.186  1.00  0.00     0.006 C 
ENDBRANCH  19  20
ENDBRANCH  15  19
ENDBRANCH  12  15
ENDBRANCH   7  11
ENDBRANCH   6   7
ENDBRANCH   3   6
ENDBRANCH   1   2
BRANCH   1  23
ATOM     23  C   UNL     1      -4.436   3.378  -1.565  1.00  0.00     0.042 C 
BRANCH  23  24
ATOM     24  C   UNL     1      -3.298   4.216  -0.989  1.00  0.00     0.118 C 
BRANCH  24  25
ATOM     25  N   UNL     1      -2.872   5.237  -1.934  1.00  0.00    -0.352 N 
ATOM     26  C   UNL     1      -3.357   6.510  -2.081  1.00  0.00     0.251 C 
ATOM     27  H   UNL     1      -2.143   4.982  -2.544  1.00  0.00     0.163 HD
ATOM     28  O   UNL     1      -3.222   7.091  -3.157  1.00  0.00    -0.269 OA
BRANCH  26  29
ATOM     29  C   UNL     1      -4.044   7.160  -0.949  1.00  0.00     0.039 A 
ATOM     30  C   UNL     1      -5.160   7.962  -1.189  1.00  0.00     0.014 A 
ATOM     31  C   UNL     1      -3.555   7.003   0.352  1.00  0.00     0.014 A 
ATOM     32  C   UNL     1      -5.796   8.587  -0.116  1.00  0.00     0.010 A 
ATOM     33  C   UNL     1      -4.253   7.534   1.427  1.00  0.00     0.010 A 
ATOM     34  C   UNL     1      -5.355   8.367   1.200  1.00  0.00    -0.014 A 
BRANCH  34  35
ATOM     35  C   UNL     1      -5.996   9.062   2.343  1.00  0.00     0.031 A 
ATOM     36  C   UNL     1      -5.198  10.040   3.166  1.00  0.00     0.074 A 
ATOM     37  C   UNL     1      -7.279   8.789   2.647  1.00  0.00     0.049 A 
ATOM     38  N   UNL     1      -5.574  10.761   4.190  1.00  0.00    -0.248 NA
ATOM     39  C   UNL     1      -3.778  10.199   2.815  1.00  0.00     0.031 C 
ATOM     40  C   UNL     1      -8.118   7.802   1.963  1.00  0.00     0.029 A 
ATOM     41  N   UNL     1      -8.105   9.322   3.602  1.00  0.00    -0.354 N 
ATOM     42  C   UNL     1      -4.436  11.442   4.612  1.00  0.00     0.074 A 
ATOM     43  C   UNL     1      -3.342  10.984   3.787  1.00  0.00     0.031 C 
ATOM     44  C   UNL     1      -9.353   7.835   2.489  1.00  0.00     0.029 A 
ATOM     45  C   UNL     1      -9.385   8.821   3.563  1.00  0.00     0.049 A 
ATOM     46  H   UNL     1      -7.810   9.998   4.253  1.00  0.00     0.167 HD
ATOM     47  C   UNL     1      -4.322  12.389   5.577  1.00  0.00     0.034 A 
ATOM     48  C   UNL     1     -10.464   9.138   4.303  1.00  0.00     0.034 A 
ATOM     49  C   UNL     1      -5.436  12.846   6.370  1.00  0.00     0.049 A 
ATOM     50  C   UNL     1     -10.327  10.226   5.337  1.00  0.00     0.074 A 
ATOM     51  C   UNL     1      -5.464  13.835   7.336  1.00  0.00     0.029 A 
ATOM     52  N   UNL     1      -6.728  12.338   6.285  1.00  0.00    -0.354 N 
ATOM     53  N   UNL     1      -9.260  10.914   5.678  1.00  0.00    -0.248 NA
ATOM     54  C   UNL     1     -11.544  10.597   6.065  1.00  0.00     0.031 C 
ATOM     55  C   UNL     1      -6.756  13.887   7.873  1.00  0.00     0.029 A 
ATOM     56  C   UNL     1      -7.554  12.979   7.195  1.00  0.00     0.049 A 
ATOM     57  H   UNL     1      -7.014  11.627   5.668  1.00  0.00     0.167 HD
ATOM     58  C   UNL     1      -9.685  11.814   6.649  1.00  0.00     0.074 A 
ATOM     59  C   UNL     1     -11.111  11.602   6.810  1.00  0.00     0.031 C 
ATOM     60  C   UNL     1      -8.968  12.730   7.352  1.00  0.00     0.034 A 
BRANCH  47  61
ATOM     61  C   UNL     1      -2.946  12.966   5.823  1.00  0.00     0.023 A 
ATOM     62  C   UNL     1      -2.244  13.660   4.819  1.00  0.00     0.031 A 
ATOM     63  C   UNL     1      -2.303  12.778   7.059  1.00  0.00     0.131 A 
ATOM     64  C   UNL     1      -0.917  14.060   5.037  1.00  0.00     0.055 A 
ATOM     65  C   UNL     1      -1.012  13.256   7.299  1.00  0.00     0.041 A 
ATOM     66  F   UNL     1      -2.910  12.107   8.050  1.00  0.00    -0.206 F 
ATOM     67  C   UNL     1      -0.304  13.885   6.279  1.00  0.00     0.022 A 
BRANCH  64  68
ATOM     68  S   UNL     1       0.047  14.671   3.626  1.00  0.00     0.124 S 
ATOM     69  O   UNL     1       0.006  13.523   2.723  1.00  0.00    -0.237 OA
ATOM     70  O   UNL     1      -0.713  15.842   3.207  1.00  0.00    -0.237 OA
ATOM     71  O   UNL     1       1.360  14.952   4.204  1.00  0.00    -0.744 OA
ENDBRANCH  64  68
ENDBRANCH  47  61
BRANCH  48  72
ATOM     72  C   UNL     1     -11.765   8.447   4.079  1.00  0.00     0.023 A 
ATOM     73  C   UNL     1     -12.882   9.145   3.590  1.00  0.00     0.031 A 
ATOM     74  C   UNL     1     -11.920   7.081   4.373  1.00  0.00     0.131 A 
ATOM     75  C   UNL     1     -14.114   8.488   3.455  1.00  0.00     0.055 A 
ATOM     76  C   UNL     1     -13.136   6.420   4.191  1.00  0.00     0.041 A 
ATOM     77  F   UNL     1     -10.880   6.364   4.829  1.00  0.00    -0.206 F 
ATOM     78  C   UNL     1     -14.246   7.128   3.742  1.00  0.00     0.022 A 
BRANCH  75  79
ATOM     79  S   UNL     1     -15.567   9.459   2.966  1.00  0.00     0.124 S 
ATOM     80  O   UNL     1     -15.608  10.480   4.005  1.00  0.00    -0.237 OA
ATOM     81  O   UNL     1     -15.190   9.915   1.632  1.00  0.00    -0.237 OA
ATOM     82  O   UNL     1     -16.655   8.484   3.003  1.00  0.00    -0.744 OA
ENDBRANCH  75  79
ENDBRANCH  48  72
BRANCH  60  83
ATOM     83  C   UNL     1      -9.739  13.573   8.337  1.00  0.00     0.023 A 
ATOM     84  C   UNL     1     -10.359  13.002   9.462  1.00  0.00     0.031 A 
ATOM     85  C   UNL     1      -9.899  14.953   8.123  1.00  0.00     0.131 A 
ATOM     86  C   UNL     1     -11.179  13.789  10.283  1.00  0.00     0.055 A 
ATOM     87  C   UNL     1     -10.657  15.746   8.984  1.00  0.00     0.041 A 
ATOM     88  F   UNL     1      -9.329  15.551   7.064  1.00  0.00    -0.206 F 
ATOM     89  C   UNL     1     -11.320  15.161  10.060  1.00  0.00     0.022 A 
BRANCH  86  90
ATOM     90  S   UNL     1     -12.168  12.966  11.562  1.00  0.00     0.124 S 
ATOM     91  O   UNL     1     -12.902  11.972  10.785  1.00  0.00    -0.237 OA
ATOM     92  O   UNL     1     -11.142  12.445  12.459  1.00  0.00    -0.237 OA
ATOM     93  O   UNL     1     -12.982  14.048  12.112  1.00  0.00    -0.744 OA
ENDBRANCH  86  90
ENDBRANCH  60  83
ENDBRANCH  34  35
ENDBRANCH  26  29
ENDBRANCH  24  25
ENDBRANCH  23  24
ENDBRANCH   1  23
TORSDOF 19
