REMARK SMILES CC[C@H](NC(=O)c1nn(C)cc1C(=O)NCCCNC(=O)c1ccc(-c2c3nc(c(-c4cc(S(=O)(=O)[O-])ccc4F)c4ccc([nH]4)c(-c4cc(S(=O)(=O)[O-])ccc4F)c4nc(c(-c5cc(S(=O)(=O)[O-])ccc5F)c5ccc2[nH]5)C=C4)C=C3)cc1)c1ccccc1
REMARK SMILES IDX 17 1 16 2 15 3 13 4 14 5 12 7 7 8 8 9 9 10 11 11 10 12 5 13
REMARK SMILES IDX 4 14 6 16 3 17 2 18 1 19 85 20 86 21 90 22 87 23 89 24 88 25
REMARK SMILES IDX 18 26 19 27 20 28 21 30 22 31 23 32 84 33 24 34 83 35 25 36
REMARK SMILES IDX 26 37 27 38 77 39 28 40 82 41 76 42 78 43 29 44 81 45 75 46
REMARK SMILES IDX 74 47 30 49 62 50 42 51 61 52 43 53 46 54 60 55 79 56 44 57
REMARK SMILES IDX 45 58 59 60 80 61 47 62 31 63 32 64 40 65 33 66 39 67 41 68
REMARK SMILES IDX 38 69 34 70 35 71 36 72 37 73 63 74 64 75 72 76 65 77 71 78
REMARK SMILES IDX 73 79 70 80 66 81 67 82 68 83 69 84 48 85 49 86 57 87 50 88
REMARK SMILES IDX 56 89 58 90 55 91 51 92 52 93 53 94 54 95
REMARK H PARENT 15 6 4 15 19 29 78 48 46 59
REMARK Flexibility Score: inf
ROOT
ATOM      1  C   UNL     1      -2.852   0.759   6.938  1.00  0.00     0.042 C 
ENDROOT
BRANCH   1   2
ATOM      2  C   UNL     1      -3.788   0.396   5.790  1.00  0.00     0.118 C 
BRANCH   2   3
ATOM      3  N   UNL     1      -3.212   0.690   4.491  1.00  0.00    -0.352 N 
ATOM      4  C   UNL     1      -2.578  -0.035   3.521  1.00  0.00     0.255 C 
ATOM      5  O   UNL     1      -2.206   0.623   2.546  1.00  0.00    -0.269 OA
ATOM      6  H   UNL     1      -3.299   1.640   4.250  1.00  0.00     0.163 HD
BRANCH   4   7
ATOM      7  C   UNL     1      -2.361  -1.466   3.576  1.00  0.00     0.090 A 
ATOM      8  C   UNL     1      -1.659  -2.247   2.589  1.00  0.00     0.162 A 
ATOM      9  N   UNL     1      -1.722  -3.567   2.872  1.00  0.00    -0.167 NA
ATOM     10  N   UNL     1      -2.403  -3.627   4.015  1.00  0.00    -0.274 N 
ATOM     11  C   UNL     1      -2.780  -2.410   4.495  1.00  0.00     0.123 A 
ATOM     12  C   UNL     1      -2.721  -4.917   4.577  1.00  0.00     0.173 C 
BRANCH   8  13
ATOM     13  C   UNL     1      -1.013  -1.843   1.333  1.00  0.00     0.273 C 
ATOM     14  N   UNL     1       0.264  -1.335   1.317  1.00  0.00    -0.344 N 
ATOM     15  H   UNL     1       0.758  -1.555   0.495  1.00  0.00     0.164 HD
ATOM     16  O   UNL     1      -1.514  -2.111   0.237  1.00  0.00    -0.267 OA
BRANCH  14  17
ATOM     17  C   UNL     1       1.045  -0.535   2.263  1.00  0.00     0.112 C 
BRANCH  17  18
ATOM     18  C   UNL     1       0.809   0.989   2.048  1.00  0.00     0.026 C 
ATOM     19  C   UNL     1       0.186   1.389   0.710  1.00  0.00     0.006 C 
ENDBRANCH  17  18
BRANCH  17  20
ATOM     20  C   UNL     1       1.046  -1.063   3.692  1.00  0.00    -0.026 A 
ATOM     21  C   UNL     1       0.829  -0.256   4.821  1.00  0.00     0.006 A 
ATOM     22  C   UNL     1       1.274  -2.435   3.912  1.00  0.00     0.006 A 
ATOM     23  C   UNL     1       0.753  -0.813   6.102  1.00  0.00     0.000 A 
ATOM     24  C   UNL     1       1.182  -2.994   5.189  1.00  0.00     0.000 A 
ATOM     25  C   UNL     1       0.905  -2.183   6.284  1.00  0.00     0.000 A 
ENDBRANCH  17  20
ENDBRANCH  14  17
ENDBRANCH   8  13
ENDBRANCH   4   7
ENDBRANCH   2   3
ENDBRANCH   1   2
BRANCH   1  26
ATOM     26  C   UNL     1      -2.411   2.224   6.928  1.00  0.00     0.118 C 
BRANCH  26  27
ATOM     27  N   UNL     1      -3.545   3.139   6.989  1.00  0.00    -0.352 N 
ATOM     28  C   UNL     1      -4.040   3.868   8.041  1.00  0.00     0.251 C 
ATOM     29  H   UNL     1      -4.032   3.251   6.141  1.00  0.00     0.163 HD
ATOM     30  O   UNL     1      -5.173   4.335   7.965  1.00  0.00    -0.269 OA
BRANCH  28  31
ATOM     31  C   UNL     1      -3.225   4.082   9.254  1.00  0.00     0.039 A 
ATOM     32  C   UNL     1      -3.833   3.998  10.510  1.00  0.00     0.014 A 
ATOM     33  C   UNL     1      -1.872   4.417   9.153  1.00  0.00     0.014 A 
ATOM     34  C   UNL     1      -3.071   4.189  11.665  1.00  0.00     0.010 A 
ATOM     35  C   UNL     1      -1.099   4.536  10.305  1.00  0.00     0.010 A 
ATOM     36  C   UNL     1      -1.690   4.427  11.573  1.00  0.00    -0.014 A 
BRANCH  36  37
ATOM     37  C   UNL     1      -0.841   4.585  12.784  1.00  0.00     0.031 A 
ATOM     38  C   UNL     1      -0.136   5.890  13.038  1.00  0.00     0.074 A 
ATOM     39  C   UNL     1      -0.639   3.533  13.602  1.00  0.00     0.049 A 
ATOM     40  N   UNL     1       0.758   6.186  13.946  1.00  0.00    -0.248 NA
ATOM     41  C   UNL     1      -0.459   6.997  12.127  1.00  0.00     0.031 C 
ATOM     42  C   UNL     1      -1.249   2.211  13.446  1.00  0.00     0.029 A 
ATOM     43  N   UNL     1       0.151   3.403  14.717  1.00  0.00    -0.354 N 
ATOM     44  C   UNL     1       1.121   7.507  13.703  1.00  0.00     0.074 A 
ATOM     45  C   UNL     1       0.390   7.932  12.528  1.00  0.00     0.031 C 
ATOM     46  C   UNL     1      -0.821   1.410  14.434  1.00  0.00     0.029 A 
ATOM     47  C   UNL     1       0.134   2.140  15.262  1.00  0.00     0.049 A 
ATOM     48  H   UNL     1       0.681   4.144  15.091  1.00  0.00     0.167 HD
ATOM     49  C   UNL     1       1.972   8.296  14.406  1.00  0.00     0.034 A 
ATOM     50  C   UNL     1       0.826   1.622  16.297  1.00  0.00     0.034 A 
ATOM     51  C   UNL     1       2.680   7.858  15.584  1.00  0.00     0.049 A 
ATOM     52  C   UNL     1       1.788   2.508  17.047  1.00  0.00     0.074 A 
ATOM     53  C   UNL     1       3.530   8.586  16.400  1.00  0.00     0.029 A 
ATOM     54  N   UNL     1       2.627   6.575  16.114  1.00  0.00    -0.354 N 
ATOM     55  N   UNL     1       2.099   3.764  16.823  1.00  0.00    -0.248 NA
ATOM     56  C   UNL     1       2.485   1.911  18.194  1.00  0.00     0.031 C 
ATOM     57  C   UNL     1       4.041   7.727  17.379  1.00  0.00     0.029 A 
ATOM     58  C   UNL     1       3.448   6.484  17.228  1.00  0.00     0.049 A 
ATOM     59  H   UNL     1       2.085   5.837  15.752  1.00  0.00     0.167 HD
ATOM     60  C   UNL     1       2.997   4.117  17.827  1.00  0.00     0.074 A 
ATOM     61  C   UNL     1       3.173   2.944  18.658  1.00  0.00     0.031 C 
ATOM     62  C   UNL     1       3.612   5.307  18.048  1.00  0.00     0.034 A 
BRANCH  49  63
ATOM     63  C   UNL     1       2.200   9.701  13.897  1.00  0.00     0.023 A 
ATOM     64  C   UNL     1       1.155  10.639  13.820  1.00  0.00     0.031 A 
ATOM     65  C   UNL     1       3.474  10.101  13.457  1.00  0.00     0.131 A 
ATOM     66  C   UNL     1       1.383  11.896  13.241  1.00  0.00     0.055 A 
ATOM     67  C   UNL     1       3.714  11.385  12.963  1.00  0.00     0.041 A 
ATOM     68  F   UNL     1       4.508   9.245  13.486  1.00  0.00    -0.206 F 
ATOM     69  C   UNL     1       2.661  12.286  12.837  1.00  0.00     0.022 A 
BRANCH  66  70
ATOM     70  S   UNL     1      -0.046  12.956  12.886  1.00  0.00     0.124 S 
ATOM     71  O   UNL     1      -0.833  12.100  12.001  1.00  0.00    -0.237 OA
ATOM     72  O   UNL     1      -0.604  13.188  14.213  1.00  0.00    -0.237 OA
ATOM     73  O   UNL     1       0.547  14.126  12.243  1.00  0.00    -0.744 OA
ENDBRANCH  66  70
ENDBRANCH  49  63
BRANCH  50  74
ATOM     74  C   UNL     1       0.650   0.191  16.681  1.00  0.00     0.023 A 
ATOM     75  C   UNL     1       0.111  -0.160  17.928  1.00  0.00     0.031 A 
ATOM     76  C   UNL     1       1.055  -0.846  15.822  1.00  0.00     0.131 A 
ATOM     77  C   UNL     1       0.036  -1.511  18.302  1.00  0.00     0.055 A 
ATOM     78  C   UNL     1       0.927  -2.190  16.176  1.00  0.00     0.041 A 
ATOM     79  F   UNL     1       1.571  -0.566  14.614  1.00  0.00    -0.206 F 
ATOM     80  C   UNL     1       0.427  -2.529  17.430  1.00  0.00     0.022 A 
BRANCH  77  81
ATOM     81  S   UNL     1      -0.504  -1.915  19.986  1.00  0.00     0.124 S 
ATOM     82  O   UNL     1       0.473  -1.193  20.792  1.00  0.00    -0.237 OA
ATOM     83  O   UNL     1      -1.865  -1.390  20.001  1.00  0.00    -0.237 OA
ATOM     84  O   UNL     1      -0.400  -3.372  20.035  1.00  0.00    -0.744 OA
ENDBRANCH  77  81
ENDBRANCH  50  74
BRANCH  62  85
ATOM     85  C   UNL     1       4.481   5.416  19.277  1.00  0.00     0.023 A 
ATOM     86  C   UNL     1       5.689   4.709  19.403  1.00  0.00     0.031 A 
ATOM     87  C   UNL     1       4.089   6.251  20.339  1.00  0.00     0.131 A 
ATOM     88  C   UNL     1       6.438   4.812  20.585  1.00  0.00     0.055 A 
ATOM     89  C   UNL     1       4.867   6.395  21.488  1.00  0.00     0.041 A 
ATOM     90  F   UNL     1       2.943   6.948  20.273  1.00  0.00    -0.206 F 
ATOM     91  C   UNL     1       6.044   5.664  21.620  1.00  0.00     0.022 A 
BRANCH  88  92
ATOM     92  S   UNL     1       7.899   3.755  20.788  1.00  0.00     0.124 S 
ATOM     93  O   UNL     1       7.325   2.419  20.668  1.00  0.00    -0.237 OA
ATOM     94  O   UNL     1       8.751   4.184  19.684  1.00  0.00    -0.237 OA
ATOM     95  O   UNL     1       8.391   4.102  22.120  1.00  0.00    -0.744 OA
ENDBRANCH  88  92
ENDBRANCH  62  85
ENDBRANCH  36  37
ENDBRANCH  28  31
ENDBRANCH  26  27
ENDBRANCH   1  26
TORSDOF 17
