REMARK SMILES COc1ccc(/C=C2/SC(=S)N(NC(=O)c3ccc(C(C)(C)C)cc3)C2=O)c(C(=O)NCCCNC(=O)c2ccc(-c3c4nc(c(-c5cc(S(=O)(=O)[O-])ccc5F)c5ccc([nH]5)c(-c5cc(S(=O)(=O)[O-])ccc5F)c5nc(c(-c6cc(S(=O)(=O)[O-])ccc6F)c6ccc3[nH]6)C=C5)C=C4)cc2)c1OC
REMARK SMILES IDX 32 1 31 2 29 3 30 4 28 6 3 7 4 8 101 9 5 10 6 11 2 12 1 13
REMARK SMILES IDX 102 14 103 15 7 16 8 17 9 18 26 19 10 20 12 21 27 22 11 23
REMARK SMILES IDX 13 24 14 25 15 27 16 28 17 29 25 30 18 31 24 32 19 33 20 34
REMARK SMILES IDX 21 35 22 36 23 37 33 38 34 39 35 40 36 41 37 43 38 44 39 45
REMARK SMILES IDX 100 46 40 47 99 48 41 49 42 50 43 51 93 52 44 53 98 54 92 55
REMARK SMILES IDX 94 56 45 57 97 58 91 59 90 60 46 62 78 63 58 64 77 65 59 66
REMARK SMILES IDX 62 67 76 68 95 69 60 70 61 71 75 73 96 74 63 75 47 76 48 77
REMARK SMILES IDX 56 78 49 79 55 80 57 81 54 82 50 83 51 84 52 85 53 86 79 87
REMARK SMILES IDX 80 88 88 89 81 90 87 91 89 92 86 93 82 94 83 95 84 96 85 97
REMARK SMILES IDX 64 98 65 99 73 100 66 101 72 102 74 103 71 104 67 105 68 106
REMARK SMILES IDX 69 107 70 108
REMARK H PARENT 31 5 13 26 35 42 94 61 62 72
REMARK Flexibility Score: inf
ROOT
ATOM      1  C   UNL     1       5.891   1.919  -1.837  1.00  0.00     0.118 C 
ENDROOT
BRANCH   1   2
ATOM      2  N   UNL     1       5.363   2.764  -2.878  1.00  0.00    -0.352 N 
ATOM      3  C   UNL     1       4.138   3.217  -3.278  1.00  0.00     0.255 C 
ATOM      4  O   UNL     1       4.192   4.312  -3.859  1.00  0.00    -0.269 OA
ATOM      5  H   UNL     1       6.080   3.108  -3.458  1.00  0.00     0.163 HD
BRANCH   3   6
ATOM      6  C   UNL     1       2.802   2.524  -3.268  1.00  0.00     0.092 A 
ATOM      7  C   UNL     1       0.696   1.743  -2.268  1.00  0.00     0.161 A 
ATOM      8  C   UNL     1       0.077   1.952  -3.514  1.00  0.00     0.051 A 
ATOM      9  C   UNL     1       2.090   2.005  -2.127  1.00  0.00     0.174 A 
ATOM     10  C   UNL     1       0.747   2.404  -4.618  1.00  0.00     0.013 A 
ATOM     11  C   UNL     1       2.105   2.684  -4.522  1.00  0.00    -0.007 A 
BRANCH   7  12
ATOM     12  O   UNL     1      -0.346   1.354  -1.514  1.00  0.00    -0.493 OA
ATOM     13  C   UNL     1      -0.736   1.086  -0.201  1.00  0.00     0.278 C 
ENDBRANCH   7  12
BRANCH   9  14
ATOM     14  O   UNL     1       2.719   2.010  -0.902  1.00  0.00    -0.492 OA
ATOM     15  C   UNL     1       3.118   0.727  -0.409  1.00  0.00     0.278 C 
ENDBRANCH   9  14
BRANCH  11  16
ATOM     16  C   UNL     1       2.609   3.211  -5.813  1.00  0.00     0.030 C 
ATOM     17  C   UNL     1       3.513   2.615  -6.598  1.00  0.00     0.082 C 
ATOM     18  S   UNL     1       3.776   3.031  -8.253  1.00  0.00    -0.052 SA
ATOM     19  C   UNL     1       4.295   1.413  -6.267  1.00  0.00     0.285 C 
ATOM     20  C   UNL     1       4.590   1.498  -8.579  1.00  0.00     0.168 C 
ATOM     21  N   UNL     1       4.631   0.747  -7.416  1.00  0.00    -0.198 N 
ATOM     22  O   UNL     1       4.663   1.118  -5.128  1.00  0.00    -0.266 OA
ATOM     23  S   UNL     1       5.224   1.109 -10.072  1.00  0.00    -0.050 S 
BRANCH  21  24
ATOM     24  N   UNL     1       5.296  -0.486  -7.370  1.00  0.00    -0.255 N 
ATOM     25  C   UNL     1       5.186  -1.493  -6.424  1.00  0.00     0.270 C 
ATOM     26  H   UNL     1       5.926  -0.660  -8.107  1.00  0.00     0.192 HD
ATOM     27  O   UNL     1       6.043  -2.380  -6.449  1.00  0.00    -0.267 OA
BRANCH  25  28
ATOM     28  C   UNL     1       4.116  -1.583  -5.380  1.00  0.00     0.041 A 
ATOM     29  C   UNL     1       4.468  -2.083  -4.117  1.00  0.00     0.014 A 
ATOM     30  C   UNL     1       2.782  -1.245  -5.596  1.00  0.00     0.014 A 
ATOM     31  C   UNL     1       3.512  -2.244  -3.092  1.00  0.00     0.005 A 
ATOM     32  C   UNL     1       1.830  -1.402  -4.564  1.00  0.00     0.005 A 
ATOM     33  C   UNL     1       2.155  -1.945  -3.299  1.00  0.00    -0.043 A 
BRANCH  33  34
ATOM     34  C   UNL     1       1.074  -2.332  -2.250  1.00  0.00    -0.013 C 
ATOM     35  C   UNL     1       1.206  -3.822  -1.882  1.00  0.00     0.016 C 
ATOM     36  C   UNL     1       1.171  -1.617  -0.898  1.00  0.00     0.016 C 
ATOM     37  C   UNL     1      -0.359  -2.074  -2.771  1.00  0.00     0.016 C 
ENDBRANCH  33  34
ENDBRANCH  25  28
ENDBRANCH  21  24
ENDBRANCH  11  16
ENDBRANCH   3   6
ENDBRANCH   1   2
BRANCH   1  38
ATOM     38  C   UNL     1       6.221   0.485  -2.227  1.00  0.00     0.042 C 
BRANCH  38  39
ATOM     39  C   UNL     1       7.566   0.005  -1.669  1.00  0.00     0.118 C 
BRANCH  39  40
ATOM     40  N   UNL     1       7.752   0.280  -0.249  1.00  0.00    -0.352 N 
ATOM     41  C   UNL     1       8.272  -0.462   0.781  1.00  0.00     0.251 C 
ATOM     42  H   UNL     1       7.445   1.175   0.024  1.00  0.00     0.163 HD
ATOM     43  O   UNL     1       8.246   0.030   1.909  1.00  0.00    -0.269 OA
BRANCH  41  44
ATOM     44  C   UNL     1       8.814  -1.828   0.587  1.00  0.00     0.039 A 
ATOM     45  C   UNL     1       8.740  -2.724   1.662  1.00  0.00     0.014 A 
ATOM     46  C   UNL     1       9.419  -2.241  -0.599  1.00  0.00     0.014 A 
ATOM     47  C   UNL     1       9.213  -4.031   1.525  1.00  0.00     0.010 A 
ATOM     48  C   UNL     1       9.780  -3.575  -0.774  1.00  0.00     0.010 A 
ATOM     49  C   UNL     1       9.698  -4.484   0.290  1.00  0.00    -0.014 A 
BRANCH  49  50
ATOM     50  C   UNL     1      10.154  -5.887   0.099  1.00  0.00     0.031 A 
ATOM     51  C   UNL     1      11.571  -6.164  -0.336  1.00  0.00     0.074 A 
ATOM     52  C   UNL     1       9.281  -6.901   0.257  1.00  0.00     0.049 A 
ATOM     53  N   UNL     1      12.135  -7.303  -0.648  1.00  0.00    -0.248 NA
ATOM     54  C   UNL     1      12.461  -5.000  -0.474  1.00  0.00     0.031 C 
ATOM     55  C   UNL     1       7.872  -6.753   0.633  1.00  0.00     0.029 A 
ATOM     56  N   UNL     1       9.441  -8.257   0.116  1.00  0.00    -0.354 N 
ATOM     57  C   UNL     1      13.432  -6.989  -1.043  1.00  0.00     0.074 A 
ATOM     58  C   UNL     1      13.546  -5.548  -1.000  1.00  0.00     0.031 C 
ATOM     59  C   UNL     1       7.310  -7.968   0.729  1.00  0.00     0.029 A 
ATOM     60  C   UNL     1       8.295  -8.979   0.363  1.00  0.00     0.049 A 
ATOM     61  H   UNL     1      10.296  -8.674  -0.138  1.00  0.00     0.167 HD
ATOM     62  C   UNL     1      14.443  -7.826  -1.383  1.00  0.00     0.034 A 
ATOM     63  C   UNL     1       8.061 -10.305   0.287  1.00  0.00     0.034 A 
ATOM     64  C   UNL     1      14.314  -9.262  -1.398  1.00  0.00     0.049 A 
ATOM     65  C   UNL     1       9.194 -11.215  -0.113  1.00  0.00     0.074 A 
ATOM     66  C   UNL     1      15.284 -10.212  -1.665  1.00  0.00     0.029 A 
ATOM     67  N   UNL     1      13.138  -9.957  -1.140  1.00  0.00    -0.354 N 
ATOM     68  N   UNL     1      10.431 -10.905  -0.432  1.00  0.00    -0.248 NA
ATOM     69  C   UNL     1       8.905 -12.653  -0.154  1.00  0.00     0.031 C 
ATOM     70  C   UNL     1      14.678 -11.473  -1.646  1.00  0.00     0.029 A 
ATOM     71  C   UNL     1      13.351 -11.320  -1.278  1.00  0.00     0.049 A 
ATOM     72  H   UNL     1      12.279  -9.542  -0.896  1.00  0.00     0.167 HD
ATOM     73  C   UNL     1      11.073 -12.115  -0.680  1.00  0.00     0.074 A 
ATOM     74  C   UNL     1      10.092 -13.157  -0.455  1.00  0.00     0.031 C 
ATOM     75  C   UNL     1      12.357 -12.345  -1.058  1.00  0.00     0.034 A 
BRANCH  62  76
ATOM     76  C   UNL     1      15.761  -7.205  -1.787  1.00  0.00     0.023 A 
ATOM     77  C   UNL     1      16.506  -6.404  -0.902  1.00  0.00     0.031 A 
ATOM     78  C   UNL     1      16.272  -7.396  -3.083  1.00  0.00     0.131 A 
ATOM     79  C   UNL     1      17.672  -5.762  -1.347  1.00  0.00     0.055 A 
ATOM     80  C   UNL     1      17.479  -6.825  -3.493  1.00  0.00     0.041 A 
ATOM     81  F   UNL     1      15.598  -8.130  -3.983  1.00  0.00    -0.206 F 
ATOM     82  C   UNL     1      18.179  -5.989  -2.628  1.00  0.00     0.022 A 
BRANCH  79  83
ATOM     83  S   UNL     1      18.430  -4.506  -0.279  1.00  0.00     0.124 S 
ATOM     84  O   UNL     1      17.331  -3.557  -0.114  1.00  0.00    -0.237 OA
ATOM     85  O   UNL     1      18.793  -5.276   0.905  1.00  0.00    -0.237 OA
ATOM     86  O   UNL     1      19.554  -4.014  -1.073  1.00  0.00    -0.744 OA
ENDBRANCH  79  83
ENDBRANCH  62  76
BRANCH  63  87
ATOM     87  C   UNL     1       6.705 -10.853   0.583  1.00  0.00     0.023 A 
ATOM     88  C   UNL     1       6.498 -11.735   1.656  1.00  0.00     0.031 A 
ATOM     89  C   UNL     1       5.600 -10.536  -0.228  1.00  0.00     0.131 A 
ATOM     90  C   UNL     1       5.232 -12.307   1.860  1.00  0.00     0.055 A 
ATOM     91  C   UNL     1       4.329 -11.060   0.015  1.00  0.00     0.041 A 
ATOM     92  F   UNL     1       5.737  -9.696  -1.266  1.00  0.00    -0.206 F 
ATOM     93  C   UNL     1       4.143 -11.964   1.057  1.00  0.00     0.022 A 
BRANCH  90  94
ATOM     94  S   UNL     1       5.052 -13.586   3.134  1.00  0.00     0.124 S 
ATOM     95  O   UNL     1       6.035 -14.573   2.705  1.00  0.00    -0.237 OA
ATOM     96  O   UNL     1       5.372 -12.848   4.351  1.00  0.00    -0.237 OA
ATOM     97  O   UNL     1       3.656 -13.998   3.007  1.00  0.00    -0.744 OA
ENDBRANCH  90  94
ENDBRANCH  63  87
BRANCH  75  98
ATOM     98  C   UNL     1      12.780 -13.787  -1.204  1.00  0.00     0.023 A 
ATOM     99  C   UNL     1      12.233 -14.624  -2.191  1.00  0.00     0.031 A 
ATOM    100  C   UNL     1      13.740 -14.332  -0.332  1.00  0.00     0.131 A 
ATOM    101  C   UNL     1      12.603 -15.976  -2.244  1.00  0.00     0.055 A 
ATOM    102  C   UNL     1      14.157 -15.659  -0.435  1.00  0.00     0.041 A 
ATOM    103  F   UNL     1      14.292 -13.580   0.634  1.00  0.00    -0.206 F 
ATOM    104  C   UNL     1      13.577 -16.494  -1.385  1.00  0.00     0.022 A 
BRANCH 101 105
ATOM    105  S   UNL     1      11.716 -17.077  -3.379  1.00  0.00     0.124 S 
ATOM    106  O   UNL     1      10.335 -16.922  -2.933  1.00  0.00    -0.237 OA
ATOM    107  O   UNL     1      12.033 -16.503  -4.683  1.00  0.00    -0.237 OA
ATOM    108  O   UNL     1      12.308 -18.388  -3.119  1.00  0.00    -0.744 OA
ENDBRANCH 101 105
ENDBRANCH  75  98
ENDBRANCH  49  50
ENDBRANCH  41  44
ENDBRANCH  39  40
ENDBRANCH  38  39
ENDBRANCH   1  38
TORSDOF 19
