REMARK SMILES CC[C@@H](C(=O)NCCCNC(=O)c1ccc(-c2c3nc(c(-c4cc(S(=O)(=O)[O-])ccc4F)c4ccc([nH]4)c(-c4cc(S(=O)(=O)[O-])ccc4F)c4nc(c(-c5cc(S(=O)(=O)[O-])ccc5F)c5ccc2[nH]5)C=C4)C=C3)cc1)N1CCN(Cc2cccc(C)c2)C(=O)C1=O
REMARK SMILES IDX 8 1 7 2 6 3 4 4 5 5 3 7 2 8 1 9 76 10 77 11 90 12 78 13
REMARK SMILES IDX 88 14 91 15 79 16 89 17 80 18 81 19 82 20 87 21 83 22 85 23
REMARK SMILES IDX 84 24 86 25 9 26 10 27 11 28 12 30 13 31 14 32 75 33 15 34
REMARK SMILES IDX 74 35 16 36 17 37 18 38 68 39 19 40 73 41 67 42 69 43 20 44
REMARK SMILES IDX 72 45 66 46 65 47 21 49 53 50 33 51 52 52 34 53 37 54 51 55
REMARK SMILES IDX 70 56 35 57 36 58 50 60 71 61 38 62 22 63 23 64 31 65 24 66
REMARK SMILES IDX 30 67 32 68 29 69 25 70 26 71 27 72 28 73 54 74 55 75 63 76
REMARK SMILES IDX 56 77 62 78 64 79 61 80 57 81 58 82 59 83 60 84 39 85 40 86
REMARK SMILES IDX 48 87 41 88 47 89 49 90 46 91 42 92 43 93 44 94 45 95
REMARK H PARENT 6 6 10 29 69 48 37 59
REMARK Flexibility Score: inf
ROOT
ATOM      1  C   UNL     1       1.599  -2.325  -0.963  1.00  0.00     0.042 C 
ENDROOT
BRANCH   1   2
ATOM      2  C   UNL     1       1.837  -1.266  -2.042  1.00  0.00     0.117 C 
BRANCH   2   3
ATOM      3  N   UNL     1       0.590  -0.705  -2.545  1.00  0.00    -0.354 N 
ATOM      4  C   UNL     1       0.024   0.534  -2.403  1.00  0.00     0.242 C 
ATOM      5  O   UNL     1      -1.121   0.693  -2.835  1.00  0.00    -0.273 OA
ATOM      6  H   UNL     1       0.056  -1.331  -3.086  1.00  0.00     0.163 HD
BRANCH   4   7
ATOM      7  C   UNL     1       0.782   1.676  -1.670  1.00  0.00     0.174 C 
BRANCH   7   8
ATOM      8  C   UNL     1       0.192   1.760  -0.234  1.00  0.00     0.032 C 
ATOM      9  C   UNL     1       0.464   0.564   0.655  1.00  0.00     0.006 C 
ENDBRANCH   7   8
BRANCH   7  10
ATOM     10  N   UNL     1       0.635   2.990  -2.370  1.00  0.00    -0.321 N 
ATOM     11  C   UNL     1       0.841   4.228  -1.621  1.00  0.00     0.142 C 
ATOM     12  C   UNL     1       0.652   3.083  -3.775  1.00  0.00     0.312 C 
ATOM     13  C   UNL     1       1.564   5.276  -2.460  1.00  0.00     0.142 C 
ATOM     14  C   UNL     1       0.299   4.505  -4.370  1.00  0.00     0.312 C 
ATOM     15  O   UNL     1       0.967   2.167  -4.522  1.00  0.00    -0.263 OA
ATOM     16  N   UNL     1       0.769   5.590  -3.622  1.00  0.00    -0.328 N 
ATOM     17  O   UNL     1      -0.324   4.612  -5.418  1.00  0.00    -0.263 OA
BRANCH  16  18
ATOM     18  C   UNL     1       0.611   6.970  -4.074  1.00  0.00     0.155 C 
BRANCH  18  19
ATOM     19  C   UNL     1      -0.268   7.832  -3.186  1.00  0.00    -0.028 A 
ATOM     20  C   UNL     1      -1.536   8.238  -3.625  1.00  0.00     0.005 A 
ATOM     21  C   UNL     1       0.166   8.280  -1.926  1.00  0.00     0.009 A 
ATOM     22  C   UNL     1      -2.340   9.058  -2.828  1.00  0.00     0.001 A 
ATOM     23  C   UNL     1      -0.662   9.040  -1.087  1.00  0.00    -0.051 A 
ATOM     24  C   UNL     1      -1.910   9.450  -1.560  1.00  0.00     0.003 A 
ATOM     25  C   UNL     1      -0.203   9.432   0.287  1.00  0.00     0.044 C 
ENDBRANCH  18  19
ENDBRANCH  16  18
ENDBRANCH   7  10
ENDBRANCH   4   7
ENDBRANCH   2   3
ENDBRANCH   1   2
BRANCH   1  26
ATOM     26  C   UNL     1       0.949  -3.609  -1.468  1.00  0.00     0.118 C 
BRANCH  26  27
ATOM     27  N   UNL     1       1.938  -4.588  -1.882  1.00  0.00    -0.352 N 
ATOM     28  C   UNL     1       2.187  -5.849  -1.393  1.00  0.00     0.251 C 
ATOM     29  H   UNL     1       2.519  -4.306  -2.625  1.00  0.00     0.163 HD
ATOM     30  O   UNL     1       3.228  -6.412  -1.726  1.00  0.00    -0.269 OA
BRANCH  28  31
ATOM     31  C   UNL     1       1.242  -6.531  -0.469  1.00  0.00     0.039 A 
ATOM     32  C   UNL     1       1.765  -7.365   0.527  1.00  0.00     0.014 A 
ATOM     33  C   UNL     1      -0.145  -6.429  -0.611  1.00  0.00     0.014 A 
ATOM     34  C   UNL     1       0.909  -8.065   1.387  1.00  0.00     0.010 A 
ATOM     35  C   UNL     1      -0.998  -7.069   0.294  1.00  0.00     0.010 A 
ATOM     36  C   UNL     1      -0.483  -7.915   1.288  1.00  0.00    -0.014 A 
BRANCH  36  37
ATOM     37  C   UNL     1      -1.407  -8.684   2.170  1.00  0.00     0.031 A 
ATOM     38  C   UNL     1      -2.343  -9.706   1.569  1.00  0.00     0.074 A 
ATOM     39  C   UNL     1      -1.439  -8.446   3.497  1.00  0.00     0.049 A 
ATOM     40  N   UNL     1      -3.266 -10.429   2.150  1.00  0.00    -0.248 NA
ATOM     41  C   UNL     1      -2.245  -9.918   0.116  1.00  0.00     0.031 C 
ATOM     42  C   UNL     1      -0.616  -7.459   4.199  1.00  0.00     0.029 A 
ATOM     43  N   UNL     1      -2.199  -9.009   4.493  1.00  0.00    -0.354 N 
ATOM     44  C   UNL     1      -3.879 -11.156   1.134  1.00  0.00     0.074 A 
ATOM     45  C   UNL     1      -3.249 -10.753  -0.106  1.00  0.00     0.031 C 
ATOM     46  C   UNL     1      -0.906  -7.496   5.511  1.00  0.00     0.029 A 
ATOM     47  C   UNL     1      -1.957  -8.483   5.743  1.00  0.00     0.049 A 
ATOM     48  H   UNL     1      -2.857  -9.723   4.329  1.00  0.00     0.167 HD
ATOM     49  C   UNL     1      -4.862 -12.087   1.224  1.00  0.00     0.034 A 
ATOM     50  C   UNL     1      -2.522  -8.758   6.936  1.00  0.00     0.034 A 
ATOM     51  C   UNL     1      -5.451 -12.517   2.468  1.00  0.00     0.049 A 
ATOM     52  C   UNL     1      -3.583  -9.829   7.016  1.00  0.00     0.074 A 
ATOM     53  C   UNL     1      -6.406 -13.498   2.675  1.00  0.00     0.029 A 
ATOM     54  N   UNL     1      -5.139 -11.999   3.717  1.00  0.00    -0.354 N 
ATOM     55  N   UNL     1      -4.110 -10.543   6.048  1.00  0.00    -0.248 NA
ATOM     56  C   UNL     1      -4.108 -10.147   8.350  1.00  0.00     0.031 C 
ATOM     57  C   UNL     1      -6.707 -13.539   4.041  1.00  0.00     0.029 A 
ATOM     58  C   UNL     1      -5.893 -12.629   4.695  1.00  0.00     0.049 A 
ATOM     59  H   UNL     1      -4.480 -11.287   3.884  1.00  0.00     0.167 HD
ATOM     60  C   UNL     1      -4.997 -11.421   6.666  1.00  0.00     0.074 A 
ATOM     61  C   UNL     1      -4.924 -11.156   8.087  1.00  0.00     0.031 C 
ATOM     62  C   UNL     1      -5.800 -12.364   6.110  1.00  0.00     0.034 A 
BRANCH  49  63
ATOM     63  C   UNL     1      -5.377 -12.688  -0.061  1.00  0.00     0.023 A 
ATOM     64  C   UNL     1      -4.570 -13.497  -0.878  1.00  0.00     0.031 A 
ATOM     65  C   UNL     1      -6.700 -12.446  -0.473  1.00  0.00     0.131 A 
ATOM     66  C   UNL     1      -5.071 -13.984  -2.095  1.00  0.00     0.055 A 
ATOM     67  C   UNL     1      -7.216 -12.994  -1.649  1.00  0.00     0.041 A 
ATOM     68  F   UNL     1      -7.512 -11.667   0.259  1.00  0.00    -0.206 F 
ATOM     69  C   UNL     1      -6.397 -13.759  -2.474  1.00  0.00     0.022 A 
BRANCH  66  70
ATOM     70  S   UNL     1      -3.934 -14.827  -3.228  1.00  0.00     0.124 S 
ATOM     71  O   UNL     1      -2.983 -13.762  -3.536  1.00  0.00    -0.237 OA
ATOM     72  O   UNL     1      -3.424 -15.921  -2.410  1.00  0.00    -0.237 OA
ATOM     73  O   UNL     1      -4.793 -15.229  -4.340  1.00  0.00    -0.744 OA
ENDBRANCH  66  70
ENDBRANCH  49  63
BRANCH  50  74
ATOM     74  C   UNL     1      -2.111  -8.014   8.164  1.00  0.00     0.023 A 
ATOM     75  C   UNL     1      -1.496  -8.674   9.240  1.00  0.00     0.031 A 
ATOM     76  C   UNL     1      -2.395  -6.645   8.307  1.00  0.00     0.131 A 
ATOM     77  C   UNL     1      -1.243  -7.981  10.434  1.00  0.00     0.055 A 
ATOM     78  C   UNL     1      -2.091  -5.947   9.477  1.00  0.00     0.041 A 
ATOM     79  F   UNL     1      -2.976  -5.963   7.306  1.00  0.00    -0.206 F 
ATOM     80  C   UNL     1      -1.527  -6.620  10.556  1.00  0.00     0.022 A 
BRANCH  77  81
ATOM     81  S   UNL     1      -0.640  -8.915  11.868  1.00  0.00     0.124 S 
ATOM     82  O   UNL     1      -1.646  -9.964  11.986  1.00  0.00    -0.237 OA
ATOM     83  O   UNL     1       0.681  -9.340  11.416  1.00  0.00    -0.237 OA
ATOM     84  O   UNL     1      -0.641  -7.925  12.943  1.00  0.00    -0.744 OA
ENDBRANCH  77  81
ENDBRANCH  50  74
BRANCH  62  85
ATOM     85  C   UNL     1      -6.605 -13.223   7.052  1.00  0.00     0.023 A 
ATOM     86  C   UNL     1      -7.655 -12.697   7.824  1.00  0.00     0.031 A 
ATOM     87  C   UNL     1      -6.299 -14.589   7.190  1.00  0.00     0.131 A 
ATOM     88  C   UNL     1      -8.324 -13.519   8.743  1.00  0.00     0.055 A 
ATOM     89  C   UNL     1      -7.006 -15.415   8.066  1.00  0.00     0.041 A 
ATOM     90  F   UNL     1      -5.306 -15.143   6.477  1.00  0.00    -0.206 F 
ATOM     91  C   UNL     1      -8.015 -14.877   8.859  1.00  0.00     0.022 A 
BRANCH  88  92
ATOM     92  S   UNL     1      -9.543 -12.767   9.857  1.00  0.00     0.124 S 
ATOM     93  O   UNL     1      -8.755 -11.729  10.515  1.00  0.00    -0.237 OA
ATOM     94  O   UNL     1     -10.566 -12.298   8.929  1.00  0.00    -0.237 OA
ATOM     95  O   UNL     1      -9.950 -13.876  10.719  1.00  0.00    -0.744 OA
ENDBRANCH  88  92
ENDBRANCH  62  85
ENDBRANCH  36  37
ENDBRANCH  28  31
ENDBRANCH  26  27
ENDBRANCH   1  26
TORSDOF 17
