REMARK SMILES Nc1ccc2[nH]cc(C(=O)NCCCNC(=O)c3ccc(-c4c5nc(c(-c6cc(S(=O)(=O)[O-])ccc6F)c6ccc([nH]6)c(-c6cc(S(=O)(=O)[O-])ccc6F)c6nc(c(-c7cc(S(=O)(=O)[O-])ccc7F)c7ccc4[nH]7)C=C6)C=C5)cc3)c2c1
REMARK SMILES IDX 14 1 13 2 12 3 11 4 9 5 10 6 8 8 2 9 3 10 82 11 4 12 81 13
REMARK SMILES IDX 5 14 6 15 7 16 1 18 15 21 16 22 17 24 18 25 19 26 80 27
REMARK SMILES IDX 20 28 79 29 21 30 22 31 23 32 73 33 24 34 78 35 72 36 74 37
REMARK SMILES IDX 25 38 77 39 71 40 70 41 26 43 58 44 38 45 57 46 39 47 42 48
REMARK SMILES IDX 56 49 75 50 40 51 41 52 55 54 76 55 43 56 27 57 28 58 36 59
REMARK SMILES IDX 29 60 35 61 37 62 34 63 30 64 31 65 32 66 33 67 59 68 60 69
REMARK SMILES IDX 68 70 61 71 67 72 69 73 66 74 62 75 63 76 64 77 65 78 44 79
REMARK SMILES IDX 45 80 53 81 46 82 52 83 54 84 51 85 47 86 48 87 49 88 50 89
REMARK H PARENT 11 7 6 17 1 19 1 20 15 23 74 42 42 53
REMARK Flexibility Score: inf
ROOT
ATOM      1  C   UNL     1      -1.370  -4.177  -2.538  1.00  0.00     0.118 C 
ENDROOT
BRANCH   1   2
ATOM      2  C   UNL     1      -1.168  -3.241  -1.342  1.00  0.00     0.042 C 
BRANCH   2   3
ATOM      3  C   UNL     1      -2.474  -2.607  -0.842  1.00  0.00     0.118 C 
BRANCH   3   4
ATOM      4  N   UNL     1      -3.110  -3.386   0.189  1.00  0.00    -0.352 N 
ATOM      5  C   UNL     1      -3.202  -3.266   1.546  1.00  0.00     0.253 C 
ATOM      6  O   UNL     1      -4.053  -4.018   2.044  1.00  0.00    -0.269 OA
ATOM      7  H   UNL     1      -3.580  -4.177  -0.161  1.00  0.00     0.163 HD
BRANCH   5   8
ATOM      8  C   UNL     1      -2.401  -2.387   2.418  1.00  0.00     0.065 A 
ATOM      9  C   UNL     1       0.572  -0.007   1.537  1.00  0.00     0.032 A 
ATOM     10  C   UNL     1       0.846   0.352   2.848  1.00  0.00     0.027 A 
ATOM     11  C   UNL     1      -0.498  -0.881   1.276  1.00  0.00     0.036 A 
ATOM     12  C   UNL     1       0.093  -0.158   3.903  1.00  0.00     0.029 A 
ATOM     13  C   UNL     1      -1.296  -1.446   2.304  1.00  0.00     0.014 A 
ATOM     14  C   UNL     1      -0.959  -1.034   3.604  1.00  0.00     0.046 A 
ATOM     15  N   UNL     1      -1.825  -1.639   4.472  1.00  0.00    -0.360 N 
ATOM     16  C   UNL     1      -2.685  -2.432   3.785  1.00  0.00     0.097 A 
ATOM     17  H   UNL     1      -1.824  -1.519   5.449  1.00  0.00     0.166 HD
BRANCH   9  18
ATOM     18  N   UNL     1       1.266   0.584   0.491  1.00  0.00    -0.399 N 
ATOM     19  H   UNL     1       2.014   1.195   0.680  1.00  0.00     0.156 HD
ATOM     20  H   UNL     1       1.009   0.392  -0.440  1.00  0.00     0.156 HD
ENDBRANCH   9  18
ENDBRANCH   5   8
ENDBRANCH   3   4
ENDBRANCH   2   3
ENDBRANCH   1   2
BRANCH   1  21
ATOM     21  N   UNL     1      -2.053  -3.537  -3.648  1.00  0.00    -0.352 N 
ATOM     22  C   UNL     1      -1.706  -2.755  -4.712  1.00  0.00     0.251 C 
ATOM     23  H   UNL     1      -3.022  -3.714  -3.628  1.00  0.00     0.163 HD
ATOM     24  O   UNL     1      -2.654  -2.386  -5.412  1.00  0.00    -0.269 OA
BRANCH  22  25
ATOM     25  C   UNL     1      -0.333  -2.300  -5.068  1.00  0.00     0.039 A 
ATOM     26  C   UNL     1       0.836  -2.577  -4.360  1.00  0.00     0.014 A 
ATOM     27  C   UNL     1      -0.241  -1.491  -6.220  1.00  0.00     0.014 A 
ATOM     28  C   UNL     1       2.049  -2.008  -4.758  1.00  0.00     0.010 A 
ATOM     29  C   UNL     1       0.966  -0.928  -6.624  1.00  0.00     0.010 A 
ATOM     30  C   UNL     1       2.109  -1.154  -5.868  1.00  0.00    -0.014 A 
BRANCH  30  31
ATOM     31  C   UNL     1       3.406  -0.590  -6.246  1.00  0.00     0.031 A 
ATOM     32  C   UNL     1       4.446  -1.584  -6.641  1.00  0.00     0.074 A 
ATOM     33  C   UNL     1       3.661   0.730  -6.358  1.00  0.00     0.049 A 
ATOM     34  N   UNL     1       5.558  -1.861  -6.040  1.00  0.00    -0.248 NA
ATOM     35  C   UNL     1       4.157  -2.450  -7.792  1.00  0.00     0.031 C 
ATOM     36  C   UNL     1       2.707   1.841  -6.345  1.00  0.00     0.029 A 
ATOM     37  N   UNL     1       4.849   1.350  -6.615  1.00  0.00    -0.354 N 
ATOM     38  C   UNL     1       6.202  -2.817  -6.828  1.00  0.00     0.074 A 
ATOM     39  C   UNL     1       5.232  -3.240  -7.809  1.00  0.00     0.031 C 
ATOM     40  C   UNL     1       3.315   2.957  -6.810  1.00  0.00     0.029 A 
ATOM     41  C   UNL     1       4.728   2.677  -7.006  1.00  0.00     0.049 A 
ATOM     42  H   UNL     1       5.718   0.896  -6.530  1.00  0.00     0.167 HD
ATOM     43  C   UNL     1       7.540  -3.067  -6.720  1.00  0.00     0.034 A 
ATOM     44  C   UNL     1       5.702   3.465  -7.529  1.00  0.00     0.034 A 
ATOM     45  C   UNL     1       8.082  -2.499  -5.516  1.00  0.00     0.049 A 
ATOM     46  C   UNL     1       7.017   2.869  -7.194  1.00  0.00     0.074 A 
ATOM     47  C   UNL     1       7.865  -2.691  -4.167  1.00  0.00     0.029 A 
ATOM     48  N   UNL     1       8.775  -1.319  -5.620  1.00  0.00    -0.354 N 
ATOM     49  N   UNL     1       7.529   2.842  -5.997  1.00  0.00    -0.248 NA
ATOM     50  C   UNL     1       7.585   1.922  -8.141  1.00  0.00     0.031 C 
ATOM     51  C   UNL     1       7.997  -1.397  -3.588  1.00  0.00     0.029 A 
ATOM     52  C   UNL     1       8.343  -0.506  -4.606  1.00  0.00     0.049 A 
ATOM     53  H   UNL     1       9.455  -1.097  -6.297  1.00  0.00     0.167 HD
ATOM     54  C   UNL     1       8.121   1.593  -5.908  1.00  0.00     0.074 A 
ATOM     55  C   UNL     1       8.222   1.119  -7.287  1.00  0.00     0.031 C 
ATOM     56  C   UNL     1       8.214   0.932  -4.717  1.00  0.00     0.034 A 
BRANCH  43  57
ATOM     57  C   UNL     1       8.427  -3.554  -7.846  1.00  0.00     0.023 A 
ATOM     58  C   UNL     1       8.004  -3.612  -9.185  1.00  0.00     0.031 A 
ATOM     59  C   UNL     1       9.810  -3.753  -7.633  1.00  0.00     0.131 A 
ATOM     60  C   UNL     1       8.906  -3.846 -10.233  1.00  0.00     0.055 A 
ATOM     61  C   UNL     1      10.721  -3.920  -8.684  1.00  0.00     0.041 A 
ATOM     62  F   UNL     1      10.333  -3.728  -6.397  1.00  0.00    -0.206 F 
ATOM     63  C   UNL     1      10.271  -3.963  -9.995  1.00  0.00     0.022 A 
BRANCH  60  64
ATOM     64  S   UNL     1       8.304  -3.980 -11.939  1.00  0.00     0.124 S 
ATOM     65  O   UNL     1       9.001  -2.869 -12.589  1.00  0.00    -0.237 OA
ATOM     66  O   UNL     1       8.770  -5.317 -12.310  1.00  0.00    -0.237 OA
ATOM     67  O   UNL     1       6.865  -3.840 -11.807  1.00  0.00    -0.744 OA
ENDBRANCH  60  64
ENDBRANCH  43  57
BRANCH  44  68
ATOM     68  C   UNL     1       5.556   4.399  -8.671  1.00  0.00     0.023 A 
ATOM     69  C   UNL     1       4.566   4.157  -9.640  1.00  0.00     0.031 A 
ATOM     70  C   UNL     1       6.571   5.315  -8.998  1.00  0.00     0.131 A 
ATOM     71  C   UNL     1       4.642   4.761 -10.902  1.00  0.00     0.055 A 
ATOM     72  C   UNL     1       6.635   5.933 -10.253  1.00  0.00     0.041 A 
ATOM     73  F   UNL     1       7.566   5.568  -8.133  1.00  0.00    -0.206 F 
ATOM     74  C   UNL     1       5.675   5.643 -11.219  1.00  0.00     0.022 A 
BRANCH  71  75
ATOM     75  S   UNL     1       3.440   4.326 -12.188  1.00  0.00     0.124 S 
ATOM     76  O   UNL     1       3.096   5.632 -12.745  1.00  0.00    -0.237 OA
ATOM     77  O   UNL     1       4.233   3.461 -13.053  1.00  0.00    -0.237 OA
ATOM     78  O   UNL     1       2.367   3.672 -11.444  1.00  0.00    -0.744 OA
ENDBRANCH  71  75
ENDBRANCH  44  68
BRANCH  56  79
ATOM     79  C   UNL     1       7.900   1.666  -3.432  1.00  0.00     0.023 A 
ATOM     80  C   UNL     1       8.797   1.486  -2.363  1.00  0.00     0.031 A 
ATOM     81  C   UNL     1       6.676   2.303  -3.152  1.00  0.00     0.131 A 
ATOM     82  C   UNL     1       8.444   1.878  -1.068  1.00  0.00     0.055 A 
ATOM     83  C   UNL     1       6.362   2.767  -1.870  1.00  0.00     0.041 A 
ATOM     84  F   UNL     1       5.712   2.413  -4.075  1.00  0.00    -0.206 F 
ATOM     85  C   UNL     1       7.238   2.536  -0.816  1.00  0.00     0.022 A 
BRANCH  82  86
ATOM     86  S   UNL     1       9.461   1.377   0.344  1.00  0.00     0.124 S 
ATOM     87  O   UNL     1       9.939   2.660   0.851  1.00  0.00    -0.237 OA
ATOM     88  O   UNL     1       8.491   0.690   1.196  1.00  0.00    -0.237 OA
ATOM     89  O   UNL     1      10.484   0.516  -0.242  1.00  0.00    -0.744 OA
ENDBRANCH  82  86
ENDBRANCH  56  79
ENDBRANCH  30  31
ENDBRANCH  22  25
ENDBRANCH   1  21
TORSDOF 14
