REMARK SMILES CC[C@@H](C(=O)NCCCNC(=O)c1ccc(-c2c3nc(c(-c4cc(S(=O)(=O)[O-])ccc4F)c4ccc([nH]4)c(-c4cc(S(=O)(=O)[O-])ccc4F)c4nc(c(-c5cc(S(=O)(=O)[O-])ccc5F)c5ccc2[nH]5)C=C4)C=C3)cc1)N(C)C(=O)N(C)C[C@@H]1CCC[N@H+]1C
REMARK SMILES IDX 7 1 6 2 4 3 5 4 3 6 2 7 1 8 76 9 77 10 78 11 79 12 80 13
REMARK SMILES IDX 81 14 82 15 83 16 84 17 87 18 85 19 86 20 88 21 8 23 9 24
REMARK SMILES IDX 10 25 11 26 12 28 13 29 14 30 75 31 15 32 74 33 16 34 17 35
REMARK SMILES IDX 18 36 68 37 19 38 73 39 67 40 69 41 20 42 72 43 66 44 65 45
REMARK SMILES IDX 21 47 53 48 33 49 52 50 34 51 37 52 51 53 70 54 35 55 36 56
REMARK SMILES IDX 50 58 71 59 38 60 22 61 23 62 31 63 24 64 30 65 32 66 29 67
REMARK SMILES IDX 25 68 26 69 27 70 28 71 54 72 55 73 63 74 56 75 62 76 64 77
REMARK SMILES IDX 61 78 57 79 58 80 59 81 60 82 39 83 40 84 48 85 41 86 47 87
REMARK SMILES IDX 49 88 46 89 42 90 43 91 44 92 45 93
REMARK H PARENT 6 5 87 22 10 27 69 46 37 57
REMARK Flexibility Score: inf
ROOT
ATOM      1  C   UNL     1      -5.270  -5.600   5.913  1.00  0.00     0.117 C 
ENDROOT
BRANCH   1   2
ATOM      2  N   UNL     1      -4.515  -5.317   4.712  1.00  0.00    -0.354 N 
ATOM      3  C   UNL     1      -4.882  -5.064   3.428  1.00  0.00     0.242 C 
ATOM      4  O   UNL     1      -3.958  -4.625   2.733  1.00  0.00    -0.273 OA
ATOM      5  H   UNL     1      -3.541  -5.306   4.853  1.00  0.00     0.163 HD
BRANCH   3   6
ATOM      6  C   UNL     1      -6.356  -5.194   2.915  1.00  0.00     0.175 C 
BRANCH   6   7
ATOM      7  C   UNL     1      -6.973  -6.603   2.755  1.00  0.00     0.032 C 
ATOM      8  C   UNL     1      -7.482  -7.290   4.007  1.00  0.00     0.006 C 
ENDBRANCH   6   7
BRANCH   6   9
ATOM      9  N   UNL     1      -6.448  -4.436   1.616  1.00  0.00    -0.316 N 
ATOM     10  C   UNL     1      -6.938  -3.076   1.728  1.00  0.00     0.149 C 
BRANCH   9  11
ATOM     11  C   UNL     1      -5.855  -5.023   0.503  1.00  0.00     0.320 C 
ATOM     12  O   UNL     1      -5.327  -6.136   0.609  1.00  0.00    -0.248 OA
BRANCH  11  13
ATOM     13  N   UNL     1      -5.867  -4.426  -0.743  1.00  0.00    -0.322 N 
ATOM     14  C   UNL     1      -6.781  -3.431  -1.275  1.00  0.00     0.149 C 
BRANCH  13  15
ATOM     15  C   UNL     1      -5.021  -5.070  -1.771  1.00  0.00     0.185 C 
BRANCH  15  16
ATOM     16  C   UNL     1      -3.476  -5.018  -1.573  1.00  0.00     0.203 C 
ATOM     17  C   UNL     1      -2.869  -6.376  -1.172  1.00  0.00     0.073 C 
ATOM     18  N   UNL     1      -2.946  -4.065  -0.587  1.00  0.00    -0.333 N 
ATOM     19  C   UNL     1      -1.854  -6.065  -0.082  1.00  0.00     0.068 C 
ATOM     20  C   UNL     1      -1.634  -4.569  -0.186  1.00  0.00     0.262 C 
ATOM     21  C   UNL     1      -2.900  -2.689  -1.037  1.00  0.00     0.333 C 
ATOM     22  H   UNL     1      -3.584  -4.017   0.207  1.00  0.00     0.348 HD
ENDBRANCH  15  16
ENDBRANCH  13  15
ENDBRANCH  11  13
ENDBRANCH   9  11
ENDBRANCH   6   9
ENDBRANCH   3   6
ENDBRANCH   1   2
BRANCH   1  23
ATOM     23  C   UNL     1      -4.946  -6.983   6.466  1.00  0.00     0.042 C 
BRANCH  23  24
ATOM     24  C   UNL     1      -3.525  -7.136   6.995  1.00  0.00     0.118 C 
BRANCH  24  25
ATOM     25  N   UNL     1      -3.347  -6.534   8.306  1.00  0.00    -0.352 N 
ATOM     26  C   UNL     1      -3.126  -7.127   9.525  1.00  0.00     0.251 C 
ATOM     27  H   UNL     1      -3.391  -5.551   8.323  1.00  0.00     0.163 HD
ATOM     28  O   UNL     1      -3.212  -6.433  10.545  1.00  0.00    -0.269 OA
BRANCH  26  29
ATOM     29  C   UNL     1      -2.822  -8.573   9.640  1.00  0.00     0.039 A 
ATOM     30  C   UNL     1      -3.373  -9.295  10.704  1.00  0.00     0.014 A 
ATOM     31  C   UNL     1      -1.976  -9.222   8.737  1.00  0.00     0.014 A 
ATOM     32  C   UNL     1      -3.125 -10.667  10.823  1.00  0.00     0.010 A 
ATOM     33  C   UNL     1      -1.808 -10.605   8.801  1.00  0.00     0.010 A 
ATOM     34  C   UNL     1      -2.369 -11.344   9.852  1.00  0.00    -0.014 A 
BRANCH  34  35
ATOM     35  C   UNL     1      -2.144 -12.813   9.935  1.00  0.00     0.031 A 
ATOM     36  C   UNL     1      -0.748 -13.362  10.074  1.00  0.00     0.074 A 
ATOM     37  C   UNL     1      -3.188 -13.659   9.826  1.00  0.00     0.049 A 
ATOM     38  N   UNL     1      -0.343 -14.607  10.106  1.00  0.00    -0.248 NA
ATOM     39  C   UNL     1       0.340 -12.377  10.153  1.00  0.00     0.031 C 
ATOM     40  C   UNL     1      -4.582 -13.257   9.632  1.00  0.00     0.029 A 
ATOM     41  N   UNL     1      -3.240 -15.031   9.851  1.00  0.00    -0.354 N 
ATOM     42  C   UNL     1       1.045 -14.555  10.189  1.00  0.00     0.074 A 
ATOM     43  C   UNL     1       1.411 -13.156  10.130  1.00  0.00     0.031 C 
ATOM     44  C   UNL     1      -5.354 -14.354   9.580  1.00  0.00     0.029 A 
ATOM     45  C   UNL     1      -4.508 -15.539   9.689  1.00  0.00     0.049 A 
ATOM     46  H   UNL     1      -2.445 -15.598   9.972  1.00  0.00     0.167 HD
ATOM     47  C   UNL     1       1.930 -15.575  10.325  1.00  0.00     0.034 A 
ATOM     48  C   UNL     1      -4.944 -16.813   9.622  1.00  0.00     0.034 A 
ATOM     49  C   UNL     1       1.545 -16.965  10.391  1.00  0.00     0.049 A 
ATOM     50  C   UNL     1      -3.948 -17.934   9.764  1.00  0.00     0.074 A 
ATOM     51  C   UNL     1       2.346 -18.074  10.602  1.00  0.00     0.029 A 
ATOM     52  N   UNL     1       0.249 -17.442  10.228  1.00  0.00    -0.354 N 
ATOM     53  N   UNL     1      -2.645 -17.867   9.912  1.00  0.00    -0.248 NA
ATOM     54  C   UNL     1      -4.484 -19.300   9.741  1.00  0.00     0.031 C 
ATOM     55  C   UNL     1       1.551 -19.220  10.490  1.00  0.00     0.029 A 
ATOM     56  C   UNL     1       0.236 -18.828  10.294  1.00  0.00     0.049 A 
ATOM     57  H   UNL     1      -0.545 -16.877  10.087  1.00  0.00     0.167 HD
ATOM     58  C   UNL     1      -2.207 -19.184  10.023  1.00  0.00     0.074 A 
ATOM     59  C   UNL     1      -3.389 -20.020   9.940  1.00  0.00     0.031 C 
ATOM     60  C   UNL     1      -0.944 -19.657  10.184  1.00  0.00     0.034 A 
BRANCH  47  61
ATOM     61  C   UNL     1       3.399 -15.215  10.377  1.00  0.00     0.023 A 
ATOM     62  C   UNL     1       3.922 -14.375  11.377  1.00  0.00     0.031 A 
ATOM     63  C   UNL     1       4.282 -15.671   9.382  1.00  0.00     0.131 A 
ATOM     64  C   UNL     1       5.253 -13.935  11.302  1.00  0.00     0.055 A 
ATOM     65  C   UNL     1       5.631 -15.307   9.367  1.00  0.00     0.041 A 
ATOM     66  F   UNL     1       3.845 -16.462   8.389  1.00  0.00    -0.206 F 
ATOM     67  C   UNL     1       6.118 -14.416  10.319  1.00  0.00     0.022 A 
BRANCH  64  68
ATOM     68  S   UNL     1       5.779 -12.585  12.395  1.00  0.00     0.124 S 
ATOM     69  O   UNL     1       4.803 -11.546  12.071  1.00  0.00    -0.237 OA
ATOM     70  O   UNL     1       5.658 -13.185  13.718  1.00  0.00    -0.237 OA
ATOM     71  O   UNL     1       7.144 -12.302  11.957  1.00  0.00    -0.744 OA
ENDBRANCH  64  68
ENDBRANCH  47  61
BRANCH  48  72
ATOM     72  C   UNL     1      -6.391 -17.092   9.398  1.00  0.00     0.023 A 
ATOM     73  C   UNL     1      -7.183 -17.685  10.394  1.00  0.00     0.031 A 
ATOM     74  C   UNL     1      -7.004 -16.766   8.174  1.00  0.00     0.131 A 
ATOM     75  C   UNL     1      -8.536 -17.958  10.140  1.00  0.00     0.055 A 
ATOM     76  C   UNL     1      -8.360 -16.998   7.943  1.00  0.00     0.041 A 
ATOM     77  F   UNL     1      -6.292 -16.191   7.191  1.00  0.00    -0.206 F 
ATOM     78  C   UNL     1      -9.133 -17.605   8.928  1.00  0.00     0.022 A 
BRANCH  75  79
ATOM     79  S   UNL     1      -9.502 -18.828  11.406  1.00  0.00     0.124 S 
ATOM     80  O   UNL     1      -8.778 -20.089  11.518  1.00  0.00    -0.237 OA
ATOM     81  O   UNL     1      -9.396 -17.922  12.545  1.00  0.00    -0.237 OA
ATOM     82  O   UNL     1     -10.834 -18.922  10.812  1.00  0.00    -0.744 OA
ENDBRANCH  75  79
ENDBRANCH  48  72
BRANCH  60  83
ATOM     83  C   UNL     1      -0.783 -21.153  10.315  1.00  0.00     0.023 A 
ATOM     84  C   UNL     1      -1.068 -22.026   9.250  1.00  0.00     0.031 A 
ATOM     85  C   UNL     1      -0.348 -21.714  11.529  1.00  0.00     0.131 A 
ATOM     86  C   UNL     1      -0.969 -23.413   9.436  1.00  0.00     0.055 A 
ATOM     87  C   UNL     1      -0.189 -23.091  11.689  1.00  0.00     0.041 A 
ATOM     88  F   UNL     1      -0.066 -20.930  12.582  1.00  0.00    -0.206 F 
ATOM     89  C   UNL     1      -0.513 -23.951  10.643  1.00  0.00     0.022 A 
BRANCH  86  90
ATOM     90  S   UNL     1      -1.536 -24.515   8.111  1.00  0.00     0.124 S 
ATOM     91  O   UNL     1      -2.928 -24.106   7.952  1.00  0.00    -0.237 OA
ATOM     92  O   UNL     1      -0.640 -24.171   7.013  1.00  0.00    -0.237 OA
ATOM     93  O   UNL     1      -1.344 -25.852   8.671  1.00  0.00    -0.744 OA
ENDBRANCH  86  90
ENDBRANCH  60  83
ENDBRANCH  34  35
ENDBRANCH  26  29
ENDBRANCH  24  25
ENDBRANCH  23  24
ENDBRANCH   1  23
TORSDOF 19
