REMARK SMILES Nc1nc(N)nc(N/C=C/C(=O)NCCCNC(=O)c2ccc(-c3c4nc(c(-c5cc(S(=O)(=O)[O-])ccc5F)c5ccc([nH]5)c(-c5cc(S(=O)(=O)[O-])ccc5F)c5nc(c(-c6cc(S(=O)(=O)[O-])ccc6F)c6ccc3[nH]6)C=C5)C=C4)cc2)n1
REMARK SMILES IDX 15 1 14 2 13 3 11 4 12 5 10 7 9 8 8 9 7 11 2 12 3 13 83 14
REMARK SMILES IDX 4 15 6 16 1 17 5 20 16 23 17 24 18 25 19 27 20 28 21 29
REMARK SMILES IDX 82 30 22 31 81 32 23 33 24 34 25 35 75 36 26 37 80 38 74 39
REMARK SMILES IDX 76 40 27 41 79 42 73 43 72 44 28 46 60 47 40 48 59 49 41 50
REMARK SMILES IDX 44 51 58 52 77 53 42 54 43 55 57 57 78 58 45 59 29 60 30 61
REMARK SMILES IDX 38 62 31 63 37 64 39 65 36 66 32 67 33 68 34 69 35 70 61 71
REMARK SMILES IDX 62 72 70 73 63 74 69 75 71 76 68 77 64 78 65 79 66 80 67 81
REMARK SMILES IDX 46 82 47 83 55 84 48 85 54 86 56 87 53 88 49 89 50 90 51 91
REMARK SMILES IDX 52 92
REMARK H PARENT 13 6 8 10 1 18 1 19 5 21 5 22 17 26 76 45 44 56
REMARK Flexibility Score: inf
ROOT
ATOM      1  C   UNL     1       4.586   3.266  -0.830  1.00  0.00     0.042 C 
ENDROOT
BRANCH   1   2
ATOM      2  C   UNL     1       4.032   3.981   0.403  1.00  0.00     0.118 C 
BRANCH   2   3
ATOM      3  N   UNL     1       3.598   5.335   0.089  1.00  0.00    -0.352 N 
ATOM      4  C   UNL     1       2.362   5.885  -0.039  1.00  0.00     0.245 C 
ATOM      5  O   UNL     1       2.263   7.102  -0.196  1.00  0.00    -0.270 OA
ATOM      6  H   UNL     1       4.337   5.969  -0.058  1.00  0.00     0.163 HD
BRANCH   4   7
ATOM      7  C   UNL     1       1.121   5.087   0.100  1.00  0.00     0.089 C 
ATOM      8  C   UNL     1       0.962   3.824  -0.306  1.00  0.00     0.091 C 
BRANCH   8   9
ATOM      9  N   UNL     1      -0.139   3.024  -0.167  1.00  0.00    -0.330 N 
ATOM     10  H   UNL     1      -1.012   3.469  -0.076  1.00  0.00     0.169 HD
BRANCH   9  11
ATOM     11  C   UNL     1      -0.126   1.627  -0.145  1.00  0.00     0.233 A 
ATOM     12  C   UNL     1      -1.248  -0.298   0.028  1.00  0.00     0.226 A 
ATOM     13  N   UNL     1      -0.140  -1.020   0.031  1.00  0.00    -0.177 NA
ATOM     14  N   UNL     1      -1.302   1.023  -0.038  1.00  0.00    -0.177 NA
ATOM     15  C   UNL     1       0.979  -0.325  -0.061  1.00  0.00     0.226 A 
ATOM     16  N   UNL     1       1.042   0.988  -0.166  1.00  0.00    -0.177 NA
BRANCH  12  17
ATOM     17  N   UNL     1      -2.434  -0.977   0.084  1.00  0.00    -0.368 N 
ATOM     18  H   UNL     1      -2.438  -1.960   0.133  1.00  0.00     0.159 HD
ATOM     19  H   UNL     1      -3.285  -0.482   0.074  1.00  0.00     0.159 HD
ENDBRANCH  12  17
BRANCH  15  20
ATOM     20  N   UNL     1       2.160  -1.011  -0.040  1.00  0.00    -0.368 N 
ATOM     21  H   UNL     1       2.158  -1.992   0.037  1.00  0.00     0.159 HD
ATOM     22  H   UNL     1       3.013  -0.523  -0.102  1.00  0.00     0.159 HD
ENDBRANCH  15  20
ENDBRANCH   9  11
ENDBRANCH   8   9
ENDBRANCH   4   7
ENDBRANCH   2   3
ENDBRANCH   1   2
BRANCH   1  23
ATOM     23  C   UNL     1       5.993   3.723  -1.213  1.00  0.00     0.118 C 
BRANCH  23  24
ATOM     24  N   UNL     1       6.986   3.313  -0.227  1.00  0.00    -0.352 N 
ATOM     25  C   UNL     1       8.089   2.505  -0.362  1.00  0.00     0.251 C 
ATOM     26  H   UNL     1       6.843   3.672   0.678  1.00  0.00     0.163 HD
ATOM     27  O   UNL     1       8.653   2.092   0.647  1.00  0.00    -0.269 OA
BRANCH  25  28
ATOM     28  C   UNL     1       8.585   2.120  -1.702  1.00  0.00     0.039 A 
ATOM     29  C   UNL     1       9.023   0.808  -1.909  1.00  0.00     0.014 A 
ATOM     30  C   UNL     1       8.656   3.050  -2.742  1.00  0.00     0.014 A 
ATOM     31  C   UNL     1       9.462   0.412  -3.175  1.00  0.00     0.010 A 
ATOM     32  C   UNL     1       9.031   2.638  -4.019  1.00  0.00     0.010 A 
ATOM     33  C   UNL     1       9.432   1.313  -4.251  1.00  0.00    -0.014 A 
BRANCH  33  34
ATOM     34  C   UNL     1       9.794   0.889  -5.630  1.00  0.00     0.031 A 
ATOM     35  C   UNL     1      10.977   1.505  -6.325  1.00  0.00     0.074 A 
ATOM     36  C   UNL     1       9.006   0.011  -6.282  1.00  0.00     0.049 A 
ATOM     37  N   UNL     1      11.378   1.362  -7.562  1.00  0.00    -0.248 NA
ATOM     38  C   UNL     1      11.802   2.424  -5.528  1.00  0.00     0.031 C 
ATOM     39  C   UNL     1       7.817  -0.634  -5.721  1.00  0.00     0.029 A 
ATOM     40  N   UNL     1       9.074  -0.479  -7.563  1.00  0.00    -0.354 N 
ATOM     41  C   UNL     1      12.492   2.182  -7.698  1.00  0.00     0.074 A 
ATOM     42  C   UNL     1      12.668   2.860  -6.430  1.00  0.00     0.031 C 
ATOM     43  C   UNL     1       7.277  -1.444  -6.646  1.00  0.00     0.029 A 
ATOM     44  C   UNL     1       8.044  -1.335  -7.883  1.00  0.00     0.049 A 
ATOM     45  H   UNL     1       9.791  -0.241  -8.194  1.00  0.00     0.167 HD
ATOM     46  C   UNL     1      13.303   2.341  -8.775  1.00  0.00     0.034 A 
ATOM     47  C   UNL     1       7.736  -1.943  -9.046  1.00  0.00     0.034 A 
ATOM     48  C   UNL     1      13.113   1.651 -10.029  1.00  0.00     0.049 A 
ATOM     49  C   UNL     1       8.621  -1.711 -10.244  1.00  0.00     0.074 A 
ATOM     50  C   UNL     1      13.903   1.696 -11.165  1.00  0.00     0.029 A 
ATOM     51  N   UNL     1      12.053   0.801 -10.319  1.00  0.00    -0.354 N 
ATOM     52  N   UNL     1       9.697  -0.965 -10.344  1.00  0.00    -0.248 NA
ATOM     53  C   UNL     1       8.254  -2.405 -11.485  1.00  0.00     0.031 C 
ATOM     54  C   UNL     1      13.284   0.935 -12.162  1.00  0.00     0.029 A 
ATOM     55  C   UNL     1      12.149   0.347 -11.626  1.00  0.00     0.049 A 
ATOM     56  H   UNL     1      11.338   0.557  -9.688  1.00  0.00     0.167 HD
ATOM     57  C   UNL     1      10.150  -1.125 -11.650  1.00  0.00     0.074 A 
ATOM     58  C   UNL     1       9.239  -2.048 -12.295  1.00  0.00     0.031 C 
ATOM     59  C   UNL     1      11.225  -0.564 -12.261  1.00  0.00     0.034 A 
BRANCH  46  60
ATOM     60  C   UNL     1      14.446   3.320  -8.649  1.00  0.00     0.023 A 
ATOM     61  C   UNL     1      15.482   3.131  -7.717  1.00  0.00     0.031 A 
ATOM     62  C   UNL     1      14.493   4.470  -9.458  1.00  0.00     0.131 A 
ATOM     63  C   UNL     1      16.474   4.111  -7.562  1.00  0.00     0.055 A 
ATOM     64  C   UNL     1      15.531   5.400  -9.357  1.00  0.00     0.041 A 
ATOM     65  F   UNL     1      13.524   4.717 -10.353  1.00  0.00    -0.206 F 
ATOM     66  C   UNL     1      16.521   5.231  -8.394  1.00  0.00     0.022 A 
BRANCH  63  67
ATOM     67  S   UNL     1      17.617   3.970  -6.161  1.00  0.00     0.124 S 
ATOM     68  O   UNL     1      16.695   3.961  -5.028  1.00  0.00    -0.237 OA
ATOM     69  O   UNL     1      18.303   2.713  -6.438  1.00  0.00    -0.237 OA
ATOM     70  O   UNL     1      18.444   5.170  -6.272  1.00  0.00    -0.744 OA
ENDBRANCH  63  67
ENDBRANCH  46  60
BRANCH  47  71
ATOM     71  C   UNL     1       6.526  -2.808  -9.149  1.00  0.00     0.023 A 
ATOM     72  C   UNL     1       6.640  -4.180  -9.422  1.00  0.00     0.031 A 
ATOM     73  C   UNL     1       5.234  -2.268  -9.016  1.00  0.00     0.131 A 
ATOM     74  C   UNL     1       5.485  -4.957  -9.600  1.00  0.00     0.055 A 
ATOM     75  C   UNL     1       4.088  -3.057  -9.138  1.00  0.00     0.041 A 
ATOM     76  F   UNL     1       5.066  -0.963  -8.751  1.00  0.00    -0.206 F 
ATOM     77  C   UNL     1       4.210  -4.408  -9.445  1.00  0.00     0.022 A 
BRANCH  74  78
ATOM     78  S   UNL     1       5.673  -6.683 -10.125  1.00  0.00     0.124 S 
ATOM     79  O   UNL     1       6.413  -6.534 -11.373  1.00  0.00    -0.237 OA
ATOM     80  O   UNL     1       6.410  -7.261  -9.006  1.00  0.00    -0.237 OA
ATOM     81  O   UNL     1       4.295  -7.147 -10.267  1.00  0.00    -0.744 OA
ENDBRANCH  74  78
ENDBRANCH  47  71
BRANCH  59  82
ATOM     82  C   UNL     1      11.496  -0.972 -13.688  1.00  0.00     0.023 A 
ATOM     83  C   UNL     1      10.634  -0.610 -14.738  1.00  0.00     0.031 A 
ATOM     84  C   UNL     1      12.637  -1.732 -14.001  1.00  0.00     0.131 A 
ATOM     85  C   UNL     1      10.902  -1.048 -16.044  1.00  0.00     0.055 A 
ATOM     86  C   UNL     1      12.930  -2.115 -15.310  1.00  0.00     0.041 A 
ATOM     87  F   UNL     1      13.492  -2.109 -13.036  1.00  0.00    -0.206 F 
ATOM     88  C   UNL     1      12.055  -1.782 -16.339  1.00  0.00     0.022 A 
BRANCH  85  89
ATOM     89  S   UNL     1       9.684  -0.712 -17.345  1.00  0.00     0.124 S 
ATOM     90  O   UNL     1       8.501  -1.398 -16.835  1.00  0.00    -0.237 OA
ATOM     91  O   UNL     1       9.623   0.746 -17.349  1.00  0.00    -0.237 OA
ATOM     92  O   UNL     1      10.281  -1.310 -18.538  1.00  0.00    -0.744 OA
ENDBRANCH  85  89
ENDBRANCH  59  82
ENDBRANCH  33  34
ENDBRANCH  25  28
ENDBRANCH  23  24
ENDBRANCH   1  23
TORSDOF 17
