REMARK SMILES COc1ccc([C@@H]2[C@@H](C(=O)c3cccc4c3CCCC4)[C@H](C(=O)NCCCNC(=O)c3ccc(-c4c5nc(c(-c6cc(S(=O)(=O)[O-])ccc6F)c6ccc([nH]6)c(-c6cc(S(=O)(=O)[O-])ccc6F)c6nc(c(-c7cc(S(=O)(=O)[O-])ccc7F)c7ccc4[nH]7)C=C6)C=C5)cc3)SC3=NC(=O)S[C@H]32)cc1
REMARK SMILES IDX 26 1 25 2 24 3 22 4 23 5 21 7 7 8 8 9 100 10 95 11 99 12
REMARK SMILES IDX 94 13 96 14 97 15 98 16 6 17 3 18 4 19 102 20 5 21 101 22
REMARK SMILES IDX 2 23 1 24 9 25 10 26 11 27 12 28 16 29 13 30 15 31 17 32
REMARK SMILES IDX 14 33 20 34 18 35 19 36 27 37 28 38 29 39 30 41 31 42 32 43
REMARK SMILES IDX 93 44 33 45 92 46 34 47 35 48 36 49 86 50 37 51 91 52 85 53
REMARK SMILES IDX 87 54 38 55 90 56 84 57 83 58 39 60 71 61 51 62 70 63 52 64
REMARK SMILES IDX 55 65 69 66 88 67 53 68 54 69 68 71 89 72 56 73 40 74 41 75
REMARK SMILES IDX 49 76 42 77 48 78 50 79 47 80 43 81 44 82 45 83 46 84 72 85
REMARK SMILES IDX 73 86 81 87 74 88 80 89 82 90 79 91 75 92 76 93 77 94 78 95
REMARK SMILES IDX 57 96 58 97 66 98 59 99 65 100 67 101 64 102 60 103 61 104
REMARK SMILES IDX 62 105 63 106
REMARK H PARENT 24 6 28 40 87 59 55 70
REMARK Flexibility Score: inf
ROOT
ATOM      1  C   UNL     1       6.466  -2.615  -5.561  1.00  0.00     0.042 C 
ENDROOT
BRANCH   1   2
ATOM      2  C   UNL     1       6.100  -2.292  -7.004  1.00  0.00     0.117 C 
BRANCH   2   3
ATOM      3  N   UNL     1       5.697  -3.470  -7.758  1.00  0.00    -0.355 N 
ATOM      4  C   UNL     1       4.507  -3.827  -8.326  1.00  0.00     0.234 C 
ATOM      5  O   UNL     1       4.481  -4.857  -9.004  1.00  0.00    -0.274 OA
ATOM      6  H   UNL     1       6.415  -4.132  -7.882  1.00  0.00     0.163 HD
BRANCH   4   7
ATOM      7  C   UNL     1       3.238  -2.971  -8.175  1.00  0.00     0.153 C 
ATOM      8  C   UNL     1       1.769  -1.718  -6.405  1.00  0.00     0.052 C 
ATOM      9  C   UNL     1       2.746  -2.899  -6.710  1.00  0.00     0.093 C 
ATOM     10  C   UNL     1       2.305  -0.355  -6.907  1.00  0.00     0.121 C 
ATOM     11  C   UNL     1       2.470  -0.316  -8.396  1.00  0.00     0.093 C 
ATOM     12  S   UNL     1       1.157   1.052  -6.634  1.00  0.00    -0.052 SA
ATOM     13  S   UNL     1       3.534  -1.444  -9.145  1.00  0.00    -0.095 SA
ATOM     14  N   UNL     1       1.919   0.603  -9.110  1.00  0.00    -0.200 NA
ATOM     15  C   UNL     1       1.189   1.472  -8.342  1.00  0.00     0.306 C 
ATOM     16  O   UNL     1       0.606   2.450  -8.759  1.00  0.00    -0.259 OA
BRANCH   8  17
ATOM     17  C   UNL     1       1.479  -1.582  -4.904  1.00  0.00    -0.042 A 
ATOM     18  C   UNL     1       0.869  -1.198  -2.175  1.00  0.00     0.118 A 
ATOM     19  C   UNL     1      -0.143  -1.461  -3.091  1.00  0.00     0.047 A 
ATOM     20  C   UNL     1       2.189  -1.129  -2.614  1.00  0.00     0.047 A 
ATOM     21  C   UNL     1       0.153  -1.604  -4.446  1.00  0.00     0.008 A 
ATOM     22  C   UNL     1       2.493  -1.331  -3.966  1.00  0.00     0.008 A 
BRANCH  18  23
ATOM     23  O   UNL     1       0.465  -1.074  -0.876  1.00  0.00    -0.497 OA
ATOM     24  C   UNL     1       1.161  -0.089  -0.119  1.00  0.00     0.278 C 
ENDBRANCH  18  23
ENDBRANCH   8  17
BRANCH   9  25
ATOM     25  C   UNL     1       2.268  -4.334  -6.285  1.00  0.00     0.168 C 
ATOM     26  O   UNL     1       3.029  -5.090  -5.682  1.00  0.00    -0.294 OA
BRANCH  25  27
ATOM     27  C   UNL     1       0.938  -4.877  -6.703  1.00  0.00     0.021 A 
ATOM     28  C   UNL     1      -0.197  -4.320  -6.146  1.00  0.00     0.012 A 
ATOM     29  C   UNL     1       0.810  -5.486  -7.951  1.00  0.00    -0.034 A 
ATOM     30  C   UNL     1      -1.261  -3.988  -6.986  1.00  0.00     0.001 A 
ATOM     31  C   UNL     1      -0.075  -4.914  -8.874  1.00  0.00    -0.044 A 
ATOM     32  C   UNL     1       0.627  -7.026  -7.956  1.00  0.00     0.036 C 
ATOM     33  C   UNL     1      -1.139  -4.167  -8.370  1.00  0.00     0.004 A 
ATOM     34  C   UNL     1       0.040  -5.332 -10.316  1.00  0.00     0.036 C 
ATOM     35  C   UNL     1       0.539  -7.634  -9.364  1.00  0.00     0.005 C 
ATOM     36  C   UNL     1       0.856  -6.627 -10.468  1.00  0.00     0.005 C 
ENDBRANCH  25  27
ENDBRANCH   9  25
ENDBRANCH   4   7
ENDBRANCH   2   3
ENDBRANCH   1   2
BRANCH   1  37
ATOM     37  C   UNL     1       7.675  -3.529  -5.407  1.00  0.00     0.118 C 
BRANCH  37  38
ATOM     38  N   UNL     1       8.911  -2.916  -5.867  1.00  0.00    -0.352 N 
ATOM     39  C   UNL     1      10.107  -2.739  -5.212  1.00  0.00     0.251 C 
ATOM     40  H   UNL     1       8.888  -2.575  -6.791  1.00  0.00     0.163 HD
ATOM     41  O   UNL     1      10.974  -2.043  -5.735  1.00  0.00    -0.269 OA
BRANCH  39  42
ATOM     42  C   UNL     1      10.341  -3.347  -3.880  1.00  0.00     0.039 A 
ATOM     43  C   UNL     1      11.034  -2.608  -2.917  1.00  0.00     0.014 A 
ATOM     44  C   UNL     1       9.899  -4.637  -3.576  1.00  0.00     0.014 A 
ATOM     45  C   UNL     1      11.218  -3.134  -1.635  1.00  0.00     0.010 A 
ATOM     46  C   UNL     1      10.003  -5.122  -2.274  1.00  0.00     0.010 A 
ATOM     47  C   UNL     1      10.668  -4.379  -1.288  1.00  0.00    -0.014 A 
BRANCH  47  48
ATOM     48  C   UNL     1      10.789  -4.917   0.096  1.00  0.00     0.031 A 
ATOM     49  C   UNL     1      11.526  -6.206   0.348  1.00  0.00     0.074 A 
ATOM     50  C   UNL     1      10.204  -4.263   1.120  1.00  0.00     0.049 A 
ATOM     51  N   UNL     1      11.698  -6.856   1.472  1.00  0.00    -0.248 NA
ATOM     52  C   UNL     1      12.125  -6.866  -0.822  1.00  0.00     0.031 C 
ATOM     53  C   UNL     1       9.434  -3.023   1.002  1.00  0.00     0.029 A 
ATOM     54  N   UNL     1      10.165  -4.546   2.463  1.00  0.00    -0.354 N 
ATOM     55  C   UNL     1      12.425  -7.996   1.145  1.00  0.00     0.074 A 
ATOM     56  C   UNL     1      12.590  -7.987  -0.293  1.00  0.00     0.031 C 
ATOM     57  C   UNL     1       9.036  -2.632   2.223  1.00  0.00     0.029 A 
ATOM     58  C   UNL     1       9.473  -3.618   3.207  1.00  0.00     0.049 A 
ATOM     59  H   UNL     1      10.593  -5.340   2.858  1.00  0.00     0.167 HD
ATOM     60  C   UNL     1      12.936  -8.947   1.968  1.00  0.00     0.034 A 
ATOM     61  C   UNL     1       9.213  -3.568   4.529  1.00  0.00     0.034 A 
ATOM     62  C   UNL     1      12.762  -8.946   3.401  1.00  0.00     0.049 A 
ATOM     63  C   UNL     1       9.747  -4.667   5.416  1.00  0.00     0.074 A 
ATOM     64  C   UNL     1      13.250  -9.850   4.330  1.00  0.00     0.029 A 
ATOM     65  N   UNL     1      12.041  -7.997   4.115  1.00  0.00    -0.354 N 
ATOM     66  N   UNL     1      10.464  -5.719   5.092  1.00  0.00    -0.248 NA
ATOM     67  C   UNL     1       9.451  -4.559   6.850  1.00  0.00     0.031 C 
ATOM     68  C   UNL     1      12.768  -9.488   5.592  1.00  0.00     0.029 A 
ATOM     69  C   UNL     1      12.053  -8.308   5.468  1.00  0.00     0.049 A 
ATOM     70  H   UNL     1      11.587  -7.218   3.720  1.00  0.00     0.167 HD
ATOM     71  C   UNL     1      10.741  -6.371   6.292  1.00  0.00     0.074 A 
ATOM     72  C   UNL     1      10.131  -5.582   7.342  1.00  0.00     0.031 C 
ATOM     73  C   UNL     1      11.441  -7.515   6.508  1.00  0.00     0.034 A 
BRANCH  60  74
ATOM     74  C   UNL     1      13.717 -10.071   1.328  1.00  0.00     0.023 A 
ATOM     75  C   UNL     1      14.902  -9.827   0.609  1.00  0.00     0.031 A 
ATOM     76  C   UNL     1      13.268 -11.400   1.417  1.00  0.00     0.131 A 
ATOM     77  C   UNL     1      15.551 -10.878  -0.054  1.00  0.00     0.055 A 
ATOM     78  C   UNL     1      13.968 -12.456   0.828  1.00  0.00     0.041 A 
ATOM     79  F   UNL     1      12.133 -11.697   2.070  1.00  0.00    -0.206 F 
ATOM     80  C   UNL     1      15.108 -12.196   0.073  1.00  0.00     0.022 A 
BRANCH  77  81
ATOM     81  S   UNL     1      16.893 -10.476  -1.206  1.00  0.00     0.124 S 
ATOM     82  O   UNL     1      16.211  -9.600  -2.157  1.00  0.00    -0.237 OA
ATOM     83  O   UNL     1      17.874  -9.837  -0.338  1.00  0.00    -0.237 OA
ATOM     84  O   UNL     1      17.286 -11.778  -1.742  1.00  0.00    -0.744 OA
ENDBRANCH  77  81
ENDBRANCH  60  74
BRANCH  61  85
ATOM     85  C   UNL     1       8.412  -2.450   5.111  1.00  0.00     0.023 A 
ATOM     86  C   UNL     1       8.967  -1.593   6.075  1.00  0.00     0.031 A 
ATOM     87  C   UNL     1       7.060  -2.268   4.771  1.00  0.00     0.131 A 
ATOM     88  C   UNL     1       8.158  -0.642   6.716  1.00  0.00     0.055 A 
ATOM     89  C   UNL     1       6.277  -1.275   5.363  1.00  0.00     0.041 A 
ATOM     90  F   UNL     1       6.476  -3.055   3.853  1.00  0.00    -0.206 F 
ATOM     91  C   UNL     1       6.821  -0.467   6.356  1.00  0.00     0.022 A 
BRANCH  88  92
ATOM     92  S   UNL     1       8.850   0.281   8.116  1.00  0.00     0.124 S 
ATOM     93  O   UNL     1       9.262  -0.798   9.006  1.00  0.00    -0.237 OA
ATOM     94  O   UNL     1       9.925   1.034   7.480  1.00  0.00    -0.237 OA
ATOM     95  O   UNL     1       7.722   1.083   8.585  1.00  0.00    -0.744 OA
ENDBRANCH  88  92
ENDBRANCH  61  85
BRANCH  73  96
ATOM     96  C   UNL     1      11.637  -7.938   7.946  1.00  0.00     0.023 A 
ATOM     97  C   UNL     1      10.556  -8.292   8.773  1.00  0.00     0.031 A 
ATOM     98  C   UNL     1      12.927  -7.951   8.507  1.00  0.00     0.131 A 
ATOM     99  C   UNL     1      10.775  -8.564  10.132  1.00  0.00     0.055 A 
ATOM    100  C   UNL     1      13.147  -8.298   9.841  1.00  0.00     0.041 A 
ATOM    101  F   UNL     1      13.998  -7.620   7.768  1.00  0.00    -0.206 F 
ATOM    102  C   UNL     1      12.066  -8.588  10.667  1.00  0.00     0.022 A 
BRANCH  99 103
ATOM    103  S   UNL     1       9.338  -8.758  11.222  1.00  0.00     0.124 S 
ATOM    104  O   UNL     1       8.619  -7.508  11.001  1.00  0.00    -0.237 OA
ATOM    105  O   UNL     1       8.704  -9.960  10.691  1.00  0.00    -0.237 OA
ATOM    106  O   UNL     1       9.932  -8.906  12.550  1.00  0.00    -0.744 OA
ENDBRANCH  99 103
ENDBRANCH  73  96
ENDBRANCH  47  48
ENDBRANCH  39  42
ENDBRANCH  37  38
ENDBRANCH   1  37
TORSDOF 17
