REMARK SMILES CCc1ccc(C(=O)[C@@H](Br)CC(=O)NCCCNC(=O)c2ccc(-c3c4nc(c(-c5cc(S(=O)(=O)[O-])ccc5F)c5ccc([nH]5)c(-c5cc(S(=O)(=O)[O-])ccc5F)c5nc(c(-c6cc(S(=O)(=O)[O-])ccc6F)c6ccc3[nH]6)C=C5)C=C4)cc2)cc1
REMARK SMILES IDX 15 1 14 2 12 3 13 4 11 6 9 7 10 8 7 9 8 10 6 11 3 12 4 13
REMARK SMILES IDX 85 14 5 15 84 16 2 17 1 18 16 19 17 20 18 21 19 22 20 24
REMARK SMILES IDX 21 25 22 26 83 27 23 28 82 29 24 30 25 31 26 32 76 33 27 34
REMARK SMILES IDX 81 35 75 36 77 37 28 38 80 39 74 40 73 41 29 43 61 44 41 45
REMARK SMILES IDX 60 46 42 47 45 48 59 49 78 50 43 51 44 52 58 54 79 55 46 56
REMARK SMILES IDX 30 57 31 58 39 59 32 60 38 61 40 62 37 63 33 64 34 65 35 66
REMARK SMILES IDX 36 67 62 68 63 69 71 70 64 71 70 72 72 73 69 74 65 75 66 76
REMARK SMILES IDX 67 77 68 78 47 79 48 80 56 81 49 82 55 83 57 84 54 85 50 86
REMARK SMILES IDX 51 87 52 88 53 89
REMARK H PARENT 14 5 18 23 77 42 45 53
REMARK Flexibility Score: inf
ROOT
ATOM      1  C   UNL     1       3.651  -4.681  -2.379  1.00  0.00     0.117 C 
ENDROOT
BRANCH   1   2
ATOM      2  N   UNL     1       4.686  -5.208  -3.249  1.00  0.00    -0.356 N 
ATOM      3  C   UNL     1       5.035  -4.826  -4.508  1.00  0.00     0.221 C 
ATOM      4  O   UNL     1       5.889  -5.476  -5.110  1.00  0.00    -0.275 OA
ATOM      5  H   UNL     1       5.212  -5.951  -2.874  1.00  0.00     0.163 HD
BRANCH   3   6
ATOM      6  C   UNL     1       4.401  -3.603  -5.133  1.00  0.00     0.123 C 
BRANCH   6   7
ATOM      7  C   UNL     1       3.131  -3.952  -5.893  1.00  0.00     0.138 C 
ATOM      8  Br  UNL     1       3.013  -2.891  -7.547  1.00  0.00    -0.080 Br
BRANCH   7   9
ATOM      9  C   UNL     1       1.775  -3.779  -5.213  1.00  0.00     0.176 C 
ATOM     10  O   UNL     1       0.906  -4.642  -5.369  1.00  0.00    -0.293 OA
BRANCH   9  11
ATOM     11  C   UNL     1       1.441  -2.621  -4.319  1.00  0.00     0.019 A 
ATOM     12  C   UNL     1       0.846  -0.635  -2.397  1.00  0.00    -0.048 A 
ATOM     13  C   UNL     1       0.120  -1.829  -2.429  1.00  0.00     0.004 A 
ATOM     14  C   UNL     1       1.844  -0.428  -3.357  1.00  0.00     0.004 A 
ATOM     15  C   UNL     1       0.405  -2.803  -3.389  1.00  0.00     0.012 A 
ATOM     16  C   UNL     1       2.131  -1.406  -4.320  1.00  0.00     0.012 A 
BRANCH  12  17
ATOM     17  C   UNL     1       0.548   0.407  -1.348  1.00  0.00     0.032 C 
ATOM     18  C   UNL     1       1.136   0.055   0.011  1.00  0.00     0.009 C 
ENDBRANCH  12  17
ENDBRANCH   9  11
ENDBRANCH   7   9
ENDBRANCH   6   7
ENDBRANCH   3   6
ENDBRANCH   1   2
BRANCH   1  19
ATOM     19  C   UNL     1       2.417  -5.574  -2.399  1.00  0.00     0.042 C 
BRANCH  19  20
ATOM     20  C   UNL     1       2.477  -6.693  -1.372  1.00  0.00     0.118 C 
BRANCH  20  21
ATOM     21  N   UNL     1       2.342  -6.177  -0.015  1.00  0.00    -0.352 N 
ATOM     22  C   UNL     1       1.341  -6.343   0.911  1.00  0.00     0.251 C 
ATOM     23  H   UNL     1       3.092  -5.616   0.287  1.00  0.00     0.163 HD
ATOM     24  O   UNL     1       1.312  -5.593   1.884  1.00  0.00    -0.269 OA
BRANCH  22  25
ATOM     25  C   UNL     1       0.305  -7.389   0.742  1.00  0.00     0.039 A 
ATOM     26  C   UNL     1      -0.986  -7.147   1.224  1.00  0.00     0.014 A 
ATOM     27  C   UNL     1       0.600  -8.620   0.156  1.00  0.00     0.014 A 
ATOM     28  C   UNL     1      -1.984  -8.113   1.061  1.00  0.00     0.010 A 
ATOM     29  C   UNL     1      -0.417  -9.532  -0.105  1.00  0.00     0.010 A 
ATOM     30  C   UNL     1      -1.718  -9.299   0.360  1.00  0.00    -0.014 A 
BRANCH  30  31
ATOM     31  C   UNL     1      -2.768 -10.327   0.133  1.00  0.00     0.031 A 
ATOM     32  C   UNL     1      -2.588 -11.719   0.681  1.00  0.00     0.074 A 
ATOM     33  C   UNL     1      -3.846 -10.030  -0.617  1.00  0.00     0.049 A 
ATOM     34  N   UNL     1      -3.333 -12.781   0.513  1.00  0.00    -0.248 NA
ATOM     35  C   UNL     1      -1.386 -11.952   1.495  1.00  0.00     0.031 C 
ATOM     36  C   UNL     1      -4.118  -8.728  -1.230  1.00  0.00     0.029 A 
ATOM     37  N   UNL     1      -4.915 -10.803  -0.996  1.00  0.00    -0.354 N 
ATOM     38  C   UNL     1      -2.682 -13.810   1.186  1.00  0.00     0.074 A 
ATOM     39  C   UNL     1      -1.441 -13.260   1.688  1.00  0.00     0.031 C 
ATOM     40  C   UNL     1      -5.296  -8.781  -1.869  1.00  0.00     0.029 A 
ATOM     41  C   UNL     1      -5.837 -10.132  -1.764  1.00  0.00     0.049 A 
ATOM     42  H   UNL     1      -5.012 -11.749  -0.741  1.00  0.00     0.167 HD
ATOM     43  C   UNL     1      -3.094 -15.086   1.397  1.00  0.00     0.034 A 
ATOM     44  C   UNL     1      -6.984 -10.560  -2.327  1.00  0.00     0.034 A 
ATOM     45  C   UNL     1      -4.338 -15.616   0.891  1.00  0.00     0.049 A 
ATOM     46  C   UNL     1      -7.397 -11.997  -2.131  1.00  0.00     0.074 A 
ATOM     47  C   UNL     1      -4.877 -16.878   1.069  1.00  0.00     0.029 A 
ATOM     48  N   UNL     1      -5.236 -14.912   0.096  1.00  0.00    -0.354 N 
ATOM     49  N   UNL     1      -6.790 -12.950  -1.462  1.00  0.00    -0.248 NA
ATOM     50  C   UNL     1      -8.655 -12.412  -2.764  1.00  0.00     0.031 C 
ATOM     51  C   UNL     1      -6.059 -16.960   0.325  1.00  0.00     0.029 A 
ATOM     52  C   UNL     1      -6.306 -15.723  -0.250  1.00  0.00     0.049 A 
ATOM     53  H   UNL     1      -5.127 -13.973  -0.182  1.00  0.00     0.167 HD
ATOM     54  C   UNL     1      -7.614 -14.068  -1.563  1.00  0.00     0.074 A 
ATOM     55  C   UNL     1      -8.762 -13.665  -2.350  1.00  0.00     0.031 C 
ATOM     56  C   UNL     1      -7.440 -15.312  -1.047  1.00  0.00     0.034 A 
BRANCH  43  57
ATOM     57  C   UNL     1      -2.169 -15.987   2.187  1.00  0.00     0.023 A 
ATOM     58  C   UNL     1      -1.782 -15.671   3.502  1.00  0.00     0.031 A 
ATOM     59  C   UNL     1      -1.611 -17.137   1.601  1.00  0.00     0.131 A 
ATOM     60  C   UNL     1      -0.785 -16.423   4.141  1.00  0.00     0.055 A 
ATOM     61  C   UNL     1      -0.696 -17.942   2.283  1.00  0.00     0.041 A 
ATOM     62  F   UNL     1      -1.923 -17.485   0.342  1.00  0.00    -0.206 F 
ATOM     63  C   UNL     1      -0.259 -17.574   3.553  1.00  0.00     0.022 A 
BRANCH  60  64
ATOM     64  S   UNL     1      -0.048 -15.760   5.661  1.00  0.00     0.124 S 
ATOM     65  O   UNL     1       0.428 -14.454   5.211  1.00  0.00    -0.237 OA
ATOM     66  O   UNL     1      -1.179 -15.746   6.581  1.00  0.00    -0.237 OA
ATOM     67  O   UNL     1       1.006 -16.721   5.979  1.00  0.00    -0.744 OA
ENDBRANCH  60  64
ENDBRANCH  43  57
BRANCH  44  68
ATOM     68  C   UNL     1      -7.832  -9.623  -3.117  1.00  0.00     0.023 A 
ATOM     69  C   UNL     1      -9.117  -9.275  -2.674  1.00  0.00     0.031 A 
ATOM     70  C   UNL     1      -7.384  -9.081  -4.335  1.00  0.00     0.131 A 
ATOM     71  C   UNL     1      -9.928  -8.443  -3.461  1.00  0.00     0.055 A 
ATOM     72  C   UNL     1      -8.174  -8.211  -5.089  1.00  0.00     0.041 A 
ATOM     73  F   UNL     1      -6.161  -9.379  -4.801  1.00  0.00    -0.206 F 
ATOM     74  C   UNL     1      -9.459  -7.897  -4.658  1.00  0.00     0.022 A 
BRANCH  71  75
ATOM     75  S   UNL     1     -11.636  -8.143  -2.931  1.00  0.00     0.124 S 
ATOM     76  O   UNL     1     -12.180  -9.495  -2.904  1.00  0.00    -0.237 OA
ATOM     77  O   UNL     1     -11.443  -7.502  -1.635  1.00  0.00    -0.237 OA
ATOM     78  O   UNL     1     -12.169  -7.275  -3.979  1.00  0.00    -0.744 OA
ENDBRANCH  71  75
ENDBRANCH  44  68
BRANCH  56  79
ATOM     79  C   UNL     1      -8.550 -16.311  -1.276  1.00  0.00     0.023 A 
ATOM     80  C   UNL     1      -8.865 -16.791  -2.559  1.00  0.00     0.031 A 
ATOM     81  C   UNL     1      -9.312 -16.778  -0.190  1.00  0.00     0.131 A 
ATOM     82  C   UNL     1      -9.950 -17.663  -2.732  1.00  0.00     0.055 A 
ATOM     83  C   UNL     1     -10.348 -17.698  -0.360  1.00  0.00     0.041 A 
ATOM     84  F   UNL     1      -9.059 -16.351   1.057  1.00  0.00    -0.206 F 
ATOM     85  C   UNL     1     -10.681 -18.135  -1.638  1.00  0.00     0.022 A 
BRANCH  82  86
ATOM     86  S   UNL     1     -10.459 -18.099  -4.418  1.00  0.00     0.124 S 
ATOM     87  O   UNL     1     -10.745 -16.790  -4.996  1.00  0.00    -0.237 OA
ATOM     88  O   UNL     1      -9.277 -18.780  -4.935  1.00  0.00    -0.237 OA
ATOM     89  O   UNL     1     -11.627 -18.955  -4.213  1.00  0.00    -0.744 OA
ENDBRANCH  82  86
ENDBRANCH  56  79
ENDBRANCH  30  31
ENDBRANCH  22  25
ENDBRANCH  20  21
ENDBRANCH  19  20
ENDBRANCH   1  19
TORSDOF 17
