REMARK SMILES C[C@@](NC(=O)NCC(N)=O)(C(=O)NCCCNC(=O)c1ccc(-c2c3nc(c(-c4cc(S(=O)(=O)[O-])ccc4F)c4ccc([nH]4)c(-c4cc(S(=O)(=O)[O-])ccc4F)c4nc(c(-c5cc(S(=O)(=O)[O-])ccc5F)c5ccc2[nH]5)C=C4)C=C3)cc1)C(F)(F)F
REMARK SMILES IDX 15 1 14 2 13 3 11 4 12 5 2 7 1 8 3 9 4 10 5 12 6 13 7 15
REMARK SMILES IDX 8 16 9 17 10 18 83 21 84 22 85 23 86 24 16 25 17 26 18 27
REMARK SMILES IDX 19 29 20 30 21 31 82 32 22 33 81 34 23 35 24 36 25 37 75 38
REMARK SMILES IDX 26 39 80 40 74 41 76 42 27 43 79 44 73 45 72 46 28 48 60 49
REMARK SMILES IDX 40 50 59 51 41 52 44 53 58 54 77 55 42 56 43 57 57 59 78 60
REMARK SMILES IDX 45 61 29 62 30 63 38 64 31 65 37 66 39 67 36 68 32 69 33 70
REMARK SMILES IDX 34 71 35 72 61 73 62 74 70 75 63 76 69 77 71 78 68 79 64 80
REMARK SMILES IDX 65 81 66 82 67 83 46 84 47 85 55 86 48 87 54 88 56 89 53 90
REMARK SMILES IDX 49 91 50 92 51 93 52 94
REMARK H PARENT 13 6 3 11 6 14 9 19 9 20 17 28 76 47 44 58
REMARK Flexibility Score: inf
ROOT
ATOM      1  C   UNL     1      -1.232   0.865   2.966  1.00  0.00     0.042 C 
ENDROOT
BRANCH   1   2
ATOM      2  C   UNL     1      -0.853  -0.250   2.009  1.00  0.00     0.117 C 
BRANCH   2   3
ATOM      3  N   UNL     1      -1.178   0.092   0.630  1.00  0.00    -0.354 N 
ATOM      4  C   UNL     1      -0.596  -0.312  -0.541  1.00  0.00     0.255 C 
ATOM      5  O   UNL     1      -1.116   0.115  -1.574  1.00  0.00    -0.272 OA
ATOM      6  H   UNL     1      -1.935   0.713   0.524  1.00  0.00     0.163 HD
BRANCH   4   7
ATOM      7  C   UNL     1       0.711  -1.116  -0.544  1.00  0.00     0.213 C 
ATOM      8  C   UNL     1       1.815  -0.072  -0.233  1.00  0.00     0.056 C 
BRANCH   7   9
ATOM      9  N   UNL     1       0.771  -2.175   0.510  1.00  0.00    -0.316 N 
ATOM     10  C   UNL     1       0.142  -3.341   0.700  1.00  0.00     0.316 C 
ATOM     11  H   UNL     1       1.417  -1.968   1.223  1.00  0.00     0.166 HD
ATOM     12  O   UNL     1       0.707  -4.159   1.428  1.00  0.00    -0.249 OA
ATOM     13  N   UNL     1      -1.046  -3.658   0.190  1.00  0.00    -0.329 N 
ATOM     14  H   UNL     1      -1.240  -4.622   0.237  1.00  0.00     0.165 HD
BRANCH  13  15
ATOM     15  C   UNL     1      -2.118  -2.896  -0.420  1.00  0.00     0.217 C 
BRANCH  15  16
ATOM     16  C   UNL     1      -3.247  -3.767  -0.960  1.00  0.00     0.236 C 
ATOM     17  N   UNL     1      -4.360  -3.069  -1.343  1.00  0.00    -0.368 N 
ATOM     18  O   UNL     1      -3.178  -4.984  -1.087  1.00  0.00    -0.273 OA
ATOM     19  H   UNL     1      -4.391  -2.091  -1.231  1.00  0.00     0.159 HD
ATOM     20  H   UNL     1      -5.130  -3.545  -1.731  1.00  0.00     0.159 HD
ENDBRANCH  15  16
ENDBRANCH  13  15
ENDBRANCH   7   9
BRANCH   7  21
ATOM     21  C   UNL     1       1.004  -1.660  -1.960  1.00  0.00     0.420 C 
ATOM     22  F   UNL     1       1.091  -0.684  -2.893  1.00  0.00    -0.168 F 
ATOM     23  F   UNL     1       2.212  -2.291  -1.967  1.00  0.00    -0.168 F 
ATOM     24  F   UNL     1       0.102  -2.564  -2.394  1.00  0.00    -0.168 F 
ENDBRANCH   7  21
ENDBRANCH   4   7
ENDBRANCH   2   3
ENDBRANCH   1   2
BRANCH   1  25
ATOM     25  C   UNL     1      -2.734   1.014   3.144  1.00  0.00     0.118 C 
BRANCH  25  26
ATOM     26  N   UNL     1      -3.309  -0.021   3.991  1.00  0.00    -0.352 N 
ATOM     27  C   UNL     1      -4.088   0.135   5.116  1.00  0.00     0.251 C 
ATOM     28  H   UNL     1      -3.117  -0.949   3.726  1.00  0.00     0.163 HD
ATOM     29  O   UNL     1      -4.369  -0.836   5.811  1.00  0.00    -0.269 OA
BRANCH  27  30
ATOM     30  C   UNL     1      -4.537   1.492   5.494  1.00  0.00     0.039 A 
ATOM     31  C   UNL     1      -4.325   1.938   6.799  1.00  0.00     0.014 A 
ATOM     32  C   UNL     1      -5.088   2.346   4.534  1.00  0.00     0.014 A 
ATOM     33  C   UNL     1      -4.591   3.271   7.119  1.00  0.00     0.010 A 
ATOM     34  C   UNL     1      -5.259   3.694   4.831  1.00  0.00     0.010 A 
ATOM     35  C   UNL     1      -5.014   4.172   6.127  1.00  0.00    -0.014 A 
BRANCH  35  36
ATOM     36  C   UNL     1      -5.204   5.615   6.431  1.00  0.00     0.031 A 
ATOM     37  C   UNL     1      -6.562   6.246   6.276  1.00  0.00     0.074 A 
ATOM     38  C   UNL     1      -4.144   6.367   6.792  1.00  0.00     0.049 A 
ATOM     39  N   UNL     1      -6.922   7.491   6.453  1.00  0.00    -0.248 NA
ATOM     40  C   UNL     1      -7.652   5.365   5.827  1.00  0.00     0.031 C 
ATOM     41  C   UNL     1      -2.767   5.884   6.916  1.00  0.00     0.029 A 
ATOM     42  N   UNL     1      -4.056   7.697   7.120  1.00  0.00    -0.354 N 
ATOM     43  C   UNL     1      -8.274   7.544   6.129  1.00  0.00     0.074 A 
ATOM     44  C   UNL     1      -8.647   6.224   5.670  1.00  0.00     0.031 C 
ATOM     45  C   UNL     1      -1.981   6.891   7.331  1.00  0.00     0.029 A 
ATOM     46  C   UNL     1      -2.785   8.101   7.460  1.00  0.00     0.049 A 
ATOM     47  H   UNL     1      -4.830   8.306   7.112  1.00  0.00     0.167 HD
ATOM     48  C   UNL     1      -9.133   8.589   6.234  1.00  0.00     0.034 A 
ATOM     49  C   UNL     1      -2.320   9.311   7.833  1.00  0.00     0.034 A 
ATOM     50  C   UNL     1      -8.746   9.895   6.708  1.00  0.00     0.049 A 
ATOM     51  C   UNL     1      -3.292  10.459   7.939  1.00  0.00     0.074 A 
ATOM     52  C   UNL     1      -9.541  11.010   6.908  1.00  0.00     0.029 A 
ATOM     53  N   UNL     1      -7.452  10.266   7.053  1.00  0.00    -0.354 N 
ATOM     54  N   UNL     1      -4.582  10.476   7.688  1.00  0.00    -0.248 NA
ATOM     55  C   UNL     1      -2.749  11.744   8.395  1.00  0.00     0.031 C 
ATOM     56  C   UNL     1      -8.720  12.071   7.306  1.00  0.00     0.029 A 
ATOM     57  C   UNL     1      -7.423  11.599   7.434  1.00  0.00     0.049 A 
ATOM     58  H   UNL     1      -6.670   9.669   7.029  1.00  0.00     0.167 HD
ATOM     59  C   UNL     1      -5.007  11.768   7.987  1.00  0.00     0.074 A 
ATOM     60  C   UNL     1      -3.842  12.489   8.456  1.00  0.00     0.031 C 
ATOM     61  C   UNL     1      -6.249  12.309   7.886  1.00  0.00     0.034 A 
BRANCH  48  62
ATOM     62  C   UNL     1     -10.564   8.356   5.809  1.00  0.00     0.023 A 
ATOM     63  C   UNL     1     -11.380   7.408   6.452  1.00  0.00     0.031 A 
ATOM     64  C   UNL     1     -11.112   9.065   4.725  1.00  0.00     0.131 A 
ATOM     65  C   UNL     1     -12.664   7.136   5.956  1.00  0.00     0.055 A 
ATOM     66  C   UNL     1     -12.423   8.852   4.293  1.00  0.00     0.041 A 
ATOM     67  F   UNL     1     -10.376   9.966   4.056  1.00  0.00    -0.206 F 
ATOM     68  C   UNL     1     -13.202   7.871   4.898  1.00  0.00     0.022 A 
BRANCH  65  69
ATOM     69  S   UNL     1     -13.559   5.702   6.615  1.00  0.00     0.124 S 
ATOM     70  O   UNL     1     -12.635   4.612   6.308  1.00  0.00    -0.237 OA
ATOM     71  O   UNL     1     -13.702   6.040   8.026  1.00  0.00    -0.237 OA
ATOM     72  O   UNL     1     -14.801   5.690   5.845  1.00  0.00    -0.744 OA
ENDBRANCH  65  69
ENDBRANCH  48  62
BRANCH  49  73
ATOM     73  C   UNL     1      -0.873   9.506   8.139  1.00  0.00     0.023 A 
ATOM     74  C   UNL     1      -0.446   9.860   9.429  1.00  0.00     0.031 A 
ATOM     75  C   UNL     1       0.103   9.385   7.133  1.00  0.00     0.131 A 
ATOM     76  C   UNL     1       0.910  10.129   9.669  1.00  0.00     0.055 A 
ATOM     77  C   UNL     1       1.458   9.601   7.389  1.00  0.00     0.041 A 
ATOM     78  F   UNL     1      -0.249   9.043   5.883  1.00  0.00    -0.206 F 
ATOM     79  C   UNL     1       1.867   9.990   8.661  1.00  0.00     0.022 A 
BRANCH  76  80
ATOM     80  S   UNL     1       1.397  10.752  11.302  1.00  0.00     0.124 S 
ATOM     81  O   UNL     1       0.583  11.957  11.414  1.00  0.00    -0.237 OA
ATOM     82  O   UNL     1       1.024   9.642  12.171  1.00  0.00    -0.237 OA
ATOM     83  O   UNL     1       2.834  10.979  11.165  1.00  0.00    -0.744 OA
ENDBRANCH  76  80
ENDBRANCH  49  73
BRANCH  61  84
ATOM     84  C   UNL     1      -6.407  13.742   8.335  1.00  0.00     0.023 A 
ATOM     85  C   UNL     1      -5.773  14.803   7.664  1.00  0.00     0.031 A 
ATOM     86  C   UNL     1      -7.183  14.047   9.468  1.00  0.00     0.131 A 
ATOM     87  C   UNL     1      -5.868  16.107   8.171  1.00  0.00     0.055 A 
ATOM     88  C   UNL     1      -7.329  15.357   9.928  1.00  0.00     0.041 A 
ATOM     89  F   UNL     1      -7.809  13.075  10.150  1.00  0.00    -0.206 F 
ATOM     90  C   UNL     1      -6.656  16.393   9.288  1.00  0.00     0.022 A 
BRANCH  87  91
ATOM     91  S   UNL     1      -4.853  17.408   7.417  1.00  0.00     0.124 S 
ATOM     92  O   UNL     1      -3.507  16.859   7.553  1.00  0.00    -0.237 OA
ATOM     93  O   UNL     1      -5.383  17.469   6.059  1.00  0.00    -0.237 OA
ATOM     94  O   UNL     1      -5.130  18.581   8.244  1.00  0.00    -0.744 OA
ENDBRANCH  87  91
ENDBRANCH  61  84
ENDBRANCH  35  36
ENDBRANCH  27  30
ENDBRANCH  25  26
ENDBRANCH   1  25
TORSDOF 17
