REMARK SMILES O=C(NCCCNC(=O)c1ccc(-c2c3nc(c(-c4cc(S(=O)(=O)[O-])ccc4F)c4ccc([nH]4)c(-c4cc(S(=O)(=O)[O-])ccc4F)c4nc(c(-c5cc(S(=O)(=O)[O-])ccc5F)c5ccc2[nH]5)C=C4)C=C3)cc1)C1=Cc2cc(S(F)(F)(F)(F)F)ccc2O[C@@H]1C(F)(F)F
REMARK SMILES IDX 6 1 5 2 4 3 3 4 1 5 2 6 73 8 74 9 88 10 75 11 87 12 76 13
REMARK SMILES IDX 86 14 77 15 85 16 84 17 89 18 90 19 91 20 92 21 78 22 79 23
REMARK SMILES IDX 80 24 81 25 82 26 83 27 7 28 8 29 9 31 10 32 11 33 72 34
REMARK SMILES IDX 12 35 71 36 13 37 14 38 15 39 65 40 16 41 70 42 64 43 66 44
REMARK SMILES IDX 17 45 69 46 63 47 62 48 18 50 50 51 30 52 49 53 31 54 34 55
REMARK SMILES IDX 48 56 67 57 32 58 33 59 47 61 68 62 35 63 19 64 20 65 28 66
REMARK SMILES IDX 21 67 27 68 29 69 26 70 22 71 23 72 24 73 25 74 51 75 52 76
REMARK SMILES IDX 60 77 53 78 59 79 61 80 58 81 54 82 55 83 56 84 57 85 36 86
REMARK SMILES IDX 37 87 45 88 38 89 44 90 46 91 43 92 39 93 40 94 41 95 42 96
REMARK H PARENT 3 7 7 30 66 49 34 60
REMARK Flexibility Score: inf
ROOT
ATOM      1  C   UNL     1       4.492  -1.412   3.461  1.00  0.00     0.118 C 
ENDROOT
BRANCH   1   2
ATOM      2  C   UNL     1       4.998  -0.447   2.402  1.00  0.00     0.042 C 
BRANCH   2   3
ATOM      3  C   UNL     1       4.492  -0.880   1.037  1.00  0.00     0.118 C 
BRANCH   3   4
ATOM      4  N   UNL     1       3.022  -0.880   1.037  1.00  0.00    -0.352 N 
ATOM      5  O   UNL     1       1.016  -0.022   0.096  1.00  0.00    -0.270 OA
ATOM      6  C   UNL     1       2.287  -0.022   0.096  1.00  0.00     0.251 C 
ATOM      7  H   UNL     1       2.529  -1.455   1.667  1.00  0.00     0.163 HD
BRANCH   6   8
ATOM      8  C   UNL     1       3.046   0.865  -0.876  1.00  0.00     0.067 C 
ATOM      9  C   UNL     1       4.407   0.865  -0.876  1.00  0.00     0.025 C 
ATOM     10  C   UNL     1       2.287   1.752  -1.849  1.00  0.00     0.314 C 
ATOM     11  C   UNL     1       5.167  -0.022   0.096  1.00  0.00     0.019 A 
ATOM     12  O   UNL     1       3.558  -1.753  -0.160  1.00  0.00    -0.475 OA
ATOM     13  C   UNL     1       6.317   0.505   0.659  1.00  0.00     0.036 A 
ATOM     14  C   UNL     1       4.820  -1.289   0.296  1.00  0.00     0.128 A 
ATOM     15  C   UNL     1       7.196  -0.469   1.187  1.00  0.00     0.107 A 
ATOM     16  C   UNL     1       5.672  -2.153   0.940  1.00  0.00     0.048 A 
ATOM     17  C   UNL     1       6.853  -1.713   1.470  1.00  0.00     0.028 A 
BRANCH  10  18
ATOM     18  C   UNL     1       2.654   1.372  -3.274  1.00  0.00     0.429 C 
ATOM     19  F   UNL     1       2.332   0.100  -3.491  1.00  0.00    -0.167 F 
ATOM     20  F   UNL     1       1.989   2.149  -4.125  1.00  0.00    -0.167 F 
ATOM     21  F   UNL     1       3.961   1.536  -3.454  1.00  0.00    -0.167 F 
ENDBRANCH  10  18
BRANCH  15  22
ATOM     22  S   UNL     1       8.911   0.022   1.496  1.00  0.00     0.310 S 
ATOM     23  F   UNL     1       8.692   0.015   3.067  1.00  0.00    -0.094 F 
ATOM     24  F   UNL     1       8.443   1.526   1.508  1.00  0.00    -0.094 F 
ATOM     25  F   UNL     1      10.382   0.448   1.765  1.00  0.00    -0.094 F 
ATOM     26  F   UNL     1       9.336  -1.494   1.622  1.00  0.00    -0.094 F 
ATOM     27  F   UNL     1       7.404  -0.429   1.337  1.00  0.00    -0.094 F 
ENDBRANCH  15  22
ENDBRANCH   6   8
ENDBRANCH   3   4
ENDBRANCH   2   3
ENDBRANCH   1   2
BRANCH   1  28
ATOM     28  N   UNL     1       4.981  -2.766   3.164  1.00  0.00    -0.352 N 
ATOM     29  C   UNL     1       5.827  -3.472   4.138  1.00  0.00     0.251 C 
ATOM     30  H   UNL     1       4.744  -3.200   2.313  1.00  0.00     0.163 HD
ATOM     31  O   UNL     1       6.250  -4.642   3.881  1.00  0.00    -0.269 OA
BRANCH  29  32
ATOM     32  C   UNL     1       6.194  -2.802   5.452  1.00  0.00     0.039 A 
ATOM     33  C   UNL     1       7.461  -2.982   5.982  1.00  0.00     0.014 A 
ATOM     34  C   UNL     1       5.244  -2.175   6.136  1.00  0.00     0.014 A 
ATOM     35  C   UNL     1       7.546  -2.716   7.369  1.00  0.00     0.010 A 
ATOM     36  C   UNL     1       5.444  -1.823   7.449  1.00  0.00     0.010 A 
ATOM     37  C   UNL     1       6.653  -2.025   8.055  1.00  0.00    -0.014 A 
BRANCH  37  38
ATOM     38  C   UNL     1       6.954  -1.484   9.443  1.00  0.00     0.031 A 
ATOM     39  C   UNL     1       6.138  -1.925  10.486  1.00  0.00     0.074 A 
ATOM     40  C   UNL     1       8.076  -0.693   9.620  1.00  0.00     0.049 A 
ATOM     41  N   UNL     1       6.297  -1.707  11.792  1.00  0.00    -0.248 NA
ATOM     42  C   UNL     1       4.926  -2.736  10.297  1.00  0.00     0.031 C 
ATOM     43  C   UNL     1       8.910  -0.252   8.574  1.00  0.00     0.029 A 
ATOM     44  N   UNL     1       8.584  -0.199  10.801  1.00  0.00    -0.354 N 
ATOM     45  C   UNL     1       5.324  -2.305  12.482  1.00  0.00     0.074 A 
ATOM     46  C   UNL     1       4.424  -2.971  11.530  1.00  0.00     0.031 C 
ATOM     47  C   UNL     1       9.899   0.508   9.115  1.00  0.00     0.029 A 
ATOM     48  C   UNL     1       9.701   0.553  10.508  1.00  0.00     0.049 A 
ATOM     49  H   UNL     1       8.213  -0.355  11.699  1.00  0.00     0.167 HD
ATOM     50  C   UNL     1       5.152  -2.324  13.867  1.00  0.00     0.034 A 
ATOM     51  C   UNL     1      10.512   1.247  11.391  1.00  0.00     0.034 A 
ATOM     52  C   UNL     1       5.989  -1.665  14.754  1.00  0.00     0.049 A 
ATOM     53  C   UNL     1      10.307   1.277  12.773  1.00  0.00     0.074 A 
ATOM     54  C   UNL     1       5.835  -1.679  16.153  1.00  0.00     0.029 A 
ATOM     55  N   UNL     1       7.091  -0.893  14.459  1.00  0.00    -0.354 N 
ATOM     56  N   UNL     1       9.357   0.646  13.465  1.00  0.00    -0.248 NA
ATOM     57  C   UNL     1      11.141   2.035  13.714  1.00  0.00     0.031 C 
ATOM     58  C   UNL     1       6.824  -0.919  16.694  1.00  0.00     0.029 A 
ATOM     59  C   UNL     1       7.612  -0.417  15.641  1.00  0.00     0.049 A 
ATOM     60  H   UNL     1       7.445  -0.713  13.558  1.00  0.00     0.167 HD
ATOM     61  C   UNL     1       9.493   0.899  14.768  1.00  0.00     0.074 A 
ATOM     62  C   UNL     1      10.638   1.803  14.947  1.00  0.00     0.031 C 
ATOM     63  C   UNL     1       8.711   0.411  15.816  1.00  0.00     0.034 A 
BRANCH  50  64
ATOM     64  C   UNL     1       3.982  -3.110  14.434  1.00  0.00     0.023 A 
ATOM     65  C   UNL     1       3.854  -4.467  14.185  1.00  0.00     0.031 A 
ATOM     66  C   UNL     1       3.076  -2.453  15.148  1.00  0.00     0.131 A 
ATOM     67  C   UNL     1       2.575  -4.987  14.491  1.00  0.00     0.055 A 
ATOM     68  C   UNL     1       1.907  -3.065  15.530  1.00  0.00     0.041 A 
ATOM     69  F   UNL     1       3.302  -1.189  15.497  1.00  0.00    -0.206 F 
ATOM     70  C   UNL     1       1.688  -4.389  15.265  1.00  0.00     0.022 A 
BRANCH  67  71
ATOM     71  S   UNL     1       2.122  -6.586  13.772  1.00  0.00     0.124 S 
ATOM     72  O   UNL     1       2.161  -6.488  12.245  1.00  0.00    -0.237 OA
ATOM     73  O   UNL     1       3.113  -7.654  14.240  1.00  0.00    -0.237 OA
ATOM     74  O   UNL     1       0.544  -7.011  14.276  1.00  0.00    -0.744 OA
ENDBRANCH  67  71
ENDBRANCH  50  64
BRANCH  51  75
ATOM     75  C   UNL     1      11.692   2.020  10.825  1.00  0.00     0.023 A 
ATOM     76  C   UNL     1      12.989   1.706  11.196  1.00  0.00     0.031 A 
ATOM     77  C   UNL     1      11.441   2.984   9.947  1.00  0.00     0.131 A 
ATOM     78  C   UNL     1      13.948   2.668  10.799  1.00  0.00     0.055 A 
ATOM     79  C   UNL     1      12.451   3.801   9.497  1.00  0.00     0.041 A 
ATOM     80  F   UNL     1      10.202   3.161   9.498  1.00  0.00    -0.206 F 
ATOM     81  C   UNL     1      13.748   3.585   9.870  1.00  0.00     0.022 A 
BRANCH  78  82
ATOM     82  S   UNL     1      15.560   2.639  11.622  1.00  0.00     0.124 S 
ATOM     83  O   UNL     1      15.370   2.858  13.124  1.00  0.00    -0.237 OA
ATOM     84  O   UNL     1      16.229   1.284  11.385  1.00  0.00    -0.237 OA
ATOM     85  O   UNL     1      16.547   3.882  10.985  1.00  0.00    -0.744 OA
ENDBRANCH  78  82
ENDBRANCH  51  75
BRANCH  63  86
ATOM     86  C   UNL     1       9.086   0.810  17.233  1.00  0.00     0.023 A 
ATOM     87  C   UNL     1       9.192   2.151  17.564  1.00  0.00     0.031 A 
ATOM     88  C   UNL     1       9.396  -0.141  18.107  1.00  0.00     0.131 A 
ATOM     89  C   UNL     1       9.916   2.393  18.755  1.00  0.00     0.055 A 
ATOM     90  C   UNL     1       9.978   0.177  19.310  1.00  0.00     0.041 A 
ATOM     91  F   UNL     1       9.142  -1.413  17.813  1.00  0.00    -0.206 F 
ATOM     92  C   UNL     1      10.167   1.481  19.677  1.00  0.00     0.022 A 
BRANCH  89  93
ATOM     93  S   UNL     1      10.541   4.068  19.035  1.00  0.00     0.124 S 
ATOM     94  O   UNL     1      11.494   4.453  17.901  1.00  0.00    -0.237 OA
ATOM     95  O   UNL     1       9.368   5.051  19.072  1.00  0.00    -0.237 OA
ATOM     96  O   UNL     1      11.377   4.122  20.526  1.00  0.00    -0.744 OA
ENDBRANCH  89  93
ENDBRANCH  63  86
ENDBRANCH  37  38
ENDBRANCH  29  32
ENDBRANCH   1  28
TORSDOF 15
