REMARK SMILES CCOc1ccccc1N1C(=O)/C(=C\c2ccc(OCC(=O)NCCCNC(=O)c3ccc(-c4c5nc(c(-c6cc(S(=O)(=O)[O-])ccc6F)c6ccc([nH]6)c(-c6cc(S(=O)(=O)[O-])ccc6F)c6nc(c(-c7cc(S(=O)(=O)[O-])ccc7F)c7ccc4[nH]7)C=C6)C=C5)cc3)cc2)SC1=S
REMARK SMILES IDX 21 1 22 2 23 3 20 5 19 6 18 7 15 8 16 9 94 10 17 11 93 12
REMARK SMILES IDX 14 13 10 14 11 15 96 16 12 17 13 18 95 19 97 20 9 21 4 22
REMARK SMILES IDX 5 23 6 24 8 25 7 26 3 27 2 28 1 29 24 30 25 31 26 32 27 33
REMARK SMILES IDX 28 34 29 36 30 37 31 38 92 39 32 40 91 41 33 42 34 43 35 44
REMARK SMILES IDX 85 45 36 46 90 47 84 48 86 49 37 50 89 51 83 52 82 53 38 55
REMARK SMILES IDX 70 56 50 57 69 58 51 59 54 60 68 61 87 62 52 63 53 64 67 66
REMARK SMILES IDX 88 67 55 68 39 69 40 70 48 71 41 72 47 73 49 74 46 75 42 76
REMARK SMILES IDX 43 77 44 78 45 79 71 80 72 81 80 82 73 83 79 84 81 85 78 86
REMARK SMILES IDX 74 87 75 88 76 89 77 90 56 91 57 92 65 93 58 94 64 95 66 96
REMARK SMILES IDX 63 97 59 98 60 99 61 100 62 101
REMARK H PARENT 23 4 27 35 86 54 54 65
REMARK Flexibility Score: inf
ROOT
ATOM      1  C   UNL     1       6.639  -0.852   5.322  1.00  0.00     0.257 C 
ATOM      2  O   UNL     1       5.777  -0.023   5.624  1.00  0.00    -0.271 OA
ATOM      3  N   UNL     1       7.774  -0.422   4.696  1.00  0.00    -0.353 N 
ATOM      4  H   UNL     1       7.805   0.538   4.480  1.00  0.00     0.163 HD
ENDROOT
BRANCH   1   5
ATOM      5  C   UNL     1       6.484  -2.332   5.699  1.00  0.00     0.329 C 
BRANCH   5   6
ATOM      6  O   UNL     1       6.584  -3.289   4.659  1.00  0.00    -0.484 OA
BRANCH   6   7
ATOM      7  C   UNL     1       5.627  -3.274   3.682  1.00  0.00     0.120 A 
ATOM      8  C   UNL     1       3.923  -3.292   1.449  1.00  0.00    -0.024 A 
ATOM      9  C   UNL     1       5.082  -4.069   1.452  1.00  0.00     0.012 A 
ATOM     10  C   UNL     1       3.587  -2.561   2.595  1.00  0.00     0.012 A 
ATOM     11  C   UNL     1       5.924  -4.061   2.566  1.00  0.00     0.047 A 
ATOM     12  C   UNL     1       4.438  -2.549   3.706  1.00  0.00     0.047 A 
BRANCH   8  13
ATOM     13  C   UNL     1       3.104  -3.212   0.238  1.00  0.00     0.029 C 
ATOM     14  N   UNL     1       3.094   0.148  -1.170  1.00  0.00    -0.257 N 
ATOM     15  C   UNL     1       3.681  -0.807  -0.345  1.00  0.00     0.270 C 
ATOM     16  C   UNL     1       2.194  -0.308  -2.118  1.00  0.00     0.153 C 
ATOM     17  O   UNL     1       4.580  -0.621   0.458  1.00  0.00    -0.268 OA
ATOM     18  C   UNL     1       3.000  -2.124  -0.540  1.00  0.00     0.081 C 
ATOM     19  S   UNL     1       1.934  -2.041  -1.891  1.00  0.00    -0.054 SA
ATOM     20  S   UNL     1       1.473   0.506  -3.390  1.00  0.00    -0.051 S 
BRANCH  14  21
ATOM     21  C   UNL     1       3.392   1.520  -0.934  1.00  0.00     0.093 A 
ATOM     22  C   UNL     1       2.384   2.424  -0.560  1.00  0.00     0.143 A 
ATOM     23  C   UNL     1       2.691   3.756  -0.270  1.00  0.00     0.049 A 
ATOM     24  C   UNL     1       4.018   4.185  -0.310  1.00  0.00     0.004 A 
ATOM     25  C   UNL     1       4.723   1.960  -0.943  1.00  0.00     0.031 A 
ATOM     26  C   UNL     1       5.032   3.288  -0.641  1.00  0.00     0.002 A 
BRANCH  22  27
ATOM     27  O   UNL     1       1.080   2.011  -0.486  1.00  0.00    -0.492 OA
BRANCH  27  28
ATOM     28  C   UNL     1       0.644   1.783   0.857  1.00  0.00     0.226 C 
ATOM     29  C   UNL     1       0.215   0.330   0.983  1.00  0.00     0.049 C 
ENDBRANCH  27  28
ENDBRANCH  22  27
ENDBRANCH  14  21
ENDBRANCH   8  13
ENDBRANCH   6   7
ENDBRANCH   5   6
ENDBRANCH   1   5
BRANCH   3  30
ATOM     30  C   UNL     1       8.941  -1.192   4.308  1.00  0.00     0.117 C 
BRANCH  30  31
ATOM     31  C   UNL     1       9.042  -1.405   2.801  1.00  0.00     0.042 C 
BRANCH  31  32
ATOM     32  C   UNL     1       9.166  -0.127   1.972  1.00  0.00     0.118 C 
BRANCH  32  33
ATOM     33  N   UNL     1      10.353   0.652   2.294  1.00  0.00    -0.352 N 
ATOM     34  C   UNL     1      11.359   1.132   1.491  1.00  0.00     0.251 C 
ATOM     35  H   UNL     1      10.451   0.872   3.249  1.00  0.00     0.163 HD
ATOM     36  O   UNL     1      12.341   1.645   2.025  1.00  0.00    -0.269 OA
BRANCH  34  37
ATOM     37  C   UNL     1      11.297   1.020   0.014  1.00  0.00     0.039 A 
ATOM     38  C   UNL     1      12.478   0.739  -0.682  1.00  0.00     0.014 A 
ATOM     39  C   UNL     1      10.114   1.234  -0.699  1.00  0.00     0.014 A 
ATOM     40  C   UNL     1      12.459   0.608  -2.075  1.00  0.00     0.010 A 
ATOM     41  C   UNL     1      10.082   1.035  -2.081  1.00  0.00     0.010 A 
ATOM     42  C   UNL     1      11.253   0.719  -2.785  1.00  0.00    -0.014 A 
BRANCH  42  43
ATOM     43  C   UNL     1      11.210   0.506  -4.259  1.00  0.00     0.031 A 
ATOM     44  C   UNL     1      10.829   1.634  -5.181  1.00  0.00     0.074 A 
ATOM     45  C   UNL     1      11.471  -0.717  -4.765  1.00  0.00     0.049 A 
ATOM     46  N   UNL     1      10.670   1.624  -6.481  1.00  0.00    -0.248 NA
ATOM     47  C   UNL     1      10.571   2.940  -4.556  1.00  0.00     0.031 C 
ATOM     48  C   UNL     1      11.815  -1.902  -3.975  1.00  0.00     0.029 A 
ATOM     49  N   UNL     1      11.483  -1.171  -6.061  1.00  0.00    -0.354 N 
ATOM     50  C   UNL     1      10.291   2.917  -6.830  1.00  0.00     0.074 A 
ATOM     51  C   UNL     1      10.184   3.666  -5.595  1.00  0.00     0.031 C 
ATOM     52  C   UNL     1      12.020  -2.939  -4.803  1.00  0.00     0.029 A 
ATOM     53  C   UNL     1      11.785  -2.509  -6.177  1.00  0.00     0.049 A 
ATOM     54  H   UNL     1      11.294  -0.593  -6.835  1.00  0.00     0.167 HD
ATOM     55  C   UNL     1      10.077   3.438  -8.064  1.00  0.00     0.034 A 
ATOM     56  C   UNL     1      11.854  -3.303  -7.264  1.00  0.00     0.034 A 
ATOM     57  C   UNL     1      10.190   2.685  -9.290  1.00  0.00     0.049 A 
ATOM     58  C   UNL     1      11.607  -2.699  -8.625  1.00  0.00     0.074 A 
ATOM     59  C   UNL     1       9.999   3.118 -10.592  1.00  0.00     0.029 A 
ATOM     60  N   UNL     1      10.532   1.341  -9.369  1.00  0.00    -0.354 N 
ATOM     61  N   UNL     1      11.274  -1.467  -8.935  1.00  0.00    -0.248 NA
ATOM     62  C   UNL     1      11.769  -3.587  -9.783  1.00  0.00     0.031 C 
ATOM     63  C   UNL     1      10.177   2.028 -11.451  1.00  0.00     0.029 A 
ATOM     64  C   UNL     1      10.550   0.930 -10.694  1.00  0.00     0.049 A 
ATOM     65  H   UNL     1      10.732   0.764  -8.597  1.00  0.00     0.167 HD
ATOM     66  C   UNL     1      11.226  -1.427 -10.326  1.00  0.00     0.074 A 
ATOM     67  C   UNL     1      11.585  -2.750 -10.792  1.00  0.00     0.031 C 
ATOM     68  C   UNL     1      10.914  -0.392 -11.147  1.00  0.00     0.034 A 
BRANCH  55  69
ATOM     69  C   UNL     1       9.686   4.895  -8.142  1.00  0.00     0.023 A 
ATOM     70  C   UNL     1      10.564   5.913  -7.729  1.00  0.00     0.031 A 
ATOM     71  C   UNL     1       8.421   5.274  -8.626  1.00  0.00     0.131 A 
ATOM     72  C   UNL     1      10.144   7.251  -7.745  1.00  0.00     0.055 A 
ATOM     73  C   UNL     1       8.038   6.615  -8.712  1.00  0.00     0.041 A 
ATOM     74  F   UNL     1       7.533   4.347  -9.017  1.00  0.00    -0.206 F 
ATOM     75  C   UNL     1       8.897   7.612  -8.259  1.00  0.00     0.022 A 
BRANCH  72  76
ATOM     76  S   UNL     1      11.206   8.502  -6.974  1.00  0.00     0.124 S 
ATOM     77  O   UNL     1      11.241   8.043  -5.587  1.00  0.00    -0.237 OA
ATOM     78  O   UNL     1      12.450   8.368  -7.723  1.00  0.00    -0.237 OA
ATOM     79  O   UNL     1      10.479   9.751  -7.191  1.00  0.00    -0.744 OA
ENDBRANCH  72  76
ENDBRANCH  55  69
BRANCH  56  80
ATOM     80  C   UNL     1      12.160  -4.757  -7.128  1.00  0.00     0.023 A 
ATOM     81  C   UNL     1      13.316  -5.311  -7.701  1.00  0.00     0.031 A 
ATOM     82  C   UNL     1      11.262  -5.628  -6.486  1.00  0.00     0.131 A 
ATOM     83  C   UNL     1      13.511  -6.701  -7.682  1.00  0.00     0.055 A 
ATOM     84  C   UNL     1      11.491  -7.004  -6.416  1.00  0.00     0.041 A 
ATOM     85  F   UNL     1      10.145  -5.152  -5.915  1.00  0.00    -0.206 F 
ATOM     86  C   UNL     1      12.611  -7.550  -7.033  1.00  0.00     0.022 A 
BRANCH  83  87
ATOM     87  S   UNL     1      14.896  -7.396  -8.625  1.00  0.00     0.124 S 
ATOM     88  O   UNL     1      14.658  -6.844  -9.954  1.00  0.00    -0.237 OA
ATOM     89  O   UNL     1      16.047  -6.862  -7.905  1.00  0.00    -0.237 OA
ATOM     90  O   UNL     1      14.700  -8.839  -8.503  1.00  0.00    -0.744 OA
ENDBRANCH  83  87
ENDBRANCH  56  80
BRANCH  68  91
ATOM     91  C   UNL     1      11.014  -0.642 -12.632  1.00  0.00     0.023 A 
ATOM     92  C   UNL     1      10.170  -1.554 -13.291  1.00  0.00     0.031 A 
ATOM     93  C   UNL     1      11.999   0.013 -13.392  1.00  0.00     0.131 A 
ATOM     94  C   UNL     1      10.376  -1.842 -14.649  1.00  0.00     0.055 A 
ATOM     95  C   UNL     1      12.157  -0.229 -14.757  1.00  0.00     0.041 A 
ATOM     96  F   UNL     1      12.833   0.894 -12.816  1.00  0.00    -0.206 F 
ATOM     97  C   UNL     1      11.355  -1.175 -15.389  1.00  0.00     0.022 A 
BRANCH  94  98
ATOM     98  S   UNL     1       9.426  -3.189 -15.407  1.00  0.00     0.124 S 
ATOM     99  O   UNL     1       9.730  -4.311 -14.524  1.00  0.00    -0.237 OA
ATOM    100  O   UNL     1       8.060  -2.680 -15.343  1.00  0.00    -0.237 OA
ATOM    101  O   UNL     1       9.987  -3.290 -16.753  1.00  0.00    -0.744 OA
ENDBRANCH  94  98
ENDBRANCH  68  91
ENDBRANCH  42  43
ENDBRANCH  34  37
ENDBRANCH  32  33
ENDBRANCH  31  32
ENDBRANCH  30  31
ENDBRANCH   3  30
TORSDOF 19
