REMARK SMILES CC(C)=CCN1C(=O)[C@H]2CC[C@@H]1C[N@@H+](Cc1ccc(C(=O)NCCCNC(=O)c3ccc(-c4c5nc(c(-c6cc(S(=O)(=O)[O-])ccc6F)c6ccc([nH]6)c(-c6cc(S(=O)(=O)[O-])ccc6F)c6nc(c(-c7cc(S(=O)(=O)[O-])ccc7F)c7ccc4[nH]7)C=C6)C=C5)cc3)cc1)C2
REMARK SMILES IDX 20 1 21 2 22 3 19 5 16 6 17 7 93 8 18 9 92 10 15 11 14 12
REMARK SMILES IDX 13 14 12 15 6 16 7 17 8 18 9 19 11 20 10 21 5 23 4 24 1 25
REMARK SMILES IDX 2 26 3 27 94 28 23 30 24 31 25 32 26 33 27 34 28 36 29 37
REMARK SMILES IDX 30 38 91 39 31 40 90 41 32 42 33 43 34 44 84 45 35 46 89 47
REMARK SMILES IDX 83 48 85 49 36 50 88 51 82 52 81 53 37 55 69 56 49 57 68 58
REMARK SMILES IDX 50 59 53 60 67 61 86 62 51 63 52 64 66 66 87 67 54 68 38 69
REMARK SMILES IDX 39 70 47 71 40 72 46 73 48 74 45 75 41 76 42 77 43 78 44 79
REMARK SMILES IDX 70 80 71 81 79 82 72 83 78 84 80 85 77 86 73 87 74 88 75 89
REMARK SMILES IDX 76 90 55 91 56 92 64 93 57 94 63 95 65 96 62 97 58 98 59 99
REMARK SMILES IDX 60 100 61 101
REMARK H PARENT 22 4 14 13 26 35 85 54 53 65
REMARK Flexibility Score: 90.00
ROOT
ATOM      1  C   UNL     1       4.656  -2.115  -3.057  1.00  0.00     0.251 C 
ATOM      2  O   UNL     1       4.090  -1.224  -3.690  1.00  0.00    -0.269 OA
ATOM      3  N   UNL     1       6.005  -1.987  -2.824  1.00  0.00    -0.352 N 
ATOM      4  H   UNL     1       6.393  -1.154  -3.177  1.00  0.00     0.163 HD
ENDROOT
BRANCH   1   5
ATOM      5  C   UNL     1       3.851  -3.222  -2.477  1.00  0.00     0.039 A 
ATOM      6  C   UNL     1       2.541  -4.933  -0.695  1.00  0.00     0.006 A 
ATOM      7  C   UNL     1       1.915  -3.762  -1.128  1.00  0.00     0.010 A 
ATOM      8  C   UNL     1       3.654  -5.380  -1.414  1.00  0.00     0.010 A 
ATOM      9  C   UNL     1       2.578  -2.896  -2.000  1.00  0.00     0.014 A 
ATOM     10  C   UNL     1       4.312  -4.523  -2.294  1.00  0.00     0.014 A 
BRANCH   6  11
ATOM     11  C   UNL     1       2.126  -5.635   0.585  1.00  0.00     0.299 C 
BRANCH  11  12
ATOM     12  N   UNL     1       2.950  -5.348   1.775  1.00  0.00    -0.329 N 
ATOM     13  H   UNL     1       2.947  -6.340   2.013  1.00  0.00     0.348 HD
BRANCH  12  14
ATOM     14  C   UNL     1       2.320  -4.742   2.942  1.00  0.00     0.287 C 
BRANCH  14  15
ATOM     15  C   UNL     1       2.787  -3.307   3.320  1.00  0.00     0.140 C 
ATOM     16  N   UNL     1       2.909  -2.459   2.135  1.00  0.00    -0.330 N 
ATOM     17  C   UNL     1       4.049  -2.630   1.333  1.00  0.00     0.232 C 
ATOM     18  O   UNL     1       4.324  -1.929   0.375  1.00  0.00    -0.274 OA
ATOM     19  C   UNL     1       4.976  -3.757   1.794  1.00  0.00     0.133 CG0
ATOM     20  C   UNL     1       4.112  -3.268   4.111  1.00  0.00     0.032 C 
ATOM     21  C   UNL     1       5.352  -3.447   3.237  1.00  0.00     0.022 C 
ATOM     22  G   UNL     1       4.389  -5.184   1.668  1.00  0.00     0.000 G0
BRANCH  16  23
ATOM     23  C   UNL     1       1.727  -1.892   1.510  1.00  0.00     0.147 C 
BRANCH  23  24
ATOM     24  C   UNL     1       0.944  -0.942   2.360  1.00  0.00    -0.007 C 
ATOM     25  C   UNL     1       0.482   0.667   0.479  1.00  0.00     0.039 C 
ATOM     26  C   UNL     1       0.321   0.160   1.890  1.00  0.00    -0.079 C 
ATOM     27  C   UNL     1      -0.651   0.924   2.744  1.00  0.00     0.039 C 
ENDBRANCH  23  24
ENDBRANCH  16  23
ENDBRANCH  14  15
ENDBRANCH  12  14
BRANCH  12  28
ATOM     28  C   UNL     1       4.389  -5.184   1.668  1.00  0.00     0.276 CG0
ATOM     29  G   UNL     1       4.976  -3.757   1.794  1.00  0.00     0.000 G0
ENDBRANCH  12  28
ENDBRANCH  11  12
ENDBRANCH   6  11
ENDBRANCH   1   5
BRANCH   3  30
ATOM     30  C   UNL     1       6.968  -2.849  -2.155  1.00  0.00     0.118 C 
BRANCH  30  31
ATOM     31  C   UNL     1       7.651  -3.769  -3.164  1.00  0.00     0.042 C 
BRANCH  31  32
ATOM     32  C   UNL     1       8.529  -3.013  -4.153  1.00  0.00     0.118 C 
BRANCH  32  33
ATOM     33  N   UNL     1       9.884  -2.841  -3.657  1.00  0.00    -0.352 N 
ATOM     34  C   UNL     1      11.054  -3.373  -4.145  1.00  0.00     0.251 C 
ATOM     35  H   UNL     1       9.976  -2.265  -2.864  1.00  0.00     0.163 HD
ATOM     36  O   UNL     1      12.075  -3.310  -3.464  1.00  0.00    -0.269 OA
BRANCH  34  37
ATOM     37  C   UNL     1      11.078  -4.041  -5.468  1.00  0.00     0.039 A 
ATOM     38  C   UNL     1      11.791  -5.235  -5.613  1.00  0.00     0.014 A 
ATOM     39  C   UNL     1      10.416  -3.489  -6.569  1.00  0.00     0.014 A 
ATOM     40  C   UNL     1      11.794  -5.900  -6.843  1.00  0.00     0.010 A 
ATOM     41  C   UNL     1      10.352  -4.194  -7.769  1.00  0.00     0.010 A 
ATOM     42  C   UNL     1      11.053  -5.399  -7.926  1.00  0.00    -0.014 A 
BRANCH  42  43
ATOM     43  C   UNL     1      11.027  -6.095  -9.240  1.00  0.00     0.031 A 
ATOM     44  C   UNL     1      11.590  -5.408 -10.458  1.00  0.00     0.074 A 
ATOM     45  C   UNL     1      10.434  -7.300  -9.355  1.00  0.00     0.049 A 
ATOM     46  N   UNL     1      11.568  -5.789 -11.710  1.00  0.00    -0.248 NA
ATOM     47  C   UNL     1      12.228  -4.100 -10.241  1.00  0.00     0.031 C 
ATOM     48  C   UNL     1       9.806  -8.042  -8.260  1.00  0.00     0.029 A 
ATOM     49  N   UNL     1      10.243  -8.105 -10.451  1.00  0.00    -0.354 N 
ATOM     50  C   UNL     1      12.155  -4.753 -12.432  1.00  0.00     0.074 A 
ATOM     51  C   UNL     1      12.482  -3.712 -11.482  1.00  0.00     0.031 C 
ATOM     52  C   UNL     1       9.307  -9.194  -8.737  1.00  0.00     0.029 A 
ATOM     53  C   UNL     1       9.543  -9.258 -10.176  1.00  0.00     0.049 A 
ATOM     54  H   UNL     1      10.576  -7.879 -11.349  1.00  0.00     0.167 HD
ATOM     55  C   UNL     1      12.411  -4.685 -13.761  1.00  0.00     0.034 A 
ATOM     56  C   UNL     1       9.125 -10.246 -10.993  1.00  0.00     0.034 A 
ATOM     57  C   UNL     1      12.121  -5.751 -14.688  1.00  0.00     0.049 A 
ATOM     58  C   UNL     1       9.458 -10.166 -12.462  1.00  0.00     0.074 A 
ATOM     59  C   UNL     1      12.423  -5.827 -16.037  1.00  0.00     0.029 A 
ATOM     60  N   UNL     1      11.457  -6.927 -14.363  1.00  0.00    -0.354 N 
ATOM     61  N   UNL     1      10.077  -9.210 -13.117  1.00  0.00    -0.248 NA
ATOM     62  C   UNL     1       9.052 -11.303 -13.298  1.00  0.00     0.031 C 
ATOM     63  C   UNL     1      11.895  -7.022 -16.538  1.00  0.00     0.029 A 
ATOM     64  C   UNL     1      11.319  -7.722 -15.490  1.00  0.00     0.049 A 
ATOM     65  H   UNL     1      11.133  -7.162 -13.464  1.00  0.00     0.167 HD
ATOM     66  C   UNL     1      10.157  -9.646 -14.436  1.00  0.00     0.074 A 
ATOM     67  C   UNL     1       9.539 -10.955 -14.480  1.00  0.00     0.031 C 
ATOM     68  C   UNL     1      10.696  -9.023 -15.515  1.00  0.00     0.034 A 
BRANCH  55  69
ATOM     69  C   UNL     1      13.014  -3.407 -14.293  1.00  0.00     0.023 A 
ATOM     70  C   UNL     1      14.297  -2.977 -13.914  1.00  0.00     0.031 A 
ATOM     71  C   UNL     1      12.284  -2.598 -15.181  1.00  0.00     0.131 A 
ATOM     72  C   UNL     1      14.783  -1.740 -14.366  1.00  0.00     0.055 A 
ATOM     73  C   UNL     1      12.803  -1.405 -15.687  1.00  0.00     0.041 A 
ATOM     74  F   UNL     1      11.046  -2.949 -15.565  1.00  0.00    -0.206 F 
ATOM     75  C   UNL     1      14.055  -0.962 -15.269  1.00  0.00     0.022 A 
BRANCH  72  76
ATOM     76  S   UNL     1      16.328  -1.105 -13.660  1.00  0.00     0.124 S 
ATOM     77  O   UNL     1      15.982  -0.994 -12.245  1.00  0.00    -0.237 OA
ATOM     78  O   UNL     1      17.285  -2.150 -14.003  1.00  0.00    -0.237 OA
ATOM     79  O   UNL     1      16.522   0.169 -14.349  1.00  0.00    -0.744 OA
ENDBRANCH  72  76
ENDBRANCH  55  69
BRANCH  56  80
ATOM     80  C   UNL     1       8.331 -11.388 -10.457  1.00  0.00     0.023 A 
ATOM     81  C   UNL     1       8.843 -12.695 -10.463  1.00  0.00     0.031 A 
ATOM     82  C   UNL     1       7.025 -11.194  -9.971  1.00  0.00     0.131 A 
ATOM     83  C   UNL     1       8.037 -13.765 -10.041  1.00  0.00     0.055 A 
ATOM     84  C   UNL     1       6.245 -12.255  -9.507  1.00  0.00     0.041 A 
ATOM     85  F   UNL     1       6.490  -9.963  -9.935  1.00  0.00    -0.206 F 
ATOM     86  C   UNL     1       6.746 -13.552  -9.554  1.00  0.00     0.022 A 
BRANCH  83  87
ATOM     87  S   UNL     1       8.671 -15.455 -10.223  1.00  0.00     0.124 S 
ATOM     88  O   UNL     1       8.986 -15.505 -11.646  1.00  0.00    -0.237 OA
ATOM     89  O   UNL     1       9.812 -15.448  -9.313  1.00  0.00    -0.237 OA
ATOM     90  O   UNL     1       7.546 -16.287  -9.803  1.00  0.00    -0.744 OA
ENDBRANCH  83  87
ENDBRANCH  56  80
BRANCH  68  91
ATOM     91  C   UNL     1      10.680  -9.779 -16.819  1.00  0.00     0.023 A 
ATOM     92  C   UNL     1       9.483 -10.036 -17.509  1.00  0.00     0.031 A 
ATOM     93  C   UNL     1      11.881 -10.256 -17.372  1.00  0.00     0.131 A 
ATOM     94  C   UNL     1       9.507 -10.796 -18.688  1.00  0.00     0.055 A 
ATOM     95  C   UNL     1      11.905 -10.965 -18.573  1.00  0.00     0.041 A 
ATOM     96  F   UNL     1      13.052 -10.038 -16.752  1.00  0.00    -0.206 F 
ATOM     97  C   UNL     1      10.712 -11.249 -19.232  1.00  0.00     0.022 A 
BRANCH  94  98
ATOM     98  S   UNL     1       7.932 -11.254 -19.462  1.00  0.00     0.124 S 
ATOM     99  O   UNL     1       7.275 -12.001 -18.394  1.00  0.00    -0.237 OA
ATOM    100  O   UNL     1       7.351  -9.954 -19.782  1.00  0.00    -0.237 OA
ATOM    101  O   UNL     1       8.338 -12.052 -20.618  1.00  0.00    -0.744 OA
ENDBRANCH  94  98
ENDBRANCH  68  91
ENDBRANCH  42  43
ENDBRANCH  34  37
ENDBRANCH  32  33
ENDBRANCH  31  32
ENDBRANCH  30  31
ENDBRANCH   3  30
TORSDOF 17
