REMARK SMILES C[C@@H](Sc1ccccc1[N+](=O)[O-])[C@@H](C)C(=O)NCCCNC(=O)c1ccc(-c2c3nc(c(-c4cc(S(=O)(=O)[O-])ccc4F)c4ccc([nH]4)c(-c4cc(S(=O)(=O)[O-])ccc4F)c4nc(c(-c5cc(S(=O)(=O)[O-])ccc5F)c5ccc2[nH]5)C=C4)C=C3)cc1
REMARK SMILES IDX 18 1 17 2 15 3 16 4 13 6 14 7 2 8 1 9 3 10 4 11 5 12 9 13
REMARK SMILES IDX 6 14 8 15 7 16 10 17 11 18 12 19 19 20 20 21 21 22 22 23
REMARK SMILES IDX 23 25 24 26 25 27 86 28 26 29 85 30 27 31 28 32 29 33 79 34
REMARK SMILES IDX 30 35 84 36 78 37 80 38 31 39 83 40 77 41 76 42 32 44 64 45
REMARK SMILES IDX 44 46 63 47 45 48 48 49 62 50 81 51 46 52 47 53 61 55 82 56
REMARK SMILES IDX 49 57 33 58 34 59 42 60 35 61 41 62 43 63 40 64 36 65 37 66
REMARK SMILES IDX 38 67 39 68 65 69 66 70 74 71 67 72 73 73 75 74 72 75 68 76
REMARK SMILES IDX 69 77 70 78 71 79 50 80 51 81 59 82 52 83 58 84 60 85 57 86
REMARK SMILES IDX 53 87 54 88 55 89 56 90
REMARK H PARENT 17 5 21 24 80 43 48 54
REMARK Flexibility Score: inf
ROOT
ATOM      1  C   UNL     1      -0.547   3.679   1.541  1.00  0.00     0.117 C 
ENDROOT
BRANCH   1   2
ATOM      2  N   UNL     1      -1.321   3.676   0.312  1.00  0.00    -0.356 N 
ATOM      3  C   UNL     1      -1.620   2.689  -0.573  1.00  0.00     0.223 C 
ATOM      4  O   UNL     1      -2.390   2.969  -1.497  1.00  0.00    -0.275 OA
ATOM      5  H   UNL     1      -1.701   4.553   0.077  1.00  0.00     0.163 HD
BRANCH   3   6
ATOM      6  C   UNL     1      -1.112   1.262  -0.405  1.00  0.00     0.088 C 
ATOM      7  C   UNL     1      -1.787   0.629   0.820  1.00  0.00     0.019 C 
BRANCH   6   8
ATOM      8  C   UNL     1       0.433   1.149  -0.476  1.00  0.00     0.061 C 
ATOM      9  C   UNL     1       0.936  -0.208   0.022  1.00  0.00     0.020 C 
BRANCH   8  10
ATOM     10  S   UNL     1       0.982   1.403  -2.237  1.00  0.00    -0.115 SA
BRANCH  10  11
ATOM     11  C   UNL     1       2.725   1.783  -2.026  1.00  0.00     0.085 A 
ATOM     12  C   UNL     1       3.564   0.650  -2.013  1.00  0.00     0.022 A 
ATOM     13  C   UNL     1       3.335   3.052  -1.941  1.00  0.00     0.282 A 
ATOM     14  C   UNL     1       4.947   0.756  -1.853  1.00  0.00     0.002 A 
ATOM     15  C   UNL     1       4.737   3.151  -1.785  1.00  0.00     0.087 A 
ATOM     16  C   UNL     1       5.534   2.007  -1.732  1.00  0.00     0.007 A 
BRANCH  13  17
ATOM     17  N   UNL     1       2.590   4.323  -2.016  1.00  0.00     0.063 N 
ATOM     18  O   UNL     1       3.251   5.370  -2.074  1.00  0.00    -0.258 OA
ATOM     19  O   UNL     1       1.355   4.307  -1.973  1.00  0.00    -0.258 OA
ENDBRANCH  13  17
ENDBRANCH  10  11
ENDBRANCH   8  10
ENDBRANCH   6   8
ENDBRANCH   3   6
ENDBRANCH   1   2
BRANCH   1  20
ATOM     20  C   UNL     1       0.719   4.519   1.439  1.00  0.00     0.042 C 
BRANCH  20  21
ATOM     21  C   UNL     1       0.461   5.997   1.184  1.00  0.00     0.118 C 
BRANCH  21  22
ATOM     22  N   UNL     1      -0.210   6.635   2.310  1.00  0.00    -0.352 N 
ATOM     23  C   UNL     1       0.240   7.608   3.167  1.00  0.00     0.251 C 
ATOM     24  H   UNL     1      -1.126   6.319   2.482  1.00  0.00     0.163 HD
ATOM     25  O   UNL     1      -0.386   7.832   4.203  1.00  0.00    -0.269 OA
BRANCH  23  26
ATOM     26  C   UNL     1       1.477   8.361   2.863  1.00  0.00     0.039 A 
ATOM     27  C   UNL     1       2.362   8.664   3.901  1.00  0.00     0.014 A 
ATOM     28  C   UNL     1       1.760   8.784   1.562  1.00  0.00     0.014 A 
ATOM     29  C   UNL     1       3.560   9.326   3.620  1.00  0.00     0.010 A 
ATOM     30  C   UNL     1       2.993   9.358   1.270  1.00  0.00     0.010 A 
ATOM     31  C   UNL     1       3.906   9.642   2.296  1.00  0.00    -0.014 A 
BRANCH  31  32
ATOM     32  C   UNL     1       5.205  10.283   1.963  1.00  0.00     0.031 A 
ATOM     33  C   UNL     1       5.228  11.646   1.322  1.00  0.00     0.074 A 
ATOM     34  C   UNL     1       6.358   9.620   2.184  1.00  0.00     0.049 A 
ATOM     35  N   UNL     1       6.247  12.334   0.874  1.00  0.00    -0.248 NA
ATOM     36  C   UNL     1       3.928  12.310   1.139  1.00  0.00     0.031 C 
ATOM     37  C   UNL     1       6.465   8.284   2.777  1.00  0.00     0.029 A 
ATOM     38  N   UNL     1       7.661   9.972   1.931  1.00  0.00    -0.354 N 
ATOM     39  C   UNL     1       5.711  13.507   0.352  1.00  0.00     0.074 A 
ATOM     40  C   UNL     1       4.273  13.401   0.474  1.00  0.00     0.031 C 
ATOM     41  C   UNL     1       7.761   7.947   2.871  1.00  0.00     0.029 A 
ATOM     42  C   UNL     1       8.576   9.010   2.294  1.00  0.00     0.049 A 
ATOM     43  H   UNL     1       7.916  10.833   1.528  1.00  0.00     0.167 HD
ATOM     44  C   UNL     1       6.359  14.586  -0.154  1.00  0.00     0.034 A 
ATOM     45  C   UNL     1       9.918   8.982   2.161  1.00  0.00     0.034 A 
ATOM     46  C   UNL     1       7.794  14.677  -0.270  1.00  0.00     0.049 A 
ATOM     47  C   UNL     1      10.610  10.167   1.531  1.00  0.00     0.074 A 
ATOM     48  C   UNL     1       8.556  15.730  -0.746  1.00  0.00     0.029 A 
ATOM     49  N   UNL     1       8.686  13.675   0.089  1.00  0.00    -0.354 N 
ATOM     50  N   UNL     1      10.090  11.283   1.073  1.00  0.00    -0.248 NA
ATOM     51  C   UNL     1      12.072  10.092   1.410  1.00  0.00     0.031 C 
ATOM     52  C   UNL     1       9.898  15.339  -0.742  1.00  0.00     0.029 A 
ATOM     53  C   UNL     1       9.986  14.075  -0.181  1.00  0.00     0.049 A 
ATOM     54  H   UNL     1       8.432  12.807   0.479  1.00  0.00     0.167 HD
ATOM     55  C   UNL     1      11.168  12.058   0.651  1.00  0.00     0.074 A 
ATOM     56  C   UNL     1      12.364  11.288   0.922  1.00  0.00     0.031 C 
ATOM     57  C   UNL     1      11.171  13.297   0.096  1.00  0.00     0.034 A 
BRANCH  44  58
ATOM     58  C   UNL     1       5.513  15.742  -0.635  1.00  0.00     0.023 A 
ATOM     59  C   UNL     1       4.680  16.457   0.244  1.00  0.00     0.031 A 
ATOM     60  C   UNL     1       5.520  16.123  -1.988  1.00  0.00     0.131 A 
ATOM     61  C   UNL     1       3.835  17.461  -0.251  1.00  0.00     0.055 A 
ATOM     62  C   UNL     1       4.741  17.182  -2.459  1.00  0.00     0.041 A 
ATOM     63  F   UNL     1       6.278  15.466  -2.880  1.00  0.00    -0.206 F 
ATOM     64  C   UNL     1       3.880  17.848  -1.592  1.00  0.00     0.022 A 
BRANCH  61  65
ATOM     65  S   UNL     1       2.574  18.152   0.854  1.00  0.00     0.124 S 
ATOM     66  O   UNL     1       1.811  16.959   1.214  1.00  0.00    -0.237 OA
ATOM     67  O   UNL     1       3.376  18.742   1.919  1.00  0.00    -0.237 OA
ATOM     68  O   UNL     1       1.861  19.106   0.007  1.00  0.00    -0.744 OA
ENDBRANCH  61  65
ENDBRANCH  44  58
BRANCH  45  69
ATOM     69  C   UNL     1      10.707   7.800   2.617  1.00  0.00     0.023 A 
ATOM     70  C   UNL     1      11.684   7.930   3.616  1.00  0.00     0.031 A 
ATOM     71  C   UNL     1      10.550   6.539   2.012  1.00  0.00     0.131 A 
ATOM     72  C   UNL     1      12.512   6.842   3.934  1.00  0.00     0.055 A 
ATOM     73  C   UNL     1      11.331   5.442   2.380  1.00  0.00     0.041 A 
ATOM     74  F   UNL     1       9.630   6.354   1.052  1.00  0.00    -0.206 F 
ATOM     75  C   UNL     1      12.332   5.595   3.334  1.00  0.00     0.022 A 
BRANCH  72  76
ATOM     76  S   UNL     1      13.911   7.117   5.055  1.00  0.00     0.124 S 
ATOM     77  O   UNL     1      14.628   8.190   4.375  1.00  0.00    -0.237 OA
ATOM     78  O   UNL     1      13.236   7.480   6.297  1.00  0.00    -0.237 OA
ATOM     79  O   UNL     1      14.591   5.823   5.072  1.00  0.00    -0.744 OA
ENDBRANCH  72  76
ENDBRANCH  45  69
BRANCH  57  80
ATOM     80  C   UNL     1      12.515  13.920  -0.195  1.00  0.00     0.023 A 
ATOM     81  C   UNL     1      13.390  13.388  -1.158  1.00  0.00     0.031 A 
ATOM     82  C   UNL     1      12.929  15.063   0.513  1.00  0.00     0.131 A 
ATOM     83  C   UNL     1      14.657  13.963  -1.345  1.00  0.00     0.055 A 
ATOM     84  C   UNL     1      14.161  15.672   0.274  1.00  0.00     0.041 A 
ATOM     85  F   UNL     1      12.136  15.612   1.448  1.00  0.00    -0.206 F 
ATOM     86  C   UNL     1      15.039  15.114  -0.649  1.00  0.00     0.022 A 
BRANCH  83  87
ATOM     87  S   UNL     1      15.839  13.131  -2.440  1.00  0.00     0.124 S 
ATOM     88  O   UNL     1      15.948  11.813  -1.823  1.00  0.00    -0.237 OA
ATOM     89  O   UNL     1      15.156  13.175  -3.729  1.00  0.00    -0.237 OA
ATOM     90  O   UNL     1      17.038  13.961  -2.346  1.00  0.00    -0.744 OA
ENDBRANCH  83  87
ENDBRANCH  57  80
ENDBRANCH  31  32
ENDBRANCH  23  26
ENDBRANCH  21  22
ENDBRANCH  20  21
ENDBRANCH   1  20
TORSDOF 17
