REMARK SMILES Cc1cc2c(c(C)c1Br)C=C(C(=O)NCCCNC(=O)c1ccc(-c3c4nc(c(-c5cc(S(=O)(=O)[O-])ccc5F)c5ccc([nH]5)c(-c5cc(S(=O)(=O)[O-])ccc5F)c5nc(c(-c6cc(S(=O)(=O)[O-])ccc6F)c6ccc3[nH]6)C=C5)C=C4)cc1)[C@@H](C(F)(F)F)O2
REMARK SMILES IDX 17 1 16 2 15 3 14 4 12 5 13 6 11 8 1 9 2 10 3 11 8 12 4 13
REMARK SMILES IDX 6 14 9 15 5 16 89 17 7 18 10 19 84 20 85 21 86 22 87 23
REMARK SMILES IDX 88 24 18 25 19 26 20 28 21 29 22 30 83 31 23 32 82 33 24 34
REMARK SMILES IDX 25 35 26 36 76 37 27 38 81 39 75 40 77 41 28 42 80 43 74 44
REMARK SMILES IDX 73 45 29 47 61 48 41 49 60 50 42 51 45 52 59 53 78 54 43 55
REMARK SMILES IDX 44 56 58 58 79 59 46 60 30 61 31 62 39 63 32 64 38 65 40 66
REMARK SMILES IDX 37 67 33 68 34 69 35 70 36 71 62 72 63 73 71 74 64 75 70 76
REMARK SMILES IDX 72 77 69 78 65 79 66 80 67 81 68 82 47 83 48 84 56 85 49 86
REMARK SMILES IDX 55 87 57 88 54 89 50 90 51 91 52 92 53 93
REMARK H PARENT 14 7 18 27 77 46 45 57
REMARK Flexibility Score: inf
ROOT
ATOM      1  C   UNL     1      -1.282  -4.628   9.890  1.00  0.00     0.118 C 
ENDROOT
BRANCH   1   2
ATOM      2  C   UNL     1      -0.983  -4.479   8.403  1.00  0.00     0.042 C 
BRANCH   2   3
ATOM      3  C   UNL     1      -2.082  -3.729   7.666  1.00  0.00     0.118 C 
BRANCH   3   4
ATOM      4  N   UNL     1      -2.014  -2.293   7.901  1.00  0.00    -0.352 N 
ATOM      5  C   UNL     1      -1.683  -1.185   7.199  1.00  0.00     0.251 C 
ATOM      6  O   UNL     1      -1.786  -0.121   7.819  1.00  0.00    -0.270 OA
ATOM      7  H   UNL     1      -2.282  -2.068   8.821  1.00  0.00     0.163 HD
BRANCH   5   8
ATOM      8  C   UNL     1      -1.230  -1.171   5.778  1.00  0.00     0.067 C 
ATOM      9  C   UNL     1       0.991   0.108  -0.200  1.00  0.00     0.046 C 
ATOM     10  C   UNL     1       0.480   0.179   1.214  1.00  0.00    -0.033 A 
ATOM     11  C   UNL     1       0.273  -1.029   1.886  1.00  0.00     0.051 A 
ATOM     12  C   UNL     1       0.255   1.389   1.906  1.00  0.00     0.024 A 
ATOM     13  C   UNL     1      -0.180  -1.042   3.199  1.00  0.00     0.128 A 
ATOM     14  C   UNL     1      -0.215   1.390   3.246  1.00  0.00    -0.026 A 
ATOM     15  Br  UNL     1       0.630   3.034   1.001  1.00  0.00    -0.050 Br
ATOM     16  C   UNL     1      -0.425   0.146   3.893  1.00  0.00     0.021 A 
ATOM     17  O   UNL     1      -0.318  -2.281   3.755  1.00  0.00    -0.475 OA
ATOM     18  C   UNL     1      -0.484   2.666   4.011  1.00  0.00     0.046 C 
ATOM     19  C   UNL     1      -0.852   0.027   5.292  1.00  0.00     0.026 C 
ATOM     20  C   UNL     1      -1.209  -2.379   4.893  1.00  0.00     0.314 C 
BRANCH  20  21
ATOM     21  C   UNL     1      -2.613  -2.787   4.408  1.00  0.00     0.429 C 
ATOM     22  F   UNL     1      -2.603  -4.059   3.939  1.00  0.00    -0.167 F 
ATOM     23  F   UNL     1      -3.539  -2.749   5.395  1.00  0.00    -0.167 F 
ATOM     24  F   UNL     1      -3.073  -1.993   3.414  1.00  0.00    -0.167 F 
ENDBRANCH  20  21
ENDBRANCH   5   8
ENDBRANCH   3   4
ENDBRANCH   2   3
ENDBRANCH   1   2
BRANCH   1  25
ATOM     25  N   UNL     1      -2.471  -5.443  10.123  1.00  0.00    -0.352 N 
ATOM     26  C   UNL     1      -2.582  -6.738  10.564  1.00  0.00     0.251 C 
ATOM     27  H   UNL     1      -3.327  -4.994   9.934  1.00  0.00     0.163 HD
ATOM     28  O   UNL     1      -3.642  -7.340  10.411  1.00  0.00    -0.269 OA
BRANCH  26  29
ATOM     29  C   UNL     1      -1.430  -7.399  11.209  1.00  0.00     0.039 A 
ATOM     30  C   UNL     1      -1.156  -8.738  10.922  1.00  0.00     0.014 A 
ATOM     31  C   UNL     1      -0.632  -6.695  12.114  1.00  0.00     0.014 A 
ATOM     32  C   UNL     1      -0.035  -9.346  11.491  1.00  0.00     0.010 A 
ATOM     33  C   UNL     1       0.534  -7.270  12.600  1.00  0.00     0.010 A 
ATOM     34  C   UNL     1       0.839  -8.605  12.303  1.00  0.00    -0.014 A 
BRANCH  34  35
ATOM     35  C   UNL     1       2.065  -9.212  12.878  1.00  0.00     0.031 A 
ATOM     36  C   UNL     1       2.213  -9.321  14.371  1.00  0.00     0.074 A 
ATOM     37  C   UNL     1       3.056  -9.615  12.059  1.00  0.00     0.049 A 
ATOM     38  N   UNL     1       3.233  -9.744  15.069  1.00  0.00    -0.248 NA
ATOM     39  C   UNL     1       1.075  -8.866  15.189  1.00  0.00     0.031 C 
ATOM     40  C   UNL     1       3.034  -9.526  10.596  1.00  0.00     0.029 A 
ATOM     41  N   UNL     1       4.272 -10.185  12.335  1.00  0.00    -0.354 N 
ATOM     42  C   UNL     1       2.864  -9.602  16.402  1.00  0.00     0.074 A 
ATOM     43  C   UNL     1       1.555  -8.990  16.417  1.00  0.00     0.031 C 
ATOM     44  C   UNL     1       4.160 -10.066  10.105  1.00  0.00     0.029 A 
ATOM     45  C   UNL     1       5.007 -10.495  11.214  1.00  0.00     0.049 A 
ATOM     46  H   UNL     1       4.591 -10.356  13.251  1.00  0.00     0.167 HD
ATOM     47  C   UNL     1       3.543  -9.979  17.511  1.00  0.00     0.034 A 
ATOM     48  C   UNL     1       6.224 -11.060  11.094  1.00  0.00     0.034 A 
ATOM     49  C   UNL     1       4.832 -10.617  17.480  1.00  0.00     0.049 A 
ATOM     50  C   UNL     1       6.971 -11.444  12.345  1.00  0.00     0.074 A 
ATOM     51  C   UNL     1       5.588 -11.078  18.543  1.00  0.00     0.029 A 
ATOM     52  N   UNL     1       5.551 -10.893  16.326  1.00  0.00    -0.354 N 
ATOM     53  N   UNL     1       6.601 -11.309  13.597  1.00  0.00    -0.248 NA
ATOM     54  C   UNL     1       8.295 -12.054  12.168  1.00  0.00     0.031 C 
ATOM     55  C   UNL     1       6.789 -11.583  18.036  1.00  0.00     0.029 A 
ATOM     56  C   UNL     1       6.753 -11.497  16.652  1.00  0.00     0.049 A 
ATOM     57  H   UNL     1       5.252 -10.690  15.411  1.00  0.00     0.167 HD
ATOM     58  C   UNL     1       7.638 -11.840  14.357  1.00  0.00     0.074 A 
ATOM     59  C   UNL     1       8.646 -12.301  13.424  1.00  0.00     0.031 C 
ATOM     60  C   UNL     1       7.745 -11.941  15.705  1.00  0.00     0.034 A 
BRANCH  47  61
ATOM     61  C   UNL     1       2.901  -9.716  18.847  1.00  0.00     0.023 A 
ATOM     62  C   UNL     1       1.737 -10.395  19.244  1.00  0.00     0.031 A 
ATOM     63  C   UNL     1       3.468  -8.793  19.742  1.00  0.00     0.131 A 
ATOM     64  C   UNL     1       1.151 -10.109  20.486  1.00  0.00     0.055 A 
ATOM     65  C   UNL     1       2.917  -8.561  21.004  1.00  0.00     0.041 A 
ATOM     66  F   UNL     1       4.569  -8.103  19.405  1.00  0.00    -0.206 F 
ATOM     67  C   UNL     1       1.747  -9.216  21.379  1.00  0.00     0.022 A 
BRANCH  64  68
ATOM     68  S   UNL     1      -0.447 -10.866  20.886  1.00  0.00     0.124 S 
ATOM     69  O   UNL     1      -1.321 -10.249  19.891  1.00  0.00    -0.237 OA
ATOM     70  O   UNL     1      -0.180 -12.288  20.707  1.00  0.00    -0.237 OA
ATOM     71  O   UNL     1      -0.688 -10.446  22.265  1.00  0.00    -0.744 OA
ENDBRANCH  64  68
ENDBRANCH  47  61
BRANCH  48  72
ATOM     72  C   UNL     1       6.808 -11.303   9.746  1.00  0.00     0.023 A 
ATOM     73  C   UNL     1       6.983 -12.609   9.264  1.00  0.00     0.031 A 
ATOM     74  C   UNL     1       7.199 -10.235   8.920  1.00  0.00     0.131 A 
ATOM     75  C   UNL     1       7.559 -12.817   8.001  1.00  0.00     0.055 A 
ATOM     76  C   UNL     1       7.735 -10.445   7.648  1.00  0.00     0.041 A 
ATOM     77  F   UNL     1       7.042  -8.966   9.331  1.00  0.00    -0.206 F 
ATOM     78  C   UNL     1       7.925 -11.744   7.185  1.00  0.00     0.022 A 
BRANCH  75  79
ATOM     79  S   UNL     1       7.860 -14.519   7.451  1.00  0.00     0.124 S 
ATOM     80  O   UNL     1       8.815 -14.988   8.449  1.00  0.00    -0.237 OA
ATOM     81  O   UNL     1       6.524 -15.101   7.516  1.00  0.00    -0.237 OA
ATOM     82  O   UNL     1       8.397 -14.350   6.102  1.00  0.00    -0.744 OA
ENDBRANCH  75  79
ENDBRANCH  48  72
BRANCH  60  83
ATOM     83  C   UNL     1       8.981 -12.599  16.256  1.00  0.00     0.023 A 
ATOM     84  C   UNL     1      10.226 -11.951  16.233  1.00  0.00     0.031 A 
ATOM     85  C   UNL     1       8.894 -13.861  16.870  1.00  0.00     0.131 A 
ATOM     86  C   UNL     1      11.345 -12.579  16.797  1.00  0.00     0.055 A 
ATOM     87  C   UNL     1      10.001 -14.460  17.470  1.00  0.00     0.041 A 
ATOM     88  F   UNL     1       7.722 -14.515  16.921  1.00  0.00    -0.206 F 
ATOM     89  C   UNL     1      11.236 -13.820  17.432  1.00  0.00     0.022 A 
BRANCH  86  90
ATOM     90  S   UNL     1      12.958 -11.760  16.672  1.00  0.00     0.124 S 
ATOM     91  O   UNL     1      13.193 -11.775  15.231  1.00  0.00    -0.237 OA
ATOM     92  O   UNL     1      12.694 -10.451  17.261  1.00  0.00    -0.237 OA
ATOM     93  O   UNL     1      13.842 -12.622  17.454  1.00  0.00    -0.744 OA
ENDBRANCH  86  90
ENDBRANCH  60  83
ENDBRANCH  34  35
ENDBRANCH  26  29
ENDBRANCH   1  25
TORSDOF 14
