REMARK SMILES COc1ccc(NC(=O)C[C@@H](C[NH+]2CCOCC2)C(=O)NCCCNC(=O)c2ccc(-c3c4nc(c(-c5cc(S(=O)(=O)[O-])ccc5F)c5ccc([nH]5)c(-c5cc(S(=O)(=O)[O-])ccc5F)c5nc(c(-c6cc(S(=O)(=O)[O-])ccc6F)c6ccc3[nH]6)C=C5)C=C4)cc2)cc1
REMARK SMILES IDX 22 1 21 2 19 3 20 4 11 6 10 7 8 8 7 9 9 11 6 12 3 13 4 14
REMARK SMILES IDX 92 15 5 16 91 17 2 18 1 19 12 20 13 21 14 22 18 23 15 25
REMARK SMILES IDX 17 26 16 27 23 28 24 29 25 30 26 31 27 33 28 34 29 35 90 36
REMARK SMILES IDX 30 37 89 38 31 39 32 40 33 41 83 42 34 43 88 44 82 45 84 46
REMARK SMILES IDX 35 47 87 48 81 49 80 50 36 52 68 53 48 54 67 55 49 56 52 57
REMARK SMILES IDX 66 58 85 59 50 60 51 61 65 63 86 64 53 65 37 66 38 67 46 68
REMARK SMILES IDX 39 69 45 70 47 71 44 72 40 73 41 74 42 75 43 76 69 77 70 78
REMARK SMILES IDX 78 79 71 80 77 81 79 82 76 83 72 84 73 85 74 86 75 87 54 88
REMARK SMILES IDX 55 89 63 90 56 91 62 92 64 93 61 94 57 95 58 96 59 97 60 98
REMARK H PARENT 21 5 7 10 13 24 25 32 84 51 52 62
REMARK Flexibility Score: inf
ROOT
ATOM      1  C   UNL     1      -3.422   2.303   4.445  1.00  0.00     0.117 C 
ENDROOT
BRANCH   1   2
ATOM      2  N   UNL     1      -3.060   3.098   5.610  1.00  0.00    -0.356 N 
ATOM      3  C   UNL     1      -1.913   3.250   6.319  1.00  0.00     0.229 C 
ATOM      4  O   UNL     1      -2.049   3.818   7.411  1.00  0.00    -0.275 OA
ATOM      5  H   UNL     1      -3.806   3.639   5.957  1.00  0.00     0.163 HD
BRANCH   3   6
ATOM      6  C   UNL     1      -0.499   2.934   5.791  1.00  0.00     0.142 C 
BRANCH   6   7
ATOM      7  C   UNL     1       0.505   2.872   6.956  1.00  0.00     0.119 C 
BRANCH   7   8
ATOM      8  C   UNL     1       1.975   2.430   6.923  1.00  0.00     0.225 C 
ATOM      9  N   UNL     1       2.835   2.181   5.907  1.00  0.00    -0.326 N 
ATOM     10  H   UNL     1       3.690   1.839   6.257  1.00  0.00     0.169 HD
ATOM     11  O   UNL     1       2.483   2.191   8.037  1.00  0.00    -0.275 OA
BRANCH   9  12
ATOM     12  C   UNL     1       2.878   2.262   4.506  1.00  0.00     0.041 A 
ATOM     13  C   UNL     1       2.573   1.830   1.751  1.00  0.00     0.119 A 
ATOM     14  C   UNL     1       2.055   2.981   2.349  1.00  0.00     0.048 A 
ATOM     15  C   UNL     1       3.387   0.981   2.491  1.00  0.00     0.048 A 
ATOM     16  C   UNL     1       2.211   3.205   3.729  1.00  0.00     0.030 A 
ATOM     17  C   UNL     1       3.558   1.214   3.859  1.00  0.00     0.030 A 
BRANCH  13  18
ATOM     18  O   UNL     1       2.252   1.607   0.439  1.00  0.00    -0.497 OA
ATOM     19  C   UNL     1       1.819   0.268   0.177  1.00  0.00     0.278 C 
ENDBRANCH  13  18
ENDBRANCH   9  12
ENDBRANCH   7   8
ENDBRANCH   6   7
BRANCH   6  20
ATOM     20  C   UNL     1      -0.337   1.783   4.815  1.00  0.00     0.276 C 
BRANCH  20  21
ATOM     21  N   UNL     1      -0.800   0.422   4.949  1.00  0.00    -0.330 N 
ATOM     22  C   UNL     1      -0.985  -0.201   6.256  1.00  0.00     0.291 C 
ATOM     23  C   UNL     1      -0.119  -0.467   3.985  1.00  0.00     0.291 C 
ATOM     24  H   UNL     1      -1.786   0.552   4.722  1.00  0.00     0.348 HD
ATOM     25  C   UNL     1       0.159  -1.092   6.755  1.00  0.00     0.221 C 
ATOM     26  C   UNL     1       1.021  -1.297   4.591  1.00  0.00     0.221 C 
ATOM     27  O   UNL     1       0.585  -2.014   5.744  1.00  0.00    -0.370 OA
ENDBRANCH  20  21
ENDBRANCH   6  20
ENDBRANCH   3   6
ENDBRANCH   1   2
BRANCH   1  28
ATOM     28  C   UNL     1      -3.772   0.879   4.857  1.00  0.00     0.042 C 
BRANCH  28  29
ATOM     29  C   UNL     1      -5.126   0.419   4.383  1.00  0.00     0.118 C 
BRANCH  29  30
ATOM     30  N   UNL     1      -5.119   0.078   2.967  1.00  0.00    -0.352 N 
ATOM     31  C   UNL     1      -5.605  -1.055   2.358  1.00  0.00     0.251 C 
ATOM     32  H   UNL     1      -4.714   0.746   2.368  1.00  0.00     0.163 HD
ATOM     33  O   UNL     1      -5.311  -1.280   1.180  1.00  0.00    -0.269 OA
BRANCH  31  34
ATOM     34  C   UNL     1      -6.445  -2.008   3.121  1.00  0.00     0.039 A 
ATOM     35  C   UNL     1      -6.384  -3.374   2.836  1.00  0.00     0.014 A 
ATOM     36  C   UNL     1      -7.292  -1.554   4.134  1.00  0.00     0.014 A 
ATOM     37  C   UNL     1      -7.148  -4.272   3.587  1.00  0.00     0.010 A 
ATOM     38  C   UNL     1      -7.911  -2.453   4.983  1.00  0.00     0.010 A 
ATOM     39  C   UNL     1      -7.903  -3.818   4.681  1.00  0.00    -0.014 A 
BRANCH  39  40
ATOM     40  C   UNL     1      -8.791  -4.716   5.460  1.00  0.00     0.031 A 
ATOM     41  C   UNL     1     -10.268  -4.402   5.527  1.00  0.00     0.074 A 
ATOM     42  C   UNL     1      -8.275  -5.755   6.143  1.00  0.00     0.049 A 
ATOM     43  N   UNL     1     -11.209  -4.973   6.232  1.00  0.00    -0.248 NA
ATOM     44  C   UNL     1     -10.737  -3.250   4.737  1.00  0.00     0.031 C 
ATOM     45  C   UNL     1      -6.856  -6.116   6.193  1.00  0.00     0.029 A 
ATOM     46  N   UNL     1      -8.884  -6.700   6.927  1.00  0.00    -0.354 N 
ATOM     47  C   UNL     1     -12.362  -4.231   5.992  1.00  0.00     0.074 A 
ATOM     48  C   UNL     1     -11.980  -3.110   5.166  1.00  0.00     0.031 C 
ATOM     49  C   UNL     1      -6.713  -7.234   6.924  1.00  0.00     0.029 A 
ATOM     50  C   UNL     1      -8.017  -7.638   7.437  1.00  0.00     0.049 A 
ATOM     51  H   UNL     1      -9.852  -6.706   7.108  1.00  0.00     0.167 HD
ATOM     52  C   UNL     1     -13.634  -4.485   6.384  1.00  0.00     0.034 A 
ATOM     53  C   UNL     1      -8.256  -8.703   8.227  1.00  0.00     0.034 A 
ATOM     54  C   UNL     1     -13.995  -5.637   7.170  1.00  0.00     0.049 A 
ATOM     55  C   UNL     1      -9.680  -8.975   8.646  1.00  0.00     0.074 A 
ATOM     56  C   UNL     1     -15.249  -6.037   7.593  1.00  0.00     0.029 A 
ATOM     57  N   UNL     1     -13.092  -6.581   7.645  1.00  0.00    -0.354 N 
ATOM     58  N   UNL     1     -10.768  -8.287   8.378  1.00  0.00    -0.248 NA
ATOM     59  C   UNL     1      -9.911 -10.176   9.456  1.00  0.00     0.031 C 
ATOM     60  C   UNL     1     -15.097  -7.186   8.376  1.00  0.00     0.029 A 
ATOM     61  C   UNL     1     -13.759  -7.553   8.370  1.00  0.00     0.049 A 
ATOM     62  H   UNL     1     -12.120  -6.562   7.488  1.00  0.00     0.167 HD
ATOM     63  C   UNL     1     -11.818  -8.999   8.951  1.00  0.00     0.074 A 
ATOM     64  C   UNL     1     -11.231 -10.174   9.565  1.00  0.00     0.031 C 
ATOM     65  C   UNL     1     -13.147  -8.716   8.968  1.00  0.00     0.034 A 
BRANCH  52  66
ATOM     66  C   UNL     1     -14.704  -3.498   5.970  1.00  0.00     0.023 A 
ATOM     67  C   UNL     1     -14.973  -3.223   4.616  1.00  0.00     0.031 A 
ATOM     68  C   UNL     1     -15.431  -2.784   6.938  1.00  0.00     0.131 A 
ATOM     69  C   UNL     1     -15.867  -2.198   4.271  1.00  0.00     0.055 A 
ATOM     70  C   UNL     1     -16.392  -1.833   6.586  1.00  0.00     0.041 A 
ATOM     71  F   UNL     1     -15.205  -2.981   8.246  1.00  0.00    -0.206 F 
ATOM     72  C   UNL     1     -16.601  -1.521   5.246  1.00  0.00     0.022 A 
BRANCH  69  73
ATOM     73  S   UNL     1     -15.929  -1.650   2.542  1.00  0.00     0.124 S 
ATOM     74  O   UNL     1     -14.550  -1.221   2.321  1.00  0.00    -0.237 OA
ATOM     75  O   UNL     1     -16.342  -2.859   1.841  1.00  0.00    -0.237 OA
ATOM     76  O   UNL     1     -16.914  -0.570   2.560  1.00  0.00    -0.744 OA
ENDBRANCH  69  73
ENDBRANCH  52  66
BRANCH  53  77
ATOM     77  C   UNL     1      -7.143  -9.599   8.655  1.00  0.00     0.023 A 
ATOM     78  C   UNL     1      -7.112 -10.948   8.265  1.00  0.00     0.031 A 
ATOM     79  C   UNL     1      -6.112  -9.134   9.491  1.00  0.00     0.131 A 
ATOM     80  C   UNL     1      -6.109 -11.798   8.756  1.00  0.00     0.055 A 
ATOM     81  C   UNL     1      -5.082  -9.969   9.928  1.00  0.00     0.041 A 
ATOM     82  F   UNL     1      -6.087  -7.852   9.889  1.00  0.00    -0.206 F 
ATOM     83  C   UNL     1      -5.086 -11.315   9.573  1.00  0.00     0.022 A 
BRANCH  80  84
ATOM     84  S   UNL     1      -6.221 -13.572   8.392  1.00  0.00     0.124 S 
ATOM     85  O   UNL     1      -7.540 -13.900   8.919  1.00  0.00    -0.237 OA
ATOM     86  O   UNL     1      -6.087 -13.591   6.939  1.00  0.00    -0.237 OA
ATOM     87  O   UNL     1      -5.094 -14.141   9.128  1.00  0.00    -0.744 OA
ENDBRANCH  80  84
ENDBRANCH  53  77
BRANCH  65  88
ATOM     88  C   UNL     1     -14.054  -9.733   9.614  1.00  0.00     0.023 A 
ATOM     89  C   UNL     1     -13.996 -10.013  10.989  1.00  0.00     0.031 A 
ATOM     90  C   UNL     1     -14.986 -10.439   8.832  1.00  0.00     0.131 A 
ATOM     91  C   UNL     1     -14.804 -11.024  11.529  1.00  0.00     0.055 A 
ATOM     92  C   UNL     1     -15.840 -11.391   9.388  1.00  0.00     0.041 A 
ATOM     93  F   UNL     1     -15.084 -10.211   7.512  1.00  0.00    -0.206 F 
ATOM     94  C   UNL     1     -15.740 -11.700  10.741  1.00  0.00     0.022 A 
BRANCH  91  95
ATOM     95  S   UNL     1     -14.534 -11.523  13.251  1.00  0.00     0.124 S 
ATOM     96  O   UNL     1     -13.121 -11.888  13.242  1.00  0.00    -0.237 OA
ATOM     97  O   UNL     1     -14.874 -10.308  13.984  1.00  0.00    -0.237 OA
ATOM     98  O   UNL     1     -15.462 -12.638  13.433  1.00  0.00    -0.744 OA
ENDBRANCH  91  95
ENDBRANCH  65  88
ENDBRANCH  39  40
ENDBRANCH  31  34
ENDBRANCH  29  30
ENDBRANCH  28  29
ENDBRANCH   1  28
TORSDOF 19
