REMARK SMILES CC(C)c1cc2c(cc1Cl)C=C(C(=O)NCCCNC(=O)c1ccc(-c3c4nc(c(-c5cc(S(=O)(=O)[O-])ccc5F)c5ccc([nH]5)c(-c5cc(S(=O)(=O)[O-])ccc5F)c5nc(c(-c6cc(S(=O)(=O)[O-])ccc6F)c6ccc3[nH]6)C=C5)C=C4)cc1)[C@@H](C(F)(F)F)O2
REMARK SMILES IDX 18 1 17 2 16 3 15 4 13 5 14 6 12 8 4 9 5 10 9 11 6 12 8 13
REMARK SMILES IDX 10 14 7 15 90 16 11 17 85 18 2 19 1 20 3 21 86 22 87 23
REMARK SMILES IDX 88 24 89 25 19 26 20 27 21 29 22 30 23 31 84 32 24 33 83 34
REMARK SMILES IDX 25 35 26 36 27 37 77 38 28 39 82 40 76 41 78 42 29 43 81 44
REMARK SMILES IDX 75 45 74 46 30 48 62 49 42 50 61 51 43 52 46 53 60 54 79 55
REMARK SMILES IDX 44 56 45 57 59 59 80 60 47 61 31 62 32 63 40 64 33 65 39 66
REMARK SMILES IDX 41 67 38 68 34 69 35 70 36 71 37 72 63 73 64 74 72 75 65 76
REMARK SMILES IDX 71 77 73 78 70 79 66 80 67 81 68 82 69 83 48 84 49 85 57 86
REMARK SMILES IDX 50 87 56 88 58 89 55 90 51 91 52 92 53 93 54 94
REMARK H PARENT 15 7 19 28 78 47 46 58
REMARK Flexibility Score: inf
ROOT
ATOM      1  C   UNL     1      -9.531  -3.265   0.795  1.00  0.00     0.118 C 
ENDROOT
BRANCH   1   2
ATOM      2  C   UNL     1      -8.063  -3.014   0.477  1.00  0.00     0.042 C 
BRANCH   2   3
ATOM      3  C   UNL     1      -7.872  -2.204  -0.796  1.00  0.00     0.118 C 
BRANCH   3   4
ATOM      4  N   UNL     1      -8.057  -0.778  -0.576  1.00  0.00    -0.352 N 
ATOM      5  C   UNL     1      -7.269   0.313  -0.436  1.00  0.00     0.251 C 
ATOM      6  O   UNL     1      -7.870   1.381  -0.281  1.00  0.00    -0.270 OA
ATOM      7  H   UNL     1      -9.011  -0.544  -0.512  1.00  0.00     0.163 HD
BRANCH   5   8
ATOM      8  C   UNL     1      -5.777   0.305  -0.463  1.00  0.00     0.067 C 
ATOM      9  C   UNL     1      -0.887   1.603  -0.311  1.00  0.00    -0.023 A 
ATOM     10  C   UNL     1      -1.598   0.391  -0.313  1.00  0.00     0.052 A 
ATOM     11  C   UNL     1      -1.640   2.796  -0.275  1.00  0.00     0.045 A 
ATOM     12  C   UNL     1      -2.992   0.374  -0.289  1.00  0.00     0.128 A 
ATOM     13  C   UNL     1      -3.042   2.772  -0.246  1.00  0.00     0.032 A 
ATOM     14  Cl  UNL     1      -0.889   4.356  -0.262  1.00  0.00    -0.084 Cl
ATOM     15  C   UNL     1      -3.724   1.556  -0.258  1.00  0.00     0.019 A 
ATOM     16  O   UNL     1      -3.583  -0.857  -0.263  1.00  0.00    -0.475 OA
ATOM     17  C   UNL     1      -5.180   1.487  -0.216  1.00  0.00     0.025 C 
ATOM     18  C   UNL     1      -4.944  -0.908  -0.771  1.00  0.00     0.314 C 
BRANCH   9  19
ATOM     19  C   UNL     1       0.636   1.606  -0.382  1.00  0.00     0.014 C 
ATOM     20  C   UNL     1       1.306   0.340   0.172  1.00  0.00     0.012 C 
ATOM     21  C   UNL     1       1.101   1.833  -1.825  1.00  0.00     0.012 C 
ENDBRANCH   9  19
BRANCH  18  22
ATOM     22  C   UNL     1      -4.903  -1.235  -2.277  1.00  0.00     0.429 C 
ATOM     23  F   UNL     1      -4.468  -2.504  -2.475  1.00  0.00    -0.167 F 
ATOM     24  F   UNL     1      -6.120  -1.148  -2.866  1.00  0.00    -0.167 F 
ATOM     25  F   UNL     1      -4.080  -0.414  -2.969  1.00  0.00    -0.167 F 
ENDBRANCH  18  22
ENDBRANCH   5   8
ENDBRANCH   3   4
ENDBRANCH   2   3
ENDBRANCH   1   2
BRANCH   1  26
ATOM     26  N   UNL     1     -10.175  -4.120  -0.200  1.00  0.00    -0.352 N 
ATOM     27  C   UNL     1     -10.757  -5.359  -0.070  1.00  0.00     0.251 C 
ATOM     28  H   UNL     1     -10.194  -3.749  -1.112  1.00  0.00     0.163 HD
ATOM     29  O   UNL     1     -11.048  -5.995  -1.080  1.00  0.00    -0.269 OA
BRANCH  27  30
ATOM     30  C   UNL     1     -11.007  -5.926   1.271  1.00  0.00     0.039 A 
ATOM     31  C   UNL     1     -11.445  -5.108   2.311  1.00  0.00     0.014 A 
ATOM     32  C   UNL     1     -10.803  -7.291   1.495  1.00  0.00     0.014 A 
ATOM     33  C   UNL     1     -11.480  -5.603   3.606  1.00  0.00     0.010 A 
ATOM     34  C   UNL     1     -10.957  -7.814   2.783  1.00  0.00     0.010 A 
ATOM     35  C   UNL     1     -11.246  -6.964   3.860  1.00  0.00    -0.014 A 
BRANCH  35  36
ATOM     36  C   UNL     1     -11.341  -7.454   5.261  1.00  0.00     0.031 A 
ATOM     37  C   UNL     1     -10.144  -8.033   5.964  1.00  0.00     0.074 A 
ATOM     38  C   UNL     1     -12.504  -7.290   5.922  1.00  0.00     0.049 A 
ATOM     39  N   UNL     1     -10.035  -8.422   7.208  1.00  0.00    -0.248 NA
ATOM     40  C   UNL     1      -8.913  -8.206   5.176  1.00  0.00     0.031 C 
ATOM     41  C   UNL     1     -13.726  -6.744   5.329  1.00  0.00     0.029 A 
ATOM     42  N   UNL     1     -12.843  -7.512   7.233  1.00  0.00    -0.354 N 
ATOM     43  C   UNL     1      -8.738  -8.904   7.348  1.00  0.00     0.074 A 
ATOM     44  C   UNL     1      -8.106  -8.789   6.053  1.00  0.00     0.031 C 
ATOM     45  C   UNL     1     -14.648  -6.588   6.286  1.00  0.00     0.029 A 
ATOM     46  C   UNL     1     -14.120  -7.103   7.546  1.00  0.00     0.049 A 
ATOM     47  H   UNL     1     -12.233  -7.924   7.886  1.00  0.00     0.167 HD
ATOM     48  C   UNL     1      -8.131  -9.383   8.459  1.00  0.00     0.034 A 
ATOM     49  C   UNL     1     -14.796  -7.137   8.713  1.00  0.00     0.034 A 
ATOM     50  C   UNL     1      -8.772  -9.467   9.748  1.00  0.00     0.049 A 
ATOM     51  C   UNL     1     -14.096  -7.673   9.932  1.00  0.00     0.074 A 
ATOM     52  C   UNL     1      -8.237  -9.924  10.939  1.00  0.00     0.029 A 
ATOM     53  N   UNL     1     -10.076  -9.078  10.019  1.00  0.00    -0.354 N 
ATOM     54  N   UNL     1     -12.859  -8.095  10.051  1.00  0.00    -0.248 NA
ATOM     55  C   UNL     1     -14.876  -7.744  11.175  1.00  0.00     0.031 C 
ATOM     56  C   UNL     1      -9.232  -9.863  11.916  1.00  0.00     0.029 A 
ATOM     57  C   UNL     1     -10.369  -9.304  11.354  1.00  0.00     0.049 A 
ATOM     58  H   UNL     1     -10.701  -8.698   9.360  1.00  0.00     0.167 HD
ATOM     59  C   UNL     1     -12.709  -8.473  11.381  1.00  0.00     0.074 A 
ATOM     60  C   UNL     1     -13.971  -8.195  12.035  1.00  0.00     0.031 C 
ATOM     61  C   UNL     1     -11.628  -9.011  11.999  1.00  0.00     0.034 A 
BRANCH  48  62
ATOM     62  C   UNL     1      -6.699  -9.852   8.359  1.00  0.00     0.023 A 
ATOM     63  C   UNL     1      -6.382 -11.202   8.603  1.00  0.00     0.031 A 
ATOM     64  C   UNL     1      -5.643  -8.948   8.148  1.00  0.00     0.131 A 
ATOM     65  C   UNL     1      -5.041 -11.602   8.664  1.00  0.00     0.055 A 
ATOM     66  C   UNL     1      -4.309  -9.361   8.172  1.00  0.00     0.041 A 
ATOM     67  F   UNL     1      -5.893  -7.651   7.909  1.00  0.00    -0.206 F 
ATOM     68  C   UNL     1      -4.004 -10.691   8.443  1.00  0.00     0.022 A 
BRANCH  65  69
ATOM     69  S   UNL     1      -4.588 -13.306   9.092  1.00  0.00     0.124 S 
ATOM     70  O   UNL     1      -3.829 -13.719   7.913  1.00  0.00    -0.237 OA
ATOM     71  O   UNL     1      -3.799 -13.116  10.306  1.00  0.00    -0.237 OA
ATOM     72  O   UNL     1      -5.871 -13.976   9.271  1.00  0.00    -0.744 OA
ENDBRANCH  65  69
ENDBRANCH  48  62
BRANCH  49  73
ATOM     73  C   UNL     1     -16.186  -6.596   8.762  1.00  0.00     0.023 A 
ATOM     74  C   UNL     1     -17.200  -7.137   7.948  1.00  0.00     0.031 A 
ATOM     75  C   UNL     1     -16.490  -5.451   9.518  1.00  0.00     0.131 A 
ATOM     76  C   UNL     1     -18.433  -6.483   7.841  1.00  0.00     0.055 A 
ATOM     77  C   UNL     1     -17.749  -4.849   9.470  1.00  0.00     0.041 A 
ATOM     78  F   UNL     1     -15.555  -4.889  10.299  1.00  0.00    -0.206 F 
ATOM     79  C   UNL     1     -18.721  -5.352   8.610  1.00  0.00     0.022 A 
BRANCH  76  80
ATOM     80  S   UNL     1     -19.637  -6.980   6.577  1.00  0.00     0.124 S 
ATOM     81  O   UNL     1     -20.775  -7.398   7.389  1.00  0.00    -0.237 OA
ATOM     82  O   UNL     1     -19.817  -5.737   5.829  1.00  0.00    -0.237 OA
ATOM     83  O   UNL     1     -18.953  -8.043   5.849  1.00  0.00    -0.744 OA
ENDBRANCH  76  80
ENDBRANCH  49  73
BRANCH  61  84
ATOM     84  C   UNL     1     -11.734  -9.351  13.465  1.00  0.00     0.023 A 
ATOM     85  C   UNL     1     -10.908  -8.699  14.399  1.00  0.00     0.031 A 
ATOM     86  C   UNL     1     -12.533 -10.418  13.910  1.00  0.00     0.131 A 
ATOM     87  C   UNL     1     -10.868  -9.148  15.725  1.00  0.00     0.055 A 
ATOM     88  C   UNL     1     -12.525 -10.831  15.242  1.00  0.00     0.041 A 
ATOM     89  F   UNL     1     -13.330 -11.077  13.053  1.00  0.00    -0.206 F 
ATOM     90  C   UNL     1     -11.678 -10.206  16.153  1.00  0.00     0.022 A 
BRANCH  87  91
ATOM     91  S   UNL     1      -9.699  -8.440  16.918  1.00  0.00     0.124 S 
ATOM     92  O   UNL     1     -10.598  -7.885  17.927  1.00  0.00    -0.237 OA
ATOM     93  O   UNL     1      -8.939  -9.614  17.338  1.00  0.00    -0.237 OA
ATOM     94  O   UNL     1      -8.954  -7.456  16.140  1.00  0.00    -0.744 OA
ENDBRANCH  87  91
ENDBRANCH  61  84
ENDBRANCH  35  36
ENDBRANCH  27  30
ENDBRANCH   1  26
TORSDOF 15
