REMARK SMILES COc1ccccc1[C@H](C)Nc1nc(C)c(C(=O)NCCCNC(=O)c2ccc(-c3c4nc(c(-c5cc(S(=O)(=O)[O-])ccc5F)c5ccc([nH]5)c(-c5cc(S(=O)(=O)[O-])ccc5F)c5nc(c(-c6cc(S(=O)(=O)[O-])ccc6F)c6ccc3[nH]6)C=C5)C=C4)cc2)s1
REMARK SMILES IDX 20 1 19 2 17 3 18 4 16 6 12 7 13 8 89 9 14 10 15 11 11 12
REMARK SMILES IDX 9 14 10 15 8 16 3 17 4 18 5 19 7 20 6 21 2 22 1 23 21 24
REMARK SMILES IDX 22 25 23 26 24 27 25 29 26 30 27 31 88 32 28 33 87 34 29 35
REMARK SMILES IDX 30 36 31 37 81 38 32 39 86 40 80 41 82 42 33 43 85 44 79 45
REMARK SMILES IDX 78 46 34 48 66 49 46 50 65 51 47 52 50 53 64 54 83 55 48 56
REMARK SMILES IDX 49 57 63 59 84 60 51 61 35 62 36 63 44 64 37 65 43 66 45 67
REMARK SMILES IDX 42 68 38 69 39 70 40 71 41 72 67 73 68 74 76 75 69 76 75 77
REMARK SMILES IDX 77 78 74 79 70 80 71 81 72 82 73 83 52 84 53 85 61 86 54 87
REMARK SMILES IDX 60 88 62 89 59 90 55 91 56 92 57 93 58 94
REMARK H PARENT 19 5 11 13 23 28 82 47 50 58
REMARK Flexibility Score: inf
ROOT
ATOM      1  C   UNL     1       3.087   2.643   6.168  1.00  0.00     0.118 C 
ENDROOT
BRANCH   1   2
ATOM      2  N   UNL     1       2.990   1.294   5.669  1.00  0.00    -0.351 N 
ATOM      3  C   UNL     1       2.781   0.747   4.431  1.00  0.00     0.263 C 
ATOM      4  O   UNL     1       2.711  -0.489   4.479  1.00  0.00    -0.268 OA
ATOM      5  H   UNL     1       3.099   0.616   6.374  1.00  0.00     0.163 HD
BRANCH   3   6
ATOM      6  C   UNL     1       2.711   1.484   3.171  1.00  0.00     0.117 A 
ATOM      7  C   UNL     1       2.824   1.798   0.722  1.00  0.00     0.184 A 
ATOM      8  N   UNL     1       2.804   2.944   1.341  1.00  0.00    -0.225 NA
ATOM      9  S   UNL     1       2.651   0.455   1.752  1.00  0.00    -0.092 S 
ATOM     10  C   UNL     1       2.639   2.799   2.714  1.00  0.00     0.063 A 
ATOM     11  C   UNL     1       2.439   4.102   3.392  1.00  0.00     0.068 C 
BRANCH   7  12
ATOM     12  N   UNL     1       3.020   1.757  -0.606  1.00  0.00    -0.355 N 
ATOM     13  H   UNL     1       3.360   2.580  -1.025  1.00  0.00     0.163 HD
BRANCH  12  14
ATOM     14  C   UNL     1       2.786   0.638  -1.482  1.00  0.00     0.112 C 
ATOM     15  C   UNL     1       1.893   1.172  -2.618  1.00  0.00     0.036 C 
BRANCH  14  16
ATOM     16  C   UNL     1       4.053  -0.008  -2.041  1.00  0.00     0.016 A 
ATOM     17  C   UNL     1       5.374   0.405  -1.795  1.00  0.00     0.124 A 
ATOM     18  C   UNL     1       6.462  -0.237  -2.405  1.00  0.00     0.047 A 
ATOM     19  C   UNL     1       6.260  -1.332  -3.239  1.00  0.00     0.004 A 
ATOM     20  C   UNL     1       3.884  -1.140  -2.872  1.00  0.00     0.010 A 
ATOM     21  C   UNL     1       4.969  -1.790  -3.466  1.00  0.00     0.001 A 
BRANCH  17  22
ATOM     22  O   UNL     1       5.658   1.485  -1.001  1.00  0.00    -0.496 OA
ATOM     23  C   UNL     1       6.125   1.048   0.279  1.00  0.00     0.278 C 
ENDBRANCH  17  22
ENDBRANCH  14  16
ENDBRANCH  12  14
ENDBRANCH   7  12
ENDBRANCH   3   6
ENDBRANCH   1   2
BRANCH   1  24
ATOM     24  C   UNL     1       1.710   3.185   6.537  1.00  0.00     0.042 C 
BRANCH  24  25
ATOM     25  C   UNL     1       1.256   2.764   7.929  1.00  0.00     0.118 C 
BRANCH  25  26
ATOM     26  N   UNL     1       1.974   3.501   8.960  1.00  0.00    -0.352 N 
ATOM     27  C   UNL     1       1.515   4.441   9.846  1.00  0.00     0.251 C 
ATOM     28  H   UNL     1       2.933   3.291   9.033  1.00  0.00     0.163 HD
ATOM     29  O   UNL     1       2.337   5.164  10.419  1.00  0.00    -0.269 OA
BRANCH  27  30
ATOM     30  C   UNL     1       0.069   4.604  10.114  1.00  0.00     0.039 A 
ATOM     31  C   UNL     1      -0.437   5.883  10.368  1.00  0.00     0.014 A 
ATOM     32  C   UNL     1      -0.785   3.498  10.175  1.00  0.00     0.014 A 
ATOM     33  C   UNL     1      -1.798   6.056  10.636  1.00  0.00     0.010 A 
ATOM     34  C   UNL     1      -2.154   3.681  10.356  1.00  0.00     0.010 A 
ATOM     35  C   UNL     1      -2.673   4.959  10.606  1.00  0.00    -0.014 A 
BRANCH  35  36
ATOM     36  C   UNL     1      -4.129   5.120  10.861  1.00  0.00     0.031 A 
ATOM     37  C   UNL     1      -4.763   4.450  12.051  1.00  0.00     0.074 A 
ATOM     38  C   UNL     1      -4.887   5.809   9.987  1.00  0.00     0.049 A 
ATOM     39  N   UNL     1      -6.022   4.397  12.401  1.00  0.00    -0.248 NA
ATOM     40  C   UNL     1      -3.860   3.712  12.947  1.00  0.00     0.031 C 
ATOM     41  C   UNL     1      -4.392   6.472   8.778  1.00  0.00     0.029 A 
ATOM     42  N   UNL     1      -6.236   6.062   9.974  1.00  0.00    -0.354 N 
ATOM     43  C   UNL     1      -6.066   3.599  13.541  1.00  0.00     0.074 A 
ATOM     44  C   UNL     1      -4.714   3.144  13.784  1.00  0.00     0.031 C 
ATOM     45  C   UNL     1      -5.417   7.081   8.160  1.00  0.00     0.029 A 
ATOM     46  C   UNL     1      -6.647   6.813   8.898  1.00  0.00     0.049 A 
ATOM     47  H   UNL     1      -6.851   5.736  10.670  1.00  0.00     0.167 HD
ATOM     48  C   UNL     1      -7.133   3.292  14.323  1.00  0.00     0.034 A 
ATOM     49  C   UNL     1      -7.877   7.231   8.542  1.00  0.00     0.034 A 
ATOM     50  C   UNL     1      -8.470   3.775  14.073  1.00  0.00     0.049 A 
ATOM     51  C   UNL     1      -9.050   6.863   9.413  1.00  0.00     0.074 A 
ATOM     52  C   UNL     1      -9.610   3.593  14.837  1.00  0.00     0.029 A 
ATOM     53  N   UNL     1      -8.850   4.528  12.968  1.00  0.00    -0.354 N 
ATOM     54  N   UNL     1      -9.069   6.155  10.519  1.00  0.00    -0.248 NA
ATOM     55  C   UNL     1     -10.366   7.358   8.991  1.00  0.00     0.031 C 
ATOM     56  C   UNL     1     -10.689   4.172  14.159  1.00  0.00     0.029 A 
ATOM     57  C   UNL     1     -10.213   4.785  13.011  1.00  0.00     0.049 A 
ATOM     58  H   UNL     1      -8.241   4.834  12.258  1.00  0.00     0.167 HD
ATOM     59  C   UNL     1     -10.395   6.148  10.941  1.00  0.00     0.074 A 
ATOM     60  C   UNL     1     -11.141   6.931   9.977  1.00  0.00     0.031 C 
ATOM     61  C   UNL     1     -10.946   5.554  12.032  1.00  0.00     0.034 A 
BRANCH  48  62
ATOM     62  C   UNL     1      -6.892   2.366  15.494  1.00  0.00     0.023 A 
ATOM     63  C   UNL     1      -6.009   2.700  16.537  1.00  0.00     0.031 A 
ATOM     64  C   UNL     1      -7.520   1.108  15.547  1.00  0.00     0.131 A 
ATOM     65  C   UNL     1      -5.705   1.756  17.530  1.00  0.00     0.055 A 
ATOM     66  C   UNL     1      -7.284   0.209  16.589  1.00  0.00     0.041 A 
ATOM     67  F   UNL     1      -8.360   0.721  14.574  1.00  0.00    -0.206 F 
ATOM     68  C   UNL     1      -6.356   0.522  17.578  1.00  0.00     0.022 A 
BRANCH  65  69
ATOM     69  S   UNL     1      -4.323   2.099  18.654  1.00  0.00     0.124 S 
ATOM     70  O   UNL     1      -3.221   2.298  17.715  1.00  0.00    -0.237 OA
ATOM     71  O   UNL     1      -4.781   3.287  19.364  1.00  0.00    -0.237 OA
ATOM     72  O   UNL     1      -4.229   0.885  19.463  1.00  0.00    -0.744 OA
ENDBRANCH  65  69
ENDBRANCH  48  62
BRANCH  49  73
ATOM     73  C   UNL     1      -8.067   8.049   7.310  1.00  0.00     0.023 A 
ATOM     74  C   UNL     1      -8.497   9.382   7.394  1.00  0.00     0.031 A 
ATOM     75  C   UNL     1      -7.845   7.505   6.033  1.00  0.00     0.131 A 
ATOM     76  C   UNL     1      -8.728  10.117   6.221  1.00  0.00     0.055 A 
ATOM     77  C   UNL     1      -8.029   8.256   4.870  1.00  0.00     0.041 A 
ATOM     78  F   UNL     1      -7.425   6.237   5.898  1.00  0.00    -0.206 F 
ATOM     79  C   UNL     1      -8.485   9.568   4.961  1.00  0.00     0.022 A 
BRANCH  76  80
ATOM     80  S   UNL     1      -9.417  11.789   6.367  1.00  0.00     0.124 S 
ATOM     81  O   UNL     1     -10.677  11.532   7.054  1.00  0.00    -0.237 OA
ATOM     82  O   UNL     1      -8.389  12.473   7.144  1.00  0.00    -0.237 OA
ATOM     83  O   UNL     1      -9.540  12.228   4.978  1.00  0.00    -0.744 OA
ENDBRANCH  76  80
ENDBRANCH  49  73
BRANCH  61  84
ATOM     84  C   UNL     1     -12.422   5.773  12.255  1.00  0.00     0.023 A 
ATOM     85  C   UNL     1     -13.390   5.244  11.383  1.00  0.00     0.031 A 
ATOM     86  C   UNL     1     -12.865   6.536  13.350  1.00  0.00     0.131 A 
ATOM     87  C   UNL     1     -14.748   5.533  11.588  1.00  0.00     0.055 A 
ATOM     88  C   UNL     1     -14.221   6.768  13.584  1.00  0.00     0.041 A 
ATOM     89  F   UNL     1     -11.985   7.068  14.213  1.00  0.00    -0.206 F 
ATOM     90  C   UNL     1     -15.170   6.277  12.693  1.00  0.00     0.022 A 
BRANCH  87  91
ATOM     91  S   UNL     1     -15.950   5.002  10.338  1.00  0.00     0.124 S 
ATOM     92  O   UNL     1     -15.456   5.671   9.139  1.00  0.00    -0.237 OA
ATOM     93  O   UNL     1     -15.807   3.550  10.363  1.00  0.00    -0.237 OA
ATOM     94  O   UNL     1     -17.223   5.508  10.850  1.00  0.00    -0.744 OA
ENDBRANCH  87  91
ENDBRANCH  61  84
ENDBRANCH  35  36
ENDBRANCH  27  30
ENDBRANCH  25  26
ENDBRANCH  24  25
ENDBRANCH   1  24
TORSDOF 17
