REMARK SMILES O=C(NCCCNC(=O)[C@H]1CSC2(CCCCC2)[NH2+]1)c1ccc(-c2c3nc(c(-c4cc(S(=O)(=O)[O-])ccc4F)c4ccc([nH]4)c(-c4cc(S(=O)(=O)[O-])ccc4F)c4nc(c(-c5cc(S(=O)(=O)[O-])ccc5F)c5ccc2[nH]5)C=C4)C=C3)cc1
REMARK SMILES IDX 1 1 2 2 3 3 20 5 21 6 82 7 22 8 81 9 23 10 24 11 25 12 75 13
REMARK SMILES IDX 26 14 80 15 74 16 76 17 27 18 79 19 73 20 72 21 28 23 60 24
REMARK SMILES IDX 40 25 59 26 41 27 44 28 58 29 77 30 42 31 43 32 57 34 78 35
REMARK SMILES IDX 45 36 29 37 30 38 38 39 31 40 37 41 39 42 36 43 32 44 33 45
REMARK SMILES IDX 34 46 35 47 61 48 62 49 70 50 63 51 69 52 71 53 68 54 64 55
REMARK SMILES IDX 65 56 66 57 67 58 46 59 47 60 55 61 48 62 54 63 56 64 53 65
REMARK SMILES IDX 49 66 50 67 51 68 52 69 4 70 5 71 6 72 7 73 8 74 9 76 10 77
REMARK SMILES IDX 11 78 19 79 12 80 13 81 14 84 18 85 15 86 17 87 16 88
REMARK H PARENT 3 4 76 22 44 33 7 75 19 82 19 83
REMARK Flexibility Score: inf
ROOT
ATOM      1  O   UNL     1       7.480  10.535  -1.741  1.00  0.00    -0.269 OA
ATOM      2  C   UNL     1       7.198   9.367  -1.977  1.00  0.00     0.251 C 
ATOM      3  N   UNL     1       6.536   8.617  -1.036  1.00  0.00    -0.352 N 
ATOM      4  H   UNL     1       6.137   9.130  -0.296  1.00  0.00     0.163 HD
ENDROOT
BRANCH   2   5
ATOM      5  C   UNL     1       7.549   8.751  -3.271  1.00  0.00     0.039 A 
ATOM      6  C   UNL     1       6.646   7.883  -3.888  1.00  0.00     0.014 A 
ATOM      7  C   UNL     1       8.765   9.059  -3.885  1.00  0.00     0.014 A 
ATOM      8  C   UNL     1       7.013   7.206  -5.036  1.00  0.00     0.010 A 
ATOM      9  C   UNL     1       9.078   8.476  -5.114  1.00  0.00     0.010 A 
ATOM     10  C   UNL     1       8.202   7.544  -5.694  1.00  0.00    -0.014 A 
BRANCH  10  11
ATOM     11  C   UNL     1       8.412   7.030  -7.065  1.00  0.00     0.031 A 
ATOM     12  C   UNL     1       9.558   6.123  -7.391  1.00  0.00     0.074 A 
ATOM     13  C   UNL     1       7.524   7.406  -8.009  1.00  0.00     0.049 A 
ATOM     14  N   UNL     1       9.898   5.624  -8.550  1.00  0.00    -0.248 NA
ATOM     15  C   UNL     1      10.442   5.729  -6.283  1.00  0.00     0.031 C 
ATOM     16  C   UNL     1       6.373   8.289  -7.775  1.00  0.00     0.029 A 
ATOM     17  N   UNL     1       7.432   7.099  -9.340  1.00  0.00    -0.354 N 
ATOM     18  C   UNL     1      11.048   4.880  -8.322  1.00  0.00     0.074 A 
ATOM     19  C   UNL     1      11.354   4.998  -6.912  1.00  0.00     0.031 C 
ATOM     20  C   UNL     1       5.676   8.421  -8.910  1.00  0.00     0.029 A 
ATOM     21  C   UNL     1       6.382   7.724  -9.974  1.00  0.00     0.049 A 
ATOM     22  H   UNL     1       8.056   6.491  -9.799  1.00  0.00     0.167 HD
ATOM     23  C   UNL     1      11.776   4.175  -9.222  1.00  0.00     0.034 A 
ATOM     24  C   UNL     1       6.056   7.780 -11.278  1.00  0.00     0.034 A 
ATOM     25  C   UNL     1      11.431   4.072 -10.620  1.00  0.00     0.049 A 
ATOM     26  C   UNL     1       6.923   7.035 -12.254  1.00  0.00     0.074 A 
ATOM     27  C   UNL     1      12.053   3.323 -11.603  1.00  0.00     0.029 A 
ATOM     28  N   UNL     1      10.392   4.756 -11.239  1.00  0.00    -0.354 N 
ATOM     29  N   UNL     1       7.975   6.286 -12.012  1.00  0.00    -0.248 NA
ATOM     30  C   UNL     1       6.570   7.144 -13.673  1.00  0.00     0.031 C 
ATOM     31  C   UNL     1      11.450   3.624 -12.828  1.00  0.00     0.029 A 
ATOM     32  C   UNL     1      10.395   4.494 -12.600  1.00  0.00     0.049 A 
ATOM     33  H   UNL     1       9.748   5.341 -10.778  1.00  0.00     0.167 HD
ATOM     34  C   UNL     1       8.402   5.827 -13.252  1.00  0.00     0.074 A 
ATOM     35  C   UNL     1       7.473   6.353 -14.232  1.00  0.00     0.031 C 
ATOM     36  C   UNL     1       9.469   5.047 -13.558  1.00  0.00     0.034 A 
BRANCH  23  37
ATOM     37  C   UNL     1      13.043   3.508  -8.751  1.00  0.00     0.023 A 
ATOM     38  C   UNL     1      13.036   2.422  -7.861  1.00  0.00     0.031 A 
ATOM     39  C   UNL     1      14.285   3.946  -9.249  1.00  0.00     0.131 A 
ATOM     40  C   UNL     1      14.249   1.829  -7.472  1.00  0.00     0.055 A 
ATOM     41  C   UNL     1      15.481   3.313  -8.908  1.00  0.00     0.041 A 
ATOM     42  F   UNL     1      14.353   4.994 -10.085  1.00  0.00    -0.206 F 
ATOM     43  C   UNL     1      15.468   2.251  -8.010  1.00  0.00     0.022 A 
BRANCH  40  44
ATOM     44  S   UNL     1      14.222   0.551  -6.185  1.00  0.00     0.124 S 
ATOM     45  O   UNL     1      13.635   1.275  -5.060  1.00  0.00    -0.237 OA
ATOM     46  O   UNL     1      13.387  -0.483  -6.784  1.00  0.00    -0.237 OA
ATOM     47  O   UNL     1      15.631   0.198  -6.022  1.00  0.00    -0.744 OA
ENDBRANCH  40  44
ENDBRANCH  23  37
BRANCH  24  48
ATOM     48  C   UNL     1       4.922   8.631 -11.741  1.00  0.00     0.023 A 
ATOM     49  C   UNL     1       3.841   8.079 -12.440  1.00  0.00     0.031 A 
ATOM     50  C   UNL     1       4.934  10.026 -11.542  1.00  0.00     0.131 A 
ATOM     51  C   UNL     1       2.851   8.920 -12.972  1.00  0.00     0.055 A 
ATOM     52  C   UNL     1       3.909  10.849 -12.007  1.00  0.00     0.041 A 
ATOM     53  F   UNL     1       5.946  10.612 -10.881  1.00  0.00    -0.206 F 
ATOM     54  C   UNL     1       2.868  10.298 -12.745  1.00  0.00     0.022 A 
BRANCH  51  55
ATOM     55  S   UNL     1       1.614   8.198 -14.083  1.00  0.00     0.124 S 
ATOM     56  O   UNL     1       2.457   7.535 -15.072  1.00  0.00    -0.237 OA
ATOM     57  O   UNL     1       0.873   7.323 -13.181  1.00  0.00    -0.237 OA
ATOM     58  O   UNL     1       0.876   9.361 -14.570  1.00  0.00    -0.744 OA
ENDBRANCH  51  55
ENDBRANCH  24  48
BRANCH  36  59
ATOM     59  C   UNL     1       9.664   4.711 -15.014  1.00  0.00     0.023 A 
ATOM     60  C   UNL     1      10.012   5.698 -15.951  1.00  0.00     0.031 A 
ATOM     61  C   UNL     1       9.492   3.393 -15.468  1.00  0.00     0.131 A 
ATOM     62  C   UNL     1      10.129   5.361 -17.306  1.00  0.00     0.055 A 
ATOM     63  C   UNL     1       9.674   3.050 -16.807  1.00  0.00     0.041 A 
ATOM     64  F   UNL     1       9.152   2.414 -14.614  1.00  0.00    -0.206 F 
ATOM     65  C   UNL     1       9.983   4.039 -17.737  1.00  0.00     0.022 A 
BRANCH  62  66
ATOM     66  S   UNL     1      10.397   6.687 -18.512  1.00  0.00     0.124 S 
ATOM     67  O   UNL     1       9.197   7.500 -18.338  1.00  0.00    -0.237 OA
ATOM     68  O   UNL     1      11.645   7.285 -18.050  1.00  0.00    -0.237 OA
ATOM     69  O   UNL     1      10.486   5.978 -19.788  1.00  0.00    -0.744 OA
ENDBRANCH  62  66
ENDBRANCH  36  59
ENDBRANCH  10  11
ENDBRANCH   2   5
BRANCH   3  70
ATOM     70  C   UNL     1       6.337   7.171  -0.970  1.00  0.00     0.118 C 
BRANCH  70  71
ATOM     71  C   UNL     1       7.110   6.546   0.172  1.00  0.00     0.042 C 
BRANCH  71  72
ATOM     72  C   UNL     1       6.599   7.018   1.513  1.00  0.00     0.118 C 
BRANCH  72  73
ATOM     73  N   UNL     1       5.424   6.317   1.980  1.00  0.00    -0.351 N 
ATOM     74  C   UNL     1       5.230   5.443   2.999  1.00  0.00     0.279 C 
ATOM     75  H   UNL     1       4.610   6.511   1.460  1.00  0.00     0.163 HD
ATOM     76  O   UNL     1       4.046   5.218   3.287  1.00  0.00    -0.268 OA
BRANCH  74  77
ATOM     77  C   UNL     1       6.346   4.769   3.834  1.00  0.00     0.283 C 
ATOM     78  C   UNL     1       7.596   4.304   3.118  1.00  0.00     0.151 C 
ATOM     79  N   UNL     1       6.684   5.511   5.074  1.00  0.00    -0.322 N 
ATOM     80  S   UNL     1       8.889   5.477   3.578  1.00  0.00    -0.089 SA
ATOM     81  C   UNL     1       7.907   6.297   4.904  1.00  0.00     0.143 C 
ATOM     82  H   UNL     1       6.820   4.844   5.834  1.00  0.00     0.348 HD
ATOM     83  H   UNL     1       5.917   6.148   5.289  1.00  0.00     0.348 HD
ATOM     84  C   UNL     1       7.545   7.786   4.681  1.00  0.00     0.081 C 
ATOM     85  C   UNL     1       8.777   6.243   6.180  1.00  0.00     0.081 C 
ATOM     86  C   UNL     1       8.765   8.681   4.495  1.00  0.00     0.007 C 
ATOM     87  C   UNL     1      10.025   7.141   6.082  1.00  0.00     0.007 C 
ATOM     88  C   UNL     1       9.691   8.584   5.703  1.00  0.00     0.001 C 
ENDBRANCH  74  77
ENDBRANCH  72  73
ENDBRANCH  71  72
ENDBRANCH  70  71
ENDBRANCH   3  70
TORSDOF 13
