REMARK SMILES C[C@@H](Sc1nc2ccccc2c(=O)n1N)C(=O)NCCCNC(=O)c1ccc(-c2c3nc(c(-c4cc(S(=O)(=O)[O-])ccc4F)c4ccc([nH]4)c(-c4cc(S(=O)(=O)[O-])ccc4F)c4nc(c(-c5cc(S(=O)(=O)[O-])ccc5F)c5ccc2[nH]5)C=C4)C=C3)cc1
REMARK SMILES IDX 20 1 19 2 18 3 16 4 17 5 2 7 1 8 3 9 4 10 5 11 14 12 6 13
REMARK SMILES IDX 12 14 7 15 11 16 13 17 8 18 10 19 9 20 15 21 21 24 22 25
REMARK SMILES IDX 23 26 24 28 25 29 26 30 87 31 27 32 86 33 28 34 29 35 30 36
REMARK SMILES IDX 80 37 31 38 85 39 79 40 81 41 32 42 84 43 78 44 77 45 33 47
REMARK SMILES IDX 65 48 45 49 64 50 46 51 49 52 63 53 82 54 47 55 48 56 62 58
REMARK SMILES IDX 83 59 50 60 34 61 35 62 43 63 36 64 42 65 44 66 41 67 37 68
REMARK SMILES IDX 38 69 39 70 40 71 66 72 67 73 75 74 68 75 74 76 76 77 73 78
REMARK SMILES IDX 69 79 70 80 71 81 72 82 51 83 52 84 60 85 53 86 59 87 61 88
REMARK SMILES IDX 58 89 54 90 55 91 56 92 57 93
REMARK H PARENT 18 6 15 22 15 23 22 27 81 46 49 57
REMARK Flexibility Score: inf
ROOT
ATOM      1  C   UNL     1      -1.325   0.716   2.688  1.00  0.00     0.042 C 
ENDROOT
BRANCH   1   2
ATOM      2  C   UNL     1      -1.003  -0.723   2.311  1.00  0.00     0.117 C 
BRANCH   2   3
ATOM      3  N   UNL     1      -1.498  -1.054   0.984  1.00  0.00    -0.355 N 
ATOM      4  C   UNL     1      -0.828  -1.381  -0.157  1.00  0.00     0.233 C 
ATOM      5  O   UNL     1      -1.503  -1.651  -1.155  1.00  0.00    -0.274 OA
ATOM      6  H   UNL     1      -2.478  -1.038   0.895  1.00  0.00     0.163 HD
BRANCH   4   7
ATOM      7  C   UNL     1       0.701  -1.430  -0.215  1.00  0.00     0.141 C 
ATOM      8  C   UNL     1       1.334  -0.063   0.014  1.00  0.00     0.030 C 
BRANCH   7   9
ATOM      9  S   UNL     1       1.264  -2.798   0.864  1.00  0.00    -0.073 SA
BRANCH   9  10
ATOM     10  C   UNL     1       2.993  -2.578   0.851  1.00  0.00     0.191 A 
ATOM     11  N   UNL     1       3.547  -2.180   1.949  1.00  0.00    -0.222 NA
ATOM     12  N   UNL     1       3.696  -2.931  -0.295  1.00  0.00    -0.202 N 
ATOM     13  C   UNL     1       4.947  -2.118   1.996  1.00  0.00     0.079 A 
ATOM     14  C   UNL     1       5.090  -2.938  -0.319  1.00  0.00     0.280 A 
ATOM     15  C   UNL     1       5.563  -1.714   3.183  1.00  0.00     0.029 A 
ATOM     16  C   UNL     1       5.753  -2.493   0.920  1.00  0.00     0.068 A 
ATOM     17  O   UNL     1       5.751  -3.324  -1.283  1.00  0.00    -0.267 OA
ATOM     18  C   UNL     1       6.957  -1.692   3.292  1.00  0.00     0.002 A 
ATOM     19  C   UNL     1       7.149  -2.474   1.017  1.00  0.00     0.016 A 
ATOM     20  C   UNL     1       7.750  -2.074   2.210  1.00  0.00     0.001 A 
BRANCH  12  21
ATOM     21  N   UNL     1       3.026  -3.340  -1.494  1.00  0.00    -0.334 N 
ATOM     22  H   UNL     1       2.043  -3.353  -1.530  1.00  0.00     0.178 HD
ATOM     23  H   UNL     1       3.551  -3.609  -2.283  1.00  0.00     0.178 HD
ENDBRANCH  12  21
ENDBRANCH   9  10
ENDBRANCH   7   9
ENDBRANCH   4   7
ENDBRANCH   2   3
ENDBRANCH   1   2
BRANCH   1  24
ATOM     24  C   UNL     1      -2.815   0.974   2.867  1.00  0.00     0.118 C 
BRANCH  24  25
ATOM     25  N   UNL     1      -3.381   0.212   3.973  1.00  0.00    -0.352 N 
ATOM     26  C   UNL     1      -3.969   0.650   5.133  1.00  0.00     0.251 C 
ATOM     27  H   UNL     1      -3.335  -0.766   3.873  1.00  0.00     0.163 HD
ATOM     28  O   UNL     1      -4.183  -0.152   6.041  1.00  0.00    -0.269 OA
BRANCH  26  29
ATOM     29  C   UNL     1      -4.319   2.077   5.298  1.00  0.00     0.039 A 
ATOM     30  C   UNL     1      -4.076   2.698   6.525  1.00  0.00     0.014 A 
ATOM     31  C   UNL     1      -4.889   2.801   4.248  1.00  0.00     0.014 A 
ATOM     32  C   UNL     1      -4.337   4.062   6.673  1.00  0.00     0.010 A 
ATOM     33  C   UNL     1      -5.059   4.177   4.367  1.00  0.00     0.010 A 
ATOM     34  C   UNL     1      -4.789   4.823   5.582  1.00  0.00    -0.014 A 
BRANCH  34  35
ATOM     35  C   UNL     1      -4.986   6.292   5.694  1.00  0.00     0.031 A 
ATOM     36  C   UNL     1      -6.352   6.888   5.485  1.00  0.00     0.074 A 
ATOM     37  C   UNL     1      -3.924   7.091   5.922  1.00  0.00     0.049 A 
ATOM     38  N   UNL     1      -6.711   8.146   5.466  1.00  0.00    -0.248 NA
ATOM     39  C   UNL     1      -7.453   5.946   5.234  1.00  0.00     0.031 C 
ATOM     40  C   UNL     1      -2.545   6.632   6.102  1.00  0.00     0.029 A 
ATOM     41  N   UNL     1      -3.834   8.456   6.035  1.00  0.00    -0.354 N 
ATOM     42  C   UNL     1      -8.075   8.148   5.192  1.00  0.00     0.074 A 
ATOM     43  C   UNL     1      -8.461   6.768   4.984  1.00  0.00     0.031 C 
ATOM     44  C   UNL     1      -1.755   7.691   6.335  1.00  0.00     0.029 A 
ATOM     45  C   UNL     1      -2.554   8.909   6.264  1.00  0.00     0.049 A 
ATOM     46  H   UNL     1      -4.611   9.055   5.960  1.00  0.00     0.167 HD
ATOM     47  C   UNL     1      -8.930   9.199   5.143  1.00  0.00     0.034 A 
ATOM     48  C   UNL     1      -2.076  10.164   6.387  1.00  0.00     0.034 A 
ATOM     49  C   UNL     1      -8.527  10.568   5.359  1.00  0.00     0.049 A 
ATOM     50  C   UNL     1      -3.039  11.321   6.287  1.00  0.00     0.074 A 
ATOM     51  C   UNL     1      -9.317  11.704   5.384  1.00  0.00     0.029 A 
ATOM     52  N   UNL     1      -7.221  10.989   5.578  1.00  0.00    -0.354 N 
ATOM     53  N   UNL     1      -4.336  11.301   6.077  1.00  0.00    -0.248 NA
ATOM     54  C   UNL     1      -2.477  12.668   6.450  1.00  0.00     0.031 C 
ATOM     55  C   UNL     1      -8.482  12.816   5.535  1.00  0.00     0.029 A 
ATOM     56  C   UNL     1      -7.180  12.370   5.700  1.00  0.00     0.049 A 
ATOM     57  H   UNL     1      -6.439  10.395   5.638  1.00  0.00     0.167 HD
ATOM     58  C   UNL     1      -4.748  12.631   6.120  1.00  0.00     0.074 A 
ATOM     59  C   UNL     1      -3.565  13.422   6.388  1.00  0.00     0.031 C 
ATOM     60  C   UNL     1      -5.992  13.150   5.960  1.00  0.00     0.034 A 
BRANCH  47  61
ATOM     61  C   UNL     1     -10.376   8.908   4.815  1.00  0.00     0.023 A 
ATOM     62  C   UNL     1     -11.174   8.098   5.643  1.00  0.00     0.031 A 
ATOM     63  C   UNL     1     -10.963   9.432   3.650  1.00  0.00     0.131 A 
ATOM     64  C   UNL     1     -12.482   7.771   5.255  1.00  0.00     0.055 A 
ATOM     65  C   UNL     1     -12.294   9.176   3.315  1.00  0.00     0.041 A 
ATOM     66  F   UNL     1     -10.247  10.194   2.807  1.00  0.00    -0.206 F 
ATOM     67  C   UNL     1     -13.057   8.328   4.111  1.00  0.00     0.022 A 
BRANCH  64  68
ATOM     68  S   UNL     1     -13.366   6.490   6.186  1.00  0.00     0.124 S 
ATOM     69  O   UNL     1     -12.462   5.350   6.048  1.00  0.00    -0.237 OA
ATOM     70  O   UNL     1     -13.458   7.074   7.518  1.00  0.00    -0.237 OA
ATOM     71  O   UNL     1     -14.633   6.359   5.470  1.00  0.00    -0.744 OA
ENDBRANCH  64  68
ENDBRANCH  47  61
BRANCH  48  72
ATOM     72  C   UNL     1      -0.619  10.401   6.603  1.00  0.00     0.023 A 
ATOM     73  C   UNL     1      -0.151  11.016   7.776  1.00  0.00     0.031 A 
ATOM     74  C   UNL     1       0.326  10.058   5.619  1.00  0.00     0.131 A 
ATOM     75  C   UNL     1       1.213  11.316   7.913  1.00  0.00     0.055 A 
ATOM     76  C   UNL     1       1.690  10.303   5.787  1.00  0.00     0.041 A 
ATOM     77  F   UNL     1      -0.065   9.466   4.479  1.00  0.00    -0.206 F 
ATOM     78  C   UNL     1       2.139  10.949   6.934  1.00  0.00     0.022 A 
BRANCH  75  79
ATOM     79  S   UNL     1       1.748  12.287   9.349  1.00  0.00     0.124 S 
ATOM     80  O   UNL     1       0.941  13.493   9.209  1.00  0.00    -0.237 OA
ATOM     81  O   UNL     1       1.399  11.404  10.457  1.00  0.00    -0.237 OA
ATOM     82  O   UNL     1       3.181  12.464   9.124  1.00  0.00    -0.744 OA
ENDBRANCH  75  79
ENDBRANCH  48  72
BRANCH  60  83
ATOM     83  C   UNL     1      -6.144  14.643   6.126  1.00  0.00     0.023 A 
ATOM     84  C   UNL     1      -5.554  15.556   5.234  1.00  0.00     0.031 A 
ATOM     85  C   UNL     1      -6.894  15.159   7.198  1.00  0.00     0.131 A 
ATOM     86  C   UNL     1      -5.678  16.935   5.462  1.00  0.00     0.055 A 
ATOM     87  C   UNL     1      -7.071  16.531   7.381  1.00  0.00     0.041 A 
ATOM     88  F   UNL     1      -7.476  14.335   8.085  1.00  0.00    -0.206 F 
ATOM     89  C   UNL     1      -6.450  17.428   6.518  1.00  0.00     0.022 A 
BRANCH  86  90
ATOM     90  S   UNL     1      -4.737  18.079   4.416  1.00  0.00     0.124 S 
ATOM     91  O   UNL     1      -3.365  17.635   4.639  1.00  0.00    -0.237 OA
ATOM     92  O   UNL     1      -5.285  17.814   3.090  1.00  0.00    -0.237 OA
ATOM     93  O   UNL     1      -5.061  19.394   4.967  1.00  0.00    -0.744 OA
ENDBRANCH  86  90
ENDBRANCH  60  83
ENDBRANCH  34  35
ENDBRANCH  26  29
ENDBRANCH  24  25
ENDBRANCH   1  24
TORSDOF 16
