REMARK SMILES O=C(Cc1ccccc1Nc1c(F)cccc1C(F)(F)F)NCCCNC(=O)c1ccc(-c2c3nc(c(-c4cc(S(=O)(=O)[O-])ccc4F)c4ccc([nH]4)c(-c4cc(S(=O)(=O)[O-])ccc4F)c4nc(c(-c5cc(S(=O)(=O)[O-])ccc5F)c5ccc2[nH]5)C=C4)C=C3)cc1
REMARK SMILES IDX 23 1 22 2 1 3 2 4 3 6 4 7 5 8 9 9 6 10 8 11 7 12 10 13 11 15
REMARK SMILES IDX 12 16 17 17 13 18 14 19 16 20 15 21 18 22 19 23 20 24 21 25
REMARK SMILES IDX 24 26 25 27 26 28 27 29 28 31 29 32 30 33 91 34 31 35 90 36
REMARK SMILES IDX 32 37 33 38 34 39 84 40 35 41 89 42 83 43 85 44 36 45 88 46
REMARK SMILES IDX 82 47 81 48 37 50 69 51 49 52 68 53 50 54 53 55 67 56 86 57
REMARK SMILES IDX 51 58 52 59 66 61 87 62 54 63 38 64 39 65 47 66 40 67 46 68
REMARK SMILES IDX 48 69 45 70 41 71 42 72 43 73 44 74 70 75 71 76 79 77 72 78
REMARK SMILES IDX 78 79 80 80 77 81 73 82 74 83 75 84 76 85 55 86 56 87 64 88
REMARK SMILES IDX 57 89 63 90 65 91 62 92 58 93 59 94 60 95 61 96
REMARK H PARENT 22 5 10 14 26 30 85 49 53 60
REMARK Flexibility Score: inf
ROOT
ATOM      1  C   UNL     1       1.907   1.755  -1.646  1.00  0.00     0.117 C 
ENDROOT
BRANCH   1   2
ATOM      2  N   UNL     1       2.623   0.797  -0.831  1.00  0.00    -0.356 N 
ATOM      3  O   UNL     1       0.805  -0.144   0.207  1.00  0.00    -0.275 OA
ATOM      4  C   UNL     1       2.020  -0.087   0.032  1.00  0.00     0.224 C 
ATOM      5  H   UNL     1       3.604   0.777  -0.899  1.00  0.00     0.163 HD
BRANCH   4   6
ATOM      6  C   UNL     1       2.990  -0.924   0.849  1.00  0.00     0.137 C 
BRANCH   6   7
ATOM      7  C   UNL     1       3.843  -1.895   0.056  1.00  0.00    -0.015 A 
ATOM      8  C   UNL     1       3.429  -3.239  -0.013  1.00  0.00     0.006 A 
ATOM      9  C   UNL     1       5.025  -1.505  -0.614  1.00  0.00     0.042 A 
ATOM     10  C   UNL     1       4.184  -4.189  -0.699  1.00  0.00     0.000 A 
ATOM     11  C   UNL     1       5.779  -2.482  -1.282  1.00  0.00     0.026 A 
ATOM     12  C   UNL     1       5.365  -3.812  -1.326  1.00  0.00     0.002 A 
BRANCH   9  13
ATOM     13  N   UNL     1       5.437  -0.152  -0.616  1.00  0.00    -0.352 N 
ATOM     14  H   UNL     1       5.091   0.389   0.130  1.00  0.00     0.167 HD
BRANCH  13  15
ATOM     15  C   UNL     1       6.271   0.545  -1.526  1.00  0.00     0.087 A 
ATOM     16  C   UNL     1       7.272   1.369  -0.966  1.00  0.00     0.147 A 
ATOM     17  C   UNL     1       6.192   0.461  -2.929  1.00  0.00     0.082 A 
ATOM     18  F   UNL     1       7.331   1.493   0.371  1.00  0.00    -0.205 F 
ATOM     19  C   UNL     1       8.201   2.053  -1.740  1.00  0.00     0.041 A 
ATOM     20  C   UNL     1       7.154   1.149  -3.706  1.00  0.00     0.015 A 
ATOM     21  C   UNL     1       8.149   1.932  -3.120  1.00  0.00     0.004 A 
BRANCH  17  22
ATOM     22  C   UNL     1       5.115  -0.279  -3.685  1.00  0.00     0.418 C 
ATOM     23  F   UNL     1       4.747   0.374  -4.828  1.00  0.00    -0.166 F 
ATOM     24  F   UNL     1       5.507  -1.517  -4.093  1.00  0.00    -0.166 F 
ATOM     25  F   UNL     1       3.947  -0.441  -3.007  1.00  0.00    -0.166 F 
ENDBRANCH  17  22
ENDBRANCH  13  15
ENDBRANCH   9  13
ENDBRANCH   6   7
ENDBRANCH   4   6
ENDBRANCH   1   2
BRANCH   1  26
ATOM     26  C   UNL     1       2.222   3.196  -1.253  1.00  0.00     0.042 C 
BRANCH  26  27
ATOM     27  C   UNL     1       3.695   3.592  -1.351  1.00  0.00     0.118 C 
BRANCH  27  28
ATOM     28  N   UNL     1       4.230   3.501  -2.700  1.00  0.00    -0.352 N 
ATOM     29  C   UNL     1       4.973   4.394  -3.430  1.00  0.00     0.251 C 
ATOM     30  H   UNL     1       4.026   2.658  -3.167  1.00  0.00     0.163 HD
ATOM     31  O   UNL     1       5.249   4.113  -4.599  1.00  0.00    -0.269 OA
BRANCH  29  32
ATOM     32  C   UNL     1       5.413   5.691  -2.864  1.00  0.00     0.039 A 
ATOM     33  C   UNL     1       5.365   6.821  -3.689  1.00  0.00     0.014 A 
ATOM     34  C   UNL     1       5.910   5.811  -1.564  1.00  0.00     0.014 A 
ATOM     35  C   UNL     1       5.771   8.067  -3.201  1.00  0.00     0.010 A 
ATOM     36  C   UNL     1       6.246   7.070  -1.055  1.00  0.00     0.010 A 
ATOM     37  C   UNL     1       6.194   8.212  -1.871  1.00  0.00    -0.014 A 
BRANCH  37  38
ATOM     38  C   UNL     1       6.618   9.541  -1.345  1.00  0.00     0.031 A 
ATOM     39  C   UNL     1       8.042   9.763  -0.903  1.00  0.00     0.074 A 
ATOM     40  C   UNL     1       5.724  10.546  -1.246  1.00  0.00     0.049 A 
ATOM     41  N   UNL     1       8.598  10.837  -0.399  1.00  0.00    -0.248 NA
ATOM     42  C   UNL     1       8.955   8.617  -1.022  1.00  0.00     0.031 C 
ATOM     43  C   UNL     1       4.309  10.456  -1.612  1.00  0.00     0.029 A 
ATOM     44  N   UNL     1       5.870  11.842  -0.811  1.00  0.00    -0.354 N 
ATOM     45  C   UNL     1       9.920  10.493  -0.132  1.00  0.00     0.074 A 
ATOM     46  C   UNL     1      10.060   9.092  -0.467  1.00  0.00     0.031 C 
ATOM     47  C   UNL     1       3.727  11.650  -1.415  1.00  0.00     0.029 A 
ATOM     48  C   UNL     1       4.710  12.581  -0.868  1.00  0.00     0.049 A 
ATOM     49  H   UNL     1       6.725  12.207  -0.488  1.00  0.00     0.167 HD
ATOM     50  C   UNL     1      10.930  11.277   0.323  1.00  0.00     0.034 A 
ATOM     51  C   UNL     1       4.462  13.859  -0.515  1.00  0.00     0.034 A 
ATOM     52  C   UNL     1      10.780  12.676   0.647  1.00  0.00     0.049 A 
ATOM     53  C   UNL     1       5.594  14.704   0.018  1.00  0.00     0.074 A 
ATOM     54  C   UNL     1      11.746  13.569   1.080  1.00  0.00     0.029 A 
ATOM     55  N   UNL     1       9.588  13.386   0.583  1.00  0.00    -0.354 N 
ATOM     56  N   UNL     1       6.849  14.374   0.221  1.00  0.00    -0.248 NA
ATOM     57  C   UNL     1       5.278  16.099   0.351  1.00  0.00     0.031 C 
ATOM     58  C   UNL     1      11.126  14.794   1.347  1.00  0.00     0.029 A 
ATOM     59  C   UNL     1       9.790  14.696   0.994  1.00  0.00     0.049 A 
ATOM     60  H   UNL     1       8.726  13.015   0.288  1.00  0.00     0.167 HD
ATOM     61  C   UNL     1       7.479  15.535   0.666  1.00  0.00     0.074 A 
ATOM     62  C   UNL     1       6.469  16.572   0.687  1.00  0.00     0.031 C 
ATOM     63  C   UNL     1       8.777  15.726   1.016  1.00  0.00     0.034 A 
BRANCH  50  64
ATOM     64  C   UNL     1      12.280  10.624   0.522  1.00  0.00     0.023 A 
ATOM     65  C   UNL     1      12.989  10.051  -0.549  1.00  0.00     0.031 A 
ATOM     66  C   UNL     1      12.854  10.546   1.804  1.00  0.00     0.131 A 
ATOM     67  C   UNL     1      14.183   9.353  -0.308  1.00  0.00     0.055 A 
ATOM     68  C   UNL     1      14.089   9.930   2.023  1.00  0.00     0.041 A 
ATOM     69  F   UNL     1      12.217  11.053   2.871  1.00  0.00    -0.206 F 
ATOM     70  C   UNL     1      14.753   9.314   0.966  1.00  0.00     0.022 A 
BRANCH  67  71
ATOM     71  S   UNL     1      14.892   8.363  -1.652  1.00  0.00     0.124 S 
ATOM     72  O   UNL     1      13.791   7.452  -1.959  1.00  0.00    -0.237 OA
ATOM     73  O   UNL     1      15.190   9.369  -2.663  1.00  0.00    -0.237 OA
ATOM     74  O   UNL     1      16.057   7.731  -1.035  1.00  0.00    -0.744 OA
ENDBRANCH  67  71
ENDBRANCH  50  64
BRANCH  51  75
ATOM     75  C   UNL     1       3.089  14.430  -0.646  1.00  0.00     0.023 A 
ATOM     76  C   UNL     1       2.828  15.504  -1.512  1.00  0.00     0.031 A 
ATOM     77  C   UNL     1       2.026  13.943   0.137  1.00  0.00     0.131 A 
ATOM     78  C   UNL     1       1.553  16.093  -1.534  1.00  0.00     0.055 A 
ATOM     79  C   UNL     1       0.745  14.493   0.066  1.00  0.00     0.041 A 
ATOM     80  F   UNL     1       2.218  12.917   0.980  1.00  0.00    -0.206 F 
ATOM     81  C   UNL     1       0.506  15.585  -0.762  1.00  0.00     0.022 A 
BRANCH  78  82
ATOM     82  S   UNL     1       1.308  17.599  -2.517  1.00  0.00     0.124 S 
ATOM     83  O   UNL     1       2.301  18.496  -1.936  1.00  0.00    -0.237 OA
ATOM     84  O   UNL     1       1.583  17.125  -3.869  1.00  0.00    -0.237 OA
ATOM     85  O   UNL     1      -0.085  17.953  -2.253  1.00  0.00    -0.744 OA
ENDBRANCH  78  82
ENDBRANCH  51  75
BRANCH  63  86
ATOM     86  C   UNL     1       9.191  17.132   1.390  1.00  0.00     0.023 A 
ATOM     87  C   UNL     1       8.677  17.786   2.524  1.00  0.00     0.031 A 
ATOM     88  C   UNL     1      10.103  17.835   0.582  1.00  0.00     0.131 A 
ATOM     89  C   UNL     1       9.025  19.122   2.779  1.00  0.00     0.055 A 
ATOM     90  C   UNL     1      10.499  19.139   0.879  1.00  0.00     0.041 A 
ATOM     91  F   UNL     1      10.625  17.264  -0.516  1.00  0.00    -0.206 F 
ATOM     92  C   UNL     1       9.947  19.796   1.974  1.00  0.00     0.022 A 
BRANCH  89  93
ATOM     93  S   UNL     1       8.169  20.007   4.111  1.00  0.00     0.124 S 
ATOM     94  O   UNL     1       6.769  19.856   3.726  1.00  0.00    -0.237 OA
ATOM     95  O   UNL     1       8.587  19.266   5.296  1.00  0.00    -0.237 OA
ATOM     96  O   UNL     1       8.695  21.367   4.013  1.00  0.00    -0.744 OA
ENDBRANCH  89  93
ENDBRANCH  63  86
ENDBRANCH  37  38
ENDBRANCH  29  32
ENDBRANCH  27  28
ENDBRANCH  26  27
ENDBRANCH   1  26
TORSDOF 17
