REMARK SMILES O=C(NCCCNC(=O)c1ccccc1Nc1cccc(S(F)(F)(F)(F)F)c1)c1ccc(-c2c3nc(c(-c4cc(S(=O)(=O)[O-])ccc4F)c4ccc([nH]4)c(-c4cc(S(=O)(=O)[O-])ccc4F)c4nc(c(-c5cc(S(=O)(=O)[O-])ccc5F)c5ccc2[nH]5)C=C4)C=C3)cc1
REMARK SMILES IDX 5 1 4 2 3 3 1 4 2 5 29 7 30 8 91 9 31 10 90 11 32 12 33 13
REMARK SMILES IDX 34 14 84 15 35 16 89 17 83 18 85 19 36 20 88 21 82 22 81 23
REMARK SMILES IDX 37 25 69 26 49 27 68 28 50 29 53 30 67 31 86 32 51 33 52 34
REMARK SMILES IDX 66 36 87 37 54 38 38 39 39 40 47 41 40 42 46 43 48 44 45 45
REMARK SMILES IDX 41 46 42 47 43 48 44 49 70 50 71 51 79 52 72 53 78 54 80 55
REMARK SMILES IDX 77 56 73 57 74 58 75 59 76 60 55 61 56 62 64 63 57 64 63 65
REMARK SMILES IDX 65 66 62 67 58 68 59 69 60 70 61 71 6 72 7 73 8 74 9 76
REMARK SMILES IDX 10 77 11 78 15 79 12 80 14 81 13 82 16 83 17 85 18 86 28 87
REMARK SMILES IDX 19 88 21 89 20 90 22 91 23 92 24 93 25 94 26 95 27 96
REMARK H PARENT 3 6 85 24 53 35 7 75 16 84
REMARK Flexibility Score: inf
ROOT
ATOM      1  C   UNL     1       5.063  -2.168  -0.897  1.00  0.00     0.042 C 
ENDROOT
BRANCH   1   2
ATOM      2  C   UNL     1       4.556  -0.739  -1.000  1.00  0.00     0.118 C 
BRANCH   2   3
ATOM      3  N   UNL     1       3.087  -0.739  -1.000  1.00  0.00    -0.352 N 
ATOM      4  O   UNL     1       1.081  -0.025   0.054  1.00  0.00    -0.269 OA
ATOM      5  C   UNL     1       2.352  -0.025   0.054  1.00  0.00     0.251 C 
ATOM      6  H   UNL     1       2.594  -1.217  -1.706  1.00  0.00     0.163 HD
BRANCH   5   7
ATOM      7  C   UNL     1       3.111   0.714   1.144  1.00  0.00     0.039 A 
ATOM      8  C   UNL     1       4.267   1.423   0.860  1.00  0.00     0.014 A 
ATOM      9  C   UNL     1       2.692   0.551   2.393  1.00  0.00     0.014 A 
ATOM     10  C   UNL     1       5.074   1.681   1.994  1.00  0.00     0.010 A 
ATOM     11  C   UNL     1       3.473   0.951   3.451  1.00  0.00     0.010 A 
ATOM     12  C   UNL     1       4.655   1.605   3.244  1.00  0.00    -0.014 A 
BRANCH  12  13
ATOM     13  C   UNL     1       5.446   2.212   4.391  1.00  0.00     0.031 A 
ATOM     14  C   UNL     1       5.870   1.328   5.385  1.00  0.00     0.074 A 
ATOM     15  C   UNL     1       5.784   3.554   4.354  1.00  0.00     0.049 A 
ATOM     16  N   UNL     1       6.671   1.590   6.418  1.00  0.00    -0.248 NA
ATOM     17  C   UNL     1       5.484  -0.089   5.446  1.00  0.00     0.031 C 
ATOM     18  C   UNL     1       5.367   4.451   3.350  1.00  0.00     0.029 A 
ATOM     19  N   UNL     1       6.561   4.256   5.249  1.00  0.00    -0.354 N 
ATOM     20  C   UNL     1       6.865   0.485   7.142  1.00  0.00     0.074 A 
ATOM     21  C   UNL     1       6.099  -0.609   6.531  1.00  0.00     0.031 C 
ATOM     22  C   UNL     1       5.875   5.677   3.643  1.00  0.00     0.029 A 
ATOM     23  C   UNL     1       6.619   5.567   4.833  1.00  0.00     0.049 A 
ATOM     24  H   UNL     1       6.998   3.884   6.049  1.00  0.00     0.167 HD
ATOM     25  C   UNL     1       7.652   0.347   8.287  1.00  0.00     0.034 A 
ATOM     26  C   UNL     1       7.276   6.623   5.444  1.00  0.00     0.034 A 
ATOM     27  C   UNL     1       8.345   1.394   8.874  1.00  0.00     0.049 A 
ATOM     28  C   UNL     1       8.016   6.498   6.623  1.00  0.00     0.074 A 
ATOM     29  C   UNL     1       9.148   1.271  10.024  1.00  0.00     0.029 A 
ATOM     30  N   UNL     1       8.383   2.711   8.472  1.00  0.00    -0.354 N 
ATOM     31  N   UNL     1       8.242   5.386   7.324  1.00  0.00    -0.248 NA
ATOM     32  C   UNL     1       8.690   7.616   7.297  1.00  0.00     0.031 C 
ATOM     33  C   UNL     1       9.657   2.498  10.316  1.00  0.00     0.029 A 
ATOM     34  C   UNL     1       9.178   3.408   9.354  1.00  0.00     0.049 A 
ATOM     35  H   UNL     1       7.921   3.089   7.689  1.00  0.00     0.167 HD
ATOM     36  C   UNL     1       9.010   5.657   8.381  1.00  0.00     0.074 A 
ATOM     37  C   UNL     1       9.303   7.096   8.383  1.00  0.00     0.031 C 
ATOM     38  C   UNL     1       9.482   4.760   9.341  1.00  0.00     0.034 A 
BRANCH  25  39
ATOM     39  C   UNL     1       7.755  -1.028   8.925  1.00  0.00     0.023 A 
ATOM     40  C   UNL     1       8.222  -2.120   8.213  1.00  0.00     0.031 A 
ATOM     41  C   UNL     1       7.340  -1.151  10.181  1.00  0.00     0.131 A 
ATOM     42  C   UNL     1       7.941  -3.366   8.823  1.00  0.00     0.055 A 
ATOM     43  C   UNL     1       7.218  -2.391  10.759  1.00  0.00     0.041 A 
ATOM     44  F   UNL     1       7.040  -0.063  10.885  1.00  0.00    -0.206 F 
ATOM     45  C   UNL     1       7.606  -3.520  10.091  1.00  0.00     0.022 A 
BRANCH  42  46
ATOM     46  S   UNL     1       8.049  -4.851   7.794  1.00  0.00     0.124 S 
ATOM     47  O   UNL     1       7.058  -4.740   6.633  1.00  0.00    -0.237 OA
ATOM     48  O   UNL     1       9.470  -4.986   7.241  1.00  0.00    -0.237 OA
ATOM     49  O   UNL     1       7.671  -6.226   8.737  1.00  0.00    -0.744 OA
ENDBRANCH  42  46
ENDBRANCH  25  39
BRANCH  26  50
ATOM     50  C   UNL     1       7.187   7.995   4.796  1.00  0.00     0.023 A 
ATOM     51  C   UNL     1       8.374   8.578   4.384  1.00  0.00     0.031 A 
ATOM     52  C   UNL     1       6.021   8.603   4.613  1.00  0.00     0.131 A 
ATOM     53  C   UNL     1       8.253   9.946   4.045  1.00  0.00     0.055 A 
ATOM     54  C   UNL     1       5.971   9.895   4.149  1.00  0.00     0.041 A 
ATOM     55  F   UNL     1       4.890   7.955   4.881  1.00  0.00    -0.206 F 
ATOM     56  C   UNL     1       7.111  10.554   3.779  1.00  0.00     0.022 A 
BRANCH  53  57
ATOM     57  S   UNL     1       9.768  10.933   3.969  1.00  0.00     0.124 S 
ATOM     58  O   UNL     1      10.455  10.918   5.337  1.00  0.00    -0.237 OA
ATOM     59  O   UNL     1      10.711  10.340   2.919  1.00  0.00    -0.237 OA
ATOM     60  O   UNL     1       9.380  12.543   3.543  1.00  0.00    -0.744 OA
ENDBRANCH  53  57
ENDBRANCH  26  50
BRANCH  38  61
ATOM     61  C   UNL     1      10.382   5.301  10.440  1.00  0.00     0.023 A 
ATOM     62  C   UNL     1       9.955   6.338  11.252  1.00  0.00     0.031 A 
ATOM     63  C   UNL     1      11.607   4.799  10.550  1.00  0.00     0.131 A 
ATOM     64  C   UNL     1      11.000   6.979  11.961  1.00  0.00     0.055 A 
ATOM     65  C   UNL     1      12.537   5.397  11.366  1.00  0.00     0.041 A 
ATOM     66  F   UNL     1      11.936   3.708   9.864  1.00  0.00    -0.206 F 
ATOM     67  C   UNL     1      12.200   6.463  12.152  1.00  0.00     0.022 A 
BRANCH  64  68
ATOM     68  S   UNL     1      10.666   8.617  12.653  1.00  0.00     0.124 S 
ATOM     69  O   UNL     1      10.297   9.582  11.524  1.00  0.00    -0.237 OA
ATOM     70  O   UNL     1       9.505   8.525  13.646  1.00  0.00    -0.237 OA
ATOM     71  O   UNL     1      12.061   9.190  13.459  1.00  0.00    -0.744 OA
ENDBRANCH  64  68
ENDBRANCH  38  61
ENDBRANCH  12  13
ENDBRANCH   5   7
ENDBRANCH   2   3
ENDBRANCH   1   2
BRANCH   1  72
ATOM     72  C   UNL     1       4.556  -2.972  -2.084  1.00  0.00     0.118 C 
BRANCH  72  73
ATOM     73  N   UNL     1       5.046  -2.367  -3.331  1.00  0.00    -0.352 N 
ATOM     74  C   UNL     1       5.892  -3.149  -4.244  1.00  0.00     0.253 C 
ATOM     75  H   UNL     1       4.809  -1.438  -3.554  1.00  0.00     0.163 HD
ATOM     76  O   UNL     1       6.315  -2.626  -5.322  1.00  0.00    -0.269 OA
BRANCH  74  77
ATOM     77  C   UNL     1       6.259  -4.583  -3.900  1.00  0.00     0.063 A 
ATOM     78  C   UNL     1       7.560  -5.002  -4.125  1.00  0.00     0.016 A 
ATOM     79  C   UNL     1       5.334  -5.421  -3.448  1.00  0.00     0.051 A 
ATOM     80  C   UNL     1       7.719  -6.408  -4.117  1.00  0.00     0.001 A 
ATOM     81  C   UNL     1       5.601  -6.764  -3.336  1.00  0.00     0.027 A 
ATOM     82  C   UNL     1       6.849  -7.257  -3.599  1.00  0.00     0.002 A 
BRANCH  79  83
ATOM     83  N   UNL     1       4.011  -4.908  -3.063  1.00  0.00    -0.355 N 
ATOM     84  H   UNL     1       3.815  -3.946  -3.141  1.00  0.00     0.167 HD
BRANCH  83  85
ATOM     85  C   UNL     1       2.982  -5.830  -2.561  1.00  0.00     0.040 A 
ATOM     86  C   UNL     1       1.757  -5.946  -3.197  1.00  0.00     0.026 A 
ATOM     87  C   UNL     1       3.256  -6.522  -1.462  1.00  0.00     0.050 A 
ATOM     88  C   UNL     1       0.772  -6.608  -2.426  1.00  0.00     0.004 A 
ATOM     89  C   UNL     1       2.278  -7.257  -0.836  1.00  0.00     0.109 A 
ATOM     90  C   UNL     1       1.027  -7.367  -1.377  1.00  0.00     0.024 A 
BRANCH  89  91
ATOM     91  S   UNL     1       2.651  -8.089   0.728  1.00  0.00     0.310 S 
ATOM     92  F   UNL     1       1.141  -7.798   1.117  1.00  0.00    -0.094 F 
ATOM     93  F   UNL     1       3.016  -6.708   1.392  1.00  0.00    -0.094 F 
ATOM     94  F   UNL     1       2.798  -8.817   2.094  1.00  0.00    -0.094 F 
ATOM     95  F   UNL     1       2.146  -9.436   0.074  1.00  0.00    -0.094 F 
ATOM     96  F   UNL     1       2.387  -7.343  -0.641  1.00  0.00    -0.094 F 
ENDBRANCH  89  91
ENDBRANCH  83  85
ENDBRANCH  79  83
ENDBRANCH  74  77
ENDBRANCH  72  73
ENDBRANCH   1  72
TORSDOF 16
