REMARK SMILES Cc1cccc(CC(=O)N2CCC3(CCC(=O)N([C@H](C)C(=O)NCCCNC(=O)c4ccc(-c5c6nc(c(-c7cc(S(=O)(=O)[O-])ccc7F)c7ccc([nH]7)c(-c7cc(S(=O)(=O)[O-])ccc7F)c7nc(c(-c8cc(S(=O)(=O)[O-])ccc8F)c8ccc5[nH]8)C=C7)C=C6)cc4)C3)CC2)c1
REMARK SMILES IDX 25 1 24 2 23 3 21 4 22 5 19 7 20 8 18 9 8 10 9 11 10 12
REMARK SMILES IDX 11 13 95 14 12 15 94 16 13 17 14 18 93 19 15 20 16 21 17 22
REMARK SMILES IDX 7 23 6 24 1 25 2 26 3 27 96 28 4 29 5 30 26 31 27 32 28 33
REMARK SMILES IDX 29 35 30 36 31 37 92 38 32 39 91 40 33 41 34 42 35 43 85 44
REMARK SMILES IDX 36 45 90 46 84 47 86 48 37 49 89 50 83 51 82 52 38 54 70 55
REMARK SMILES IDX 50 56 69 57 51 58 54 59 68 60 87 61 52 62 53 63 67 65 88 66
REMARK SMILES IDX 55 67 39 68 40 69 48 70 41 71 47 72 49 73 46 74 42 75 43 76
REMARK SMILES IDX 44 77 45 78 71 79 72 80 80 81 73 82 79 83 81 84 78 85 74 86
REMARK SMILES IDX 75 87 76 88 77 89 56 90 57 91 65 92 58 93 64 94 66 95 63 96
REMARK SMILES IDX 59 97 60 98 61 99 62 100
REMARK H PARENT 23 6 27 34 86 53 54 64
REMARK Flexibility Score: inf
ROOT
ATOM      1  C   UNL     1      -1.706   4.572  -8.833  1.00  0.00     0.042 C 
ENDROOT
BRANCH   1   2
ATOM      2  C   UNL     1      -0.974   5.891  -8.812  1.00  0.00     0.117 C 
BRANCH   2   3
ATOM      3  N   UNL     1      -1.384   6.774  -7.736  1.00  0.00    -0.354 N 
ATOM      4  C   UNL     1      -0.646   7.290  -6.707  1.00  0.00     0.242 C 
ATOM      5  O   UNL     1      -1.196   8.033  -5.885  1.00  0.00    -0.273 OA
ATOM      6  H   UNL     1      -2.332   7.040  -7.748  1.00  0.00     0.163 HD
BRANCH   4   7
ATOM      7  C   UNL     1       0.817   6.839  -6.461  1.00  0.00     0.171 C 
ATOM      8  C   UNL     1       0.886   5.352  -6.096  1.00  0.00     0.042 C 
BRANCH   7   9
ATOM      9  N   UNL     1       1.842   7.208  -7.458  1.00  0.00    -0.330 N 
ATOM     10  C   UNL     1       7.995   5.226  -6.976  1.00  0.00     0.226 C 
ATOM     11  O   UNL     1       8.216   4.033  -6.736  1.00  0.00    -0.275 OA
ATOM     12  N   UNL     1       6.886   5.606  -7.713  1.00  0.00    -0.342 N 
ATOM     13  C   UNL     1       5.736   4.708  -7.804  1.00  0.00     0.120 C 
ATOM     14  C   UNL     1       6.708   6.856  -8.436  1.00  0.00     0.120 C 
ATOM     15  C   UNL     1       4.479   5.421  -7.284  1.00  0.00     0.030 C 
ATOM     16  C   UNL     1       5.574   7.642  -7.808  1.00  0.00     0.030 C 
ATOM     17  C   UNL     1       4.258   6.836  -7.898  1.00  0.00    -0.008 C 
ATOM     18  C   UNL     1       3.860   6.755  -9.405  1.00  0.00     0.019 C 
ATOM     19  C   UNL     1       3.180   7.583  -7.069  1.00  0.00     0.127 C 
ATOM     20  C   UNL     1       2.409   6.401  -9.621  1.00  0.00     0.101 C 
ATOM     21  C   UNL     1       1.583   7.354  -8.803  1.00  0.00     0.223 C 
ATOM     22  O   UNL     1       0.804   8.158  -9.280  1.00  0.00    -0.275 OA
BRANCH  10  23
ATOM     23  C   UNL     1       8.831   6.278  -6.246  1.00  0.00     0.135 C 
BRANCH  23  24
ATOM     24  C   UNL     1       9.389   7.436  -7.030  1.00  0.00    -0.038 A 
ATOM     25  C   UNL     1       8.813  11.203  -7.258  1.00  0.00     0.044 C 
ATOM     26  C   UNL     1       9.342   9.825  -7.531  1.00  0.00    -0.051 A 
ATOM     27  C   UNL     1      10.162   9.592  -8.640  1.00  0.00     0.003 A 
ATOM     28  C   UNL     1       8.981   8.747  -6.716  1.00  0.00     0.007 A 
ATOM     29  C   UNL     1      10.616   8.303  -8.928  1.00  0.00     0.001 A 
ATOM     30  C   UNL     1      10.236   7.227  -8.125  1.00  0.00     0.004 A 
ENDBRANCH  23  24
ENDBRANCH  10  23
ENDBRANCH   7   9
ENDBRANCH   4   7
ENDBRANCH   2   3
ENDBRANCH   1   2
BRANCH   1  31
ATOM     31  C   UNL     1      -2.964   4.641  -9.670  1.00  0.00     0.118 C 
BRANCH  31  32
ATOM     32  N   UNL     1      -2.735   4.406 -11.101  1.00  0.00    -0.352 N 
ATOM     33  C   UNL     1      -3.663   4.084 -12.079  1.00  0.00     0.251 C 
ATOM     34  H   UNL     1      -1.802   4.487 -11.405  1.00  0.00     0.163 HD
ATOM     35  O   UNL     1      -3.347   3.874 -13.246  1.00  0.00    -0.269 OA
BRANCH  33  36
ATOM     36  C   UNL     1      -5.093   4.153 -11.709  1.00  0.00     0.039 A 
ATOM     37  C   UNL     1      -5.821   5.206 -12.275  1.00  0.00     0.014 A 
ATOM     38  C   UNL     1      -5.513   3.534 -10.539  1.00  0.00     0.014 A 
ATOM     39  C   UNL     1      -6.780   5.844 -11.502  1.00  0.00     0.010 A 
ATOM     40  C   UNL     1      -6.354   4.254  -9.717  1.00  0.00     0.010 A 
ATOM     41  C   UNL     1      -6.926   5.448 -10.177  1.00  0.00    -0.014 A 
BRANCH  41  42
ATOM     42  C   UNL     1      -7.610   6.251  -9.175  1.00  0.00     0.031 A 
ATOM     43  C   UNL     1      -8.922   5.792  -8.686  1.00  0.00     0.074 A 
ATOM     44  C   UNL     1      -7.050   7.376  -8.673  1.00  0.00     0.049 A 
ATOM     45  N   UNL     1      -9.761   6.546  -8.069  1.00  0.00    -0.248 NA
ATOM     46  C   UNL     1      -9.442   4.449  -8.945  1.00  0.00     0.031 C 
ATOM     47  C   UNL     1      -7.489   8.144  -7.509  1.00  0.00     0.029 A 
ATOM     48  N   UNL     1      -6.125   8.209  -9.305  1.00  0.00    -0.354 N 
ATOM     49  C   UNL     1     -10.752   5.739  -7.578  1.00  0.00     0.074 A 
ATOM     50  C   UNL     1     -10.597   4.491  -8.276  1.00  0.00     0.031 C 
ATOM     51  C   UNL     1      -7.075   9.413  -7.644  1.00  0.00     0.029 A 
ATOM     52  C   UNL     1      -6.482   9.534  -8.962  1.00  0.00     0.049 A 
ATOM     53  H   UNL     1      -5.373   7.929  -9.876  1.00  0.00     0.167 HD
ATOM     54  C   UNL     1     -11.492   6.190  -6.532  1.00  0.00     0.034 A 
ATOM     55  C   UNL     1      -6.856  10.425  -9.928  1.00  0.00     0.034 A 
ATOM     56  C   UNL     1     -11.343   7.641  -6.370  1.00  0.00     0.049 A 
ATOM     57  C   UNL     1      -8.285  10.918  -9.789  1.00  0.00     0.074 A 
ATOM     58  C   UNL     1     -10.744   8.481  -5.450  1.00  0.00     0.029 A 
ATOM     59  N   UNL     1     -11.673   8.444  -7.451  1.00  0.00    -0.354 N 
ATOM     60  N   UNL     1      -9.115  10.535  -8.855  1.00  0.00    -0.248 NA
ATOM     61  C   UNL     1      -8.919  11.818 -10.751  1.00  0.00     0.031 C 
ATOM     62  C   UNL     1     -10.660   9.787  -6.035  1.00  0.00     0.029 A 
ATOM     63  C   UNL     1     -11.256   9.747  -7.285  1.00  0.00     0.049 A 
ATOM     64  H   UNL     1     -12.151   8.120  -8.248  1.00  0.00     0.167 HD
ATOM     65  C   UNL     1     -10.368  11.024  -9.121  1.00  0.00     0.074 A 
ATOM     66  C   UNL     1     -10.191  11.832 -10.317  1.00  0.00     0.031 C 
ATOM     67  C   UNL     1     -11.468  10.688  -8.380  1.00  0.00     0.034 A 
BRANCH  54  68
ATOM     68  C   UNL     1     -12.241   5.305  -5.561  1.00  0.00     0.023 A 
ATOM     69  C   UNL     1     -12.957   5.917  -4.512  1.00  0.00     0.031 A 
ATOM     70  C   UNL     1     -12.192   3.891  -5.508  1.00  0.00     0.131 A 
ATOM     71  C   UNL     1     -13.559   5.154  -3.493  1.00  0.00     0.055 A 
ATOM     72  C   UNL     1     -12.848   3.133  -4.532  1.00  0.00     0.041 A 
ATOM     73  F   UNL     1     -11.455   3.156  -6.346  1.00  0.00    -0.206 F 
ATOM     74  C   UNL     1     -13.528   3.763  -3.509  1.00  0.00     0.022 A 
BRANCH  71  75
ATOM     75  S   UNL     1     -14.316   6.006  -2.084  1.00  0.00     0.124 S 
ATOM     76  O   UNL     1     -13.179   6.722  -1.515  1.00  0.00    -0.237 OA
ATOM     77  O   UNL     1     -15.341   6.819  -2.728  1.00  0.00    -0.237 OA
ATOM     78  O   UNL     1     -14.825   4.910  -1.260  1.00  0.00    -0.744 OA
ENDBRANCH  71  75
ENDBRANCH  54  68
BRANCH  55  79
ATOM     79  C   UNL     1      -6.109  10.207 -11.206  1.00  0.00     0.023 A 
ATOM     80  C   UNL     1      -4.701  10.215 -11.109  1.00  0.00     0.031 A 
ATOM     81  C   UNL     1      -6.683   9.564 -12.310  1.00  0.00     0.131 A 
ATOM     82  C   UNL     1      -3.939   9.384 -11.943  1.00  0.00     0.055 A 
ATOM     83  C   UNL     1      -5.897   8.843 -13.220  1.00  0.00     0.041 A 
ATOM     84  F   UNL     1      -8.015   9.490 -12.444  1.00  0.00    -0.206 F 
ATOM     85  C   UNL     1      -4.526   8.699 -13.004  1.00  0.00     0.022 A 
BRANCH  82  86
ATOM     86  S   UNL     1      -2.274   8.921 -11.365  1.00  0.00     0.124 S 
ATOM     87  O   UNL     1      -1.480  10.049 -11.837  1.00  0.00    -0.237 OA
ATOM     88  O   UNL     1      -2.492   8.812  -9.922  1.00  0.00    -0.237 OA
ATOM     89  O   UNL     1      -2.023   7.641 -12.027  1.00  0.00    -0.744 OA
ENDBRANCH  82  86
ENDBRANCH  55  79
BRANCH  67  90
ATOM     90  C   UNL     1     -12.861  11.195  -8.685  1.00  0.00     0.023 A 
ATOM     91  C   UNL     1     -13.097  12.506  -9.127  1.00  0.00     0.031 A 
ATOM     92  C   UNL     1     -14.011  10.396  -8.479  1.00  0.00     0.131 A 
ATOM     93  C   UNL     1     -14.401  12.945  -9.421  1.00  0.00     0.055 A 
ATOM     94  C   UNL     1     -15.312  10.867  -8.680  1.00  0.00     0.041 A 
ATOM     95  F   UNL     1     -13.927   9.107  -8.122  1.00  0.00    -0.206 F 
ATOM     96  C   UNL     1     -15.514  12.145  -9.170  1.00  0.00     0.022 A 
BRANCH  93  97
ATOM     97  S   UNL     1     -14.613  14.555 -10.223  1.00  0.00     0.124 S 
ATOM     98  O   UNL     1     -13.895  15.456  -9.329  1.00  0.00    -0.237 OA
ATOM     99  O   UNL     1     -13.989  14.321 -11.523  1.00  0.00    -0.237 OA
ATOM    100  O   UNL     1     -16.063  14.737 -10.258  1.00  0.00    -0.744 OA
ENDBRANCH  93  97
ENDBRANCH  67  90
ENDBRANCH  41  42
ENDBRANCH  33  36
ENDBRANCH  31  32
ENDBRANCH   1  31
TORSDOF 16
