REMARK SMILES C#CC[C@@H](C(=O)NCCCNC(=O)c1ccc(-c2c3nc(c(-c4cc(S(=O)(=O)[O-])ccc4F)c4ccc([nH]4)c(-c4cc(S(=O)(=O)[O-])ccc4F)c4nc(c(-c5cc(S(=O)(=O)[O-])ccc5F)c5ccc2[nH]5)C=C4)C=C3)cc1)c1cccc(Br)c1
REMARK SMILES IDX 9 1 8 2 7 3 5 4 6 5 4 7 3 8 2 9 1 10 77 11 78 12 83 13 79 14
REMARK SMILES IDX 81 15 80 16 82 17 10 18 11 19 12 20 13 22 14 23 15 24 76 25
REMARK SMILES IDX 16 26 75 27 17 28 18 29 19 30 69 31 20 32 74 33 68 34 70 35
REMARK SMILES IDX 21 36 73 37 67 38 66 39 22 41 54 42 34 43 53 44 35 45 38 46
REMARK SMILES IDX 52 47 71 48 36 49 37 50 51 52 72 53 39 54 23 55 24 56 32 57
REMARK SMILES IDX 25 58 31 59 33 60 30 61 26 62 27 63 28 64 29 65 55 66 56 67
REMARK SMILES IDX 64 68 57 69 63 70 65 71 62 72 58 73 59 74 60 75 61 76 40 77
REMARK SMILES IDX 41 78 49 79 42 80 48 81 50 82 47 83 43 84 44 85 45 86 46 87
REMARK H PARENT 7 6 11 21 70 40 38 51
REMARK Flexibility Score: inf
ROOT
ATOM      1  C   UNL     1       1.481  -2.723   1.086  1.00  0.00     0.042 C 
ENDROOT
BRANCH   1   2
ATOM      2  C   UNL     1       0.346  -3.294   0.221  1.00  0.00     0.117 C 
BRANCH   2   3
ATOM      3  N   UNL     1      -0.904  -3.307   0.971  1.00  0.00    -0.355 N 
ATOM      4  C   UNL     1      -1.947  -2.422   1.010  1.00  0.00     0.228 C 
ATOM      5  O   UNL     1      -2.648  -2.464   2.027  1.00  0.00    -0.274 OA
ATOM      6  H   UNL     1      -1.017  -4.092   1.555  1.00  0.00     0.163 HD
BRANCH   4   7
ATOM      7  C   UNL     1      -2.312  -1.493  -0.184  1.00  0.00     0.120 C 
BRANCH   7   8
ATOM      8  C   UNL     1      -1.753  -0.066   0.025  1.00  0.00     0.107 C 
BRANCH   8   9
ATOM      9  C   UNL     1      -0.233  -0.066   0.025  1.00  0.00    -0.106 C 
ATOM     10  C   UNL     1       1.071  -0.066   0.025  1.00  0.00     0.004 C 
ENDBRANCH   8   9
ENDBRANCH   7   8
BRANCH   7  11
ATOM     11  C   UNL     1      -3.849  -1.491  -0.369  1.00  0.00    -0.034 A 
ATOM     12  C   UNL     1      -4.631  -0.321  -0.319  1.00  0.00     0.004 A 
ATOM     13  C   UNL     1      -4.522  -2.719  -0.522  1.00  0.00     0.020 A 
ATOM     14  C   UNL     1      -6.027  -0.377  -0.371  1.00  0.00     0.001 A 
ATOM     15  C   UNL     1      -5.919  -2.769  -0.553  1.00  0.00     0.018 A 
ATOM     16  C   UNL     1      -6.674  -1.603  -0.473  1.00  0.00     0.016 A 
ATOM     17  Br  UNL     1      -6.797  -4.441  -0.661  1.00  0.00    -0.051 Br
ENDBRANCH   7  11
ENDBRANCH   4   7
ENDBRANCH   2   3
ENDBRANCH   1   2
BRANCH   1  18
ATOM     18  C   UNL     1       2.199  -3.709   1.997  1.00  0.00     0.118 C 
BRANCH  18  19
ATOM     19  N   UNL     1       3.459  -4.130   1.405  1.00  0.00    -0.352 N 
ATOM     20  C   UNL     1       4.730  -3.602   1.415  1.00  0.00     0.251 C 
ATOM     21  H   UNL     1       3.388  -4.966   0.889  1.00  0.00     0.163 HD
ATOM     22  O   UNL     1       5.476  -3.975   0.506  1.00  0.00    -0.269 OA
BRANCH  20  23
ATOM     23  C   UNL     1       5.262  -2.642   2.433  1.00  0.00     0.039 A 
ATOM     24  C   UNL     1       6.471  -1.987   2.136  1.00  0.00     0.014 A 
ATOM     25  C   UNL     1       4.730  -2.465   3.710  1.00  0.00     0.014 A 
ATOM     26  C   UNL     1       7.146  -1.223   3.102  1.00  0.00     0.010 A 
ATOM     27  C   UNL     1       5.349  -1.617   4.642  1.00  0.00     0.010 A 
ATOM     28  C   UNL     1       6.598  -1.036   4.376  1.00  0.00    -0.014 A 
BRANCH  28  29
ATOM     29  C   UNL     1       7.363  -0.361   5.471  1.00  0.00     0.031 A 
ATOM     30  C   UNL     1       7.711  -1.130   6.729  1.00  0.00     0.074 A 
ATOM     31  C   UNL     1       7.733   0.930   5.365  1.00  0.00     0.049 A 
ATOM     32  N   UNL     1       8.283  -0.715   7.833  1.00  0.00    -0.248 NA
ATOM     33  C   UNL     1       7.325  -2.549   6.760  1.00  0.00     0.031 C 
ATOM     34  C   UNL     1       7.446   1.802   4.226  1.00  0.00     0.029 A 
ATOM     35  N   UNL     1       8.427   1.740   6.233  1.00  0.00    -0.354 N 
ATOM     36  C   UNL     1       8.295  -1.811   8.694  1.00  0.00     0.074 A 
ATOM     37  C   UNL     1       7.604  -2.881   8.010  1.00  0.00     0.031 C 
ATOM     38  C   UNL     1       7.975   3.015   4.455  1.00  0.00     0.029 A 
ATOM     39  C   UNL     1       8.603   3.026   5.773  1.00  0.00     0.049 A 
ATOM     40  H   UNL     1       8.766   1.430   7.104  1.00  0.00     0.167 HD
ATOM     41  C   UNL     1       8.855  -1.931   9.926  1.00  0.00     0.034 A 
ATOM     42  C   UNL     1       9.193   4.094   6.347  1.00  0.00     0.034 A 
ATOM     43  C   UNL     1       9.573  -0.867  10.587  1.00  0.00     0.049 A 
ATOM     44  C   UNL     1       9.820   3.942   7.711  1.00  0.00     0.074 A 
ATOM     45  C   UNL     1      10.212  -0.887  11.816  1.00  0.00     0.029 A 
ATOM     46  N   UNL     1       9.755   0.410  10.071  1.00  0.00    -0.354 N 
ATOM     47  N   UNL     1       9.841   2.892   8.500  1.00  0.00    -0.248 NA
ATOM     48  C   UNL     1      10.521   5.114   8.252  1.00  0.00     0.031 C 
ATOM     49  C   UNL     1      10.728   0.390  12.066  1.00  0.00     0.029 A 
ATOM     50  C   UNL     1      10.481   1.188  10.961  1.00  0.00     0.049 A 
ATOM     51  H   UNL     1       9.417   0.718   9.199  1.00  0.00     0.167 HD
ATOM     52  C   UNL     1      10.585   3.270   9.616  1.00  0.00     0.074 A 
ATOM     53  C   UNL     1      11.008   4.636   9.387  1.00  0.00     0.031 C 
ATOM     54  C   UNL     1      10.893   2.552  10.726  1.00  0.00     0.034 A 
BRANCH  41  55
ATOM     55  C   UNL     1       8.692  -3.258  10.638  1.00  0.00     0.023 A 
ATOM     56  C   UNL     1       9.195  -4.455  10.095  1.00  0.00     0.031 A 
ATOM     57  C   UNL     1       7.985  -3.340  11.851  1.00  0.00     0.131 A 
ATOM     58  C   UNL     1       8.898  -5.684  10.703  1.00  0.00     0.055 A 
ATOM     59  C   UNL     1       7.776  -4.558  12.504  1.00  0.00     0.041 A 
ATOM     60  F   UNL     1       7.465  -2.239  12.415  1.00  0.00    -0.206 F 
ATOM     61  C   UNL     1       8.215  -5.742  11.919  1.00  0.00     0.022 A 
BRANCH  58  62
ATOM     62  S   UNL     1       9.263  -7.210   9.792  1.00  0.00     0.124 S 
ATOM     63  O   UNL     1       8.482  -7.018   8.573  1.00  0.00    -0.237 OA
ATOM     64  O   UNL     1      10.712  -7.147   9.640  1.00  0.00    -0.237 OA
ATOM     65  O   UNL     1       8.773  -8.264  10.677  1.00  0.00    -0.744 OA
ENDBRANCH  58  62
ENDBRANCH  41  55
BRANCH  42  66
ATOM     66  C   UNL     1       9.220   5.409   5.640  1.00  0.00     0.023 A 
ATOM     67  C   UNL     1      10.428   5.981   5.210  1.00  0.00     0.031 A 
ATOM     68  C   UNL     1       8.033   6.127   5.411  1.00  0.00     0.131 A 
ATOM     69  C   UNL     1      10.428   7.251   4.612  1.00  0.00     0.055 A 
ATOM     70  C   UNL     1       8.032   7.367   4.769  1.00  0.00     0.041 A 
ATOM     71  F   UNL     1       6.849   5.624   5.796  1.00  0.00    -0.206 F 
ATOM     72  C   UNL     1       9.237   7.942   4.376  1.00  0.00     0.022 A 
BRANCH  69  73
ATOM     73  S   UNL     1      12.019   8.026   4.212  1.00  0.00     0.124 S 
ATOM     74  O   UNL     1      12.668   8.065   5.518  1.00  0.00    -0.237 OA
ATOM     75  O   UNL     1      12.578   7.086   3.246  1.00  0.00    -0.237 OA
ATOM     76  O   UNL     1      11.637   9.326   3.664  1.00  0.00    -0.744 OA
ENDBRANCH  69  73
ENDBRANCH  42  66
BRANCH  54  77
ATOM     77  C   UNL     1      11.777   3.220  11.753  1.00  0.00     0.023 A 
ATOM     78  C   UNL     1      11.352   4.345  12.482  1.00  0.00     0.031 A 
ATOM     79  C   UNL     1      13.076   2.735  11.988  1.00  0.00     0.131 A 
ATOM     80  C   UNL     1      12.240   4.987  13.358  1.00  0.00     0.055 A 
ATOM     81  C   UNL     1      13.933   3.339  12.909  1.00  0.00     0.041 A 
ATOM     82  F   UNL     1      13.537   1.664  11.321  1.00  0.00    -0.206 F 
ATOM     83  C   UNL     1      13.522   4.481  13.589  1.00  0.00     0.022 A 
BRANCH  80  84
ATOM     84  S   UNL     1      11.737   6.560  14.110  1.00  0.00     0.124 S 
ATOM     85  O   UNL     1      11.420   7.369  12.938  1.00  0.00    -0.237 OA
ATOM     86  O   UNL     1      10.602   6.161  14.936  1.00  0.00    -0.237 OA
ATOM     87  O   UNL     1      12.925   6.981  14.851  1.00  0.00    -0.744 OA
ENDBRANCH  80  84
ENDBRANCH  54  77
ENDBRANCH  28  29
ENDBRANCH  20  23
ENDBRANCH  18  19
ENDBRANCH   1  18
TORSDOF 16
