REMARK SMILES O=C(CSc1nc2cnccc2n1CCC1CC1)NCCCNC(=O)c1ccc(-c2c3nc(c(-c4cc(S(=O)(=O)[O-])ccc4F)c4ccc([nH]4)c(-c4cc(S(=O)(=O)[O-])ccc4F)c4nc(c(-c5cc(S(=O)(=O)[O-])ccc5F)c5ccc2[nH]5)C=C4)C=C3)cc1
REMARK SMILES IDX 20 1 19 2 1 3 2 4 3 6 4 7 5 8 6 9 13 10 7 11 12 12 8 13
REMARK SMILES IDX 11 14 9 15 10 16 14 17 15 18 16 19 17 20 18 21 21 22 22 23
REMARK SMILES IDX 23 24 24 25 25 27 26 28 27 29 88 30 28 31 87 32 29 33 30 34
REMARK SMILES IDX 31 35 81 36 32 37 86 38 80 39 82 40 33 41 85 42 79 43 78 44
REMARK SMILES IDX 34 46 66 47 46 48 65 49 47 50 50 51 64 52 83 53 48 54 49 55
REMARK SMILES IDX 63 57 84 58 51 59 35 60 36 61 44 62 37 63 43 64 45 65 42 66
REMARK SMILES IDX 38 67 39 68 40 69 41 70 67 71 68 72 76 73 69 74 75 75 77 76
REMARK SMILES IDX 74 77 70 78 71 79 72 80 73 81 52 82 53 83 61 84 54 85 60 86
REMARK SMILES IDX 62 87 59 88 55 89 56 90 57 91 58 92
REMARK H PARENT 19 5 23 26 82 45 50 56
REMARK Flexibility Score: inf
ROOT
ATOM      1  C   UNL     1       1.874   1.217   1.830  1.00  0.00     0.117 C 
ENDROOT
BRANCH   1   2
ATOM      2  N   UNL     1       2.518   0.056   1.197  1.00  0.00    -0.355 N 
ATOM      3  O   UNL     1       0.883  -0.197  -0.396  1.00  0.00    -0.274 OA
ATOM      4  C   UNL     1       1.984  -0.527   0.041  1.00  0.00     0.230 C 
ATOM      5  H   UNL     1       3.338  -0.318   1.593  1.00  0.00     0.163 HD
BRANCH   4   6
ATOM      6  C   UNL     1       2.828  -1.608  -0.641  1.00  0.00     0.178 C 
BRANCH   6   7
ATOM      7  S   UNL     1       3.723  -1.202  -2.184  1.00  0.00    -0.078 SA
BRANCH   7   8
ATOM      8  C   UNL     1       2.733  -0.279  -3.284  1.00  0.00     0.169 A 
ATOM      9  N   UNL     1       1.813  -0.838  -4.045  1.00  0.00    -0.221 NA
ATOM     10  N   UNL     1       3.025   1.009  -3.737  1.00  0.00    -0.319 N 
ATOM     11  C   UNL     1       1.411   0.137  -4.934  1.00  0.00     0.108 A 
ATOM     12  C   UNL     1       2.051   1.340  -4.668  1.00  0.00     0.072 A 
ATOM     13  C   UNL     1       0.536   0.083  -6.025  1.00  0.00     0.141 A 
ATOM     14  C   UNL     1       1.767   2.515  -5.368  1.00  0.00     0.049 A 
ATOM     15  N   UNL     1       0.276   1.200  -6.762  1.00  0.00    -0.262 NA
ATOM     16  C   UNL     1       0.858   2.368  -6.404  1.00  0.00     0.113 A 
BRANCH  10  17
ATOM     17  C   UNL     1       4.266   1.783  -3.670  1.00  0.00     0.125 C 
BRANCH  17  18
ATOM     18  C   UNL     1       4.295   2.975  -2.712  1.00  0.00     0.025 C 
BRANCH  18  19
ATOM     19  C   UNL     1       4.805   2.666  -1.348  1.00  0.00    -0.009 C 
ATOM     20  C   UNL     1       3.847   1.784  -0.652  1.00  0.00     0.004 C 
ATOM     21  C   UNL     1       5.278   1.357  -0.759  1.00  0.00     0.004 C 
ENDBRANCH  18  19
ENDBRANCH  17  18
ENDBRANCH  10  17
ENDBRANCH   7   8
ENDBRANCH   6   7
ENDBRANCH   4   6
ENDBRANCH   1   2
BRANCH   1  22
ATOM     22  C   UNL     1       2.638   1.899   2.988  1.00  0.00     0.042 C 
BRANCH  22  23
ATOM     23  C   UNL     1       4.112   2.287   2.787  1.00  0.00     0.118 C 
BRANCH  23  24
ATOM     24  N   UNL     1       4.325   3.535   2.069  1.00  0.00    -0.352 N 
ATOM     25  C   UNL     1       5.256   4.497   2.369  1.00  0.00     0.251 C 
ATOM     26  H   UNL     1       3.744   3.705   1.292  1.00  0.00     0.163 HD
ATOM     27  O   UNL     1       6.150   4.752   1.566  1.00  0.00    -0.269 OA
BRANCH  25  28
ATOM     28  C   UNL     1       4.911   5.429   3.460  1.00  0.00     0.039 A 
ATOM     29  C   UNL     1       4.100   5.030   4.522  1.00  0.00     0.014 A 
ATOM     30  C   UNL     1       5.198   6.786   3.244  1.00  0.00     0.014 A 
ATOM     31  C   UNL     1       3.420   5.985   5.245  1.00  0.00     0.010 A 
ATOM     32  C   UNL     1       4.533   7.746   3.984  1.00  0.00     0.010 A 
ATOM     33  C   UNL     1       3.583   7.332   4.916  1.00  0.00    -0.014 A 
BRANCH  33  34
ATOM     34  C   UNL     1       2.771   8.291   5.647  1.00  0.00     0.031 A 
ATOM     35  C   UNL     1       3.096   8.353   7.098  1.00  0.00     0.074 A 
ATOM     36  C   UNL     1       1.883   9.086   5.020  1.00  0.00     0.049 A 
ATOM     37  N   UNL     1       2.330   8.091   8.106  1.00  0.00    -0.248 NA
ATOM     38  C   UNL     1       4.512   8.546   7.456  1.00  0.00     0.031 C 
ATOM     39  C   UNL     1       1.692   9.257   3.576  1.00  0.00     0.029 A 
ATOM     40  N   UNL     1       1.036  10.011   5.542  1.00  0.00    -0.354 N 
ATOM     41  C   UNL     1       3.118   8.296   9.239  1.00  0.00     0.074 A 
ATOM     42  C   UNL     1       4.478   8.370   8.774  1.00  0.00     0.031 C 
ATOM     43  C   UNL     1       1.004  10.398   3.351  1.00  0.00     0.029 A 
ATOM     44  C   UNL     1       0.596  10.959   4.627  1.00  0.00     0.049 A 
ATOM     45  H   UNL     1       0.758  10.009   6.486  1.00  0.00     0.167 HD
ATOM     46  C   UNL     1       2.575   8.625  10.446  1.00  0.00     0.034 A 
ATOM     47  C   UNL     1       0.058  12.171   4.921  1.00  0.00     0.034 A 
ATOM     48  C   UNL     1       1.173   8.315  10.485  1.00  0.00     0.049 A 
ATOM     49  C   UNL     1      -0.377  12.145   6.341  1.00  0.00     0.074 A 
ATOM     50  C   UNL     1       0.445   7.146  10.401  1.00  0.00     0.029 A 
ATOM     51  N   UNL     1       0.286   9.337  10.246  1.00  0.00    -0.354 N 
ATOM     52  N   UNL     1      -1.378  11.432   6.776  1.00  0.00    -0.248 NA
ATOM     53  C   UNL     1       0.607  12.521   7.348  1.00  0.00     0.031 C 
ATOM     54  C   UNL     1      -0.713   7.490   9.652  1.00  0.00     0.029 A 
ATOM     55  C   UNL     1      -0.672   8.861   9.388  1.00  0.00     0.049 A 
ATOM     56  H   UNL     1       0.331  10.245  10.622  1.00  0.00     0.167 HD
ATOM     57  C   UNL     1      -0.924  10.889   7.969  1.00  0.00     0.074 A 
ATOM     58  C   UNL     1       0.271  11.660   8.312  1.00  0.00     0.031 C 
ATOM     59  C   UNL     1      -1.367   9.676   8.413  1.00  0.00     0.034 A 
BRANCH  46  60
ATOM     60  C   UNL     1       3.241   9.552  11.437  1.00  0.00     0.023 A 
ATOM     61  C   UNL     1       4.400  10.292  11.136  1.00  0.00     0.031 A 
ATOM     62  C   UNL     1       2.591   9.902  12.638  1.00  0.00     0.131 A 
ATOM     63  C   UNL     1       4.870  11.311  11.974  1.00  0.00     0.055 A 
ATOM     64  C   UNL     1       3.021  10.964  13.445  1.00  0.00     0.041 A 
ATOM     65  F   UNL     1       1.477   9.265  13.033  1.00  0.00    -0.206 F 
ATOM     66  C   UNL     1       4.165  11.678  13.112  1.00  0.00     0.022 A 
BRANCH  63  67
ATOM     67  S   UNL     1       6.408  12.182  11.565  1.00  0.00     0.124 S 
ATOM     68  O   UNL     1       5.934  13.558  11.395  1.00  0.00    -0.237 OA
ATOM     69  O   UNL     1       7.212  11.938  12.762  1.00  0.00    -0.237 OA
ATOM     70  O   UNL     1       6.873  11.518  10.361  1.00  0.00    -0.744 OA
ENDBRANCH  63  67
ENDBRANCH  46  60
BRANCH  47  71
ATOM     71  C   UNL     1       0.395  13.441   4.230  1.00  0.00     0.023 A 
ATOM     72  C   UNL     1       1.644  13.574   3.593  1.00  0.00     0.031 A 
ATOM     73  C   UNL     1      -0.348  14.616   4.434  1.00  0.00     0.131 A 
ATOM     74  C   UNL     1       2.135  14.832   3.227  1.00  0.00     0.055 A 
ATOM     75  C   UNL     1       0.136  15.875   4.048  1.00  0.00     0.041 A 
ATOM     76  F   UNL     1      -1.527  14.574   5.073  1.00  0.00    -0.206 F 
ATOM     77  C   UNL     1       1.390  15.989   3.452  1.00  0.00     0.022 A 
BRANCH  74  78
ATOM     78  S   UNL     1       3.804  14.984   2.532  1.00  0.00     0.124 S 
ATOM     79  O   UNL     1       3.586  15.867   1.389  1.00  0.00    -0.237 OA
ATOM     80  O   UNL     1       4.537  15.569   3.650  1.00  0.00    -0.237 OA
ATOM     81  O   UNL     1       4.159  13.610   2.189  1.00  0.00    -0.744 OA
ENDBRANCH  74  78
ENDBRANCH  47  71
BRANCH  59  82
ATOM     82  C   UNL     1      -2.506   8.996   7.683  1.00  0.00     0.023 A 
ATOM     83  C   UNL     1      -3.542   8.469   8.471  1.00  0.00     0.031 A 
ATOM     84  C   UNL     1      -2.469   8.621   6.326  1.00  0.00     0.131 A 
ATOM     85  C   UNL     1      -4.451   7.556   7.926  1.00  0.00     0.055 A 
ATOM     86  C   UNL     1      -3.428   7.771   5.764  1.00  0.00     0.041 A 
ATOM     87  F   UNL     1      -1.458   8.979   5.527  1.00  0.00    -0.206 F 
ATOM     88  C   UNL     1      -4.413   7.216   6.571  1.00  0.00     0.022 A 
BRANCH  85  89
ATOM     89  S   UNL     1      -5.578   6.644   9.010  1.00  0.00     0.124 S 
ATOM     90  O   UNL     1      -6.884   7.123   8.568  1.00  0.00    -0.237 OA
ATOM     91  O   UNL     1      -5.272   5.254   8.675  1.00  0.00    -0.237 OA
ATOM     92  O   UNL     1      -5.183   7.054  10.355  1.00  0.00    -0.744 OA
ENDBRANCH  85  89
ENDBRANCH  59  82
ENDBRANCH  33  34
ENDBRANCH  25  28
ENDBRANCH  23  24
ENDBRANCH  22  23
ENDBRANCH   1  22
TORSDOF 18
