REMARK SMILES O=C(COCCNC(=O)c1cc(Cl)c2c(c1)OCCO2)NCCCNC(=O)c1ccc(-c2c3nc(c(-c4cc(S(=O)(=O)[O-])ccc4F)c4ccc([nH]4)c(-c4cc(S(=O)(=O)[O-])ccc4F)c4nc(c(-c5cc(S(=O)(=O)[O-])ccc5F)c5ccc2[nH]5)C=C4)C=C3)cc1
REMARK SMILES IDX 22 1 21 2 1 3 2 4 3 6 4 7 5 8 6 9 7 10 8 11 9 13 10 14 11 15
REMARK SMILES IDX 16 16 12 17 15 18 13 19 14 20 17 21 20 22 18 23 19 24 23 25
REMARK SMILES IDX 24 26 25 27 26 28 27 30 28 31 29 32 90 33 30 34 89 35 31 36
REMARK SMILES IDX 32 37 33 38 83 39 34 40 88 41 82 42 84 43 35 44 87 45 81 46
REMARK SMILES IDX 80 47 36 49 68 50 48 51 67 52 49 53 52 54 66 55 85 56 50 57
REMARK SMILES IDX 51 58 65 60 86 61 53 62 37 63 38 64 46 65 39 66 45 67 47 68
REMARK SMILES IDX 44 69 40 70 41 71 42 72 43 73 69 74 70 75 78 76 71 77 77 78
REMARK SMILES IDX 79 79 76 80 72 81 73 82 74 83 75 84 54 85 55 86 63 87 56 88
REMARK SMILES IDX 62 89 64 90 61 91 57 92 58 93 59 94 60 95
REMARK H PARENT 21 5 7 12 25 29 84 48 52 59
REMARK Flexibility Score: inf
ROOT
ATOM      1  C   UNL     1       2.081   1.148  -2.311  1.00  0.00     0.117 C 
ENDROOT
BRANCH   1   2
ATOM      2  N   UNL     1       2.803   0.498  -1.241  1.00  0.00    -0.354 N 
ATOM      3  O   UNL     1       1.256   0.922   0.411  1.00  0.00    -0.272 OA
ATOM      4  C   UNL     1       2.316   0.428   0.047  1.00  0.00     0.245 C 
ATOM      5  H   UNL     1       3.676   0.089  -1.439  1.00  0.00     0.163 HD
BRANCH   4   6
ATOM      6  C   UNL     1       3.247  -0.327   0.997  1.00  0.00     0.260 C 
BRANCH   6   7
ATOM      7  O   UNL     1       3.785  -1.542   0.489  1.00  0.00    -0.370 OA
BRANCH   7   8
ATOM      8  C   UNL     1       2.819  -2.504   0.051  1.00  0.00     0.182 C 
BRANCH   8   9
ATOM      9  C   UNL     1       2.056  -3.194   1.188  1.00  0.00     0.144 C 
BRANCH   9  10
ATOM     10  N   UNL     1       0.888  -2.450   1.650  1.00  0.00    -0.350 N 
ATOM     11  C   UNL     1      -0.442  -2.584   1.350  1.00  0.00     0.251 C 
ATOM     12  H   UNL     1       1.092  -1.726   2.286  1.00  0.00     0.163 HD
ATOM     13  O   UNL     1      -1.260  -1.777   1.776  1.00  0.00    -0.269 OA
BRANCH  11  14
ATOM     14  C   UNL     1      -0.926  -3.709   0.531  1.00  0.00     0.045 A 
ATOM     15  C   UNL     1      -0.667  -5.028   0.908  1.00  0.00     0.038 A 
ATOM     16  C   UNL     1      -1.746  -3.433  -0.566  1.00  0.00     0.064 A 
ATOM     17  C   UNL     1      -1.184  -6.076   0.146  1.00  0.00     0.087 A 
ATOM     18  C   UNL     1      -2.262  -4.484  -1.322  1.00  0.00     0.163 A 
ATOM     19  Cl  UNL     1      -0.816  -7.693   0.631  1.00  0.00    -0.080 Cl
ATOM     20  C   UNL     1      -1.992  -5.813  -0.967  1.00  0.00     0.179 A 
ATOM     21  O   UNL     1      -3.043  -4.133  -2.393  1.00  0.00    -0.486 OA
ATOM     22  O   UNL     1      -2.494  -6.878  -1.676  1.00  0.00    -0.485 OA
ATOM     23  C   UNL     1      -3.259  -5.233  -3.282  1.00  0.00     0.271 C 
ATOM     24  C   UNL     1      -3.595  -6.492  -2.504  1.00  0.00     0.271 C 
ENDBRANCH  11  14
ENDBRANCH   9  10
ENDBRANCH   8   9
ENDBRANCH   7   8
ENDBRANCH   6   7
ENDBRANCH   4   6
ENDBRANCH   1   2
BRANCH   1  25
ATOM     25  C   UNL     1       2.369   2.642  -2.386  1.00  0.00     0.042 C 
BRANCH  25  26
ATOM     26  C   UNL     1       3.848   2.981  -2.535  1.00  0.00     0.118 C 
BRANCH  26  27
ATOM     27  N   UNL     1       4.424   2.467  -3.771  1.00  0.00    -0.352 N 
ATOM     28  C   UNL     1       5.023   3.151  -4.800  1.00  0.00     0.251 C 
ATOM     29  H   UNL     1       4.377   1.490  -3.885  1.00  0.00     0.163 HD
ATOM     30  O   UNL     1       5.312   2.567  -5.839  1.00  0.00    -0.269 OA
BRANCH  28  31
ATOM     31  C   UNL     1       5.301   4.594  -4.654  1.00  0.00     0.039 A 
ATOM     32  C   UNL     1       4.890   5.467  -5.664  1.00  0.00     0.014 A 
ATOM     33  C   UNL     1       5.965   5.080  -3.524  1.00  0.00     0.014 A 
ATOM     34  C   UNL     1       5.098   6.840  -5.516  1.00  0.00     0.010 A 
ATOM     35  C   UNL     1       6.123   6.452  -3.353  1.00  0.00     0.010 A 
ATOM     36  C   UNL     1       5.698   7.343  -4.350  1.00  0.00    -0.014 A 
BRANCH  36  37
ATOM     37  C   UNL     1       5.913   8.798  -4.169  1.00  0.00     0.031 A 
ATOM     38  C   UNL     1       7.306   9.357  -4.192  1.00  0.00     0.074 A 
ATOM     39  C   UNL     1       4.861   9.606  -3.933  1.00  0.00     0.049 A 
ATOM     40  N   UNL     1       7.700  10.592  -4.032  1.00  0.00    -0.248 NA
ATOM     41  C   UNL     1       8.404   8.398  -4.406  1.00  0.00     0.031 C 
ATOM     42  C   UNL     1       3.468   9.168  -3.842  1.00  0.00     0.029 A 
ATOM     43  N   UNL     1       4.802  10.960  -3.714  1.00  0.00    -0.354 N 
ATOM     44  C   UNL     1       9.086  10.562  -4.124  1.00  0.00     0.074 A 
ATOM     45  C   UNL     1       9.469   9.179  -4.298  1.00  0.00     0.031 C 
ATOM     46  C   UNL     1       2.690  10.235  -3.599  1.00  0.00     0.029 A 
ATOM     47  C   UNL     1       3.528  11.428  -3.489  1.00  0.00     0.049 A 
ATOM     48  H   UNL     1       5.596  11.541  -3.717  1.00  0.00     0.167 HD
ATOM     49  C   UNL     1       9.956  11.597  -4.094  1.00  0.00     0.034 A 
ATOM     50  C   UNL     1       3.086  12.674  -3.226  1.00  0.00     0.034 A 
ATOM     51  C   UNL     1       9.563  12.972  -3.940  1.00  0.00     0.049 A 
ATOM     52  C   UNL     1       4.074  13.812  -3.193  1.00  0.00     0.074 A 
ATOM     53  C   UNL     1      10.367  14.097  -3.961  1.00  0.00     0.029 A 
ATOM     54  N   UNL     1       8.263  13.411  -3.739  1.00  0.00    -0.354 N 
ATOM     55  N   UNL     1       5.372  13.780  -3.383  1.00  0.00    -0.248 NA
ATOM     56  C   UNL     1       3.543  15.155  -2.921  1.00  0.00     0.031 C 
ATOM     57  C   UNL     1       9.561  15.213  -3.728  1.00  0.00     0.029 A 
ATOM     58  C   UNL     1       8.246  14.790  -3.611  1.00  0.00     0.049 A 
ATOM     59  H   UNL     1       7.470  12.830  -3.693  1.00  0.00     0.167 HD
ATOM     60  C   UNL     1       5.808  15.098  -3.279  1.00  0.00     0.074 A 
ATOM     61  C   UNL     1       4.633  15.906  -3.026  1.00  0.00     0.031 C 
ATOM     62  C   UNL     1       7.068  15.590  -3.380  1.00  0.00     0.034 A 
BRANCH  49  63
ATOM     63  C   UNL     1      11.421  11.302  -4.266  1.00  0.00     0.023 A 
ATOM     64  C   UNL     1      12.321  11.547  -3.214  1.00  0.00     0.031 A 
ATOM     65  C   UNL     1      11.937  10.883  -5.505  1.00  0.00     0.131 A 
ATOM     66  C   UNL     1      13.696  11.395  -3.430  1.00  0.00     0.055 A 
ATOM     67  C   UNL     1      13.305  10.700  -5.705  1.00  0.00     0.041 A 
ATOM     68  F   UNL     1      11.113  10.633  -6.537  1.00  0.00    -0.206 F 
ATOM     69  C   UNL     1      14.192  10.966  -4.666  1.00  0.00     0.022 A 
BRANCH  66  70
ATOM     70  S   UNL     1      14.896  11.774  -2.126  1.00  0.00     0.124 S 
ATOM     71  O   UNL     1      15.677  10.540  -2.064  1.00  0.00    -0.237 OA
ATOM     72  O   UNL     1      15.596  12.928  -2.683  1.00  0.00    -0.237 OA
ATOM     73  O   UNL     1      14.069  12.039  -0.954  1.00  0.00    -0.744 OA
ENDBRANCH  66  70
ENDBRANCH  49  63
BRANCH  50  74
ATOM     74  C   UNL     1       1.625  12.904  -3.045  1.00  0.00     0.023 A 
ATOM     75  C   UNL     1       0.932  12.355  -1.952  1.00  0.00     0.031 A 
ATOM     76  C   UNL     1       0.887  13.602  -4.016  1.00  0.00     0.131 A 
ATOM     77  C   UNL     1      -0.462  12.471  -1.883  1.00  0.00     0.055 A 
ATOM     78  C   UNL     1      -0.496  13.763  -3.914  1.00  0.00     0.041 A 
ATOM     79  F   UNL     1       1.506  14.133  -5.082  1.00  0.00    -0.206 F 
ATOM     80  C   UNL     1      -1.179  13.185  -2.849  1.00  0.00     0.022 A 
BRANCH  77  81
ATOM     81  S   UNL     1      -1.405  11.624  -0.585  1.00  0.00     0.124 S 
ATOM     82  O   UNL     1      -2.189  12.714  -0.013  1.00  0.00    -0.237 OA
ATOM     83  O   UNL     1      -2.159  10.644  -1.362  1.00  0.00    -0.237 OA
ATOM     84  O   UNL     1      -0.372  11.070   0.284  1.00  0.00    -0.744 OA
ENDBRANCH  77  81
ENDBRANCH  50  74
BRANCH  62  85
ATOM     85  C   UNL     1       7.279  17.075  -3.229  1.00  0.00     0.023 A 
ATOM     86  C   UNL     1       7.755  17.832  -4.317  1.00  0.00     0.031 A 
ATOM     87  C   UNL     1       7.171  17.701  -1.976  1.00  0.00     0.131 A 
ATOM     88  C   UNL     1       8.146  19.162  -4.120  1.00  0.00     0.055 A 
ATOM     89  C   UNL     1       7.522  19.039  -1.795  1.00  0.00     0.041 A 
ATOM     90  F   UNL     1       6.732  17.015  -0.908  1.00  0.00    -0.206 F 
ATOM     91  C   UNL     1       8.026  19.771  -2.867  1.00  0.00     0.022 A 
BRANCH  88  92
ATOM     92  S   UNL     1       8.892  20.126  -5.463  1.00  0.00     0.124 S 
ATOM     93  O   UNL     1       8.017  21.294  -5.522  1.00  0.00    -0.237 OA
ATOM     94  O   UNL     1      10.235  20.378  -4.949  1.00  0.00    -0.237 OA
ATOM     95  O   UNL     1       8.818  19.238  -6.618  1.00  0.00    -0.744 OA
ENDBRANCH  88  92
ENDBRANCH  62  85
ENDBRANCH  36  37
ENDBRANCH  28  31
ENDBRANCH  26  27
ENDBRANCH  25  26
ENDBRANCH   1  25
TORSDOF 18
