REMARK SMILES Cc1sc(-c2ccco2)nc1C(=O)N[C@@H](C(=O)NCCCNC(=O)c1ccc(-c2c3nc(c(-c4cc(S(=O)(=O)[O-])ccc4F)c4ccc([nH]4)c(-c4cc(S(=O)(=O)[O-])ccc4F)c4nc(c(-c5cc(S(=O)(=O)[O-])ccc5F)c5ccc2[nH]5)C=C4)C=C3)cc1)C(C)C
REMARK SMILES IDX 20 1 19 2 18 3 16 4 17 5 15 7 14 8 12 9 13 10 11 12 1 13
REMARK SMILES IDX 2 14 3 15 4 16 10 17 5 18 6 19 9 20 7 21 8 22 88 23 89 24
REMARK SMILES IDX 90 25 21 26 22 27 23 28 24 30 25 31 26 32 87 33 27 34 86 35
REMARK SMILES IDX 28 36 29 37 30 38 80 39 31 40 85 41 79 42 81 43 32 44 84 45
REMARK SMILES IDX 78 46 77 47 33 49 65 50 45 51 64 52 46 53 49 54 63 55 82 56
REMARK SMILES IDX 47 57 48 58 62 60 83 61 50 62 34 63 35 64 43 65 36 66 42 67
REMARK SMILES IDX 44 68 41 69 37 70 38 71 39 72 40 73 66 74 67 75 75 76 68 77
REMARK SMILES IDX 74 78 76 79 73 80 69 81 70 82 71 83 72 84 51 85 52 86 60 87
REMARK SMILES IDX 53 88 59 89 61 90 58 91 54 92 55 93 56 94 57 95
REMARK H PARENT 18 6 14 11 22 29 81 48 49 59
REMARK Flexibility Score: inf
ROOT
ATOM      1  C   UNL     1       1.006  -2.968   3.375  1.00  0.00     0.042 C 
ENDROOT
BRANCH   1   2
ATOM      2  C   UNL     1       1.977  -1.983   2.745  1.00  0.00     0.117 C 
BRANCH   2   3
ATOM      3  N   UNL     1       3.216  -2.621   2.345  1.00  0.00    -0.354 N 
ATOM      4  C   UNL     1       3.682  -2.945   1.101  1.00  0.00     0.242 C 
ATOM      5  O   UNL     1       4.772  -3.517   1.041  1.00  0.00    -0.273 OA
ATOM      6  H   UNL     1       3.818  -2.858   3.087  1.00  0.00     0.163 HD
BRANCH   4   7
ATOM      7  C   UNL     1       2.923  -2.466  -0.165  1.00  0.00     0.174 C 
BRANCH   7   8
ATOM      8  N   UNL     1       1.568  -2.978  -0.182  1.00  0.00    -0.339 N 
ATOM      9  C   UNL     1       0.321  -2.408  -0.203  1.00  0.00     0.271 C 
ATOM     10  O   UNL     1      -0.583  -3.252  -0.210  1.00  0.00    -0.267 OA
ATOM     11  H   UNL     1       1.534  -3.962  -0.176  1.00  0.00     0.164 HD
BRANCH   9  12
ATOM     12  C   UNL     1      -0.023  -0.952  -0.213  1.00  0.00     0.142 A 
ATOM     13  C   UNL     1       2.098   0.684   0.125  1.00  0.00     0.059 C 
ATOM     14  C   UNL     1       0.694   0.253  -0.132  1.00  0.00     0.035 A 
ATOM     15  S   UNL     1      -0.378   1.593  -0.408  1.00  0.00    -0.115 S 
ATOM     16  C   UNL     1      -1.713   0.562  -0.280  1.00  0.00     0.160 A 
ATOM     17  N   UNL     1      -1.423  -0.711  -0.214  1.00  0.00    -0.227 NA
BRANCH  16  18
ATOM     18  C   UNL     1      -3.034   1.097  -0.176  1.00  0.00     0.162 A 
ATOM     19  C   UNL     1      -4.010   0.793   0.760  1.00  0.00     0.053 A 
ATOM     20  O   UNL     1      -3.499   2.106  -0.984  1.00  0.00    -0.462 OA
ATOM     21  C   UNL     1      -5.097   1.669   0.526  1.00  0.00     0.043 A 
ATOM     22  C   UNL     1      -4.745   2.430  -0.560  1.00  0.00     0.196 A 
ENDBRANCH  16  18
ENDBRANCH   9  12
ENDBRANCH   7   8
BRANCH   7  23
ATOM     23  C   UNL     1       3.691  -2.756  -1.478  1.00  0.00     0.015 C 
ATOM     24  C   UNL     1       2.812  -2.572  -2.723  1.00  0.00     0.010 C 
ATOM     25  C   UNL     1       4.897  -1.809  -1.596  1.00  0.00     0.010 C 
ENDBRANCH   7  23
ENDBRANCH   4   7
ENDBRANCH   2   3
ENDBRANCH   1   2
BRANCH   1  26
ATOM     26  C   UNL     1       1.399  -3.333   4.798  1.00  0.00     0.118 C 
BRANCH  26  27
ATOM     27  N   UNL     1       1.286  -2.198   5.705  1.00  0.00    -0.352 N 
ATOM     28  C   UNL     1       0.675  -2.119   6.928  1.00  0.00     0.251 C 
ATOM     29  H   UNL     1       1.712  -1.367   5.393  1.00  0.00     0.163 HD
ATOM     30  O   UNL     1       0.517  -1.013   7.449  1.00  0.00    -0.269 OA
BRANCH  28  31
ATOM     31  C   UNL     1       0.195  -3.342   7.603  1.00  0.00     0.039 A 
ATOM     32  C   UNL     1      -1.012  -3.299   8.304  1.00  0.00     0.014 A 
ATOM     33  C   UNL     1       0.938  -4.526   7.563  1.00  0.00     0.014 A 
ATOM     34  C   UNL     1      -1.489  -4.450   8.932  1.00  0.00     0.010 A 
ATOM     35  C   UNL     1       0.415  -5.694   8.104  1.00  0.00     0.010 A 
ATOM     36  C   UNL     1      -0.790  -5.663   8.819  1.00  0.00    -0.014 A 
BRANCH  36  37
ATOM     37  C   UNL     1      -1.273  -6.894   9.494  1.00  0.00     0.031 A 
ATOM     38  C   UNL     1      -0.430  -7.537  10.565  1.00  0.00     0.074 A 
ATOM     39  C   UNL     1      -2.439  -7.453   9.118  1.00  0.00     0.049 A 
ATOM     40  N   UNL     1      -0.639  -8.640  11.236  1.00  0.00    -0.248 NA
ATOM     41  C   UNL     1       0.836  -6.865  10.899  1.00  0.00     0.031 C 
ATOM     42  C   UNL     1      -3.319  -6.945   8.063  1.00  0.00     0.029 A 
ATOM     43  N   UNL     1      -3.087  -8.571   9.579  1.00  0.00    -0.354 N 
ATOM     44  C   UNL     1       0.473  -8.801  12.057  1.00  0.00     0.074 A 
ATOM     45  C   UNL     1       1.386  -7.726  11.740  1.00  0.00     0.031 C 
ATOM     46  C   UNL     1      -4.407  -7.729   7.982  1.00  0.00     0.029 A 
ATOM     47  C   UNL     1      -4.282  -8.818   8.945  1.00  0.00     0.049 A 
ATOM     48  H   UNL     1      -2.729  -9.142  10.297  1.00  0.00     0.167 HD
ATOM     49  C   UNL     1       0.698  -9.741  13.008  1.00  0.00     0.034 A 
ATOM     50  C   UNL     1      -5.173  -9.814   9.119  1.00  0.00     0.034 A 
ATOM     51  C   UNL     1      -0.234 -10.798  13.319  1.00  0.00     0.049 A 
ATOM     52  C   UNL     1      -4.899 -10.852  10.179  1.00  0.00     0.074 A 
ATOM     53  C   UNL     1      -0.132 -11.783  14.286  1.00  0.00     0.029 A 
ATOM     54  N   UNL     1      -1.443 -11.009  12.666  1.00  0.00    -0.354 N 
ATOM     55  N   UNL     1      -3.863 -10.967  10.979  1.00  0.00    -0.248 NA
ATOM     56  C   UNL     1      -5.927 -11.881  10.373  1.00  0.00     0.031 C 
ATOM     57  C   UNL     1      -1.242 -12.627  14.173  1.00  0.00     0.029 A 
ATOM     58  C   UNL     1      -2.083 -12.120  13.195  1.00  0.00     0.049 A 
ATOM     59  H   UNL     1      -1.794 -10.452  11.935  1.00  0.00     0.167 HD
ATOM     60  C   UNL     1      -4.138 -12.059  11.799  1.00  0.00     0.074 A 
ATOM     61  C   UNL     1      -5.442 -12.551  11.407  1.00  0.00     0.031 C 
ATOM     62  C   UNL     1      -3.384 -12.603  12.790  1.00  0.00     0.034 A 
BRANCH  49  63
ATOM     63  C   UNL     1       2.012  -9.673  13.754  1.00  0.00     0.023 A 
ATOM     64  C   UNL     1       2.365  -8.554  14.530  1.00  0.00     0.031 A 
ATOM     65  C   UNL     1       2.943 -10.722  13.656  1.00  0.00     0.131 A 
ATOM     66  C   UNL     1       3.644  -8.472  15.103  1.00  0.00     0.055 A 
ATOM     67  C   UNL     1       4.179 -10.674  14.306  1.00  0.00     0.041 A 
ATOM     68  F   UNL     1       2.677 -11.807  12.912  1.00  0.00    -0.206 F 
ATOM     69  C   UNL     1       4.543  -9.536  15.020  1.00  0.00     0.022 A 
BRANCH  66  70
ATOM     70  S   UNL     1       4.172  -6.889  15.817  1.00  0.00     0.124 S 
ATOM     71  O   UNL     1       4.051  -5.994  14.668  1.00  0.00    -0.237 OA
ATOM     72  O   UNL     1       3.205  -6.688  16.889  1.00  0.00    -0.237 OA
ATOM     73  O   UNL     1       5.542  -7.150  16.252  1.00  0.00    -0.744 OA
ENDBRANCH  66  70
ENDBRANCH  49  63
BRANCH  50  74
ATOM     74  C   UNL     1      -6.409  -9.882   8.286  1.00  0.00     0.023 A 
ATOM     75  C   UNL     1      -7.681  -9.763   8.867  1.00  0.00     0.031 A 
ATOM     76  C   UNL     1      -6.336 -10.116   6.901  1.00  0.00     0.131 A 
ATOM     77  C   UNL     1      -8.830  -9.937   8.079  1.00  0.00     0.055 A 
ATOM     78  C   UNL     1      -7.482 -10.228   6.111  1.00  0.00     0.041 A 
ATOM     79  F   UNL     1      -5.145 -10.231   6.293  1.00  0.00    -0.206 F 
ATOM     80  C   UNL     1      -8.739 -10.155   6.703  1.00  0.00     0.022 A 
BRANCH  77  81
ATOM     81  S   UNL     1     -10.448  -9.969   8.899  1.00  0.00     0.124 S 
ATOM     82  O   UNL     1     -10.277 -11.062   9.849  1.00  0.00    -0.237 OA
ATOM     83  O   UNL     1     -10.525  -8.629   9.470  1.00  0.00    -0.237 OA
ATOM     84  O   UNL     1     -11.379 -10.233   7.804  1.00  0.00    -0.744 OA
ENDBRANCH  77  81
ENDBRANCH  50  74
BRANCH  62  85
ATOM     85  C   UNL     1      -3.991 -13.754  13.558  1.00  0.00     0.023 A 
ATOM     86  C   UNL     1      -4.299 -14.980  12.944  1.00  0.00     0.031 A 
ATOM     87  C   UNL     1      -4.303 -13.604  14.922  1.00  0.00     0.131 A 
ATOM     88  C   UNL     1      -4.972 -15.976  13.668  1.00  0.00     0.055 A 
ATOM     89  C   UNL     1      -4.904 -14.626  15.657  1.00  0.00     0.041 A 
ATOM     90  F   UNL     1      -4.035 -12.455  15.563  1.00  0.00    -0.206 F 
ATOM     91  C   UNL     1      -5.260 -15.814  15.025  1.00  0.00     0.022 A 
BRANCH  88  92
ATOM     92  S   UNL     1      -5.590 -17.430  12.777  1.00  0.00     0.124 S 
ATOM     93  O   UNL     1      -6.396 -16.821  11.723  1.00  0.00    -0.237 OA
ATOM     94  O   UNL     1      -4.356 -18.076  12.342  1.00  0.00    -0.237 OA
ATOM     95  O   UNL     1      -6.346 -18.159  13.793  1.00  0.00    -0.744 OA
ENDBRANCH  88  92
ENDBRANCH  62  85
ENDBRANCH  36  37
ENDBRANCH  28  31
ENDBRANCH  26  27
ENDBRANCH   1  26
TORSDOF 17
