REMARK SMILES COc1ccc(-c2nc3cc(N4C[C@@H](C(=O)NCCCNC(=O)c5ccc(-c6c7nc(c(-c8cc(S(=O)(=O)[O-])ccc8F)c8ccc([nH]8)c(-c8cc(S(=O)(=O)[O-])ccc8F)c8nc(c(-c9cc(S(=O)(=O)[O-])ccc9F)c9ccc6[nH]9)C=C8)C=C7)cc5)CC4=O)ccc3o2)cc1
REMARK SMILES IDX 19 1 18 2 17 3 15 4 16 5 14 7 12 8 13 9 88 10 87 11 89 12
REMARK SMILES IDX 11 13 7 14 8 15 93 16 9 17 92 18 10 19 91 20 90 21 6 22 3 23
REMARK SMILES IDX 4 24 95 25 5 26 94 27 2 28 1 29 20 30 21 31 22 32 23 34
REMARK SMILES IDX 24 35 25 36 86 37 26 38 85 39 27 40 28 41 29 42 79 43 30 44
REMARK SMILES IDX 84 45 78 46 80 47 31 48 83 49 77 50 76 51 32 53 64 54 44 55
REMARK SMILES IDX 63 56 45 57 48 58 62 59 81 60 46 61 47 62 61 64 82 65 49 66
REMARK SMILES IDX 33 67 34 68 42 69 35 70 41 71 43 72 40 73 36 74 37 75 38 76
REMARK SMILES IDX 39 77 65 78 66 79 74 80 67 81 73 82 75 83 72 84 68 85 69 86
REMARK SMILES IDX 70 87 71 88 50 89 51 90 59 91 52 92 58 93 60 94 57 95 53 96
REMARK SMILES IDX 54 97 55 98 56 99
REMARK H PARENT 17 6 21 33 80 52 48 63
REMARK Flexibility Score: inf
ROOT
ATOM      1  C   UNL     1       9.347  -4.497  13.332  1.00  0.00     0.042 C 
ENDROOT
BRANCH   1   2
ATOM      2  C   UNL     1       8.822  -3.299  12.549  1.00  0.00     0.117 C 
BRANCH   2   3
ATOM      3  N   UNL     1       9.880  -2.610  11.828  1.00  0.00    -0.356 N 
ATOM      4  C   UNL     1      10.159  -2.518  10.504  1.00  0.00     0.225 C 
ATOM      5  O   UNL     1      11.136  -1.841  10.174  1.00  0.00    -0.275 OA
ATOM      6  H   UNL     1      10.508  -2.120  12.406  1.00  0.00     0.163 HD
BRANCH   4   7
ATOM      7  C   UNL     1       9.291  -3.147   9.439  1.00  0.00     0.107 C 
ATOM      8  N   UNL     1       6.980  -3.555   9.188  1.00  0.00    -0.312 N 
ATOM      9  C   UNL     1       7.932  -2.486   9.372  1.00  0.00     0.139 C 
ATOM     10  C   UNL     1       7.558  -4.816   9.369  1.00  0.00     0.227 C 
ATOM     11  C   UNL     1       9.045  -4.639   9.559  1.00  0.00     0.116 C 
ATOM     12  O   UNL     1       7.024  -5.907   9.321  1.00  0.00    -0.274 OA
BRANCH   8  13
ATOM     13  C   UNL     1       5.640  -3.327   8.778  1.00  0.00     0.046 A 
ATOM     14  C   UNL     1       2.531  -1.684   6.069  1.00  0.00     0.227 A 
ATOM     15  N   UNL     1       3.698  -1.202   6.446  1.00  0.00    -0.209 NA
ATOM     16  O   UNL     1       2.087  -2.768   6.788  1.00  0.00    -0.436 OA
ATOM     17  C   UNL     1       4.115  -2.090   7.388  1.00  0.00     0.112 A 
ATOM     18  C   UNL     1       3.147  -3.051   7.611  1.00  0.00     0.155 A 
ATOM     19  C   UNL     1       5.354  -2.181   8.022  1.00  0.00     0.058 A 
ATOM     20  C   UNL     1       3.319  -4.128   8.468  1.00  0.00     0.051 A 
ATOM     21  C   UNL     1       4.612  -4.261   9.018  1.00  0.00     0.030 A 
BRANCH  14  22
ATOM     22  C   UNL     1       1.834  -1.346   4.842  1.00  0.00     0.037 A 
ATOM     23  C   UNL     1       0.691  -0.495   2.419  1.00  0.00     0.118 A 
ATOM     24  C   UNL     1      -0.083  -0.593   3.582  1.00  0.00     0.047 A 
ATOM     25  C   UNL     1       2.037  -0.848   2.464  1.00  0.00     0.047 A 
ATOM     26  C   UNL     1       0.478  -1.029   4.790  1.00  0.00     0.017 A 
ATOM     27  C   UNL     1       2.601  -1.262   3.669  1.00  0.00     0.017 A 
BRANCH  23  28
ATOM     28  O   UNL     1       0.034  -0.023   1.315  1.00  0.00    -0.497 OA
ATOM     29  C   UNL     1       0.752  -0.063   0.086  1.00  0.00     0.278 C 
ENDBRANCH  23  28
ENDBRANCH  14  22
ENDBRANCH   8  13
ENDBRANCH   4   7
ENDBRANCH   2   3
ENDBRANCH   1   2
BRANCH   1  30
ATOM     30  C   UNL     1      10.348  -4.140  14.425  1.00  0.00     0.118 C 
BRANCH  30  31
ATOM     31  N   UNL     1       9.774  -3.284  15.451  1.00  0.00    -0.352 N 
ATOM     32  C   UNL     1       9.590  -3.503  16.794  1.00  0.00     0.251 C 
ATOM     33  H   UNL     1       9.467  -2.405  15.131  1.00  0.00     0.163 HD
ATOM     34  O   UNL     1       8.893  -2.716  17.430  1.00  0.00    -0.269 OA
BRANCH  32  35
ATOM     35  C   UNL     1      10.194  -4.675  17.468  1.00  0.00     0.039 A 
ATOM     36  C   UNL     1       9.453  -5.335  18.452  1.00  0.00     0.014 A 
ATOM     37  C   UNL     1      11.488  -5.111  17.168  1.00  0.00     0.014 A 
ATOM     38  C   UNL     1       9.980  -6.465  19.081  1.00  0.00     0.010 A 
ATOM     39  C   UNL     1      11.979  -6.287  17.734  1.00  0.00     0.010 A 
ATOM     40  C   UNL     1      11.231  -6.976  18.699  1.00  0.00    -0.014 A 
BRANCH  40  41
ATOM     41  C   UNL     1      11.746  -8.240  19.290  1.00  0.00     0.031 A 
ATOM     42  C   UNL     1      13.007  -8.249  20.111  1.00  0.00     0.074 A 
ATOM     43  C   UNL     1      11.094  -9.394  19.042  1.00  0.00     0.049 A 
ATOM     44  N   UNL     1      13.603  -9.255  20.701  1.00  0.00    -0.248 NA
ATOM     45  C   UNL     1      13.707  -6.966  20.263  1.00  0.00     0.031 C 
ATOM     46  C   UNL     1       9.900  -9.523  18.201  1.00  0.00     0.029 A 
ATOM     47  N   UNL     1      11.338 -10.675  19.468  1.00  0.00    -0.354 N 
ATOM     48  C   UNL     1      14.752  -8.730  21.284  1.00  0.00     0.074 A 
ATOM     49  C   UNL     1      14.798  -7.329  20.921  1.00  0.00     0.031 C 
ATOM     50  C   UNL     1       9.498 -10.803  18.202  1.00  0.00     0.029 A 
ATOM     51  C   UNL     1      10.422 -11.593  19.009  1.00  0.00     0.049 A 
ATOM     52  H   UNL     1      12.096 -10.914  20.047  1.00  0.00     0.167 HD
ATOM     53  C   UNL     1      15.668  -9.352  22.068  1.00  0.00     0.034 A 
ATOM     54  C   UNL     1      10.334 -12.922  19.212  1.00  0.00     0.034 A 
ATOM     55  C   UNL     1      15.600 -10.750  22.427  1.00  0.00     0.049 A 
ATOM     56  C   UNL     1      11.351 -13.587  20.101  1.00  0.00     0.074 A 
ATOM     57  C   UNL     1      16.433 -11.467  23.269  1.00  0.00     0.029 A 
ATOM     58  N   UNL     1      14.650 -11.649  21.956  1.00  0.00    -0.354 N 
ATOM     59  N   UNL     1      12.389 -13.060  20.709  1.00  0.00    -0.248 NA
ATOM     60  C   UNL     1      11.171 -15.023  20.346  1.00  0.00     0.031 C 
ATOM     61  C   UNL     1      16.030 -12.808  23.252  1.00  0.00     0.029 A 
ATOM     62  C   UNL     1      14.897 -12.918  22.462  1.00  0.00     0.049 A 
ATOM     63  H   UNL     1      13.909 -11.419  21.350  1.00  0.00     0.167 HD
ATOM     64  C   UNL     1      12.975 -14.100  21.426  1.00  0.00     0.074 A 
ATOM     65  C   UNL     1      12.154 -15.272  21.197  1.00  0.00     0.031 C 
ATOM     66  C   UNL     1      14.090 -14.088  22.201  1.00  0.00     0.034 A 
BRANCH  53  67
ATOM     67  C   UNL     1      16.834  -8.526  22.565  1.00  0.00     0.023 A 
ATOM     68  C   UNL     1      16.649  -7.407  23.397  1.00  0.00     0.031 A 
ATOM     69  C   UNL     1      18.148  -8.842  22.177  1.00  0.00     0.131 A 
ATOM     70  C   UNL     1      17.743  -6.601  23.745  1.00  0.00     0.055 A 
ATOM     71  C   UNL     1      19.244  -8.084  22.597  1.00  0.00     0.041 A 
ATOM     72  F   UNL     1      18.391  -9.885  21.368  1.00  0.00    -0.206 F 
ATOM     73  C   UNL     1      19.044  -6.946  23.372  1.00  0.00     0.022 A 
BRANCH  70  74
ATOM     74  S   UNL     1      17.425  -5.013  24.563  1.00  0.00     0.124 S 
ATOM     75  O   UNL     1      16.551  -4.353  23.595  1.00  0.00    -0.237 OA
ATOM     76  O   UNL     1      16.799  -5.422  25.814  1.00  0.00    -0.237 OA
ATOM     77  O   UNL     1      18.755  -4.421  24.693  1.00  0.00    -0.744 OA
ENDBRANCH  70  74
ENDBRANCH  53  67
BRANCH  54  78
ATOM     78  C   UNL     1       9.246 -13.711  18.568  1.00  0.00     0.023 A 
ATOM     79  C   UNL     1       8.246 -14.329  19.335  1.00  0.00     0.031 A 
ATOM     80  C   UNL     1       9.206 -13.878  17.173  1.00  0.00     0.131 A 
ATOM     81  C   UNL     1       7.273 -15.121  18.707  1.00  0.00     0.055 A 
ATOM     82  C   UNL     1       8.207 -14.626  16.548  1.00  0.00     0.041 A 
ATOM     83  F   UNL     1      10.134 -13.299  16.393  1.00  0.00    -0.206 F 
ATOM     84  C   UNL     1       7.239 -15.263  17.317  1.00  0.00     0.022 A 
BRANCH  81  85
ATOM     85  S   UNL     1       6.087 -16.025  19.741  1.00  0.00     0.124 S 
ATOM     86  O   UNL     1       6.971 -16.846  20.560  1.00  0.00    -0.237 OA
ATOM     87  O   UNL     1       5.398 -14.938  20.430  1.00  0.00    -0.237 OA
ATOM     88  O   UNL     1       5.277 -16.756  18.769  1.00  0.00    -0.744 OA
ENDBRANCH  81  85
ENDBRANCH  54  78
BRANCH  66  89
ATOM     89  C   UNL     1      14.462 -15.390  22.871  1.00  0.00     0.023 A 
ATOM     90  C   UNL     1      14.830 -16.524  22.123  1.00  0.00     0.031 A 
ATOM     91  C   UNL     1      14.397 -15.516  24.270  1.00  0.00     0.131 A 
ATOM     92  C   UNL     1      15.038 -17.752  22.769  1.00  0.00     0.055 A 
ATOM     93  C   UNL     1      14.676 -16.723  24.913  1.00  0.00     0.041 A 
ATOM     94  F   UNL     1      14.049 -14.470  25.035  1.00  0.00    -0.206 F 
ATOM     95  C   UNL     1      14.979 -17.855  24.161  1.00  0.00     0.022 A 
BRANCH  92  96
ATOM     96  S   UNL     1      15.254 -19.241  21.756  1.00  0.00     0.124 S 
ATOM     97  O   UNL     1      14.053 -19.220  20.926  1.00  0.00    -0.237 OA
ATOM     98  O   UNL     1      16.511 -18.968  21.066  1.00  0.00    -0.237 OA
ATOM     99  O   UNL     1      15.308 -20.320  22.740  1.00  0.00    -0.744 OA
ENDBRANCH  92  96
ENDBRANCH  66  89
ENDBRANCH  40  41
ENDBRANCH  32  35
ENDBRANCH  30  31
ENDBRANCH   1  30
TORSDOF 16
