REMARK SMILES COc1ccc2c(c1)c(Cc1nc(-c3ccc(C(=O)NCCCNC(=O)c4ccc(-c5c6nc(c(-c7cc(S(=O)(=O)[O-])ccc7F)c7ccc([nH]7)c(-c7cc(S(=O)(=O)[O-])ccc7F)c7nc(c(-c8cc(S(=O)(=O)[O-])ccc8F)c8ccc5[nH]8)C=C7)C=C6)cc4)cc3)cs1)c(C)n2C(=O)c1ccc(Cl)cc1
REMARK SMILES IDX 21 1 20 2 18 3 19 4 17 6 14 7 15 8 91 9 16 10 90 11 13 12
REMARK SMILES IDX 11 13 12 14 93 15 92 16 10 17 9 18 3 19 4 20 8 21 5 22 7 23
REMARK SMILES IDX 6 24 96 25 94 26 95 27 2 28 1 29 97 30 98 31 99 32 100 33
REMARK SMILES IDX 105 34 101 35 104 36 102 37 103 38 22 39 23 40 24 41 25 42
REMARK SMILES IDX 26 44 27 45 28 46 89 47 29 48 88 49 30 50 31 51 32 52 82 53
REMARK SMILES IDX 33 54 87 55 81 56 83 57 34 58 86 59 80 60 79 61 35 63 67 64
REMARK SMILES IDX 47 65 66 66 48 67 51 68 65 69 84 70 49 71 50 72 64 74 85 75
REMARK SMILES IDX 52 76 36 77 37 78 45 79 38 80 44 81 46 82 43 83 39 84 40 85
REMARK SMILES IDX 41 86 42 87 68 88 69 89 77 90 70 91 76 92 78 93 75 94 71 95
REMARK SMILES IDX 72 96 73 97 74 98 53 99 54 100 62 101 55 102 61 103 63 104
REMARK SMILES IDX 60 105 56 106 57 107 58 108 59 109
REMARK H PARENT 20 5 24 43 83 62 51 73
REMARK Flexibility Score: inf
ROOT
ATOM      1  C   UNL     1      -4.202  -4.160  -4.525  1.00  0.00     0.118 C 
ENDROOT
BRANCH   1   2
ATOM      2  N   UNL     1      -3.193  -4.413  -5.542  1.00  0.00    -0.352 N 
ATOM      3  C   UNL     1      -2.256  -3.614  -6.152  1.00  0.00     0.251 C 
ATOM      4  O   UNL     1      -1.505  -4.140  -6.976  1.00  0.00    -0.269 OA
ATOM      5  H   UNL     1      -3.179  -5.346  -5.856  1.00  0.00     0.163 HD
BRANCH   3   6
ATOM      6  C   UNL     1      -2.155  -2.145  -5.930  1.00  0.00     0.039 A 
ATOM      7  C   UNL     1      -2.143   0.674  -5.763  1.00  0.00     0.001 A 
ATOM      8  C   UNL     1      -1.717   0.037  -6.932  1.00  0.00     0.011 A 
ATOM      9  C   UNL     1      -2.456  -0.114  -4.647  1.00  0.00     0.011 A 
ATOM     10  C   UNL     1      -1.731  -1.360  -7.015  1.00  0.00     0.014 A 
ATOM     11  C   UNL     1      -2.424  -1.511  -4.719  1.00  0.00     0.014 A 
BRANCH   7  12
ATOM     12  C   UNL     1      -2.230   2.123  -5.655  1.00  0.00     0.081 A 
ATOM     13  C   UNL     1      -2.126   4.037  -4.543  1.00  0.00     0.098 A 
ATOM     14  N   UNL     1      -2.114   2.728  -4.424  1.00  0.00    -0.241 NA
ATOM     15  S   UNL     1      -2.430   4.617  -6.130  1.00  0.00    -0.126 S 
ATOM     16  C   UNL     1      -2.461   2.994  -6.700  1.00  0.00     0.095 A 
BRANCH  13  17
ATOM     17  C   UNL     1      -1.849   4.968  -3.400  1.00  0.00     0.105 C 
BRANCH  17  18
ATOM     18  C   UNL     1      -0.384   4.953  -3.028  1.00  0.00    -0.012 A 
ATOM     19  C   UNL     1       0.776   1.688  -1.409  1.00  0.00     0.119 A 
ATOM     20  C   UNL     1       2.077   2.090  -1.171  1.00  0.00     0.048 A 
ATOM     21  C   UNL     1      -0.114   2.571  -2.015  1.00  0.00     0.057 A 
ATOM     22  C   UNL     1       2.504   3.374  -1.532  1.00  0.00     0.031 A 
ATOM     23  C   UNL     1       0.300   3.864  -2.418  1.00  0.00     0.008 A 
ATOM     24  C   UNL     1       1.626   4.251  -2.210  1.00  0.00     0.057 A 
ATOM     25  N   UNL     1       1.802   5.529  -2.780  1.00  0.00    -0.280 N 
ATOM     26  C   UNL     1       0.542   5.973  -3.218  1.00  0.00     0.028 A 
ATOM     27  C   UNL     1       0.240   7.306  -3.827  1.00  0.00     0.065 C 
BRANCH  19  28
ATOM     28  O   UNL     1       0.286   0.441  -1.133  1.00  0.00    -0.497 OA
ATOM     29  C   UNL     1       0.748  -0.119   0.092  1.00  0.00     0.278 C 
ENDBRANCH  19  28
BRANCH  25  30
ATOM     30  C   UNL     1       3.038   6.232  -2.889  1.00  0.00     0.262 C 
ATOM     31  O   UNL     1       3.049   7.391  -3.300  1.00  0.00    -0.268 OA
BRANCH  30  32
ATOM     32  C   UNL     1       4.359   5.695  -2.519  1.00  0.00     0.040 A 
ATOM     33  C   UNL     1       4.931   4.634  -3.232  1.00  0.00     0.015 A 
ATOM     34  C   UNL     1       5.014   6.255  -1.417  1.00  0.00     0.015 A 
ATOM     35  C   UNL     1       6.130   4.078  -2.780  1.00  0.00     0.021 A 
ATOM     36  C   UNL     1       6.215   5.700  -0.976  1.00  0.00     0.021 A 
ATOM     37  C   UNL     1       6.759   4.604  -1.648  1.00  0.00     0.041 A 
ATOM     38  Cl  UNL     1       8.206   3.881  -1.063  1.00  0.00    -0.084 Cl
ENDBRANCH  30  32
ENDBRANCH  25  30
ENDBRANCH  17  18
ENDBRANCH  13  17
ENDBRANCH   7  12
ENDBRANCH   3   6
ENDBRANCH   1   2
BRANCH   1  39
ATOM     39  C   UNL     1      -5.630  -4.488  -4.947  1.00  0.00     0.042 C 
BRANCH  39  40
ATOM     40  C   UNL     1      -5.934  -5.953  -5.247  1.00  0.00     0.118 C 
BRANCH  40  41
ATOM     41  N   UNL     1      -5.461  -6.910  -4.266  1.00  0.00    -0.352 N 
ATOM     42  C   UNL     1      -5.954  -7.444  -3.106  1.00  0.00     0.251 C 
ATOM     43  H   UNL     1      -4.569  -7.261  -4.488  1.00  0.00     0.163 HD
ATOM     44  O   UNL     1      -5.322  -8.408  -2.662  1.00  0.00    -0.269 OA
BRANCH  42  45
ATOM     45  C   UNL     1      -7.112  -6.924  -2.326  1.00  0.00     0.039 A 
ATOM     46  C   UNL     1      -7.921  -5.849  -2.689  1.00  0.00     0.014 A 
ATOM     47  C   UNL     1      -7.349  -7.544  -1.083  1.00  0.00     0.014 A 
ATOM     48  C   UNL     1      -8.852  -5.329  -1.790  1.00  0.00     0.010 A 
ATOM     49  C   UNL     1      -8.302  -7.051  -0.195  1.00  0.00     0.010 A 
ATOM     50  C   UNL     1      -9.018  -5.906  -0.527  1.00  0.00    -0.014 A 
BRANCH  50  51
ATOM     51  C   UNL     1     -10.004  -5.310   0.377  1.00  0.00     0.031 A 
ATOM     52  C   UNL     1     -11.421  -5.347  -0.087  1.00  0.00     0.074 A 
ATOM     53  C   UNL     1      -9.714  -4.854   1.612  1.00  0.00     0.049 A 
ATOM     54  N   UNL     1     -12.217  -4.359  -0.339  1.00  0.00    -0.248 NA
ATOM     55  C   UNL     1     -11.989  -6.666  -0.393  1.00  0.00     0.031 C 
ATOM     56  C   UNL     1      -8.473  -5.043   2.370  1.00  0.00     0.029 A 
ATOM     57  N   UNL     1     -10.527  -4.210   2.500  1.00  0.00    -0.354 N 
ATOM     58  C   UNL     1     -13.448  -4.926  -0.681  1.00  0.00     0.074 A 
ATOM     59  C   UNL     1     -13.208  -6.340  -0.822  1.00  0.00     0.031 C 
ATOM     60  C   UNL     1      -8.696  -4.734   3.667  1.00  0.00     0.029 A 
ATOM     61  C   UNL     1     -10.036  -4.184   3.796  1.00  0.00     0.049 A 
ATOM     62  H   UNL     1     -11.385  -3.802   2.244  1.00  0.00     0.167 HD
ATOM     63  C   UNL     1     -14.613  -4.213  -0.670  1.00  0.00     0.034 A 
ATOM     64  C   UNL     1     -10.704  -3.818   4.916  1.00  0.00     0.034 A 
ATOM     65  C   UNL     1     -14.364  -2.801  -0.608  1.00  0.00     0.049 A 
ATOM     66  C   UNL     1     -11.882  -3.012   4.527  1.00  0.00     0.074 A 
ATOM     67  C   UNL     1     -13.796  -1.867  -1.447  1.00  0.00     0.029 A 
ATOM     68  N   UNL     1     -14.470  -2.197   0.620  1.00  0.00    -0.354 N 
ATOM     69  N   UNL     1     -11.826  -1.807   4.035  1.00  0.00    -0.248 NA
ATOM     70  C   UNL     1     -13.151  -3.700   4.344  1.00  0.00     0.031 C 
ATOM     71  C   UNL     1     -13.191  -0.910  -0.584  1.00  0.00     0.029 A 
ATOM     72  C   UNL     1     -13.448  -1.293   0.735  1.00  0.00     0.049 A 
ATOM     73  H   UNL     1     -15.159  -2.381   1.298  1.00  0.00     0.167 HD
ATOM     74  C   UNL     1     -12.852  -1.765   3.104  1.00  0.00     0.074 A 
ATOM     75  C   UNL     1     -13.715  -2.891   3.445  1.00  0.00     0.031 C 
ATOM     76  C   UNL     1     -12.756  -0.999   1.976  1.00  0.00     0.034 A 
BRANCH  63  77
ATOM     77  C   UNL     1     -15.989  -4.794  -0.417  1.00  0.00     0.023 A 
ATOM     78  C   UNL     1     -16.196  -6.109   0.036  1.00  0.00     0.031 A 
ATOM     79  C   UNL     1     -17.131  -3.960  -0.406  1.00  0.00     0.131 A 
ATOM     80  C   UNL     1     -17.455  -6.554   0.464  1.00  0.00     0.055 A 
ATOM     81  C   UNL     1     -18.375  -4.384   0.083  1.00  0.00     0.041 A 
ATOM     82  F   UNL     1     -17.063  -2.683  -0.815  1.00  0.00    -0.206 F 
ATOM     83  C   UNL     1     -18.542  -5.689   0.524  1.00  0.00     0.022 A 
BRANCH  80  84
ATOM     84  S   UNL     1     -17.694  -8.280   0.969  1.00  0.00     0.124 S 
ATOM     85  O   UNL     1     -18.060  -8.134   2.372  1.00  0.00    -0.237 OA
ATOM     86  O   UNL     1     -18.765  -8.706   0.073  1.00  0.00    -0.237 OA
ATOM     87  O   UNL     1     -16.393  -8.892   0.708  1.00  0.00    -0.744 OA
ENDBRANCH  80  84
ENDBRANCH  63  77
BRANCH  64  88
ATOM     88  C   UNL     1     -10.617  -4.495   6.229  1.00  0.00     0.023 A 
ATOM     89  C   UNL     1     -10.354  -5.878   6.275  1.00  0.00     0.031 A 
ATOM     90  C   UNL     1     -11.072  -3.884   7.407  1.00  0.00     0.131 A 
ATOM     91  C   UNL     1     -10.579  -6.609   7.446  1.00  0.00     0.055 A 
ATOM     92  C   UNL     1     -11.284  -4.614   8.583  1.00  0.00     0.041 A 
ATOM     93  F   UNL     1     -11.378  -2.577   7.422  1.00  0.00    -0.206 F 
ATOM     94  C   UNL     1     -11.049  -5.987   8.602  1.00  0.00     0.022 A 
BRANCH  91  95
ATOM     95  S   UNL     1     -10.339  -8.406   7.461  1.00  0.00     0.124 S 
ATOM     96  O   UNL     1      -9.508  -8.595   8.648  1.00  0.00    -0.237 OA
ATOM     97  O   UNL     1     -11.711  -8.889   7.571  1.00  0.00    -0.237 OA
ATOM     98  O   UNL     1      -9.670  -8.674   6.191  1.00  0.00    -0.744 OA
ENDBRANCH  91  95
ENDBRANCH  64  88
BRANCH  76  99
ATOM     99  C   UNL     1     -11.669   0.052   1.891  1.00  0.00     0.023 A 
ATOM    100  C   UNL     1     -12.045   1.334   1.446  1.00  0.00     0.031 A 
ATOM    101  C   UNL     1     -10.292  -0.217   2.003  1.00  0.00     0.131 A 
ATOM    102  C   UNL     1     -11.072   2.274   1.087  1.00  0.00     0.055 A 
ATOM    103  C   UNL     1      -9.324   0.753   1.718  1.00  0.00     0.041 A 
ATOM    104  F   UNL     1      -9.836  -1.440   2.300  1.00  0.00    -0.206 F 
ATOM    105  C   UNL     1      -9.712   1.999   1.240  1.00  0.00     0.022 A 
BRANCH 102 106
ATOM    106  S   UNL     1     -11.547   3.809   0.249  1.00  0.00     0.124 S 
ATOM    107  O   UNL     1     -11.153   4.825   1.221  1.00  0.00    -0.237 OA
ATOM    108  O   UNL     1     -10.738   3.761  -0.968  1.00  0.00    -0.237 OA
ATOM    109  O   UNL     1     -12.984   3.668   0.038  1.00  0.00    -0.744 OA
ENDBRANCH 102 106
ENDBRANCH  76  99
ENDBRANCH  50  51
ENDBRANCH  42  45
ENDBRANCH  40  41
ENDBRANCH  39  40
ENDBRANCH   1  39
TORSDOF 19
