REMARK SMILES O=C(NCCCNC(=O)c1nnn(-c2cccc(Br)c2)c1[C@@H]1COc2ccccc2O1)c1ccc(-c2c3nc(c(-c4cc(S(=O)(=O)[O-])ccc4F)c4ccc([nH]4)c(-c4cc(S(=O)(=O)[O-])ccc4F)c4nc(c(-c5cc(S(=O)(=O)[O-])ccc5F)c5ccc2[nH]5)C=C4)C=C3)cc1
REMARK SMILES IDX 4 1 3 2 1 3 2 4 32 6 33 7 94 8 34 9 93 10 35 11 36 12 37 13
REMARK SMILES IDX 87 14 38 15 92 16 86 17 88 18 39 19 91 20 85 21 84 22 40 24
REMARK SMILES IDX 72 25 52 26 71 27 53 28 56 29 70 30 89 31 54 32 55 33 69 35
REMARK SMILES IDX 90 36 57 37 41 38 42 39 50 40 43 41 49 42 51 43 48 44 44 45
REMARK SMILES IDX 45 46 46 47 47 48 73 49 74 50 82 51 75 52 81 53 83 54 80 55
REMARK SMILES IDX 76 56 77 57 78 58 79 59 58 60 59 61 67 62 60 63 66 64 68 65
REMARK SMILES IDX 65 66 61 67 62 68 63 69 64 70 5 71 6 72 7 73 8 74 9 76 10 77
REMARK SMILES IDX 11 78 21 79 12 80 13 81 22 82 23 83 31 84 24 85 30 86 25 87
REMARK SMILES IDX 29 88 26 89 28 90 27 91 14 92 15 93 20 94 16 95 18 96 17 97
REMARK SMILES IDX 19 98
REMARK H PARENT 3 5 88 23 56 34 7 75
REMARK Flexibility Score: inf
ROOT
ATOM      1  C   UNL     1       5.201  -0.568  -0.344  1.00  0.00     0.118 C 
ENDROOT
BRANCH   1   2
ATOM      2  N   UNL     1       3.829  -0.334  -0.755  1.00  0.00    -0.352 N 
ATOM      3  O   UNL     1       1.810   0.569  -0.845  1.00  0.00    -0.269 OA
ATOM      4  C   UNL     1       2.693   0.099  -0.122  1.00  0.00     0.251 C 
ATOM      5  H   UNL     1       3.681  -0.531  -1.708  1.00  0.00     0.163 HD
BRANCH   4   6
ATOM      6  C   UNL     1       2.433  -0.052   1.329  1.00  0.00     0.039 A 
ATOM      7  C   UNL     1       3.412  -0.328   2.276  1.00  0.00     0.014 A 
ATOM      8  C   UNL     1       1.088   0.035   1.744  1.00  0.00     0.014 A 
ATOM      9  C   UNL     1       3.054  -0.642   3.578  1.00  0.00     0.010 A 
ATOM     10  C   UNL     1       0.726  -0.235   3.060  1.00  0.00     0.010 A 
ATOM     11  C   UNL     1       1.711  -0.612   3.966  1.00  0.00    -0.014 A 
BRANCH  11  12
ATOM     12  C   UNL     1       1.444  -0.770   5.391  1.00  0.00     0.031 A 
ATOM     13  C   UNL     1       2.074   0.284   6.233  1.00  0.00     0.074 A 
ATOM     14  C   UNL     1       0.630  -1.693   5.933  1.00  0.00     0.049 A 
ATOM     15  N   UNL     1       3.015   0.153   7.109  1.00  0.00    -0.248 NA
ATOM     16  C   UNL     1       1.726   1.682   5.933  1.00  0.00     0.031 C 
ATOM     17  C   UNL     1      -0.281  -2.605   5.245  1.00  0.00     0.029 A 
ATOM     18  N   UNL     1       0.376  -1.928   7.252  1.00  0.00    -0.354 N 
ATOM     19  C   UNL     1       3.235   1.427   7.628  1.00  0.00     0.074 A 
ATOM     20  C   UNL     1       2.561   2.334   6.741  1.00  0.00     0.031 C 
ATOM     21  C   UNL     1      -1.143  -3.127   6.147  1.00  0.00     0.029 A 
ATOM     22  C   UNL     1      -0.767  -2.682   7.481  1.00  0.00     0.049 A 
ATOM     23  H   UNL     1       0.951  -1.593   7.977  1.00  0.00     0.167 HD
ATOM     24  C   UNL     1       3.774   1.609   8.866  1.00  0.00     0.034 A 
ATOM     25  C   UNL     1      -1.408  -2.849   8.668  1.00  0.00     0.034 A 
ATOM     26  C   UNL     1       4.462   0.416   9.311  1.00  0.00     0.049 A 
ATOM     27  C   UNL     1      -0.427  -2.565   9.746  1.00  0.00     0.074 A 
ATOM     28  C   UNL     1       5.512  -0.337   8.817  1.00  0.00     0.029 A 
ATOM     29  N   UNL     1       3.855  -0.386  10.254  1.00  0.00    -0.354 N 
ATOM     30  N   UNL     1       0.625  -3.304   9.975  1.00  0.00    -0.248 NA
ATOM     31  C   UNL     1      -0.353  -1.211  10.278  1.00  0.00     0.031 C 
ATOM     32  C   UNL     1       5.165  -1.690   9.104  1.00  0.00     0.029 A 
ATOM     33  C   UNL     1       3.962  -1.680   9.813  1.00  0.00     0.049 A 
ATOM     34  H   UNL     1       3.426  -0.086  11.088  1.00  0.00     0.167 HD
ATOM     35  C   UNL     1       1.636  -2.408  10.286  1.00  0.00     0.074 A 
ATOM     36  C   UNL     1       0.951  -1.147  10.560  1.00  0.00     0.031 C 
ATOM     37  C   UNL     1       2.946  -2.694  10.022  1.00  0.00     0.034 A 
BRANCH  24  38
ATOM     38  C   UNL     1       3.345   2.702   9.831  1.00  0.00     0.023 A 
ATOM     39  C   UNL     1       3.866   2.624  11.137  1.00  0.00     0.031 A 
ATOM     40  C   UNL     1       2.254   3.586   9.668  1.00  0.00     0.131 A 
ATOM     41  C   UNL     1       3.205   3.229  12.218  1.00  0.00     0.055 A 
ATOM     42  C   UNL     1       1.644   4.247  10.738  1.00  0.00     0.041 A 
ATOM     43  F   UNL     1       1.663   3.812   8.491  1.00  0.00    -0.206 F 
ATOM     44  C   UNL     1       2.087   4.032  12.030  1.00  0.00     0.022 A 
BRANCH  41  45
ATOM     45  S   UNL     1       3.706   2.747  13.889  1.00  0.00     0.124 S 
ATOM     46  O   UNL     1       3.658   1.292  13.793  1.00  0.00    -0.237 OA
ATOM     47  O   UNL     1       5.034   3.344  13.985  1.00  0.00    -0.237 OA
ATOM     48  O   UNL     1       2.683   3.354  14.736  1.00  0.00    -0.744 OA
ENDBRANCH  41  45
ENDBRANCH  24  38
BRANCH  25  49
ATOM     49  C   UNL     1      -2.882  -2.904   8.876  1.00  0.00     0.023 A 
ATOM     50  C   UNL     1      -3.476  -3.433  10.040  1.00  0.00     0.031 A 
ATOM     51  C   UNL     1      -3.739  -2.213   7.987  1.00  0.00     0.131 A 
ATOM     52  C   UNL     1      -4.864  -3.272  10.266  1.00  0.00     0.055 A 
ATOM     53  C   UNL     1      -5.109  -2.069   8.208  1.00  0.00     0.041 A 
ATOM     54  F   UNL     1      -3.258  -1.578   6.907  1.00  0.00    -0.206 F 
ATOM     55  C   UNL     1      -5.678  -2.593   9.355  1.00  0.00     0.022 A 
BRANCH  52  56
ATOM     56  S   UNL     1      -5.627  -3.870  11.810  1.00  0.00     0.124 S 
ATOM     57  O   UNL     1      -5.551  -5.318  11.653  1.00  0.00    -0.237 OA
ATOM     58  O   UNL     1      -4.770  -3.281  12.832  1.00  0.00    -0.237 OA
ATOM     59  O   UNL     1      -6.982  -3.318  11.757  1.00  0.00    -0.744 OA
ENDBRANCH  52  56
ENDBRANCH  25  49
BRANCH  37  60
ATOM     60  C   UNL     1       3.329  -4.120   9.691  1.00  0.00     0.023 A 
ATOM     61  C   UNL     1       2.791  -4.868   8.620  1.00  0.00     0.031 A 
ATOM     62  C   UNL     1       4.386  -4.691  10.421  1.00  0.00     0.131 A 
ATOM     63  C   UNL     1       3.309  -6.144   8.324  1.00  0.00     0.055 A 
ATOM     64  C   UNL     1       4.908  -5.947  10.114  1.00  0.00     0.041 A 
ATOM     65  F   UNL     1       4.962  -4.015  11.430  1.00  0.00    -0.206 F 
ATOM     66  C   UNL     1       4.366  -6.681   9.066  1.00  0.00     0.022 A 
BRANCH  63  67
ATOM     67  S   UNL     1       2.610  -7.135   6.964  1.00  0.00     0.124 S 
ATOM     68  O   UNL     1       1.171  -7.057   7.186  1.00  0.00    -0.237 OA
ATOM     69  O   UNL     1       3.113  -6.444   5.779  1.00  0.00    -0.237 OA
ATOM     70  O   UNL     1       3.187  -8.463   7.181  1.00  0.00    -0.744 OA
ENDBRANCH  63  67
ENDBRANCH  37  60
ENDBRANCH  11  12
ENDBRANCH   4   6
ENDBRANCH   1   2
BRANCH   1  71
ATOM     71  C   UNL     1       5.571  -1.940   0.228  1.00  0.00     0.042 C 
BRANCH  71  72
ATOM     72  C   UNL     1       5.449  -3.155  -0.687  1.00  0.00     0.118 C 
BRANCH  72  73
ATOM     73  N   UNL     1       6.106  -3.020  -1.976  1.00  0.00    -0.351 N 
ATOM     74  C   UNL     1       6.422  -4.031  -2.859  1.00  0.00     0.273 C 
ATOM     75  H   UNL     1       6.353  -2.107  -2.249  1.00  0.00     0.163 HD
ATOM     76  O   UNL     1       6.942  -3.749  -3.940  1.00  0.00    -0.267 OA
BRANCH  74  77
ATOM     77  C   UNL     1       6.218  -5.400  -2.424  1.00  0.00     0.178 A 
ATOM     78  N   UNL     1       7.279  -6.070  -1.882  1.00  0.00    -0.124 NA
ATOM     79  C   UNL     1       5.076  -6.205  -2.388  1.00  0.00     0.122 A 
ATOM     80  N   UNL     1       6.838  -7.210  -1.399  1.00  0.00    -0.061 NA
ATOM     81  N   UNL     1       5.510  -7.302  -1.642  1.00  0.00    -0.213 N 
BRANCH  79  82
ATOM     82  C   UNL     1       3.657  -6.014  -2.858  1.00  0.00     0.262 C 
ATOM     83  C   UNL     1       3.420  -6.372  -4.328  1.00  0.00     0.281 C 
ATOM     84  O   UNL     1       3.192  -4.689  -2.569  1.00  0.00    -0.477 OA
ATOM     85  O   UNL     1       4.065  -5.462  -5.224  1.00  0.00    -0.485 OA
ATOM     86  C   UNL     1       3.347  -3.804  -3.603  1.00  0.00     0.162 A 
ATOM     87  C   UNL     1       3.843  -4.163  -4.855  1.00  0.00     0.161 A 
ATOM     88  C   UNL     1       3.104  -2.466  -3.301  1.00  0.00     0.050 A 
ATOM     89  C   UNL     1       4.218  -3.171  -5.757  1.00  0.00     0.050 A 
ATOM     90  C   UNL     1       3.483  -1.472  -4.202  1.00  0.00     0.004 A 
ATOM     91  C   UNL     1       4.066  -1.825  -5.418  1.00  0.00     0.004 A 
ENDBRANCH  79  82
BRANCH  81  92
ATOM     92  C   UNL     1       4.795  -8.369  -1.044  1.00  0.00     0.068 A 
ATOM     93  C   UNL     1       3.740  -9.025  -1.684  1.00  0.00     0.028 A 
ATOM     94  C   UNL     1       5.170  -8.748   0.256  1.00  0.00     0.044 A 
ATOM     95  C   UNL     1       3.027 -10.016  -1.002  1.00  0.00     0.003 A 
ATOM     96  C   UNL     1       4.441  -9.723   0.931  1.00  0.00     0.020 A 
ATOM     97  C   UNL     1       3.365 -10.352   0.310  1.00  0.00     0.016 A 
ATOM     98  Br  UNL     1       4.907 -10.178   2.703  1.00  0.00    -0.051 Br
ENDBRANCH  81  92
ENDBRANCH  74  77
ENDBRANCH  72  73
ENDBRANCH  71  72
ENDBRANCH   1  71
TORSDOF 15
