REMARK SMILES COCC[C@H](NC(=O)c1ccc(Br)nc1)C(=O)NCCCNC(=O)c1ccc(-c2c3nc(c(-c4cc(S(=O)(=O)[O-])ccc4F)c4ccc([nH]4)c(-c4cc(S(=O)(=O)[O-])ccc4F)c4nc(c(-c5cc(S(=O)(=O)[O-])ccc5F)c5ccc2[nH]5)C=C4)C=C3)cc1
REMARK SMILES IDX 20 1 19 2 18 3 16 4 17 5 5 7 4 8 3 9 2 10 1 11 6 12 7 13
REMARK SMILES IDX 8 15 9 16 10 17 15 18 11 19 14 20 12 21 13 22 21 23 22 24
REMARK SMILES IDX 23 25 24 27 25 28 26 29 87 30 27 31 86 32 28 33 29 34 30 35
REMARK SMILES IDX 80 36 31 37 85 38 79 39 81 40 32 41 84 42 78 43 77 44 33 46
REMARK SMILES IDX 65 47 45 48 64 49 46 50 49 51 63 52 82 53 47 54 48 55 62 57
REMARK SMILES IDX 83 58 50 59 34 60 35 61 43 62 36 63 42 64 44 65 41 66 37 67
REMARK SMILES IDX 38 68 39 69 40 70 66 71 67 72 75 73 68 74 74 75 76 76 73 77
REMARK SMILES IDX 69 78 70 79 71 80 72 81 51 82 52 83 60 84 53 85 59 86 61 87
REMARK SMILES IDX 58 88 54 89 55 90 56 91 57 92
REMARK H PARENT 18 6 6 14 22 26 81 45 49 56
REMARK Flexibility Score: inf
ROOT
ATOM      1  C   UNL     1       1.041  -4.277   4.571  1.00  0.00     0.042 C 
ENDROOT
BRANCH   1   2
ATOM      2  C   UNL     1       1.685  -4.066   3.211  1.00  0.00     0.117 C 
BRANCH   2   3
ATOM      3  N   UNL     1       0.738  -4.287   2.134  1.00  0.00    -0.354 N 
ATOM      4  C   UNL     1       0.309  -3.461   1.144  1.00  0.00     0.242 C 
ATOM      5  O   UNL     1      -0.579  -3.881   0.398  1.00  0.00    -0.273 OA
ATOM      6  H   UNL     1       0.339  -5.186   2.118  1.00  0.00     0.163 HD
BRANCH   4   7
ATOM      7  C   UNL     1       0.911  -2.060   0.943  1.00  0.00     0.173 C 
BRANCH   7   8
ATOM      8  C   UNL     1       2.429  -2.048   0.696  1.00  0.00     0.063 C 
BRANCH   8   9
ATOM      9  C   UNL     1       2.976  -3.182  -0.171  1.00  0.00     0.162 C 
BRANCH   9  10
ATOM     10  O   UNL     1       2.659  -3.016  -1.549  1.00  0.00    -0.385 OA
ATOM     11  C   UNL     1       1.477  -3.685  -1.966  1.00  0.00     0.194 C 
ENDBRANCH   9  10
ENDBRANCH   8   9
ENDBRANCH   7   8
BRANCH   7  12
ATOM     12  N   UNL     1       0.508  -1.209   2.072  1.00  0.00    -0.340 N 
ATOM     13  C   UNL     1       0.580   0.151   2.216  1.00  0.00     0.253 C 
ATOM     14  H   UNL     1       0.128  -1.690   2.842  1.00  0.00     0.164 HD
ATOM     15  O   UNL     1       0.316   0.679   3.292  1.00  0.00    -0.269 OA
BRANCH  13  16
ATOM     16  C   UNL     1       1.019   0.990   1.094  1.00  0.00     0.058 A 
ATOM     17  C   UNL     1       0.404   0.957  -0.155  1.00  0.00     0.018 A 
ATOM     18  C   UNL     1       2.083   1.859   1.287  1.00  0.00     0.126 A 
ATOM     19  C   UNL     1       0.928   1.734  -1.187  1.00  0.00     0.037 A 
ATOM     20  N   UNL     1       2.611   2.626   0.302  1.00  0.00    -0.249 NA
ATOM     21  C   UNL     1       2.029   2.537  -0.916  1.00  0.00     0.106 A 
ATOM     22  Br  UNL     1       2.773   3.567  -2.323  1.00  0.00    -0.029 Br
ENDBRANCH  13  16
ENDBRANCH   7  12
ENDBRANCH   4   7
ENDBRANCH   2   3
ENDBRANCH   1   2
BRANCH   1  23
ATOM     23  C   UNL     1       0.512  -5.687   4.793  1.00  0.00     0.118 C 
BRANCH  23  24
ATOM     24  N   UNL     1       1.566  -6.691   4.789  1.00  0.00    -0.352 N 
ATOM     25  C   UNL     1       1.915  -7.582   5.776  1.00  0.00     0.251 C 
ATOM     26  H   UNL     1       2.103  -6.738   3.966  1.00  0.00     0.163 HD
ATOM     27  O   UNL     1       2.954  -8.227   5.673  1.00  0.00    -0.269 OA
BRANCH  25  28
ATOM     28  C   UNL     1       1.049  -7.730   6.965  1.00  0.00     0.039 A 
ATOM     29  C   UNL     1       1.630  -7.745   8.234  1.00  0.00     0.014 A 
ATOM     30  C   UNL     1      -0.339  -7.822   6.824  1.00  0.00     0.014 A 
ATOM     31  C   UNL     1       0.812  -7.779   9.366  1.00  0.00     0.010 A 
ATOM     32  C   UNL     1      -1.152  -7.765   7.951  1.00  0.00     0.010 A 
ATOM     33  C   UNL     1      -0.586  -7.748   9.234  1.00  0.00    -0.014 A 
BRANCH  33  34
ATOM     34  C   UNL     1      -1.476  -7.708  10.424  1.00  0.00     0.031 A 
ATOM     35  C   UNL     1      -2.447  -8.833  10.669  1.00  0.00     0.074 A 
ATOM     36  C   UNL     1      -1.465  -6.630  11.233  1.00  0.00     0.049 A 
ATOM     37  N   UNL     1      -3.371  -8.944  11.588  1.00  0.00    -0.248 NA
ATOM     38  C   UNL     1      -2.396  -9.965   9.731  1.00  0.00     0.031 C 
ATOM     39  C   UNL     1      -0.607  -5.455  11.064  1.00  0.00     0.029 A 
ATOM     40  N   UNL     1      -2.207  -6.337  12.350  1.00  0.00    -0.354 N 
ATOM     41  C   UNL     1      -4.026 -10.143  11.325  1.00  0.00     0.074 A 
ATOM     42  C   UNL     1      -3.430 -10.691  10.126  1.00  0.00     0.031 C 
ATOM     43  C   UNL     1      -0.858  -4.580  12.052  1.00  0.00     0.029 A 
ATOM     44  C   UNL     1      -1.925  -5.106  12.897  1.00  0.00     0.049 A 
ATOM     45  H   UNL     1      -2.880  -6.951  12.725  1.00  0.00     0.167 HD
ATOM     46  C   UNL     1      -5.017 -10.740  12.031  1.00  0.00     0.034 A 
ATOM     47  C   UNL     1      -2.473  -4.468  13.950  1.00  0.00     0.034 A 
ATOM     48  C   UNL     1      -5.576 -10.191  13.242  1.00  0.00     0.049 A 
ATOM     49  C   UNL     1      -3.570  -5.157  14.724  1.00  0.00     0.074 A 
ATOM     50  C   UNL     1      -6.523 -10.750  14.083  1.00  0.00     0.029 A 
ATOM     51  N   UNL     1      -5.246  -8.954  13.781  1.00  0.00    -0.354 N 
ATOM     52  N   UNL     1      -4.128  -6.325  14.503  1.00  0.00    -0.248 NA
ATOM     53  C   UNL     1      -4.099  -4.449  15.896  1.00  0.00     0.031 C 
ATOM     54  C   UNL     1      -6.816  -9.824  15.089  1.00  0.00     0.029 A 
ATOM     55  C   UNL     1      -5.995  -8.719  14.924  1.00  0.00     0.049 A 
ATOM     56  H   UNL     1      -4.578  -8.336  13.407  1.00  0.00     0.167 HD
ATOM     57  C   UNL     1      -5.053  -6.503  15.528  1.00  0.00     0.074 A 
ATOM     58  C   UNL     1      -4.963  -5.331  16.375  1.00  0.00     0.031 C 
ATOM     59  C   UNL     1      -5.898  -7.541  15.753  1.00  0.00     0.034 A 
BRANCH  46  60
ATOM     60  C   UNL     1      -5.573 -12.038  11.496  1.00  0.00     0.023 A 
ATOM     61  C   UNL     1      -4.780 -13.193  11.377  1.00  0.00     0.031 A 
ATOM     62  C   UNL     1      -6.915 -12.118  11.083  1.00  0.00     0.131 A 
ATOM     63  C   UNL     1      -5.312 -14.352  10.792  1.00  0.00     0.055 A 
ATOM     64  C   UNL     1      -7.462 -13.299  10.578  1.00  0.00     0.041 A 
ATOM     65  F   UNL     1      -7.717 -11.043  11.152  1.00  0.00    -0.206 F 
ATOM     66  C   UNL     1      -6.655 -14.422  10.416  1.00  0.00     0.022 A 
BRANCH  63  67
ATOM     67  S   UNL     1      -4.188 -15.721  10.403  1.00  0.00     0.124 S 
ATOM     68  O   UNL     1      -3.241 -15.076   9.496  1.00  0.00    -0.237 OA
ATOM     69  O   UNL     1      -3.667 -16.084  11.716  1.00  0.00    -0.237 OA
ATOM     70  O   UNL     1      -5.059 -16.714   9.780  1.00  0.00    -0.744 OA
ENDBRANCH  63  67
ENDBRANCH  46  60
BRANCH  47  71
ATOM     71  C   UNL     1      -2.015  -3.100  14.332  1.00  0.00     0.023 A 
ATOM     72  C   UNL     1      -1.399  -2.861  15.570  1.00  0.00     0.031 A 
ATOM     73  C   UNL     1      -2.233  -2.001  13.482  1.00  0.00     0.131 A 
ATOM     74  C   UNL     1      -1.072  -1.550  15.949  1.00  0.00     0.055 A 
ATOM     75  C   UNL     1      -1.854  -0.705  13.839  1.00  0.00     0.041 A 
ATOM     76  F   UNL     1      -2.812  -2.173  12.283  1.00  0.00    -0.206 F 
ATOM     77  C   UNL     1      -1.283  -0.472  15.086  1.00  0.00     0.022 A 
BRANCH  74  78
ATOM     78  S   UNL     1      -0.453  -1.260  17.629  1.00  0.00     0.124 S 
ATOM     79  O   UNL     1      -1.524  -1.825  18.442  1.00  0.00    -0.237 OA
ATOM     80  O   UNL     1       0.804  -2.000  17.619  1.00  0.00    -0.237 OA
ATOM     81  O   UNL     1      -0.318   0.194  17.696  1.00  0.00    -0.744 OA
ENDBRANCH  74  78
ENDBRANCH  47  71
BRANCH  59  82
ATOM     82  C   UNL     1      -6.756  -7.470  16.993  1.00  0.00     0.023 A 
ATOM     83  C   UNL     1      -7.774  -6.512  17.136  1.00  0.00     0.031 A 
ATOM     84  C   UNL     1      -6.543  -8.373  18.050  1.00  0.00     0.131 A 
ATOM     85  C   UNL     1      -8.504  -6.442  18.332  1.00  0.00     0.055 A 
ATOM     86  C   UNL     1      -7.313  -8.338  19.212  1.00  0.00     0.041 A 
ATOM     87  F   UNL     1      -5.582  -9.307  17.968  1.00  0.00    -0.206 F 
ATOM     88  C   UNL     1      -8.292  -7.360  19.364  1.00  0.00     0.022 A 
BRANCH  85  89
ATOM     89  S   UNL     1      -9.675  -5.076  18.559  1.00  0.00     0.124 S 
ATOM     90  O   UNL     1      -8.811  -3.909  18.411  1.00  0.00    -0.237 OA
ATOM     91  O   UNL     1     -10.631  -5.302  17.480  1.00  0.00    -0.237 OA
ATOM     92  O   UNL     1     -10.198  -5.293  19.906  1.00  0.00    -0.744 OA
ENDBRANCH  85  89
ENDBRANCH  59  82
ENDBRANCH  33  34
ENDBRANCH  25  28
ENDBRANCH  23  24
ENDBRANCH   1  23
TORSDOF 18
