REMARK SMILES CC1=C(CC(=O)NCCCNC(=O)c2ccc(-c3c4nc(c(-c5cc(S(=O)(=O)[O-])ccc5F)c5ccc([nH]5)c(-c5cc(S(=O)(=O)[O-])ccc5F)c5nc(c(-c6cc(S(=O)(=O)[O-])ccc6F)c6ccc3[nH]6)C=C5)C=C4)cc2)c2cc(F)ccc2/C1=C\c1ccc([S@@+](C)[O-])cc1
REMARK SMILES IDX 9 1 8 2 7 3 5 4 6 5 4 7 3 8 1 9 2 10 84 11 77 12 83 13 85 14
REMARK SMILES IDX 78 15 82 16 79 17 81 18 80 19 86 20 87 21 94 22 88 23 93 24
REMARK SMILES IDX 89 25 90 26 91 27 92 28 10 29 11 30 12 31 13 33 14 34 15 35
REMARK SMILES IDX 76 36 16 37 75 38 17 39 18 40 19 41 69 42 20 43 74 44 68 45
REMARK SMILES IDX 70 46 21 47 73 48 67 49 66 50 22 52 54 53 34 54 53 55 35 56
REMARK SMILES IDX 38 57 52 58 71 59 36 60 37 61 51 63 72 64 39 65 23 66 24 67
REMARK SMILES IDX 32 68 25 69 31 70 33 71 30 72 26 73 27 74 28 75 29 76 55 77
REMARK SMILES IDX 56 78 64 79 57 80 63 81 65 82 62 83 58 84 59 85 60 86 61 87
REMARK SMILES IDX 40 88 41 89 49 90 42 91 48 92 50 93 47 94 43 95 44 96 45 97
REMARK SMILES IDX 46 98
REMARK H PARENT 7 6 11 32 70 51 38 62
REMARK Flexibility Score: inf
ROOT
ATOM      1  C   UNL     1       3.092   0.055   2.916  1.00  0.00     0.042 C 
ENDROOT
BRANCH   1   2
ATOM      2  C   UNL     1       2.118  -1.115   2.993  1.00  0.00     0.117 C 
BRANCH   2   3
ATOM      3  N   UNL     1       1.101  -0.923   4.009  1.00  0.00    -0.356 N 
ATOM      4  C   UNL     1      -0.179  -0.475   3.871  1.00  0.00     0.224 C 
ATOM      5  O   UNL     1      -0.875  -0.378   4.885  1.00  0.00    -0.275 OA
ATOM      6  H   UNL     1       1.374  -1.148   4.928  1.00  0.00     0.163 HD
BRANCH   4   7
ATOM      7  C   UNL     1      -0.743  -0.150   2.490  1.00  0.00     0.136 C 
BRANCH   7   8
ATOM      8  C   UNL     1      -0.191   1.104   1.891  1.00  0.00    -0.027 C 
ATOM      9  C   UNL     1       0.846   0.247  -0.288  1.00  0.00     0.045 C 
ATOM     10  C   UNL     1       0.486   1.278   0.731  1.00  0.00    -0.039 C 
ATOM     11  C   UNL     1       0.844   2.699   0.572  1.00  0.00    -0.014 C 
ATOM     12  C   UNL     1      -0.369   2.432   2.509  1.00  0.00    -0.011 A 
ATOM     13  C   UNL     1       0.217   3.420   1.696  1.00  0.00    -0.010 A 
ATOM     14  C   UNL     1       1.641   3.178  -0.404  1.00  0.00     0.017 C 
ATOM     15  C   UNL     1      -1.019   2.779   3.687  1.00  0.00     0.048 A 
ATOM     16  C   UNL     1       0.107   4.764   2.031  1.00  0.00     0.012 A 
ATOM     17  C   UNL     1      -1.080   4.125   4.036  1.00  0.00     0.123 A 
ATOM     18  C   UNL     1      -0.535   5.115   3.220  1.00  0.00     0.040 A 
ATOM     19  F   UNL     1      -1.693   4.480   5.173  1.00  0.00    -0.207 F 
BRANCH  14  20
ATOM     20  C   UNL     1       2.041   4.578  -0.572  1.00  0.00    -0.025 A 
ATOM     21  C   UNL     1       2.934   5.189   0.316  1.00  0.00     0.013 A 
ATOM     22  C   UNL     1       1.447   5.339  -1.581  1.00  0.00     0.013 A 
ATOM     23  C   UNL     1       3.134   6.574   0.273  1.00  0.00     0.061 A 
ATOM     24  C   UNL     1       1.661   6.718  -1.634  1.00  0.00     0.061 A 
ATOM     25  C   UNL     1       2.472   7.353  -0.683  1.00  0.00     0.152 A 
BRANCH  25  26
ATOM     26  S   UNL     1       2.491   9.161  -0.590  1.00  0.00    -0.018 S 
ATOM     27  C   UNL     1       4.269   9.456  -0.614  1.00  0.00     0.346 C 
ATOM     28  O   UNL     1       1.874   9.693  -1.935  1.00  0.00    -0.612 OA
ENDBRANCH  25  26
ENDBRANCH  14  20
ENDBRANCH   7   8
ENDBRANCH   4   7
ENDBRANCH   2   3
ENDBRANCH   1   2
BRANCH   1  29
ATOM     29  C   UNL     1       3.983   0.204   4.144  1.00  0.00     0.118 C 
BRANCH  29  30
ATOM     30  N   UNL     1       4.929  -0.894   4.293  1.00  0.00    -0.352 N 
ATOM     31  C   UNL     1       6.303  -0.877   4.357  1.00  0.00     0.251 C 
ATOM     32  H   UNL     1       4.522  -1.788   4.359  1.00  0.00     0.163 HD
ATOM     33  O   UNL     1       6.919  -1.940   4.314  1.00  0.00    -0.269 OA
BRANCH  31  34
ATOM     34  C   UNL     1       7.036   0.407   4.437  1.00  0.00     0.039 A 
ATOM     35  C   UNL     1       6.588   1.440   5.261  1.00  0.00     0.014 A 
ATOM     36  C   UNL     1       8.193   0.579   3.671  1.00  0.00     0.014 A 
ATOM     37  C   UNL     1       7.183   2.695   5.182  1.00  0.00     0.010 A 
ATOM     38  C   UNL     1       8.844   1.817   3.661  1.00  0.00     0.010 A 
ATOM     39  C   UNL     1       8.312   2.903   4.372  1.00  0.00    -0.014 A 
BRANCH  39  40
ATOM     40  C   UNL     1       8.911   4.261   4.285  1.00  0.00     0.031 A 
ATOM     41  C   UNL     1       8.896   5.026   2.989  1.00  0.00     0.074 A 
ATOM     42  C   UNL     1       9.419   4.830   5.397  1.00  0.00     0.049 A 
ATOM     43  N   UNL     1       9.319   6.240   2.746  1.00  0.00    -0.248 NA
ATOM     44  C   UNL     1       8.334   4.345   1.811  1.00  0.00     0.031 C 
ATOM     45  C   UNL     1       9.480   4.184   6.708  1.00  0.00     0.029 A 
ATOM     46  N   UNL     1       9.953   6.075   5.614  1.00  0.00    -0.354 N 
ATOM     47  C   UNL     1       9.095   6.461   1.392  1.00  0.00     0.074 A 
ATOM     48  C   UNL     1       8.525   5.245   0.857  1.00  0.00     0.031 C 
ATOM     49  C   UNL     1       9.966   5.054   7.603  1.00  0.00     0.029 A 
ATOM     50  C   UNL     1      10.318   6.298   6.921  1.00  0.00     0.049 A 
ATOM     51  H   UNL     1      10.064   6.746   4.901  1.00  0.00     0.167 HD
ATOM     52  C   UNL     1       9.330   7.582   0.668  1.00  0.00     0.034 A 
ATOM     53  C   UNL     1      10.880   7.374   7.510  1.00  0.00     0.034 A 
ATOM     54  C   UNL     1       9.887   8.792   1.217  1.00  0.00     0.049 A 
ATOM     55  C   UNL     1      11.158   8.597   6.675  1.00  0.00     0.074 A 
ATOM     56  C   UNL     1      10.136   9.988   0.567  1.00  0.00     0.029 A 
ATOM     57  N   UNL     1      10.285   8.964   2.535  1.00  0.00    -0.354 N 
ATOM     58  N   UNL     1      10.890   8.806   5.407  1.00  0.00    -0.248 NA
ATOM     59  C   UNL     1      11.813   9.730   7.343  1.00  0.00     0.031 C 
ATOM     60  C   UNL     1      10.736  10.862   1.474  1.00  0.00     0.029 A 
ATOM     61  C   UNL     1      10.799  10.239   2.711  1.00  0.00     0.049 A 
ATOM     62  H   UNL     1      10.212   8.282   3.241  1.00  0.00     0.167 HD
ATOM     63  C   UNL     1      11.331  10.097   5.130  1.00  0.00     0.074 A 
ATOM     64  C   UNL     1      11.854  10.631   6.370  1.00  0.00     0.031 C 
ATOM     65  C   UNL     1      11.311  10.770   3.952  1.00  0.00     0.034 A 
BRANCH  52  66
ATOM     66  C   UNL     1       8.984   7.578  -0.801  1.00  0.00     0.023 A 
ATOM     67  C   UNL     1       9.999   7.733  -1.763  1.00  0.00     0.031 A 
ATOM     68  C   UNL     1       7.649   7.548  -1.241  1.00  0.00     0.131 A 
ATOM     69  C   UNL     1       9.661   7.889  -3.113  1.00  0.00     0.055 A 
ATOM     70  C   UNL     1       7.320   7.662  -2.593  1.00  0.00     0.041 A 
ATOM     71  F   UNL     1       6.644   7.405  -0.360  1.00  0.00    -0.206 F 
ATOM     72  C   UNL     1       8.328   7.849  -3.533  1.00  0.00     0.022 A 
BRANCH  69  73
ATOM     73  S   UNL     1      10.931   8.208  -4.368  1.00  0.00     0.124 S 
ATOM     74  O   UNL     1      10.737   7.083  -5.280  1.00  0.00    -0.237 OA
ATOM     75  O   UNL     1      10.524   9.511  -4.886  1.00  0.00    -0.237 OA
ATOM     76  O   UNL     1      12.180   8.188  -3.615  1.00  0.00    -0.744 OA
ENDBRANCH  69  73
ENDBRANCH  52  66
BRANCH  53  77
ATOM     77  C   UNL     1      11.163   7.335   8.974  1.00  0.00     0.023 A 
ATOM     78  C   UNL     1      12.040   6.377   9.515  1.00  0.00     0.031 A 
ATOM     79  C   UNL     1      10.472   8.174   9.864  1.00  0.00     0.131 A 
ATOM     80  C   UNL     1      12.140   6.228  10.904  1.00  0.00     0.055 A 
ATOM     81  C   UNL     1      10.633   8.072  11.247  1.00  0.00     0.041 A 
ATOM     82  F   UNL     1       9.616   9.096   9.397  1.00  0.00    -0.206 F 
ATOM     83  C   UNL     1      11.455   7.081  11.774  1.00  0.00     0.022 A 
BRANCH  80  84
ATOM     84  S   UNL     1      13.041   4.826  11.623  1.00  0.00     0.124 S 
ATOM     85  O   UNL     1      14.082   5.498  12.394  1.00  0.00    -0.237 OA
ATOM     86  O   UNL     1      11.997   4.171  12.408  1.00  0.00    -0.237 OA
ATOM     87  O   UNL     1      13.500   4.078  10.458  1.00  0.00    -0.744 OA
ENDBRANCH  80  84
ENDBRANCH  53  77
BRANCH  65  88
ATOM     88  C   UNL     1      11.870  12.172   3.914  1.00  0.00     0.023 A 
ATOM     89  C   UNL     1      11.030  13.255   3.590  1.00  0.00     0.031 A 
ATOM     90  C   UNL     1      13.249  12.414   4.040  1.00  0.00     0.131 A 
ATOM     91  C   UNL     1      11.583  14.521   3.359  1.00  0.00     0.055 A 
ATOM     92  C   UNL     1      13.789  13.687   3.856  1.00  0.00     0.041 A 
ATOM     93  F   UNL     1      14.091  11.412   4.337  1.00  0.00    -0.206 F 
ATOM     94  C   UNL     1      12.956  14.745   3.498  1.00  0.00     0.022 A 
BRANCH  91  95
ATOM     95  S   UNL     1      10.554  15.897   2.778  1.00  0.00     0.124 S 
ATOM     96  O   UNL     1      10.710  16.867   3.859  1.00  0.00    -0.237 OA
ATOM     97  O   UNL     1      11.202  16.255   1.519  1.00  0.00    -0.237 OA
ATOM     98  O   UNL     1       9.222  15.313   2.654  1.00  0.00    -0.744 OA
ENDBRANCH  91  95
ENDBRANCH  65  88
ENDBRANCH  39  40
ENDBRANCH  31  34
ENDBRANCH  29  30
ENDBRANCH   1  29
TORSDOF 16
