REMARK SMILES Cc1nn(C)c2nc(C3CC3)c(Cl)c(C(=O)NCCCNC(=O)c3ccc(-c4c5nc(c(-c6cc(S(=O)(=O)[O-])ccc6F)c6ccc([nH]6)c(-c6cc(S(=O)(=O)[O-])ccc6F)c6nc(c(-c7cc(S(=O)(=O)[O-])ccc7F)c7ccc4[nH]7)C=C6)C=C5)cc3)c12
REMARK SMILES IDX 20 1 19 2 18 3 17 4 15 5 16 6 14 8 1 9 2 10 3 11 87 12 4 13
REMARK SMILES IDX 6 14 5 15 7 16 12 17 8 18 13 19 9 20 10 21 11 22 21 23 22 24
REMARK SMILES IDX 23 26 24 27 25 28 86 29 26 30 85 31 27 32 28 33 29 34 79 35
REMARK SMILES IDX 30 36 84 37 78 38 80 39 31 40 83 41 77 42 76 43 32 45 64 46
REMARK SMILES IDX 44 47 63 48 45 49 48 50 62 51 81 52 46 53 47 54 61 56 82 57
REMARK SMILES IDX 49 58 33 59 34 60 42 61 35 62 41 63 43 64 40 65 36 66 37 67
REMARK SMILES IDX 38 68 39 69 65 70 66 71 74 72 67 73 73 74 75 75 72 76 68 77
REMARK SMILES IDX 69 78 70 79 71 80 50 81 51 82 59 83 52 84 58 85 60 86 57 87
REMARK SMILES IDX 53 88 54 89 55 90 56 91
REMARK H PARENT 17 7 21 25 80 44 48 55
REMARK Flexibility Score: inf
ROOT
ATOM      1  C   UNL     1       1.125   6.592   3.126  1.00  0.00     0.118 C 
ENDROOT
BRANCH   1   2
ATOM      2  C   UNL     1       0.465   6.185   1.794  1.00  0.00     0.042 C 
BRANCH   2   3
ATOM      3  C   UNL     1       1.323   5.454   0.750  1.00  0.00     0.118 C 
BRANCH   3   4
ATOM      4  N   UNL     1       1.676   4.064   1.035  1.00  0.00    -0.352 N 
ATOM      5  C   UNL     1       1.836   2.959   0.209  1.00  0.00     0.253 C 
ATOM      6  O   UNL     1       2.355   1.956   0.694  1.00  0.00    -0.269 OA
ATOM      7  H   UNL     1       1.830   3.877   1.989  1.00  0.00     0.163 HD
BRANCH   5   8
ATOM      8  C   UNL     1       1.348   2.899  -1.196  1.00  0.00     0.073 A 
ATOM      9  C   UNL     1       0.797  -0.351  -0.053  1.00  0.00     0.069 C 
ATOM     10  C   UNL     1       0.462   0.368  -1.309  1.00  0.00     0.070 A 
ATOM     11  N   UNL     1      -0.132  -0.334  -2.290  1.00  0.00    -0.176 NA
ATOM     12  C   UNL     1       0.731   1.723  -1.695  1.00  0.00     0.056 A 
ATOM     13  N   UNL     1      -0.250   0.548  -3.294  1.00  0.00    -0.250 N 
ATOM     14  C   UNL     1       0.201   1.797  -2.977  1.00  0.00     0.158 A 
ATOM     15  C   UNL     1      -0.743   0.121  -4.580  1.00  0.00     0.176 C 
ATOM     16  N   UNL     1       0.127   2.878  -3.768  1.00  0.00    -0.231 NA
ATOM     17  C   UNL     1       1.533   3.941  -2.125  1.00  0.00     0.076 A 
ATOM     18  C   UNL     1       0.774   3.980  -3.312  1.00  0.00     0.065 A 
ATOM     19  Cl  UNL     1       2.903   4.999  -1.936  1.00  0.00    -0.081 Cl
BRANCH  18  20
ATOM     20  C   UNL     1       0.436   5.234  -4.122  1.00  0.00     0.040 C 
ATOM     21  C   UNL     1       0.302   6.578  -3.440  1.00  0.00     0.011 C 
ATOM     22  C   UNL     1       1.356   6.360  -4.492  1.00  0.00     0.011 C 
ENDBRANCH  18  20
ENDBRANCH   5   8
ENDBRANCH   3   4
ENDBRANCH   2   3
ENDBRANCH   1   2
BRANCH   1  23
ATOM     23  N   UNL     1       2.240   7.509   2.946  1.00  0.00    -0.352 N 
ATOM     24  C   UNL     1       2.583   8.713   3.512  1.00  0.00     0.251 C 
ATOM     25  H   UNL     1       2.889   7.200   2.272  1.00  0.00     0.163 HD
ATOM     26  O   UNL     1       3.503   9.329   2.966  1.00  0.00    -0.269 OA
BRANCH  24  27
ATOM     27  C   UNL     1       1.944   9.317   4.716  1.00  0.00     0.039 A 
ATOM     28  C   UNL     1       1.957  10.721   4.811  1.00  0.00     0.014 A 
ATOM     29  C   UNL     1       1.477   8.583   5.807  1.00  0.00     0.014 A 
ATOM     30  C   UNL     1       1.472  11.381   5.949  1.00  0.00     0.010 A 
ATOM     31  C   UNL     1       0.987   9.247   6.949  1.00  0.00     0.010 A 
ATOM     32  C   UNL     1       0.958  10.651   7.025  1.00  0.00    -0.014 A 
BRANCH  32  33
ATOM     33  C   UNL     1       0.226  11.395   8.086  1.00  0.00     0.031 A 
ATOM     34  C   UNL     1      -1.113  10.817   8.424  1.00  0.00     0.074 A 
ATOM     35  C   UNL     1       0.808  12.182   9.021  1.00  0.00     0.049 A 
ATOM     36  N   UNL     1      -1.249   9.783   9.202  1.00  0.00    -0.248 NA
ATOM     37  C   UNL     1      -2.333  11.174   7.701  1.00  0.00     0.031 C 
ATOM     38  C   UNL     1       2.115  11.889   9.620  1.00  0.00     0.029 A 
ATOM     39  N   UNL     1       0.296  13.193   9.812  1.00  0.00    -0.354 N 
ATOM     40  C   UNL     1      -2.546   9.326   9.064  1.00  0.00     0.074 A 
ATOM     41  C   UNL     1      -3.182  10.221   8.120  1.00  0.00     0.031 C 
ATOM     42  C   UNL     1       2.222  12.572  10.780  1.00  0.00     0.029 A 
ATOM     43  C   UNL     1       1.073  13.466  10.941  1.00  0.00     0.049 A 
ATOM     44  H   UNL     1      -0.536  13.674   9.601  1.00  0.00     0.167 HD
ATOM     45  C   UNL     1      -3.019   8.240   9.730  1.00  0.00     0.034 A 
ATOM     46  C   UNL     1       0.583  13.868  12.151  1.00  0.00     0.034 A 
ATOM     47  C   UNL     1      -2.097   7.623  10.639  1.00  0.00     0.049 A 
ATOM     48  C   UNL     1      -0.082  12.602  12.631  1.00  0.00     0.074 A 
ATOM     49  C   UNL     1      -1.205   6.573  10.630  1.00  0.00     0.029 A 
ATOM     50  N   UNL     1      -1.949   8.184  11.887  1.00  0.00    -0.354 N 
ATOM     51  N   UNL     1       0.510  11.555  13.139  1.00  0.00    -0.248 NA
ATOM     52  C   UNL     1      -1.455  12.370  12.179  1.00  0.00     0.031 C 
ATOM     53  C   UNL     1      -0.256   6.873  11.658  1.00  0.00     0.029 A 
ATOM     54  C   UNL     1      -0.615   8.106  12.196  1.00  0.00     0.049 A 
ATOM     55  H   UNL     1      -2.662   8.566  12.448  1.00  0.00     0.167 HD
ATOM     56  C   UNL     1      -0.314  10.474  12.827  1.00  0.00     0.074 A 
ATOM     57  C   UNL     1      -1.514  11.049  12.250  1.00  0.00     0.031 C 
ATOM     58  C   UNL     1       0.087   9.170  12.881  1.00  0.00     0.034 A 
BRANCH  45  59
ATOM     59  C   UNL     1      -4.418   7.768   9.701  1.00  0.00     0.023 A 
ATOM     60  C   UNL     1      -5.214   8.036  10.822  1.00  0.00     0.031 A 
ATOM     61  C   UNL     1      -4.904   6.885   8.730  1.00  0.00     0.131 A 
ATOM     62  C   UNL     1      -6.439   7.385  10.986  1.00  0.00     0.055 A 
ATOM     63  C   UNL     1      -6.141   6.250   8.886  1.00  0.00     0.041 A 
ATOM     64  F   UNL     1      -4.166   6.583   7.649  1.00  0.00    -0.206 F 
ATOM     65  C   UNL     1      -6.909   6.487  10.028  1.00  0.00     0.022 A 
BRANCH  62  66
ATOM     66  S   UNL     1      -7.348   7.680  12.523  1.00  0.00     0.124 S 
ATOM     67  O   UNL     1      -6.377   7.276  13.531  1.00  0.00    -0.237 OA
ATOM     68  O   UNL     1      -7.622   9.110  12.432  1.00  0.00    -0.237 OA
ATOM     69  O   UNL     1      -8.518   6.810  12.395  1.00  0.00    -0.744 OA
ENDBRANCH  62  66
ENDBRANCH  45  59
BRANCH  46  70
ATOM     70  C   UNL     1      -0.091  15.209  12.236  1.00  0.00     0.023 A 
ATOM     71  C   UNL     1       0.541  16.317  11.634  1.00  0.00     0.031 A 
ATOM     72  C   UNL     1      -1.294  15.475  12.916  1.00  0.00     0.131 A 
ATOM     73  C   UNL     1      -0.069  17.584  11.622  1.00  0.00     0.055 A 
ATOM     74  C   UNL     1      -1.923  16.727  12.869  1.00  0.00     0.041 A 
ATOM     75  F   UNL     1      -1.911  14.531  13.641  1.00  0.00    -0.206 F 
ATOM     76  C   UNL     1      -1.320  17.786  12.203  1.00  0.00     0.022 A 
BRANCH  73  77
ATOM     77  S   UNL     1       0.771  18.959  10.789  1.00  0.00     0.124 S 
ATOM     78  O   UNL     1       1.811  19.308  11.752  1.00  0.00    -0.237 OA
ATOM     79  O   UNL     1       1.230  18.344   9.548  1.00  0.00    -0.237 OA
ATOM     80  O   UNL     1      -0.287  19.954  10.626  1.00  0.00    -0.744 OA
ENDBRANCH  73  77
ENDBRANCH  46  70
BRANCH  58  81
ATOM     81  C   UNL     1       1.429   8.908  13.480  1.00  0.00     0.023 A 
ATOM     82  C   UNL     1       1.621   9.062  14.862  1.00  0.00     0.031 A 
ATOM     83  C   UNL     1       2.503   8.437  12.706  1.00  0.00     0.131 A 
ATOM     84  C   UNL     1       2.849   8.713  15.439  1.00  0.00     0.055 A 
ATOM     85  C   UNL     1       3.717   8.067  13.288  1.00  0.00     0.041 A 
ATOM     86  F   UNL     1       2.389   8.296  11.375  1.00  0.00    -0.206 F 
ATOM     87  C   UNL     1       3.891   8.197  14.663  1.00  0.00     0.022 A 
BRANCH  84  88
ATOM     88  S   UNL     1       3.055   8.878  17.232  1.00  0.00     0.124 S 
ATOM     89  O   UNL     1       3.126  10.325  17.410  1.00  0.00    -0.237 OA
ATOM     90  O   UNL     1       1.859   8.227  17.755  1.00  0.00    -0.237 OA
ATOM     91  O   UNL     1       4.304   8.164  17.498  1.00  0.00    -0.744 OA
ENDBRANCH  84  88
ENDBRANCH  58  81
ENDBRANCH  32  33
ENDBRANCH  24  27
ENDBRANCH   1  23
TORSDOF 14
