REMARK SMILES CC[C@@H]1SC[C@@H](C(=O)NCCCNC(=O)c2ccc(-c3c4nc(c(-c5cc(S(=O)(=O)[O-])ccc5F)c5ccc([nH]5)c(-c5cc(S(=O)(=O)[O-])ccc5F)c5nc(c(-c6cc(S(=O)(=O)[O-])ccc6F)c6ccc3[nH]6)C=C5)C=C4)cc2)N1C(=O)NC1C(C)(C)C1(C)C
REMARK SMILES IDX 11 1 10 2 9 3 7 4 8 5 6 7 3 8 4 9 79 10 5 11 2 12 1 13 80 14
REMARK SMILES IDX 81 15 82 16 83 18 84 19 87 20 85 21 86 22 88 23 89 24 12 25
REMARK SMILES IDX 13 26 14 27 15 29 16 30 17 31 78 32 18 33 77 34 19 35 20 36
REMARK SMILES IDX 21 37 71 38 22 39 76 40 70 41 72 42 23 43 75 44 69 45 68 46
REMARK SMILES IDX 24 48 56 49 36 50 55 51 37 52 40 53 54 54 73 55 38 56 39 57
REMARK SMILES IDX 53 59 74 60 41 61 25 62 26 63 34 64 27 65 33 66 35 67 32 68
REMARK SMILES IDX 28 69 29 70 30 71 31 72 57 73 58 74 66 75 59 76 65 77 67 78
REMARK SMILES IDX 64 79 60 80 61 81 62 82 63 83 42 84 43 85 51 86 44 87 50 88
REMARK SMILES IDX 52 89 49 90 45 91 46 92 47 93 48 94
REMARK H PARENT 9 6 82 17 13 28 72 47 40 58
REMARK Flexibility Score: inf
ROOT
ATOM      1  C   UNL     1       0.261   0.524  -0.965  1.00  0.00     0.042 C 
ENDROOT
BRANCH   1   2
ATOM      2  C   UNL     1       1.553  -0.048  -1.531  1.00  0.00     0.117 C 
BRANCH   2   3
ATOM      3  N   UNL     1       2.713   0.620  -0.982  1.00  0.00    -0.354 N 
ATOM      4  C   UNL     1       3.610   0.218  -0.042  1.00  0.00     0.243 C 
ATOM      5  O   UNL     1       4.548   0.996   0.181  1.00  0.00    -0.273 OA
ATOM      6  H   UNL     1       2.881   1.518  -1.351  1.00  0.00     0.163 HD
BRANCH   4   7
ATOM      7  C   UNL     1       3.690  -1.232   0.474  1.00  0.00     0.187 C 
ATOM      8  C   UNL     1       2.550  -3.416   0.418  1.00  0.00     0.145 C 
ATOM      9  S   UNL     1       4.183  -3.688  -0.350  1.00  0.00    -0.134 SA
ATOM     10  N   UNL     1       2.508  -2.026   0.890  1.00  0.00    -0.300 N 
ATOM     11  C   UNL     1       4.402  -1.953  -0.681  1.00  0.00     0.107 C 
BRANCH   8  12
ATOM     12  C   UNL     1       2.339  -4.577   1.383  1.00  0.00     0.033 C 
ATOM     13  C   UNL     1       3.003  -4.480   2.748  1.00  0.00     0.007 C 
ENDBRANCH   8  12
BRANCH  10  14
ATOM     14  C   UNL     1       1.615  -1.452   1.791  1.00  0.00     0.319 C 
ATOM     15  O   UNL     1       1.713  -0.277   2.143  1.00  0.00    -0.249 OA
ATOM     16  N   UNL     1       0.732  -2.289   2.433  1.00  0.00    -0.334 N 
ATOM     17  H   UNL     1       1.124  -3.020   2.963  1.00  0.00     0.165 HD
BRANCH  16  18
ATOM     18  C   UNL     1      -0.731  -2.208   2.409  1.00  0.00     0.096 C 
ATOM     19  C   UNL     1      -1.569  -2.675   1.240  1.00  0.00    -0.007 C 
ATOM     20  C   UNL     1      -1.561  -3.508   2.558  1.00  0.00    -0.007 C 
ATOM     21  C   UNL     1      -2.804  -1.853   0.904  1.00  0.00     0.014 C 
ATOM     22  C   UNL     1      -0.835  -3.072  -0.012  1.00  0.00     0.014 C 
ATOM     23  C   UNL     1      -0.822  -4.818   2.732  1.00  0.00     0.014 C 
ATOM     24  C   UNL     1      -2.867  -3.547   3.331  1.00  0.00     0.014 C 
ENDBRANCH  16  18
ENDBRANCH  10  14
ENDBRANCH   4   7
ENDBRANCH   2   3
ENDBRANCH   1   2
BRANCH   1  25
ATOM     25  C   UNL     1       0.009   1.972  -1.374  1.00  0.00     0.118 C 
BRANCH  25  26
ATOM     26  N   UNL     1      -0.344   2.088  -2.782  1.00  0.00    -0.352 N 
ATOM     27  C   UNL     1      -1.524   2.462  -3.379  1.00  0.00     0.251 C 
ATOM     28  H   UNL     1       0.382   1.863  -3.408  1.00  0.00     0.163 HD
ATOM     29  O   UNL     1      -1.671   2.237  -4.576  1.00  0.00    -0.269 OA
BRANCH  27  30
ATOM     30  C   UNL     1      -2.611   3.109  -2.604  1.00  0.00     0.039 A 
ATOM     31  C   UNL     1      -3.937   2.849  -2.966  1.00  0.00     0.014 A 
ATOM     32  C   UNL     1      -2.350   4.009  -1.568  1.00  0.00     0.014 A 
ATOM     33  C   UNL     1      -4.986   3.448  -2.263  1.00  0.00     0.010 A 
ATOM     34  C   UNL     1      -3.395   4.525  -0.803  1.00  0.00     0.010 A 
ATOM     35  C   UNL     1      -4.728   4.266  -1.151  1.00  0.00    -0.014 A 
BRANCH  35  36
ATOM     36  C   UNL     1      -5.839   4.866  -0.361  1.00  0.00     0.031 A 
ATOM     37  C   UNL     1      -5.975   6.364  -0.252  1.00  0.00     0.074 A 
ATOM     38  C   UNL     1      -6.700   4.061   0.296  1.00  0.00     0.049 A 
ATOM     39  N   UNL     1      -6.848   7.069   0.423  1.00  0.00    -0.248 NA
ATOM     40  C   UNL     1      -4.981   7.176  -0.970  1.00  0.00     0.031 C 
ATOM     41  C   UNL     1      -6.643   2.597   0.310  1.00  0.00     0.029 A 
ATOM     42  N   UNL     1      -7.788   4.354   1.081  1.00  0.00    -0.354 N 
ATOM     43  C   UNL     1      -6.496   8.402   0.228  1.00  0.00     0.074 A 
ATOM     44  C   UNL     1      -5.295   8.402  -0.580  1.00  0.00     0.031 C 
ATOM     45  C   UNL     1      -7.667   2.122   1.036  1.00  0.00     0.029 A 
ATOM     46  C   UNL     1      -8.425   3.242   1.584  1.00  0.00     0.049 A 
ATOM     47  H   UNL     1      -8.085   5.274   1.266  1.00  0.00     0.167 HD
ATOM     48  C   UNL     1      -7.127   9.521   0.663  1.00  0.00     0.034 A 
ATOM     49  C   UNL     1      -9.489   3.134   2.404  1.00  0.00     0.034 A 
ATOM     50  C   UNL     1      -8.338   9.503   1.448  1.00  0.00     0.049 A 
ATOM     51  C   UNL     1     -10.171   4.394   2.876  1.00  0.00     0.074 A 
ATOM     52  C   UNL     1      -9.103  10.575   1.875  1.00  0.00     0.029 A 
ATOM     53  N   UNL     1      -8.956   8.358   1.935  1.00  0.00    -0.354 N 
ATOM     54  N   UNL     1      -9.866   5.646   2.620  1.00  0.00    -0.248 NA
ATOM     55  C   UNL     1     -11.350   4.226   3.735  1.00  0.00     0.031 C 
ATOM     56  C   UNL     1     -10.133  10.085   2.684  1.00  0.00     0.029 A 
ATOM     57  C   UNL     1     -10.068   8.701   2.691  1.00  0.00     0.049 A 
ATOM     58  H   UNL     1      -8.650   7.438   1.768  1.00  0.00     0.167 HD
ATOM     59  C   UNL     1     -10.834   6.411   3.266  1.00  0.00     0.074 A 
ATOM     60  C   UNL     1     -11.744   5.479   3.898  1.00  0.00     0.031 C 
ATOM     61  C   UNL     1     -10.960   7.762   3.331  1.00  0.00     0.034 A 
BRANCH  48  62
ATOM     62  C   UNL     1      -6.505  10.857   0.325  1.00  0.00     0.023 A 
ATOM     63  C   UNL     1      -6.357  11.295  -1.004  1.00  0.00     0.031 A 
ATOM     64  C   UNL     1      -6.046  11.706   1.349  1.00  0.00     0.131 A 
ATOM     65  C   UNL     1      -5.707  12.510  -1.274  1.00  0.00     0.055 A 
ATOM     66  C   UNL     1      -5.475  12.950   1.077  1.00  0.00     0.041 A 
ATOM     67  F   UNL     1      -6.140  11.335   2.636  1.00  0.00    -0.206 F 
ATOM     68  C   UNL     1      -5.289  13.353  -0.242  1.00  0.00     0.022 A 
BRANCH  65  69
ATOM     69  S   UNL     1      -5.293  12.908  -2.995  1.00  0.00     0.124 S 
ATOM     70  O   UNL     1      -4.459  11.768  -3.369  1.00  0.00    -0.237 OA
ATOM     71  O   UNL     1      -6.604  12.976  -3.627  1.00  0.00    -0.237 OA
ATOM     72  O   UNL     1      -4.583  14.182  -2.891  1.00  0.00    -0.744 OA
ENDBRANCH  65  69
ENDBRANCH  48  62
BRANCH  49  73
ATOM     73  C   UNL     1      -9.972   1.794   2.849  1.00  0.00     0.023 A 
ATOM     74  C   UNL     1     -11.258   1.337   2.518  1.00  0.00     0.031 A 
ATOM     75  C   UNL     1      -9.170   0.969   3.659  1.00  0.00     0.131 A 
ATOM     76  C   UNL     1     -11.724   0.119   3.038  1.00  0.00     0.055 A 
ATOM     77  C   UNL     1      -9.616  -0.270   4.123  1.00  0.00     0.041 A 
ATOM     78  F   UNL     1      -7.930   1.352   4.004  1.00  0.00    -0.206 F 
ATOM     79  C   UNL     1     -10.907  -0.694   3.826  1.00  0.00     0.022 A 
BRANCH  76  80
ATOM     80  S   UNL     1     -13.456  -0.341   2.754  1.00  0.00     0.124 S 
ATOM     81  O   UNL     1     -14.163   0.808   3.309  1.00  0.00    -0.237 OA
ATOM     82  O   UNL     1     -13.497  -0.481   1.302  1.00  0.00    -0.237 OA
ATOM     83  O   UNL     1     -13.604  -1.587   3.503  1.00  0.00    -0.744 OA
ENDBRANCH  76  80
ENDBRANCH  49  73
BRANCH  61  84
ATOM     84  C   UNL     1     -12.152   8.303   4.085  1.00  0.00     0.023 A 
ATOM     85  C   UNL     1     -12.305   8.103   5.468  1.00  0.00     0.031 A 
ATOM     86  C   UNL     1     -13.163   9.004   3.404  1.00  0.00     0.131 A 
ATOM     87  C   UNL     1     -13.474   8.535   6.112  1.00  0.00     0.055 A 
ATOM     88  C   UNL     1     -14.290   9.496   4.064  1.00  0.00     0.041 A 
ATOM     89  F   UNL     1     -13.074   9.221   2.082  1.00  0.00    -0.206 F 
ATOM     90  C   UNL     1     -14.458   9.247   5.423  1.00  0.00     0.022 A 
BRANCH  87  91
ATOM     91  S   UNL     1     -13.745   8.051   7.839  1.00  0.00     0.124 S 
ATOM     92  O   UNL     1     -13.671   6.595   7.760  1.00  0.00    -0.237 OA
ATOM     93  O   UNL     1     -12.638   8.708   8.526  1.00  0.00    -0.237 OA
ATOM     94  O   UNL     1     -15.069   8.589   8.143  1.00  0.00    -0.744 OA
ENDBRANCH  87  91
ENDBRANCH  61  84
ENDBRANCH  35  36
ENDBRANCH  27  30
ENDBRANCH  25  26
ENDBRANCH   1  25
TORSDOF 16
