REMARK SMILES O=C(CCNC(=O)N[C@@H]1CCOC1)NCCCNC(=O)c1ccc(-c2c3nc(c(-c4cc(S(=O)(=O)[O-])ccc4F)c4ccc([nH]4)c(-c4cc(S(=O)(=O)[O-])ccc4F)c4nc(c(-c5cc(S(=O)(=O)[O-])ccc5F)c5ccc2[nH]5)C=C4)C=C3)cc1
REMARK SMILES IDX 16 1 15 2 14 3 1 4 2 5 3 7 4 8 5 9 6 10 7 12 8 13 9 15 10 16
REMARK SMILES IDX 13 17 11 18 12 19 17 20 18 21 19 22 20 24 21 25 22 26 83 27
REMARK SMILES IDX 23 28 82 29 24 30 25 31 26 32 76 33 27 34 81 35 75 36 77 37
REMARK SMILES IDX 28 38 80 39 74 40 73 41 29 43 61 44 41 45 60 46 42 47 45 48
REMARK SMILES IDX 59 49 78 50 43 51 44 52 58 54 79 55 46 56 30 57 31 58 39 59
REMARK SMILES IDX 32 60 38 61 40 62 37 63 33 64 34 65 35 66 36 67 62 68 63 69
REMARK SMILES IDX 71 70 64 71 70 72 72 73 69 74 65 75 66 76 67 77 68 78 47 79
REMARK SMILES IDX 48 80 56 81 49 82 55 83 57 84 54 85 50 86 51 87 52 88 53 89
REMARK H PARENT 14 6 5 11 8 14 18 23 77 42 45 53
REMARK Flexibility Score: inf
ROOT
ATOM      1  C   UNL     1       2.330   3.287   1.452  1.00  0.00     0.042 C 
ENDROOT
BRANCH   1   2
ATOM      2  C   UNL     1       1.901   2.719   0.105  1.00  0.00     0.117 C 
BRANCH   2   3
ATOM      3  N   UNL     1       2.500   1.427  -0.160  1.00  0.00    -0.356 N 
ATOM      4  O   UNL     1       0.549   0.324  -0.693  1.00  0.00    -0.275 OA
ATOM      5  C   UNL     1       1.768   0.331  -0.545  1.00  0.00     0.221 C 
ATOM      6  H   UNL     1       3.474   1.330  -0.059  1.00  0.00     0.163 HD
BRANCH   5   7
ATOM      7  C   UNL     1       2.605  -0.905  -0.753  1.00  0.00     0.121 C 
BRANCH   7   8
ATOM      8  C   UNL     1       3.474  -0.798  -2.000  1.00  0.00     0.127 C 
BRANCH   8   9
ATOM      9  N   UNL     1       4.786  -0.207  -1.767  1.00  0.00    -0.338 N 
ATOM     10  C   UNL     1       6.026  -0.697  -1.620  1.00  0.00     0.315 C 
ATOM     11  H   UNL     1       4.755   0.775  -1.704  1.00  0.00     0.165 HD
ATOM     12  O   UNL     1       6.965   0.094  -1.712  1.00  0.00    -0.249 OA
ATOM     13  N   UNL     1       6.306  -1.982  -1.365  1.00  0.00    -0.333 N 
ATOM     14  H   UNL     1       7.266  -2.193  -1.423  1.00  0.00     0.165 HD
BRANCH  13  15
ATOM     15  C   UNL     1       5.478  -3.129  -1.020  1.00  0.00     0.112 C 
ATOM     16  C   UNL     1       4.942  -3.011   0.387  1.00  0.00     0.056 C 
ATOM     17  C   UNL     1       6.254  -4.447  -0.977  1.00  0.00     0.185 C 
ATOM     18  C   UNL     1       5.924  -3.787   1.228  1.00  0.00     0.162 C 
ATOM     19  O   UNL     1       6.503  -4.787   0.393  1.00  0.00    -0.379 OA
ENDBRANCH  13  15
ENDBRANCH   8   9
ENDBRANCH   7   8
ENDBRANCH   5   7
ENDBRANCH   2   3
ENDBRANCH   1   2
BRANCH   1  20
ATOM     20  C   UNL     1       3.836   3.483   1.611  1.00  0.00     0.118 C 
BRANCH  20  21
ATOM     21  N   UNL     1       4.404   4.359   0.599  1.00  0.00    -0.352 N 
ATOM     22  C   UNL     1       5.072   5.551   0.726  1.00  0.00     0.251 C 
ATOM     23  H   UNL     1       4.290   4.046  -0.328  1.00  0.00     0.163 HD
ATOM     24  O   UNL     1       5.289   6.217  -0.284  1.00  0.00    -0.269 OA
BRANCH  22  25
ATOM     25  C   UNL     1       5.504   6.047   2.052  1.00  0.00     0.039 A 
ATOM     26  C   UNL     1       5.405   7.415   2.318  1.00  0.00     0.014 A 
ATOM     27  C   UNL     1       6.036   5.191   3.020  1.00  0.00     0.014 A 
ATOM     28  C   UNL     1       5.787   7.912   3.566  1.00  0.00     0.010 A 
ATOM     29  C   UNL     1       6.332   5.673   4.294  1.00  0.00     0.010 A 
ATOM     30  C   UNL     1       6.223   7.042   4.579  1.00  0.00    -0.014 A 
BRANCH  30  31
ATOM     31  C   UNL     1       6.585   7.562   5.926  1.00  0.00     0.031 A 
ATOM     32  C   UNL     1       7.991   7.417   6.447  1.00  0.00     0.074 A 
ATOM     33  C   UNL     1       5.639   8.141   6.694  1.00  0.00     0.049 A 
ATOM     34  N   UNL     1       8.491   7.789   7.598  1.00  0.00    -0.248 NA
ATOM     35  C   UNL     1       8.955   6.739   5.567  1.00  0.00     0.031 C 
ATOM     36  C   UNL     1       4.232   8.303   6.320  1.00  0.00     0.029 A 
ATOM     37  N   UNL     1       5.714   8.705   7.943  1.00  0.00    -0.354 N 
ATOM     38  C   UNL     1       9.823   7.386   7.583  1.00  0.00     0.074 A 
ATOM     39  C   UNL     1      10.030   6.677   6.339  1.00  0.00     0.031 C 
ATOM     40  C   UNL     1       3.588   8.958   7.299  1.00  0.00     0.029 A 
ATOM     41  C   UNL     1       4.520   9.221   8.391  1.00  0.00     0.049 A 
ATOM     42  H   UNL     1       6.546   8.737   8.470  1.00  0.00     0.167 HD
ATOM     43  C   UNL     1      10.791   7.611   8.508  1.00  0.00     0.034 A 
ATOM     44  C   UNL     1       4.207   9.832   9.551  1.00  0.00     0.034 A 
ATOM     45  C   UNL     1      10.570   8.325   9.743  1.00  0.00     0.049 A 
ATOM     46  C   UNL     1       5.295  10.049  10.574  1.00  0.00     0.074 A 
ATOM     47  C   UNL     1      11.486   8.644  10.730  1.00  0.00     0.029 A 
ATOM     48  N   UNL     1       9.345   8.827  10.166  1.00  0.00    -0.354 N 
ATOM     49  N   UNL     1       6.561   9.704  10.523  1.00  0.00    -0.248 NA
ATOM     50  C   UNL     1       4.912  10.755  11.803  1.00  0.00     0.031 C 
ATOM     51  C   UNL     1      10.803   9.266  11.781  1.00  0.00     0.029 A 
ATOM     52  C   UNL     1       9.477   9.424  11.412  1.00  0.00     0.049 A 
ATOM     53  H   UNL     1       8.505   8.768   9.656  1.00  0.00     0.167 HD
ATOM     54  C   UNL     1       7.133  10.188  11.697  1.00  0.00     0.074 A 
ATOM     55  C   UNL     1       6.077  10.864  12.422  1.00  0.00     0.031 C 
ATOM     56  C   UNL     1       8.415  10.087  12.134  1.00  0.00     0.034 A 
BRANCH  43  57
ATOM     57  C   UNL     1      12.167   7.051   8.225  1.00  0.00     0.023 A 
ATOM     58  C   UNL     1      12.916   7.456   7.105  1.00  0.00     0.031 A 
ATOM     59  C   UNL     1      12.731   6.079   9.071  1.00  0.00     0.131 A 
ATOM     60  C   UNL     1      14.142   6.838   6.818  1.00  0.00     0.055 A 
ATOM     61  C   UNL     1      13.993   5.532   8.829  1.00  0.00     0.041 A 
ATOM     62  F   UNL     1      12.058   5.633  10.143  1.00  0.00    -0.206 F 
ATOM     63  C   UNL     1      14.700   5.899   7.688  1.00  0.00     0.022 A 
BRANCH  60  64
ATOM     64  S   UNL     1      14.922   7.164   5.213  1.00  0.00     0.124 S 
ATOM     65  O   UNL     1      13.876   6.740   4.285  1.00  0.00    -0.237 OA
ATOM     66  O   UNL     1      15.181   8.598   5.273  1.00  0.00    -0.237 OA
ATOM     67  O   UNL     1      16.111   6.314   5.230  1.00  0.00    -0.744 OA
ENDBRANCH  60  64
ENDBRANCH  43  57
BRANCH  44  68
ATOM     68  C   UNL     1       2.810  10.285   9.818  1.00  0.00     0.023 A 
ATOM     69  C   UNL     1       2.510  11.644  10.004  1.00  0.00     0.031 A 
ATOM     70  C   UNL     1       1.761   9.357   9.946  1.00  0.00     0.131 A 
ATOM     71  C   UNL     1       1.209  12.032  10.361  1.00  0.00     0.055 A 
ATOM     72  C   UNL     1       0.455   9.753  10.240  1.00  0.00     0.041 A 
ATOM     73  F   UNL     1       1.990   8.045   9.776  1.00  0.00    -0.206 F 
ATOM     74  C   UNL     1       0.176  11.098  10.465  1.00  0.00     0.022 A 
BRANCH  71  75
ATOM     75  S   UNL     1       0.906  13.769  10.788  1.00  0.00     0.124 S 
ATOM     76  O   UNL     1       1.848  13.973  11.883  1.00  0.00    -0.237 OA
ATOM     77  O   UNL     1       1.220  14.448   9.535  1.00  0.00    -0.237 OA
ATOM     78  O   UNL     1      -0.505  13.785  11.167  1.00  0.00    -0.744 OA
ENDBRANCH  71  75
ENDBRANCH  44  68
BRANCH  56  79
ATOM     79  C   UNL     1       8.751  10.777  13.438  1.00  0.00     0.023 A 
ATOM     80  C   UNL     1       8.158  10.398  14.655  1.00  0.00     0.031 A 
ATOM     81  C   UNL     1       9.649  11.860  13.452  1.00  0.00     0.131 A 
ATOM     82  C   UNL     1       8.404  11.148  15.816  1.00  0.00     0.055 A 
ATOM     83  C   UNL     1       9.950  12.552  14.627  1.00  0.00     0.041 A 
ATOM     84  F   UNL     1      10.245  12.271  12.321  1.00  0.00    -0.206 F 
ATOM     85  C   UNL     1       9.310  12.210  15.814  1.00  0.00     0.022 A 
BRANCH  82  86
ATOM     86  S   UNL     1       7.413  10.804  17.297  1.00  0.00     0.124 S 
ATOM     87  O   UNL     1       6.052  10.943  16.791  1.00  0.00    -0.237 OA
ATOM     88  O   UNL     1       7.830   9.448  17.642  1.00  0.00    -0.237 OA
ATOM     89  O   UNL     1       7.834  11.840  18.239  1.00  0.00    -0.744 OA
ENDBRANCH  82  86
ENDBRANCH  56  79
ENDBRANCH  30  31
ENDBRANCH  22  25
ENDBRANCH  20  21
ENDBRANCH   1  20
TORSDOF 16
