REMARK SMILES CCC(=O)Nc1ccc(NC(=O)[C@@H]2CC=CC[C@@H]2C(=O)NCCCNC(=O)c2ccc(-c3c4nc(c(-c5cc(S(=O)(=O)[O-])ccc5F)c5ccc([nH]5)c(-c5cc(S(=O)(=O)[O-])ccc5F)c5nc(c(-c6cc(S(=O)(=O)[O-])ccc6F)c6ccc3[nH]6)C=C5)C=C4)cc2)cc1
REMARK SMILES IDX 22 1 21 2 19 3 20 4 18 6 13 7 14 8 15 9 17 10 16 11 11 12
REMARK SMILES IDX 10 13 12 15 9 16 6 17 7 18 92 19 8 20 91 21 5 22 3 23 4 24
REMARK SMILES IDX 2 26 1 27 23 28 24 29 25 30 26 31 27 33 28 34 29 35 90 36
REMARK SMILES IDX 30 37 89 38 31 39 32 40 33 41 83 42 34 43 88 44 82 45 84 46
REMARK SMILES IDX 35 47 87 48 81 49 80 50 36 52 68 53 48 54 67 55 49 56 52 57
REMARK SMILES IDX 66 58 85 59 50 60 51 61 65 63 86 64 53 65 37 66 38 67 46 68
REMARK SMILES IDX 39 69 45 70 47 71 44 72 40 73 41 74 42 75 43 76 69 77 70 78
REMARK SMILES IDX 78 79 71 80 77 81 79 82 76 83 72 84 73 85 74 86 75 87 54 88
REMARK SMILES IDX 55 89 63 90 56 91 62 92 64 93 61 94 57 95 58 96 59 97 60 98
REMARK H PARENT 21 5 10 14 5 25 25 32 84 51 52 62
REMARK Flexibility Score: inf
ROOT
ATOM      1  C   UNL     1       9.835  -4.308   0.978  1.00  0.00     0.117 C 
ENDROOT
BRANCH   1   2
ATOM      2  N   UNL     1       9.014  -3.665   1.967  1.00  0.00    -0.356 N 
ATOM      3  C   UNL     1       8.049  -2.725   1.798  1.00  0.00     0.224 C 
ATOM      4  O   UNL     1       7.325  -2.505   2.776  1.00  0.00    -0.275 OA
ATOM      5  H   UNL     1       9.174  -3.945   2.897  1.00  0.00     0.163 HD
BRANCH   3   6
ATOM      6  C   UNL     1       7.905  -1.870   0.533  1.00  0.00     0.095 C 
ATOM      7  C   UNL     1       7.525  -2.513  -0.831  1.00  0.00     0.095 C 
ATOM      8  C   UNL     1       8.666  -2.734  -1.823  1.00  0.00     0.041 C 
ATOM      9  C   UNL     1       9.820  -1.784  -1.692  1.00  0.00    -0.030 C 
ATOM     10  C   UNL     1       9.021  -0.812   0.471  1.00  0.00     0.041 C 
ATOM     11  C   UNL     1       9.982  -0.941  -0.666  1.00  0.00    -0.030 C 
BRANCH   7  12
ATOM     12  C   UNL     1       6.410  -3.555  -0.655  1.00  0.00     0.228 C 
ATOM     13  N   UNL     1       6.535  -4.895  -0.505  1.00  0.00    -0.326 N 
ATOM     14  H   UNL     1       5.784  -5.267   0.012  1.00  0.00     0.169 HD
ATOM     15  O   UNL     1       5.266  -3.122  -0.432  1.00  0.00    -0.274 OA
BRANCH  13  16
ATOM     16  C   UNL     1       7.434  -5.897  -0.882  1.00  0.00     0.041 A 
ATOM     17  C   UNL     1       9.276  -7.955  -1.376  1.00  0.00     0.041 A 
ATOM     18  C   UNL     1       9.084  -6.947  -2.321  1.00  0.00     0.028 A 
ATOM     19  C   UNL     1       8.503  -7.976  -0.221  1.00  0.00     0.028 A 
ATOM     20  C   UNL     1       8.158  -5.920  -2.072  1.00  0.00     0.028 A 
ATOM     21  C   UNL     1       7.546  -6.986  -0.005  1.00  0.00     0.028 A 
BRANCH  17  22
ATOM     22  N   UNL     1      10.284  -8.914  -1.506  1.00  0.00    -0.326 N 
ATOM     23  C   UNL     1      10.442  -9.841  -2.498  1.00  0.00     0.224 C 
ATOM     24  O   UNL     1      11.464 -10.525  -2.555  1.00  0.00    -0.275 OA
ATOM     25  H   UNL     1      10.964  -8.923  -0.794  1.00  0.00     0.169 HD
BRANCH  23  26
ATOM     26  C   UNL     1       9.277 -10.112  -3.430  1.00  0.00     0.097 C 
ATOM     27  C   UNL     1       8.118 -10.748  -2.670  1.00  0.00     0.014 C 
ENDBRANCH  23  26
ENDBRANCH  17  22
ENDBRANCH  13  16
ENDBRANCH   7  12
ENDBRANCH   3   6
ENDBRANCH   1   2
BRANCH   1  28
ATOM     28  C   UNL     1      11.294  -4.466   1.332  1.00  0.00     0.042 C 
BRANCH  28  29
ATOM     29  C   UNL     1      11.548  -5.523   2.394  1.00  0.00     0.118 C 
BRANCH  29  30
ATOM     30  N   UNL     1      11.153  -6.868   1.974  1.00  0.00    -0.352 N 
ATOM     31  C   UNL     1      11.910  -7.963   1.628  1.00  0.00     0.251 C 
ATOM     32  H   UNL     1      10.180  -7.013   1.932  1.00  0.00     0.163 HD
ATOM     33  O   UNL     1      11.365  -8.931   1.097  1.00  0.00    -0.269 OA
BRANCH  31  34
ATOM     34  C   UNL     1      13.369  -7.963   1.848  1.00  0.00     0.039 A 
ATOM     35  C   UNL     1      14.213  -8.525   0.885  1.00  0.00     0.014 A 
ATOM     36  C   UNL     1      13.907  -7.394   3.001  1.00  0.00     0.014 A 
ATOM     37  C   UNL     1      15.599  -8.420   1.035  1.00  0.00     0.010 A 
ATOM     38  C   UNL     1      15.273  -7.183   3.088  1.00  0.00     0.010 A 
ATOM     39  C   UNL     1      16.137  -7.700   2.111  1.00  0.00    -0.014 A 
BRANCH  39  40
ATOM     40  C   UNL     1      17.597  -7.498   2.296  1.00  0.00     0.031 A 
ATOM     41  C   UNL     1      18.241  -7.984   3.566  1.00  0.00     0.074 A 
ATOM     42  C   UNL     1      18.303  -6.779   1.402  1.00  0.00     0.049 A 
ATOM     43  N   UNL     1      19.415  -7.703   4.065  1.00  0.00    -0.248 NA
ATOM     44  C   UNL     1      17.417  -8.859   4.416  1.00  0.00     0.031 C 
ATOM     45  C   UNL     1      17.782  -6.232   0.147  1.00  0.00     0.029 A 
ATOM     46  N   UNL     1      19.610  -6.362   1.426  1.00  0.00    -0.354 N 
ATOM     47  C   UNL     1      19.452  -8.328   5.308  1.00  0.00     0.074 A 
ATOM     48  C   UNL     1      18.157  -8.940   5.510  1.00  0.00     0.031 C 
ATOM     49  C   UNL     1      18.765  -5.571  -0.487  1.00  0.00     0.029 A 
ATOM     50  C   UNL     1      19.965  -5.593   0.342  1.00  0.00     0.049 A 
ATOM     51  H   UNL     1      20.234  -6.591   2.151  1.00  0.00     0.167 HD
ATOM     52  C   UNL     1      20.481  -8.404   6.188  1.00  0.00     0.034 A 
ATOM     53  C   UNL     1      21.122  -4.961   0.063  1.00  0.00     0.034 A 
ATOM     54  C   UNL     1      21.776  -7.821   5.942  1.00  0.00     0.049 A 
ATOM     55  C   UNL     1      22.256  -5.057   1.052  1.00  0.00     0.074 A 
ATOM     56  C   UNL     1      22.912  -7.872   6.729  1.00  0.00     0.029 A 
ATOM     57  N   UNL     1      22.110  -7.085   4.811  1.00  0.00    -0.354 N 
ATOM     58  N   UNL     1      22.285  -5.658   2.220  1.00  0.00    -0.248 NA
ATOM     59  C   UNL     1      23.515  -4.396   0.685  1.00  0.00     0.031 C 
ATOM     60  C   UNL     1      23.915  -7.127   6.100  1.00  0.00     0.029 A 
ATOM     61  C   UNL     1      23.428  -6.666   4.887  1.00  0.00     0.049 A 
ATOM     62  H   UNL     1      21.498  -6.889   4.064  1.00  0.00     0.167 HD
ATOM     63  C   UNL     1      23.576  -5.479   2.707  1.00  0.00     0.074 A 
ATOM     64  C   UNL     1      24.295  -4.716   1.707  1.00  0.00     0.031 C 
ATOM     65  C   UNL     1      24.123  -5.912   3.871  1.00  0.00     0.034 A 
BRANCH  52  66
ATOM     66  C   UNL     1      20.225  -9.123   7.492  1.00  0.00     0.023 A 
ATOM     67  C   UNL     1      19.854 -10.479   7.525  1.00  0.00     0.031 A 
ATOM     68  C   UNL     1      20.290  -8.432   8.714  1.00  0.00     0.131 A 
ATOM     69  C   UNL     1      19.460 -11.069   8.735  1.00  0.00     0.055 A 
ATOM     70  C   UNL     1      19.991  -9.054   9.929  1.00  0.00     0.041 A 
ATOM     71  F   UNL     1      20.618  -7.130   8.749  1.00  0.00    -0.206 F 
ATOM     72  C   UNL     1      19.552 -10.375   9.942  1.00  0.00     0.022 A 
BRANCH  69  73
ATOM     73  S   UNL     1      18.657 -12.695   8.678  1.00  0.00     0.124 S 
ATOM     74  O   UNL     1      17.496 -12.418   7.834  1.00  0.00    -0.237 OA
ATOM     75  O   UNL     1      19.690 -13.537   8.087  1.00  0.00    -0.237 OA
ATOM     76  O   UNL     1      18.348 -12.973  10.078  1.00  0.00    -0.744 OA
ENDBRANCH  69  73
ENDBRANCH  52  66
BRANCH  53  77
ATOM     77  C   UNL     1      21.273  -4.180  -1.198  1.00  0.00     0.023 A 
ATOM     78  C   UNL     1      22.175  -4.593  -2.191  1.00  0.00     0.031 A 
ATOM     79  C   UNL     1      20.545  -2.998  -1.417  1.00  0.00     0.131 A 
ATOM     80  C   UNL     1      22.361  -3.806  -3.339  1.00  0.00     0.055 A 
ATOM     81  C   UNL     1      20.697  -2.244  -2.584  1.00  0.00     0.041 A 
ATOM     82  F   UNL     1      19.663  -2.563  -0.504  1.00  0.00    -0.206 F 
ATOM     83  C   UNL     1      21.619  -2.642  -3.547  1.00  0.00     0.022 A 
BRANCH  80  84
ATOM     84  S   UNL     1      23.646  -4.291  -4.523  1.00  0.00     0.124 S 
ATOM     85  O   UNL     1      24.840  -4.281  -3.685  1.00  0.00    -0.237 OA
ATOM     86  O   UNL     1      23.178  -5.602  -4.958  1.00  0.00    -0.237 OA
ATOM     87  O   UNL     1      23.586  -3.241  -5.538  1.00  0.00    -0.744 OA
ENDBRANCH  80  84
ENDBRANCH  53  77
BRANCH  65  88
ATOM     88  C   UNL     1      25.587  -5.629   4.088  1.00  0.00     0.023 A 
ATOM     89  C   UNL     1      26.066  -4.330   4.326  1.00  0.00     0.031 A 
ATOM     90  C   UNL     1      26.514  -6.688   4.067  1.00  0.00     0.131 A 
ATOM     91  C   UNL     1      27.442  -4.117   4.495  1.00  0.00     0.055 A 
ATOM     92  C   UNL     1      27.874  -6.476   4.287  1.00  0.00     0.041 A 
ATOM     93  F   UNL     1      26.106  -7.947   3.844  1.00  0.00    -0.206 F 
ATOM     94  C   UNL     1      28.347  -5.183   4.493  1.00  0.00     0.022 A 
BRANCH  91  95
ATOM     95  S   UNL     1      28.047  -2.415   4.654  1.00  0.00     0.124 S 
ATOM     96  O   UNL     1      27.625  -1.823   3.389  1.00  0.00    -0.237 OA
ATOM     97  O   UNL     1      27.345  -1.943   5.843  1.00  0.00    -0.237 OA
ATOM     98  O   UNL     1      29.491  -2.577   4.812  1.00  0.00    -0.744 OA
ENDBRANCH  91  95
ENDBRANCH  65  88
ENDBRANCH  39  40
ENDBRANCH  31  34
ENDBRANCH  29  30
ENDBRANCH  28  29
ENDBRANCH   1  28
TORSDOF 17
