REMARK SMILES O=C(NCCCNC(=O)[C@H]1[C@H]2CC[C@H](CC2)[C@@H]1C(=O)Nc1ccc(Cc2ccncc2)cc1)c1ccc(-c2c3nc(c(-c4cc(S(=O)(=O)[O-])ccc4F)c4ccc([nH]4)c(-c4cc(S(=O)(=O)[O-])ccc4F)c4nc(c(-c5cc(S(=O)(=O)[O-])ccc5F)c5ccc2[nH]5)C=C4)C=C3)cc1
REMARK SMILES IDX 5 1 4 2 3 3 1 4 2 5 34 7 35 8 96 9 36 10 95 11 37 12 38 13
REMARK SMILES IDX 39 14 89 15 40 16 94 17 88 18 90 19 41 20 93 21 87 22 86 23
REMARK SMILES IDX 42 25 74 26 54 27 73 28 55 29 58 30 72 31 91 32 56 33 57 34
REMARK SMILES IDX 71 36 92 37 59 38 43 39 44 40 52 41 45 42 51 43 53 44 50 45
REMARK SMILES IDX 46 46 47 47 48 48 49 49 75 50 76 51 84 52 77 53 83 54 85 55
REMARK SMILES IDX 82 56 78 57 79 58 80 59 81 60 60 61 61 62 69 63 62 64 68 65
REMARK SMILES IDX 70 66 67 67 63 68 64 69 65 70 66 71 6 72 7 73 8 74 9 76
REMARK SMILES IDX 10 77 11 78 17 79 12 80 16 81 14 82 13 83 15 84 18 85 19 86
REMARK SMILES IDX 20 87 21 89 22 90 33 91 23 92 32 93 24 94 25 95 26 96 27 97
REMARK SMILES IDX 31 98 28 99 30 100 29 101
REMARK H PARENT 3 6 90 24 58 35 7 75 20 88
REMARK Flexibility Score: inf
ROOT
ATOM      1  C   UNL     1       4.526  -2.426   0.231  1.00  0.00     0.042 C 
ENDROOT
BRANCH   1   2
ATOM      2  C   UNL     1       4.261  -1.130  -0.521  1.00  0.00     0.118 C 
BRANCH   2   3
ATOM      3  N   UNL     1       2.847  -0.792  -0.600  1.00  0.00    -0.352 N 
ATOM      4  O   UNL     1       0.926   0.248  -0.054  1.00  0.00    -0.269 OA
ATOM      5  C   UNL     1       2.147   0.229   0.007  1.00  0.00     0.251 C 
ATOM      6  H   UNL     1       2.309  -1.383  -1.175  1.00  0.00     0.163 HD
BRANCH   5   7
ATOM      7  C   UNL     1       2.875   1.286   0.748  1.00  0.00     0.039 A 
ATOM      8  C   UNL     1       4.013   1.877   0.204  1.00  0.00     0.014 A 
ATOM      9  C   UNL     1       2.414   1.692   2.003  1.00  0.00     0.014 A 
ATOM     10  C   UNL     1       4.792   2.721   0.988  1.00  0.00     0.010 A 
ATOM     11  C   UNL     1       3.147   2.627   2.747  1.00  0.00     0.010 A 
ATOM     12  C   UNL     1       4.374   3.114   2.269  1.00  0.00    -0.014 A 
BRANCH  12  13
ATOM     13  C   UNL     1       5.237   4.029   3.073  1.00  0.00     0.031 A 
ATOM     14  C   UNL     1       5.789   3.600   4.411  1.00  0.00     0.074 A 
ATOM     15  C   UNL     1       5.572   5.236   2.572  1.00  0.00     0.049 A 
ATOM     16  N   UNL     1       6.549   4.265   5.245  1.00  0.00    -0.248 NA
ATOM     17  C   UNL     1       5.430   2.253   4.877  1.00  0.00     0.031 C 
ATOM     18  C   UNL     1       5.118   5.769   1.285  1.00  0.00     0.029 A 
ATOM     19  N   UNL     1       6.388   6.223   3.065  1.00  0.00    -0.354 N 
ATOM     20  C   UNL     1       6.734   3.434   6.346  1.00  0.00     0.074 A 
ATOM     21  C   UNL     1       5.976   2.229   6.084  1.00  0.00     0.031 C 
ATOM     22  C   UNL     1       5.711   6.951   1.063  1.00  0.00     0.029 A 
ATOM     23  C   UNL     1       6.516   7.306   2.225  1.00  0.00     0.049 A 
ATOM     24  H   UNL     1       6.840   6.162   3.938  1.00  0.00     0.167 HD
ATOM     25  C   UNL     1       7.471   3.653   7.467  1.00  0.00     0.034 A 
ATOM     26  C   UNL     1       7.183   8.467   2.377  1.00  0.00     0.034 A 
ATOM     27  C   UNL     1       8.239   4.853   7.707  1.00  0.00     0.049 A 
ATOM     28  C   UNL     1       7.956   8.703   3.648  1.00  0.00     0.074 A 
ATOM     29  C   UNL     1       9.040   5.160   8.795  1.00  0.00     0.029 A 
ATOM     30  N   UNL     1       8.301   5.948   6.854  1.00  0.00    -0.354 N 
ATOM     31  N   UNL     1       8.111   7.907   4.681  1.00  0.00    -0.248 NA
ATOM     32  C   UNL     1       8.643   9.994   3.771  1.00  0.00     0.031 C 
ATOM     33  C   UNL     1       9.524   6.464   8.635  1.00  0.00     0.029 A 
ATOM     34  C   UNL     1       9.098   6.942   7.407  1.00  0.00     0.049 A 
ATOM     35  H   UNL     1       7.846   6.011   5.983  1.00  0.00     0.167 HD
ATOM     36  C   UNL     1       8.946   8.591   5.561  1.00  0.00     0.074 A 
ATOM     37  C   UNL     1       9.267   9.855   4.930  1.00  0.00     0.031 C 
ATOM     38  C   UNL     1       9.409   8.205   6.777  1.00  0.00     0.034 A 
BRANCH  25  39
ATOM     39  C   UNL     1       7.432   2.591   8.544  1.00  0.00     0.023 A 
ATOM     40  C   UNL     1       7.913   1.287   8.329  1.00  0.00     0.031 A 
ATOM     41  C   UNL     1       6.877   2.883   9.804  1.00  0.00     0.131 A 
ATOM     42  C   UNL     1       7.755   0.308   9.322  1.00  0.00     0.055 A 
ATOM     43  C   UNL     1       6.803   1.927  10.820  1.00  0.00     0.041 A 
ATOM     44  F   UNL     1       6.381   4.103  10.066  1.00  0.00    -0.206 F 
ATOM     45  C   UNL     1       7.228   0.625  10.576  1.00  0.00     0.022 A 
BRANCH  42  46
ATOM     46  S   UNL     1       8.098  -1.423   8.897  1.00  0.00     0.124 S 
ATOM     47  O   UNL     1       7.218  -1.625   7.747  1.00  0.00    -0.237 OA
ATOM     48  O   UNL     1       9.527  -1.400   8.610  1.00  0.00    -0.237 OA
ATOM     49  O   UNL     1       7.713  -2.156  10.101  1.00  0.00    -0.744 OA
ENDBRANCH  42  46
ENDBRANCH  25  39
BRANCH  26  50
ATOM     50  C   UNL     1       7.125   9.514   1.316  1.00  0.00     0.023 A 
ATOM     51  C   UNL     1       8.283   9.926   0.638  1.00  0.00     0.031 A 
ATOM     52  C   UNL     1       5.911  10.150   0.995  1.00  0.00     0.131 A 
ATOM     53  C   UNL     1       8.211  10.974  -0.293  1.00  0.00     0.055 A 
ATOM     54  C   UNL     1       5.835  11.149   0.025  1.00  0.00     0.041 A 
ATOM     55  F   UNL     1       4.774   9.795   1.613  1.00  0.00    -0.206 F 
ATOM     56  C   UNL     1       6.994  11.577  -0.616  1.00  0.00     0.022 A 
BRANCH  53  57
ATOM     57  S   UNL     1       9.752  11.605  -1.012  1.00  0.00     0.124 S 
ATOM     58  O   UNL     1      10.493  12.006   0.178  1.00  0.00    -0.237 OA
ATOM     59  O   UNL     1      10.259  10.435  -1.721  1.00  0.00    -0.237 OA
ATOM     60  O   UNL     1       9.304  12.702  -1.867  1.00  0.00    -0.744 OA
ENDBRANCH  53  57
ENDBRANCH  26  50
BRANCH  38  61
ATOM     61  C   UNL     1      10.367   9.143   7.474  1.00  0.00     0.023 A 
ATOM     62  C   UNL     1       9.974  10.420   7.915  1.00  0.00     0.031 A 
ATOM     63  C   UNL     1      11.708   8.764   7.666  1.00  0.00     0.131 A 
ATOM     64  C   UNL     1      10.925  11.295   8.462  1.00  0.00     0.055 A 
ATOM     65  C   UNL     1      12.634   9.614   8.271  1.00  0.00     0.041 A 
ATOM     66  F   UNL     1      12.142   7.559   7.262  1.00  0.00    -0.206 F 
ATOM     67  C   UNL     1      12.249  10.894   8.657  1.00  0.00     0.022 A 
BRANCH  64  68
ATOM     68  S   UNL     1      10.438  13.008   8.808  1.00  0.00     0.124 S 
ATOM     69  O   UNL     1       9.947  13.454   7.508  1.00  0.00    -0.237 OA
ATOM     70  O   UNL     1       9.427  12.840   9.847  1.00  0.00    -0.237 OA
ATOM     71  O   UNL     1      11.681  13.637   9.250  1.00  0.00    -0.744 OA
ENDBRANCH  64  68
ENDBRANCH  38  61
ENDBRANCH  12  13
ENDBRANCH   5   7
ENDBRANCH   2   3
ENDBRANCH   1   2
BRANCH   1  72
ATOM     72  C   UNL     1       4.074  -3.689  -0.487  1.00  0.00     0.117 C 
BRANCH  72  73
ATOM     73  N   UNL     1       4.562  -3.785  -1.853  1.00  0.00    -0.356 N 
ATOM     74  C   UNL     1       5.336  -4.728  -2.460  1.00  0.00     0.224 C 
ATOM     75  H   UNL     1       4.287  -3.043  -2.439  1.00  0.00     0.163 HD
ATOM     76  O   UNL     1       5.534  -4.598  -3.669  1.00  0.00    -0.275 OA
BRANCH  74  77
ATOM     77  C   UNL     1       5.870  -5.915  -1.652  1.00  0.00     0.094 C 
ATOM     78  C   UNL     1       4.681  -6.869  -1.331  1.00  0.00     0.002 C 
ATOM     79  C   UNL     1       6.982  -6.686  -2.421  1.00  0.00     0.094 C 
ATOM     80  C   UNL     1       4.099  -7.465  -2.625  1.00  0.00     0.005 C 
ATOM     81  C   UNL     1       5.218  -8.008  -0.456  1.00  0.00     0.005 C 
ATOM     82  C   UNL     1       6.512  -8.169  -2.615  1.00  0.00     0.002 C 
ATOM     83  C   UNL     1       5.202  -8.161  -3.427  1.00  0.00     0.005 C 
ATOM     84  C   UNL     1       6.208  -8.848  -1.260  1.00  0.00     0.005 C 
BRANCH  79  85
ATOM     85  C   UNL     1       8.409  -6.655  -1.824  1.00  0.00     0.228 C 
ATOM     86  O   UNL     1       8.951  -7.681  -1.397  1.00  0.00    -0.274 OA
ATOM     87  N   UNL     1       9.216  -5.557  -1.936  1.00  0.00    -0.326 N 
ATOM     88  H   UNL     1      10.172  -5.736  -1.788  1.00  0.00     0.169 HD
BRANCH  87  89
ATOM     89  C   UNL     1       8.916  -4.227  -2.226  1.00  0.00     0.041 A 
ATOM     90  C   UNL     1       9.625  -3.580  -3.237  1.00  0.00     0.026 A 
ATOM     91  C   UNL     1       8.048  -3.493  -1.427  1.00  0.00     0.026 A 
ATOM     92  C   UNL     1       9.327  -2.253  -3.563  1.00  0.00     0.006 A 
ATOM     93  C   UNL     1       7.771  -2.160  -1.734  1.00  0.00     0.006 A 
ATOM     94  C   UNL     1       8.359  -1.545  -2.842  1.00  0.00    -0.043 A 
BRANCH  94  95
ATOM     95  C   UNL     1       7.951  -0.146  -3.236  1.00  0.00     0.071 C 
BRANCH  95  96
ATOM     96  C   UNL     1       8.595   0.945  -2.422  1.00  0.00    -0.041 A 
ATOM     97  C   UNL     1       9.956   1.227  -2.564  1.00  0.00     0.024 A 
ATOM     98  C   UNL     1       7.850   1.710  -1.519  1.00  0.00     0.024 A 
ATOM     99  C   UNL     1      10.507   2.249  -1.809  1.00  0.00     0.111 A 
ATOM    100  C   UNL     1       8.492   2.714  -0.810  1.00  0.00     0.111 A 
ATOM    101  N   UNL     1       9.802   2.997  -0.939  1.00  0.00    -0.265 NA
ENDBRANCH  95  96
ENDBRANCH  94  95
ENDBRANCH  87  89
ENDBRANCH  79  85
ENDBRANCH  74  77
ENDBRANCH  72  73
ENDBRANCH   1  72
TORSDOF 17
