REMARK SMILES CCOc1ccc(-c2cc(Cl)cc3c2O[C@H](C(F)(F)F)C(C(=O)NCCCNC(=O)c2ccc(-c4c5nc(c(-c6cc(S(=O)(=O)[O-])ccc6F)c6ccc([nH]6)c(-c6cc(S(=O)(=O)[O-])ccc6F)c6nc(c(-c7cc(S(=O)(=O)[O-])ccc7F)c7ccc4[nH]7)C=C6)C=C5)cc2)=C3)cc1
REMARK SMILES IDX 26 1 25 2 24 3 22 4 23 5 21 7 8 8 9 9 14 10 10 11 13 12
REMARK SMILES IDX 15 13 11 14 12 15 94 16 16 17 7 18 4 19 5 20 96 21 6 22
REMARK SMILES IDX 95 23 3 24 2 25 1 26 17 27 18 28 19 29 20 30 27 31 28 32
REMARK SMILES IDX 29 33 30 35 31 36 32 37 93 38 33 39 92 40 34 41 35 42 36 43
REMARK SMILES IDX 86 44 37 45 91 46 85 47 87 48 38 49 90 50 84 51 83 52 39 54
REMARK SMILES IDX 71 55 51 56 70 57 52 58 55 59 69 60 88 61 53 62 54 63 68 65
REMARK SMILES IDX 89 66 56 67 40 68 41 69 49 70 42 71 48 72 50 73 47 74 43 75
REMARK SMILES IDX 44 76 45 77 46 78 72 79 73 80 81 81 74 82 80 83 82 84 79 85
REMARK SMILES IDX 75 86 76 87 77 88 78 89 57 90 58 91 66 92 59 93 65 94 67 95
REMARK SMILES IDX 64 96 60 97 61 98 62 99 63 100
REMARK H PARENT 24 6 28 34 87 53 55 64
REMARK Flexibility Score: inf
ROOT
ATOM      1  C   UNL     1      13.797   6.371  -3.471  1.00  0.00     0.042 C 
ENDROOT
BRANCH   1   2
ATOM      2  C   UNL     1      13.255   5.005  -3.045  1.00  0.00     0.118 C 
BRANCH   2   3
ATOM      3  N   UNL     1      12.569   5.116  -1.773  1.00  0.00    -0.352 N 
ATOM      4  C   UNL     1      11.252   4.891  -1.540  1.00  0.00     0.251 C 
ATOM      5  O   UNL     1      10.630   5.621  -0.777  1.00  0.00    -0.270 OA
ATOM      6  H   UNL     1      13.115   5.383  -0.999  1.00  0.00     0.163 HD
BRANCH   4   7
ATOM      7  C   UNL     1      10.663   3.651  -2.126  1.00  0.00     0.067 C 
ATOM      8  C   UNL     1       7.073   3.646  -0.202  1.00  0.00     0.026 A 
ATOM      9  C   UNL     1       7.316   3.921   1.167  1.00  0.00     0.033 A 
ATOM     10  C   UNL     1       8.196   3.324  -0.984  1.00  0.00     0.135 A 
ATOM     11  C   UNL     1       8.562   3.721   1.758  1.00  0.00     0.042 A 
ATOM     12  C   UNL     1       9.423   3.016  -0.347  1.00  0.00     0.019 A 
ATOM     13  O   UNL     1       8.173   3.325  -2.371  1.00  0.00    -0.475 OA
ATOM     14  Cl  UNL     1       8.781   4.081   3.425  1.00  0.00    -0.084 Cl
ATOM     15  C   UNL     1       9.608   3.200   1.019  1.00  0.00     0.032 A 
ATOM     16  C   UNL     1      10.574   2.666  -1.210  1.00  0.00     0.025 C 
ATOM     17  C   UNL     1       9.418   3.883  -2.976  1.00  0.00     0.314 C 
BRANCH   8  18
ATOM     18  C   UNL     1       5.646   3.503  -0.582  1.00  0.00    -0.014 A 
ATOM     19  C   UNL     1       2.910   2.801  -0.382  1.00  0.00     0.119 A 
ATOM     20  C   UNL     1       3.324   4.090  -0.059  1.00  0.00     0.047 A 
ATOM     21  C   UNL     1       3.825   1.905  -0.925  1.00  0.00     0.047 A 
ATOM     22  C   UNL     1       4.678   4.440  -0.165  1.00  0.00     0.013 A 
ATOM     23  C   UNL     1       5.179   2.254  -1.028  1.00  0.00     0.013 A 
BRANCH  19  24
ATOM     24  O   UNL     1       1.586   2.493  -0.231  1.00  0.00    -0.494 OA
BRANCH  24  25
ATOM     25  C   UNL     1       1.328   1.438   0.709  1.00  0.00     0.226 C 
ATOM     26  C   UNL     1       1.108   0.110   0.002  1.00  0.00     0.049 C 
ENDBRANCH  24  25
ENDBRANCH  19  24
ENDBRANCH   8  18
BRANCH  17  27
ATOM     27  C   UNL     1       9.671   3.307  -4.387  1.00  0.00     0.429 C 
ATOM     28  F   UNL     1       8.862   2.262  -4.676  1.00  0.00    -0.167 F 
ATOM     29  F   UNL     1       9.480   4.248  -5.343  1.00  0.00    -0.167 F 
ATOM     30  F   UNL     1      10.944   2.858  -4.546  1.00  0.00    -0.167 F 
ENDBRANCH  17  27
ENDBRANCH   4   7
ENDBRANCH   2   3
ENDBRANCH   1   2
BRANCH   1  31
ATOM     31  C   UNL     1      14.826   6.973  -2.516  1.00  0.00     0.118 C 
BRANCH  31  32
ATOM     32  N   UNL     1      16.025   6.161  -2.383  1.00  0.00    -0.352 N 
ATOM     33  C   UNL     1      17.341   6.544  -2.483  1.00  0.00     0.251 C 
ATOM     34  H   UNL     1      15.873   5.207  -2.195  1.00  0.00     0.163 HD
ATOM     35  O   UNL     1      18.225   5.692  -2.498  1.00  0.00    -0.269 OA
BRANCH  33  36
ATOM     36  C   UNL     1      17.676   7.979  -2.609  1.00  0.00     0.039 A 
ATOM     37  C   UNL     1      18.572   8.382  -3.601  1.00  0.00     0.014 A 
ATOM     38  C   UNL     1      17.085   8.925  -1.767  1.00  0.00     0.014 A 
ATOM     39  C   UNL     1      18.819   9.744  -3.796  1.00  0.00     0.010 A 
ATOM     40  C   UNL     1      17.271  10.281  -2.015  1.00  0.00     0.010 A 
ATOM     41  C   UNL     1      18.140  10.707  -3.032  1.00  0.00    -0.014 A 
BRANCH  41  42
ATOM     42  C   UNL     1      18.331  12.164  -3.266  1.00  0.00     0.031 A 
ATOM     43  C   UNL     1      18.891  13.030  -2.170  1.00  0.00     0.074 A 
ATOM     44  C   UNL     1      17.932  12.718  -4.429  1.00  0.00     0.049 A 
ATOM     45  N   UNL     1      19.020  14.331  -2.124  1.00  0.00    -0.248 NA
ATOM     46  C   UNL     1      19.331  12.338  -0.949  1.00  0.00     0.031 C 
ATOM     47  C   UNL     1      17.342  11.989  -5.555  1.00  0.00     0.029 A 
ATOM     48  N   UNL     1      17.948  14.023  -4.854  1.00  0.00    -0.354 N 
ATOM     49  C   UNL     1      19.534  14.616  -0.863  1.00  0.00     0.074 A 
ATOM     50  C   UNL     1      19.630  13.356  -0.156  1.00  0.00     0.031 C 
ATOM     51  C   UNL     1      17.074  12.854  -6.547  1.00  0.00     0.029 A 
ATOM     52  C   UNL     1      17.421  14.203  -6.113  1.00  0.00     0.049 A 
ATOM     53  H   UNL     1      18.302  14.762  -4.308  1.00  0.00     0.167 HD
ATOM     54  C   UNL     1      19.913  15.813  -0.350  1.00  0.00     0.034 A 
ATOM     55  C   UNL     1      17.224  15.329  -6.828  1.00  0.00     0.034 A 
ATOM     56  C   UNL     1      19.828  17.057  -1.076  1.00  0.00     0.049 A 
ATOM     57  C   UNL     1      17.630  16.653  -6.229  1.00  0.00     0.074 A 
ATOM     58  C   UNL     1      20.233  18.318  -0.676  1.00  0.00     0.029 A 
ATOM     59  N   UNL     1      19.296  17.199  -2.352  1.00  0.00    -0.354 N 
ATOM     60  N   UNL     1      18.153  16.901  -5.050  1.00  0.00    -0.248 NA
ATOM     61  C   UNL     1      17.426  17.846  -7.060  1.00  0.00     0.031 C 
ATOM     62  C   UNL     1      19.884  19.230  -1.678  1.00  0.00     0.029 A 
ATOM     63  C   UNL     1      19.335  18.529  -2.740  1.00  0.00     0.049 A 
ATOM     64  H   UNL     1      18.942  16.462  -2.901  1.00  0.00     0.167 HD
ATOM     65  C   UNL     1      18.372  18.276  -5.014  1.00  0.00     0.074 A 
ATOM     66  C   UNL     1      17.936  18.798  -6.293  1.00  0.00     0.031 C 
ATOM     67  C   UNL     1      18.889  19.038  -4.017  1.00  0.00     0.034 A 
BRANCH  54  68
ATOM     68  C   UNL     1      20.428  15.828   1.071  1.00  0.00     0.023 A 
ATOM     69  C   UNL     1      21.583  15.119   1.447  1.00  0.00     0.031 A 
ATOM     70  C   UNL     1      19.737  16.532   2.073  1.00  0.00     0.131 A 
ATOM     71  C   UNL     1      21.960  15.056   2.796  1.00  0.00     0.055 A 
ATOM     72  C   UNL     1      20.169  16.539   3.401  1.00  0.00     0.041 A 
ATOM     73  F   UNL     1      18.616  17.212   1.783  1.00  0.00    -0.206 F 
ATOM     74  C   UNL     1      21.277  15.783   3.773  1.00  0.00     0.022 A 
BRANCH  71  75
ATOM     75  S   UNL     1      23.258  13.883   3.277  1.00  0.00     0.124 S 
ATOM     76  O   UNL     1      22.690  12.615   2.825  1.00  0.00    -0.237 OA
ATOM     77  O   UNL     1      24.413  14.368   2.530  1.00  0.00    -0.237 OA
ATOM     78  O   UNL     1      23.341  14.039   4.727  1.00  0.00    -0.744 OA
ENDBRANCH  71  75
ENDBRANCH  54  68
BRANCH  55  79
ATOM     79  C   UNL     1      16.602  15.267  -8.183  1.00  0.00     0.023 A 
ATOM     80  C   UNL     1      17.319  15.652  -9.326  1.00  0.00     0.031 A 
ATOM     81  C   UNL     1      15.264  14.863  -8.350  1.00  0.00     0.131 A 
ATOM     82  C   UNL     1      16.684  15.675 -10.578  1.00  0.00     0.055 A 
ATOM     83  C   UNL     1      14.653  14.834  -9.605  1.00  0.00     0.041 A 
ATOM     84  F   UNL     1      14.533  14.480  -7.291  1.00  0.00    -0.206 F 
ATOM     85  C   UNL     1      15.360  15.255 -10.727  1.00  0.00     0.022 A 
BRANCH  82  86
ATOM     86  S   UNL     1      17.589  16.346 -12.000  1.00  0.00     0.124 S 
ATOM     87  O   UNL     1      17.901  17.695 -11.543  1.00  0.00    -0.237 OA
ATOM     88  O   UNL     1      18.717  15.425 -12.102  1.00  0.00    -0.237 OA
ATOM     89  O   UNL     1      16.619  16.263 -13.090  1.00  0.00    -0.744 OA
ENDBRANCH  82  86
ENDBRANCH  55  79
BRANCH  67  90
ATOM     90  C   UNL     1      19.058  20.512  -4.295  1.00  0.00     0.023 A 
ATOM     91  C   UNL     1      17.956  21.364  -4.482  1.00  0.00     0.031 A 
ATOM     92  C   UNL     1      20.347  21.069  -4.382  1.00  0.00     0.131 A 
ATOM     93  C   UNL     1      18.163  22.714  -4.802  1.00  0.00     0.055 A 
ATOM     94  C   UNL     1      20.546  22.426  -4.638  1.00  0.00     0.041 A 
ATOM     95  F   UNL     1      21.436  20.302  -4.216  1.00  0.00    -0.206 F 
ATOM     96  C   UNL     1      19.451  23.255  -4.862  1.00  0.00     0.022 A 
BRANCH  93  97
ATOM     97  S   UNL     1      16.729  23.738  -5.231  1.00  0.00     0.124 S 
ATOM     98  O   UNL     1      16.168  23.014  -6.367  1.00  0.00    -0.237 OA
ATOM     99  O   UNL     1      15.942  23.705  -4.003  1.00  0.00    -0.237 OA
ATOM    100  O   UNL     1      17.318  25.037  -5.554  1.00  0.00    -0.744 OA
ENDBRANCH  93  97
ENDBRANCH  67  90
ENDBRANCH  41  42
ENDBRANCH  33  36
ENDBRANCH  31  32
ENDBRANCH   1  31
TORSDOF 17
