REMARK SMILES CCCC[C@@H](NS(=O)(=O)c1cc2c3c(c1)c(C)cc(=O)n3CC2)C(=O)NCCCNC(=O)c1ccc(-c2c3nc(c(-c4cc(S(=O)(=O)[O-])ccc4F)c4ccc([nH]4)c(-c4cc(S(=O)(=O)[O-])ccc4F)c4nc(c(-c5cc(S(=O)(=O)[O-])ccc5F)c5ccc2[nH]5)C=C4)C=C3)cc1
REMARK SMILES IDX 28 1 27 2 26 3 24 4 25 5 5 7 4 8 3 9 2 10 1 11 6 12 7 14
REMARK SMILES IDX 8 15 9 16 10 17 11 18 15 19 12 20 14 21 13 22 23 23 16 24
REMARK SMILES IDX 21 25 22 26 17 27 18 28 19 29 20 30 29 31 30 32 31 33 32 35
REMARK SMILES IDX 33 36 34 37 95 38 35 39 94 40 36 41 37 42 38 43 88 44 39 45
REMARK SMILES IDX 93 46 87 47 89 48 40 49 92 50 86 51 85 52 41 54 73 55 53 56
REMARK SMILES IDX 72 57 54 58 57 59 71 60 90 61 55 62 56 63 70 65 91 66 58 67
REMARK SMILES IDX 42 68 43 69 51 70 44 71 50 72 52 73 49 74 45 75 46 76 47 77
REMARK SMILES IDX 48 78 74 79 75 80 83 81 76 82 82 83 84 84 81 85 77 86 78 87
REMARK SMILES IDX 79 88 80 89 59 90 60 91 68 92 61 93 67 94 69 95 66 96 62 97
REMARK SMILES IDX 63 98 64 99 65 100
REMARK H PARENT 26 6 6 13 30 34 89 53 57 64
REMARK Flexibility Score: inf
ROOT
ATOM      1  C   UNL     1       0.957  -6.305   0.062  1.00  0.00     0.042 C 
ENDROOT
BRANCH   1   2
ATOM      2  C   UNL     1      -0.374  -5.693  -0.338  1.00  0.00     0.117 C 
BRANCH   2   3
ATOM      3  N   UNL     1      -0.927  -4.869   0.726  1.00  0.00    -0.355 N 
ATOM      4  C   UNL     1      -1.191  -3.530   0.758  1.00  0.00     0.238 C 
ATOM      5  O   UNL     1      -1.641  -3.052   1.802  1.00  0.00    -0.273 OA
ATOM      6  H   UNL     1      -1.144  -5.355   1.554  1.00  0.00     0.163 HD
BRANCH   4   7
ATOM      7  C   UNL     1      -0.950  -2.654  -0.475  1.00  0.00     0.159 C 
BRANCH   7   8
ATOM      8  C   UNL     1       0.566  -2.525  -0.707  1.00  0.00     0.030 C 
BRANCH   8   9
ATOM      9  C   UNL     1       0.994  -1.474  -1.734  1.00  0.00     0.002 C 
BRANCH   9  10
ATOM     10  C   UNL     1       0.573  -0.038  -1.427  1.00  0.00    -0.003 C 
ATOM     11  C   UNL     1       1.058   0.464  -0.075  1.00  0.00     0.004 C 
ENDBRANCH   9  10
ENDBRANCH   8   9
ENDBRANCH   7   8
BRANCH   7  12
ATOM     12  N   UNL     1      -1.650  -3.204  -1.658  1.00  0.00    -0.199 NA
ATOM     13  H   UNL     1      -1.415  -4.195  -1.703  1.00  0.00     0.142 HD
BRANCH  12  14
ATOM     14  S   UNL     1      -3.324  -3.099  -1.778  1.00  0.00     0.241 S 
ATOM     15  O   UNL     1      -3.712  -1.764  -1.383  1.00  0.00    -0.207 OA
ATOM     16  O   UNL     1      -3.660  -3.621  -3.086  1.00  0.00    -0.207 OA
BRANCH  14  17
ATOM     17  C   UNL     1      -3.938  -4.262  -0.579  1.00  0.00     0.083 A 
ATOM     18  C   UNL     1      -4.502  -3.766   0.611  1.00  0.00     0.027 A 
ATOM     19  C   UNL     1      -3.769  -5.652  -0.808  1.00  0.00     0.032 A 
ATOM     20  C   UNL     1      -4.799  -4.675   1.605  1.00  0.00    -0.020 A 
ATOM     21  C   UNL     1      -4.056  -6.564   0.212  1.00  0.00     0.003 A 
ATOM     22  C   UNL     1      -4.552  -6.022   1.388  1.00  0.00     0.055 A 
ATOM     23  C   UNL     1      -5.298  -4.452   3.001  1.00  0.00     0.060 C 
ATOM     24  C   UNL     1      -3.821  -8.024   0.207  1.00  0.00    -0.036 A 
ATOM     25  N   UNL     1      -4.802  -6.762   2.531  1.00  0.00    -0.308 N 
ATOM     26  C   UNL     1      -5.270  -5.879   3.597  1.00  0.00     0.131 C 
ATOM     27  C   UNL     1      -3.329  -8.698  -1.038  1.00  0.00     0.045 C 
ATOM     28  C   UNL     1      -4.049  -8.722   1.342  1.00  0.00     0.075 A 
ATOM     29  C   UNL     1      -4.568  -8.106   2.605  1.00  0.00     0.251 A 
ATOM     30  O   UNL     1      -4.754  -8.791   3.604  1.00  0.00    -0.269 OA
ENDBRANCH  14  17
ENDBRANCH  12  14
ENDBRANCH   7  12
ENDBRANCH   4   7
ENDBRANCH   2   3
ENDBRANCH   1   2
BRANCH   1  31
ATOM     31  C   UNL     1       0.812  -7.334   1.175  1.00  0.00     0.118 C 
BRANCH  31  32
ATOM     32  N   UNL     1       0.038  -8.493   0.745  1.00  0.00    -0.352 N 
ATOM     33  C   UNL     1       0.451  -9.794   0.607  1.00  0.00     0.251 C 
ATOM     34  H   UNL     1      -0.906  -8.319   0.525  1.00  0.00     0.163 HD
ATOM     35  O   UNL     1      -0.239 -10.606  -0.000  1.00  0.00    -0.269 OA
BRANCH  33  36
ATOM     36  C   UNL     1       1.738 -10.187   1.210  1.00  0.00     0.039 A 
ATOM     37  C   UNL     1       2.689 -10.859   0.442  1.00  0.00     0.014 A 
ATOM     38  C   UNL     1       2.002  -9.839   2.539  1.00  0.00     0.014 A 
ATOM     39  C   UNL     1       3.939 -11.136   0.997  1.00  0.00     0.010 A 
ATOM     40  C   UNL     1       3.268 -10.053   3.064  1.00  0.00     0.010 A 
ATOM     41  C   UNL     1       4.241 -10.716   2.303  1.00  0.00    -0.014 A 
BRANCH  41  42
ATOM     42  C   UNL     1       5.563 -10.978   2.912  1.00  0.00     0.031 A 
ATOM     43  C   UNL     1       5.670 -11.929   4.068  1.00  0.00     0.074 A 
ATOM     44  C   UNL     1       6.641 -10.292   2.489  1.00  0.00     0.049 A 
ATOM     45  N   UNL     1       6.724 -12.260   4.763  1.00  0.00    -0.248 NA
ATOM     46  C   UNL     1       4.423 -12.569   4.520  1.00  0.00     0.031 C 
ATOM     47  C   UNL     1       6.633  -9.291   1.423  1.00  0.00     0.029 A 
ATOM     48  N   UNL     1       7.944 -10.317   2.918  1.00  0.00    -0.354 N 
ATOM     49  C   UNL     1       6.268 -13.130   5.745  1.00  0.00     0.074 A 
ATOM     50  C   UNL     1       4.835 -13.237   5.588  1.00  0.00     0.031 C 
ATOM     51  C   UNL     1       7.875  -8.802   1.275  1.00  0.00     0.029 A 
ATOM     52  C   UNL     1       8.760  -9.436   2.251  1.00  0.00     0.049 A 
ATOM     53  H   UNL     1       8.263 -10.909   3.637  1.00  0.00     0.167 HD
ATOM     54  C   UNL     1       6.985 -13.796   6.677  1.00  0.00     0.034 A 
ATOM     55  C   UNL     1      10.073  -9.169   2.405  1.00  0.00     0.034 A 
ATOM     56  C   UNL     1       8.415 -13.703   6.799  1.00  0.00     0.049 A 
ATOM     57  C   UNL     1      10.863  -9.950   3.422  1.00  0.00     0.074 A 
ATOM     58  C   UNL     1       9.247 -14.420   7.638  1.00  0.00     0.029 A 
ATOM     59  N   UNL     1       9.221 -12.840   6.072  1.00  0.00    -0.354 N 
ATOM     60  N   UNL     1      10.442 -10.873   4.255  1.00  0.00    -0.248 NA
ATOM     61  C   UNL     1      12.303  -9.673   3.514  1.00  0.00     0.031 C 
ATOM     62  C   UNL     1      10.550 -13.953   7.458  1.00  0.00     0.029 A 
ATOM     63  C   UNL     1      10.540 -12.984   6.465  1.00  0.00     0.049 A 
ATOM     64  H   UNL     1       8.902 -12.217   5.379  1.00  0.00     0.167 HD
ATOM     65  C   UNL     1      11.566 -11.302   4.955  1.00  0.00     0.074 A 
ATOM     66  C   UNL     1      12.689 -10.547   4.437  1.00  0.00     0.031 C 
ATOM     67  C   UNL     1      11.655 -12.236   5.935  1.00  0.00     0.034 A 
BRANCH  54  68
ATOM     68  C   UNL     1       6.253 -14.704   7.628  1.00  0.00     0.023 A 
ATOM     69  C   UNL     1       6.242 -14.415   9.004  1.00  0.00     0.031 A 
ATOM     70  C   UNL     1       5.652 -15.897   7.189  1.00  0.00     0.131 A 
ATOM     71  C   UNL     1       5.657 -15.321   9.897  1.00  0.00     0.055 A 
ATOM     72  C   UNL     1       5.040 -16.779   8.079  1.00  0.00     0.041 A 
ATOM     73  F   UNL     1       5.637 -16.213   5.883  1.00  0.00    -0.206 F 
ATOM     74  C   UNL     1       5.049 -16.496   9.441  1.00  0.00     0.022 A 
BRANCH  71  75
ATOM     75  S   UNL     1       5.692 -15.026  11.685  1.00  0.00     0.124 S 
ATOM     76  O   UNL     1       4.274 -15.101  12.030  1.00  0.00    -0.237 OA
ATOM     77  O   UNL     1       6.510 -16.138  12.159  1.00  0.00    -0.237 OA
ATOM     78  O   UNL     1       6.290 -13.701  11.810  1.00  0.00    -0.744 OA
ENDBRANCH  71  75
ENDBRANCH  54  68
BRANCH  55  79
ATOM     79  C   UNL     1      10.709  -8.169   1.503  1.00  0.00     0.023 A 
ATOM     80  C   UNL     1      10.351  -6.810   1.563  1.00  0.00     0.031 A 
ATOM     81  C   UNL     1      11.571  -8.585   0.475  1.00  0.00     0.131 A 
ATOM     82  C   UNL     1      10.800  -5.930   0.569  1.00  0.00     0.055 A 
ATOM     83  C   UNL     1      12.066  -7.692  -0.476  1.00  0.00     0.041 A 
ATOM     84  F   UNL     1      11.924  -9.876   0.372  1.00  0.00    -0.206 F 
ATOM     85  C   UNL     1      11.668  -6.359  -0.441  1.00  0.00     0.022 A 
BRANCH  82  86
ATOM     86  S   UNL     1      10.184  -4.225   0.494  1.00  0.00     0.124 S 
ATOM     87  O   UNL     1      11.417  -3.455   0.354  1.00  0.00    -0.237 OA
ATOM     88  O   UNL     1       9.333  -4.273  -0.692  1.00  0.00    -0.237 OA
ATOM     89  O   UNL     1       9.480  -4.057   1.760  1.00  0.00    -0.744 OA
ENDBRANCH  82  86
ENDBRANCH  55  79
BRANCH  67  90
ATOM     90  C   UNL     1      13.005 -12.526   6.539  1.00  0.00     0.023 A 
ATOM     91  C   UNL     1      13.584 -13.800   6.381  1.00  0.00     0.031 A 
ATOM     92  C   UNL     1      13.624 -11.613   7.408  1.00  0.00     0.131 A 
ATOM     93  C   UNL     1      14.720 -14.143   7.122  1.00  0.00     0.055 A 
ATOM     94  C   UNL     1      14.782 -11.945   8.112  1.00  0.00     0.041 A 
ATOM     95  F   UNL     1      13.102 -10.390   7.597  1.00  0.00    -0.206 F 
ATOM     96  C   UNL     1      15.327 -13.220   7.981  1.00  0.00     0.022 A 
BRANCH  93  97
ATOM     97  S   UNL     1      15.407 -15.820   7.057  1.00  0.00     0.124 S 
ATOM     98  O   UNL     1      16.791 -15.568   6.662  1.00  0.00    -0.237 OA
ATOM     99  O   UNL     1      15.224 -16.280   8.431  1.00  0.00    -0.237 OA
ATOM    100  O   UNL     1      14.591 -16.497   6.054  1.00  0.00    -0.744 OA
ENDBRANCH  93  97
ENDBRANCH  67  90
ENDBRANCH  41  42
ENDBRANCH  33  36
ENDBRANCH  31  32
ENDBRANCH   1  31
TORSDOF 19
