REMARK SMILES O=C(CCc1nc(-c2ccccc2)c(-c2ccccc2)o1)NCCCNC(=O)c1ccc(-c2c3nc(c(-c4cc(S(=O)(=O)[O-])ccc4F)c4ccc([nH]4)c(-c4cc(S(=O)(=O)[O-])ccc4F)c4nc(c(-c5cc(S(=O)(=O)[O-])ccc5F)c5ccc2[nH]5)C=C4)C=C3)cc1
REMARK SMILES IDX 24 1 23 2 22 3 1 4 2 5 3 7 4 8 5 9 6 10 21 11 7 12 14 13
REMARK SMILES IDX 8 14 9 15 13 16 10 17 12 18 11 19 15 20 16 21 20 22 17 23
REMARK SMILES IDX 19 24 18 25 25 26 26 27 27 28 28 30 29 31 30 32 91 33 31 34
REMARK SMILES IDX 90 35 32 36 33 37 34 38 84 39 35 40 89 41 83 42 85 43 36 44
REMARK SMILES IDX 88 45 82 46 81 47 37 49 69 50 49 51 68 52 50 53 53 54 67 55
REMARK SMILES IDX 86 56 51 57 52 58 66 60 87 61 54 62 38 63 39 64 47 65 40 66
REMARK SMILES IDX 46 67 48 68 45 69 41 70 42 71 43 72 44 73 70 74 71 75 79 76
REMARK SMILES IDX 72 77 78 78 80 79 77 80 73 81 74 82 75 83 76 84 55 85 56 86
REMARK SMILES IDX 64 87 57 88 63 89 65 90 62 91 58 92 59 93 60 94 61 95
REMARK H PARENT 22 6 26 29 85 48 53 59
REMARK Flexibility Score: inf
ROOT
ATOM      1  C   UNL     1       2.314   1.263   3.293  1.00  0.00     0.042 C 
ENDROOT
BRANCH   1   2
ATOM      2  C   UNL     1       2.069   1.503   1.809  1.00  0.00     0.117 C 
BRANCH   2   3
ATOM      3  N   UNL     1       2.783   0.563   0.971  1.00  0.00    -0.356 N 
ATOM      4  O   UNL     1       1.043   0.122  -0.466  1.00  0.00    -0.275 OA
ATOM      5  C   UNL     1       2.215  -0.026  -0.133  1.00  0.00     0.220 C 
ATOM      6  H   UNL     1       3.713   0.337   1.201  1.00  0.00     0.163 HD
BRANCH   5   7
ATOM      7  C   UNL     1       3.172  -0.869  -0.947  1.00  0.00     0.110 C 
BRANCH   7   8
ATOM      8  C   UNL     1       4.054   0.006  -1.833  1.00  0.00     0.107 C 
BRANCH   8   9
ATOM      9  C   UNL     1       5.104   0.706  -1.046  1.00  0.00     0.196 A 
ATOM     10  N   UNL     1       6.071   0.179  -0.323  1.00  0.00    -0.213 NA
ATOM     11  O   UNL     1       5.007   2.069  -0.965  1.00  0.00    -0.440 OA
ATOM     12  C   UNL     1       6.673   1.270   0.265  1.00  0.00     0.117 A 
ATOM     13  C   UNL     1       6.037   2.431  -0.136  1.00  0.00     0.162 A 
BRANCH  12  14
ATOM     14  C   UNL     1       7.785   1.181   1.190  1.00  0.00     0.004 A 
ATOM     15  C   UNL     1       7.746   1.850   2.422  1.00  0.00     0.010 A 
ATOM     16  C   UNL     1       8.928   0.453   0.849  1.00  0.00     0.010 A 
ATOM     17  C   UNL     1       8.835   1.804   3.294  1.00  0.00     0.001 A 
ATOM     18  C   UNL     1      10.024   0.418   1.717  1.00  0.00     0.001 A 
ATOM     19  C   UNL     1       9.976   1.093   2.938  1.00  0.00     0.000 A 
ENDBRANCH  12  14
BRANCH  13  20
ATOM     20  C   UNL     1       6.213   3.851   0.114  1.00  0.00     0.020 A 
ATOM     21  C   UNL     1       5.120   4.663   0.438  1.00  0.00     0.012 A 
ATOM     22  C   UNL     1       7.498   4.413   0.113  1.00  0.00     0.012 A 
ATOM     23  C   UNL     1       5.316   5.996   0.806  1.00  0.00     0.001 A 
ATOM     24  C   UNL     1       7.691   5.749   0.465  1.00  0.00     0.001 A 
ATOM     25  C   UNL     1       6.601   6.536   0.824  1.00  0.00     0.000 A 
ENDBRANCH  13  20
ENDBRANCH   8   9
ENDBRANCH   7   8
ENDBRANCH   5   7
ENDBRANCH   2   3
ENDBRANCH   1   2
BRANCH   1  26
ATOM     26  C   UNL     1       3.761   1.442   3.745  1.00  0.00     0.118 C 
BRANCH  26  27
ATOM     27  N   UNL     1       4.247   2.802   3.584  1.00  0.00    -0.352 N 
ATOM     28  C   UNL     1       4.981   3.590   4.434  1.00  0.00     0.251 C 
ATOM     29  H   UNL     1       4.011   3.226   2.728  1.00  0.00     0.163 HD
ATOM     30  O   UNL     1       5.162   4.771   4.129  1.00  0.00    -0.269 OA
BRANCH  28  31
ATOM     31  C   UNL     1       5.534   3.068   5.705  1.00  0.00     0.039 A 
ATOM     32  C   UNL     1       5.595   3.941   6.797  1.00  0.00     0.014 A 
ATOM     33  C   UNL     1       6.017   1.763   5.841  1.00  0.00     0.014 A 
ATOM     34  C   UNL     1       6.066   3.488   8.030  1.00  0.00     0.010 A 
ATOM     35  C   UNL     1       6.420   1.290   7.090  1.00  0.00     0.010 A 
ATOM     36  C   UNL     1       6.440   2.146   8.199  1.00  0.00    -0.014 A 
BRANCH  36  37
ATOM     37  C   UNL     1       6.803   1.632   9.544  1.00  0.00     0.031 A 
ATOM     38  C   UNL     1       8.195   1.147   9.835  1.00  0.00     0.074 A 
ATOM     39  C   UNL     1       5.850   1.578  10.495  1.00  0.00     0.049 A 
ATOM     40  N   UNL     1       8.694   0.694  10.957  1.00  0.00    -0.248 NA
ATOM     41  C   UNL     1       9.146   1.151   8.713  1.00  0.00     0.031 C 
ATOM     42  C   UNL     1       4.449   1.967  10.305  1.00  0.00     0.029 A 
ATOM     43  N   UNL     1       5.906   1.182  11.807  1.00  0.00    -0.354 N 
ATOM     44  C   UNL     1      10.015   0.361  10.680  1.00  0.00     0.074 A 
ATOM     45  C   UNL     1      10.218   0.603   9.267  1.00  0.00     0.031 C 
ATOM     46  C   UNL     1       3.792   1.830  11.466  1.00  0.00     0.029 A 
ATOM     47  C   UNL     1       4.708   1.303  12.472  1.00  0.00     0.049 A 
ATOM     48  H   UNL     1       6.727   0.844  12.233  1.00  0.00     0.167 HD
ATOM     49  C   UNL     1      10.973  -0.083  11.532  1.00  0.00     0.034 A 
ATOM     50  C   UNL     1       4.382   1.021  13.749  1.00  0.00     0.034 A 
ATOM     51  C   UNL     1      10.743  -0.328  12.937  1.00  0.00     0.049 A 
ATOM     52  C   UNL     1       5.460   0.512  14.671  1.00  0.00     0.074 A 
ATOM     53  C   UNL     1      11.648  -0.735  13.902  1.00  0.00     0.029 A 
ATOM     54  N   UNL     1       9.515  -0.204  13.578  1.00  0.00    -0.354 N 
ATOM     55  N   UNL     1       6.725   0.270  14.411  1.00  0.00    -0.248 NA
ATOM     56  C   UNL     1       5.071   0.259  16.062  1.00  0.00     0.031 C 
ATOM     57  C   UNL     1      10.955  -0.931  15.102  1.00  0.00     0.029 A 
ATOM     58  C   UNL     1       9.633  -0.559  14.914  1.00  0.00     0.049 A 
ATOM     59  H   UNL     1       8.681   0.092  13.145  1.00  0.00     0.167 HD
ATOM     60  C   UNL     1       7.289  -0.134  15.618  1.00  0.00     0.074 A 
ATOM     61  C   UNL     1       6.230  -0.076  16.606  1.00  0.00     0.031 C 
ATOM     62  C   UNL     1       8.564  -0.517  15.886  1.00  0.00     0.034 A 
BRANCH  49  63
ATOM     63  C   UNL     1      12.346  -0.354  10.958  1.00  0.00     0.023 A 
ATOM     64  C   UNL     1      13.114   0.665  10.366  1.00  0.00     0.031 A 
ATOM     65  C   UNL     1      12.889  -1.651  10.982  1.00  0.00     0.131 A 
ATOM     66  C   UNL     1      14.340   0.358   9.757  1.00  0.00     0.055 A 
ATOM     67  C   UNL     1      14.150  -1.934  10.451  1.00  0.00     0.041 A 
ATOM     68  F   UNL     1      12.197  -2.673  11.511  1.00  0.00    -0.206 F 
ATOM     69  C   UNL     1      14.877  -0.929   9.820  1.00  0.00     0.022 A 
BRANCH  66  70
ATOM     70  S   UNL     1      15.151   1.632   8.751  1.00  0.00     0.124 S 
ATOM     71  O   UNL     1      14.120   1.923   7.757  1.00  0.00    -0.237 OA
ATOM     72  O   UNL     1      15.415   2.684   9.725  1.00  0.00    -0.237 OA
ATOM     73  O   UNL     1      16.335   0.954   8.228  1.00  0.00    -0.744 OA
ENDBRANCH  66  70
ENDBRANCH  49  63
BRANCH  50  74
ATOM     74  C   UNL     1       2.985   1.215  14.234  1.00  0.00     0.023 A 
ATOM     75  C   UNL     1       2.691   2.143  15.246  1.00  0.00     0.031 A 
ATOM     76  C   UNL     1       1.927   0.445  13.720  1.00  0.00     0.131 A 
ATOM     77  C   UNL     1       1.384   2.241  15.748  1.00  0.00     0.055 A 
ATOM     78  C   UNL     1       0.617   0.588  14.181  1.00  0.00     0.041 A 
ATOM     79  F   UNL     1       2.150  -0.454  12.748  1.00  0.00    -0.206 F 
ATOM     80  C   UNL     1       0.343   1.481  15.213  1.00  0.00     0.022 A 
BRANCH  77  81
ATOM     81  S   UNL     1       1.083   3.312  17.181  1.00  0.00     0.124 S 
ATOM     82  O   UNL     1       2.007   2.759  18.164  1.00  0.00    -0.237 OA
ATOM     83  O   UNL     1       1.422   4.629  16.651  1.00  0.00    -0.237 OA
ATOM     84  O   UNL     1      -0.334   3.104  17.469  1.00  0.00    -0.744 OA
ENDBRANCH  77  81
ENDBRANCH  50  74
BRANCH  62  85
ATOM     85  C   UNL     1       8.882  -0.862  17.323  1.00  0.00     0.023 A 
ATOM     86  C   UNL     1       8.272  -1.948  17.976  1.00  0.00     0.031 A 
ATOM     87  C   UNL     1       9.775  -0.066  18.062  1.00  0.00     0.131 A 
ATOM     88  C   UNL     1       8.499  -2.160  19.344  1.00  0.00     0.055 A 
ATOM     89  C   UNL     1      10.056  -0.328  19.404  1.00  0.00     0.041 A 
ATOM     90  F   UNL     1      10.384   0.987  17.495  1.00  0.00    -0.206 F 
ATOM     91  C   UNL     1       9.402  -1.368  20.058  1.00  0.00     0.022 A 
BRANCH  88  92
ATOM     92  S   UNL     1       7.496  -3.399  20.209  1.00  0.00     0.124 S 
ATOM     93  O   UNL     1       6.140  -2.943  19.925  1.00  0.00    -0.237 OA
ATOM     94  O   UNL     1       7.902  -4.639  19.556  1.00  0.00    -0.237 OA
ATOM     95  O   UNL     1       7.916  -3.267  21.604  1.00  0.00    -0.744 OA
ENDBRANCH  88  92
ENDBRANCH  62  85
ENDBRANCH  36  37
ENDBRANCH  28  31
ENDBRANCH  26  27
ENDBRANCH   1  26
TORSDOF 17
