REMARK SMILES O=C(NCCCNC(=O)[C@H]1CC2=c3ccccc3=N[C@H]2[C@@H](c2ccccc2)[NH2+]1)c1ccc(-c2c3nc(c(-c4cc(S(=O)(=O)[O-])ccc4F)c4ccc([nH]4)c(-c4cc(S(=O)(=O)[O-])ccc4F)c4nc(c(-c5cc(S(=O)(=O)[O-])ccc5F)c5ccc2[nH]5)C=C4)C=C3)cc1
REMARK SMILES IDX 4 1 3 2 1 3 2 4 29 6 30 7 91 8 31 9 90 10 32 11 33 12 34 13
REMARK SMILES IDX 84 14 35 15 89 16 83 17 85 18 36 19 88 20 82 21 81 22 37 24
REMARK SMILES IDX 69 25 49 26 68 27 50 28 53 29 67 30 86 31 51 32 52 33 66 35
REMARK SMILES IDX 87 36 54 37 38 38 39 39 47 40 40 41 46 42 48 43 45 44 41 45
REMARK SMILES IDX 42 46 43 47 44 48 70 49 71 50 79 51 72 52 78 53 80 54 77 55
REMARK SMILES IDX 73 56 74 57 75 58 76 59 55 60 56 61 64 62 57 63 63 64 65 65
REMARK SMILES IDX 62 66 58 67 59 68 60 69 61 70 5 71 6 72 7 73 8 74 9 76 10 77
REMARK SMILES IDX 11 78 28 79 12 80 21 81 13 84 20 85 14 86 18 87 19 88 15 89
REMARK SMILES IDX 17 90 16 91 22 92 23 93 27 94 24 95 26 96 25 97
REMARK H PARENT 3 5 85 23 53 34 7 75 28 82 28 83
REMARK Flexibility Score: inf
ROOT
ATOM      1  C   UNL     1       4.265  -0.473  -1.373  1.00  0.00     0.118 C 
ENDROOT
BRANCH   1   2
ATOM      2  N   UNL     1       2.869  -0.112  -1.213  1.00  0.00    -0.352 N 
ATOM      3  O   UNL     1       0.961   0.313  -0.130  1.00  0.00    -0.269 OA
ATOM      4  C   UNL     1       2.190   0.367  -0.120  1.00  0.00     0.251 C 
ATOM      5  H   UNL     1       2.317  -0.230  -2.020  1.00  0.00     0.163 HD
BRANCH   4   6
ATOM      6  C   UNL     1       2.893   0.947   1.052  1.00  0.00     0.039 A 
ATOM      7  C   UNL     1       2.277   0.870   2.306  1.00  0.00     0.014 A 
ATOM      8  C   UNL     1       4.082   1.669   0.924  1.00  0.00     0.014 A 
ATOM      9  C   UNL     1       2.838   1.524   3.407  1.00  0.00     0.010 A 
ATOM     10  C   UNL     1       4.706   2.215   2.044  1.00  0.00     0.010 A 
ATOM     11  C   UNL     1       4.056   2.212   3.283  1.00  0.00    -0.014 A 
BRANCH  11  12
ATOM     12  C   UNL     1       4.590   3.045   4.395  1.00  0.00     0.031 A 
ATOM     13  C   UNL     1       4.720   4.539   4.209  1.00  0.00     0.074 A 
ATOM     14  C   UNL     1       4.959   2.474   5.558  1.00  0.00     0.049 A 
ATOM     15  N   UNL     1       5.166   5.440   5.045  1.00  0.00    -0.248 NA
ATOM     16  C   UNL     1       4.328   5.092   2.900  1.00  0.00     0.031 C 
ATOM     17  C   UNL     1       4.913   1.040   5.841  1.00  0.00     0.029 A 
ATOM     18  N   UNL     1       5.434   3.028   6.721  1.00  0.00    -0.354 N 
ATOM     19  C   UNL     1       5.129   6.650   4.358  1.00  0.00     0.074 A 
ATOM     20  C   UNL     1       4.688   6.361   3.015  1.00  0.00     0.031 C 
ATOM     21  C   UNL     1       5.291   0.832   7.112  1.00  0.00     0.029 A 
ATOM     22  C   UNL     1       5.644   2.111   7.726  1.00  0.00     0.049 A 
ATOM     23  H   UNL     1       5.608   3.992   6.826  1.00  0.00     0.167 HD
ATOM     24  C   UNL     1       5.400   7.894   4.815  1.00  0.00     0.034 A 
ATOM     25  C   UNL     1       6.053   2.284   9.001  1.00  0.00     0.034 A 
ATOM     26  C   UNL     1       5.775   8.176   6.174  1.00  0.00     0.049 A 
ATOM     27  C   UNL     1       6.312   3.687   9.498  1.00  0.00     0.074 A 
ATOM     28  C   UNL     1       6.015   9.408   6.756  1.00  0.00     0.029 A 
ATOM     29  N   UNL     1       5.941   7.223   7.168  1.00  0.00    -0.354 N 
ATOM     30  N   UNL     1       6.199   4.826   8.854  1.00  0.00    -0.248 NA
ATOM     31  C   UNL     1       6.732   3.835  10.899  1.00  0.00     0.031 C 
ATOM     32  C   UNL     1       6.380   9.197   8.084  1.00  0.00     0.029 A 
ATOM     33  C   UNL     1       6.291   7.840   8.356  1.00  0.00     0.049 A 
ATOM     34  H   UNL     1       5.827   6.253   7.046  1.00  0.00     0.167 HD
ATOM     35  C   UNL     1       6.483   5.823   9.784  1.00  0.00     0.074 A 
ATOM     36  C   UNL     1       6.761   5.154  11.037  1.00  0.00     0.031 C 
ATOM     37  C   UNL     1       6.513   7.169   9.613  1.00  0.00     0.034 A 
BRANCH  24  38
ATOM     38  C   UNL     1       5.265   9.065   3.870  1.00  0.00     0.023 A 
ATOM     39  C   UNL     1       6.385   9.870   3.588  1.00  0.00     0.031 A 
ATOM     40  C   UNL     1       4.015   9.465   3.365  1.00  0.00     0.131 A 
ATOM     41  C   UNL     1       6.224  11.055   2.860  1.00  0.00     0.055 A 
ATOM     42  C   UNL     1       3.870  10.620   2.596  1.00  0.00     0.041 A 
ATOM     43  F   UNL     1       2.916   8.732   3.605  1.00  0.00    -0.206 F 
ATOM     44  C   UNL     1       4.975  11.430   2.354  1.00  0.00     0.022 A 
BRANCH  41  45
ATOM     45  S   UNL     1       7.615  12.191   2.604  1.00  0.00     0.124 S 
ATOM     46  O   UNL     1       7.650  12.298   1.146  1.00  0.00    -0.237 OA
ATOM     47  O   UNL     1       7.161  13.389   3.306  1.00  0.00    -0.237 OA
ATOM     48  O   UNL     1       8.749  11.499   3.201  1.00  0.00    -0.744 OA
ENDBRANCH  41  45
ENDBRANCH  24  38
BRANCH  25  49
ATOM     49  C   UNL     1       6.130   1.105   9.914  1.00  0.00     0.023 A 
ATOM     50  C   UNL     1       7.005   0.034   9.656  1.00  0.00     0.031 A 
ATOM     51  C   UNL     1       5.259   0.994  11.012  1.00  0.00     0.131 A 
ATOM     52  C   UNL     1       6.949  -1.119  10.452  1.00  0.00     0.055 A 
ATOM     53  C   UNL     1       5.257  -0.126  11.845  1.00  0.00     0.041 A 
ATOM     54  F   UNL     1       4.392   1.980  11.289  1.00  0.00    -0.206 F 
ATOM     55  C   UNL     1       6.095  -1.198  11.556  1.00  0.00     0.022 A 
BRANCH  52  56
ATOM     56  S   UNL     1       7.887  -2.606  10.000  1.00  0.00     0.124 S 
ATOM     57  O   UNL     1       8.761  -2.777  11.159  1.00  0.00    -0.237 OA
ATOM     58  O   UNL     1       6.823  -3.600   9.863  1.00  0.00    -0.237 OA
ATOM     59  O   UNL     1       8.548  -2.233   8.758  1.00  0.00    -0.744 OA
ENDBRANCH  52  56
ENDBRANCH  25  49
BRANCH  37  60
ATOM     60  C   UNL     1       6.804   8.053  10.803  1.00  0.00     0.023 A 
ATOM     61  C   UNL     1       5.840   8.994  11.219  1.00  0.00     0.031 A 
ATOM     62  C   UNL     1       8.072   8.090  11.405  1.00  0.00     0.131 A 
ATOM     63  C   UNL     1       6.175   9.960  12.176  1.00  0.00     0.055 A 
ATOM     64  C   UNL     1       8.384   9.022  12.396  1.00  0.00     0.041 A 
ATOM     65  F   UNL     1       9.031   7.228  11.030  1.00  0.00    -0.206 F 
ATOM     66  C   UNL     1       7.439   9.972  12.773  1.00  0.00     0.022 A 
BRANCH  63  67
ATOM     67  S   UNL     1       5.024  11.298  12.596  1.00  0.00     0.124 S 
ATOM     68  O   UNL     1       4.748  11.026  14.004  1.00  0.00    -0.237 OA
ATOM     69  O   UNL     1       5.828  12.489  12.337  1.00  0.00    -0.237 OA
ATOM     70  O   UNL     1       3.898  11.094  11.690  1.00  0.00    -0.744 OA
ENDBRANCH  63  67
ENDBRANCH  37  60
ENDBRANCH  11  12
ENDBRANCH   4   6
ENDBRANCH   1   2
BRANCH   1  71
ATOM     71  C   UNL     1       4.477  -1.970  -1.216  1.00  0.00     0.042 C 
BRANCH  71  72
ATOM     72  C   UNL     1       4.030  -2.776  -2.431  1.00  0.00     0.118 C 
BRANCH  72  73
ATOM     73  N   UNL     1       4.865  -2.506  -3.593  1.00  0.00    -0.351 N 
ATOM     74  C   UNL     1       5.886  -3.211  -4.167  1.00  0.00     0.278 C 
ATOM     75  H   UNL     1       4.654  -1.660  -4.050  1.00  0.00     0.163 HD
ATOM     76  O   UNL     1       6.514  -2.655  -5.072  1.00  0.00    -0.268 OA
BRANCH  74  77
ATOM     77  C   UNL     1       6.222  -4.656  -3.737  1.00  0.00     0.277 C 
ATOM     78  C   UNL     1       6.689  -4.727  -2.265  1.00  0.00     0.109 C 
ATOM     79  N   UNL     1       5.075  -5.528  -4.102  1.00  0.00    -0.327 N 
ATOM     80  C   UNL     1       6.141  -5.935  -1.591  1.00  0.00    -0.024 C 
ATOM     81  C   UNL     1       5.258  -6.959  -3.721  1.00  0.00     0.243 C 
ATOM     82  H   UNL     1       4.943  -5.478  -5.112  1.00  0.00     0.347 HD
ATOM     83  H   UNL     1       4.265  -5.185  -3.585  1.00  0.00     0.347 HD
ATOM     84  C   UNL     1       5.543  -6.121  -0.420  1.00  0.00     0.002 A 
ATOM     85  C   UNL     1       6.124  -7.187  -2.417  1.00  0.00     0.196 C 
ATOM     86  C   UNL     1       5.173  -5.303   0.688  1.00  0.00     0.010 A 
ATOM     87  C   UNL     1       5.249  -7.566  -0.449  1.00  0.00     0.066 A 
ATOM     88  N   UNL     1       5.597  -8.236  -1.505  1.00  0.00    -0.270 NA
ATOM     89  C   UNL     1       4.530  -5.875   1.721  1.00  0.00     0.001 A 
ATOM     90  C   UNL     1       4.581  -8.128   0.742  1.00  0.00     0.028 A 
ATOM     91  C   UNL     1       4.244  -7.301   1.745  1.00  0.00     0.002 A 
BRANCH  81  92
ATOM     92  C   UNL     1       3.923  -7.726  -3.738  1.00  0.00     0.012 A 
ATOM     93  C   UNL     1       3.958  -9.131  -3.819  1.00  0.00     0.010 A 
ATOM     94  C   UNL     1       2.660  -7.116  -3.632  1.00  0.00     0.010 A 
ATOM     95  C   UNL     1       2.789  -9.893  -3.767  1.00  0.00     0.001 A 
ATOM     96  C   UNL     1       1.488  -7.878  -3.595  1.00  0.00     0.001 A 
ATOM     97  C   UNL     1       1.553  -9.266  -3.655  1.00  0.00     0.000 A 
ENDBRANCH  81  92
ENDBRANCH  74  77
ENDBRANCH  72  73
ENDBRANCH  71  72
ENDBRANCH   1  71
TORSDOF 14
