REMARK SMILES O=C(NCCCNC(=O)[C@H]1CC[C@@H](CNc2ncccn2)O1)c1ccc(-c2c3nc(c(-c4cc(S(=O)(=O)[O-])ccc4F)c4ccc([nH]4)c(-c4cc(S(=O)(=O)[O-])ccc4F)c4nc(c(-c5cc(S(=O)(=O)[O-])ccc5F)c5ccc2[nH]5)C=C4)C=C3)cc1
REMARK SMILES IDX 5 1 4 2 3 3 1 4 2 5 23 7 24 8 85 9 25 10 84 11 26 12 27 13
REMARK SMILES IDX 28 14 78 15 29 16 83 17 77 18 79 19 30 20 82 21 76 22 75 23
REMARK SMILES IDX 31 25 63 26 43 27 62 28 44 29 47 30 61 31 80 32 45 33 46 34
REMARK SMILES IDX 60 36 81 37 48 38 32 39 33 40 41 41 34 42 40 43 42 44 39 45
REMARK SMILES IDX 35 46 36 47 37 48 38 49 64 50 65 51 73 52 66 53 72 54 74 55
REMARK SMILES IDX 71 56 67 57 68 58 69 59 70 60 49 61 50 62 58 63 51 64 57 65
REMARK SMILES IDX 59 66 56 67 52 68 53 69 54 70 55 71 6 72 7 73 8 74 9 76
REMARK SMILES IDX 10 77 11 78 22 79 12 80 13 81 14 82 15 83 16 85 17 86 21 87
REMARK SMILES IDX 18 88 20 89 19 90
REMARK H PARENT 3 6 79 24 47 35 7 75 15 84
REMARK Flexibility Score: inf
ROOT
ATOM      1  C   UNL     1       8.310   4.101  -2.067  1.00  0.00     0.042 C 
ENDROOT
BRANCH   1   2
ATOM      2  C   UNL     1       9.813   4.355  -2.103  1.00  0.00     0.118 C 
BRANCH   2   3
ATOM      3  N   UNL     1      10.191   5.627  -1.494  1.00  0.00    -0.352 N 
ATOM      4  O   UNL     1      11.014   7.038   0.051  1.00  0.00    -0.269 OA
ATOM      5  C   UNL     1      10.970   5.892  -0.393  1.00  0.00     0.251 C 
ATOM      6  H   UNL     1       9.829   6.424  -1.945  1.00  0.00     0.163 HD
BRANCH   5   7
ATOM      7  C   UNL     1      11.740   4.812   0.263  1.00  0.00     0.039 A 
ATOM      8  C   UNL     1      12.404   3.851  -0.499  1.00  0.00     0.014 A 
ATOM      9  C   UNL     1      11.830   4.777   1.659  1.00  0.00     0.014 A 
ATOM     10  C   UNL     1      13.012   2.771   0.128  1.00  0.00     0.010 A 
ATOM     11  C   UNL     1      12.534   3.743   2.289  1.00  0.00     0.010 A 
ATOM     12  C   UNL     1      13.106   2.713   1.529  1.00  0.00    -0.014 A 
BRANCH  12  13
ATOM     13  C   UNL     1      13.870   1.593   2.140  1.00  0.00     0.031 A 
ATOM     14  C   UNL     1      13.198   0.569   3.013  1.00  0.00     0.074 A 
ATOM     15  C   UNL     1      15.175   1.469   1.826  1.00  0.00     0.049 A 
ATOM     16  N   UNL     1      13.704  -0.513   3.548  1.00  0.00    -0.248 NA
ATOM     17  C   UNL     1      11.781   0.790   3.336  1.00  0.00     0.031 C 
ATOM     18  C   UNL     1      15.933   2.419   1.003  1.00  0.00     0.029 A 
ATOM     19  N   UNL     1      16.087   0.488   2.118  1.00  0.00    -0.354 N 
ATOM     20  C   UNL     1      12.674  -1.102   4.274  1.00  0.00     0.074 A 
ATOM     21  C   UNL     1      11.524  -0.232   4.142  1.00  0.00     0.031 C 
ATOM     22  C   UNL     1      17.167   1.940   0.800  1.00  0.00     0.029 A 
ATOM     23  C   UNL     1      17.317   0.689   1.533  1.00  0.00     0.049 A 
ATOM     24  H   UNL     1      15.882  -0.285   2.691  1.00  0.00     0.167 HD
ATOM     25  C   UNL     1      12.687  -2.265   4.973  1.00  0.00     0.034 A 
ATOM     26  C   UNL     1      18.446  -0.043   1.588  1.00  0.00     0.034 A 
ATOM     27  C   UNL     1      13.847  -3.118   5.096  1.00  0.00     0.049 A 
ATOM     28  C   UNL     1      18.431  -1.323   2.378  1.00  0.00     0.074 A 
ATOM     29  C   UNL     1      13.970  -4.315   5.781  1.00  0.00     0.029 A 
ATOM     30  N   UNL     1      15.087  -2.865   4.522  1.00  0.00    -0.354 N 
ATOM     31  N   UNL     1      17.442  -1.864   3.052  1.00  0.00    -0.248 NA
ATOM     32  C   UNL     1      19.679  -2.093   2.409  1.00  0.00     0.031 C 
ATOM     33  C   UNL     1      15.295  -4.755   5.668  1.00  0.00     0.029 A 
ATOM     34  C   UNL     1      15.984  -3.871   4.855  1.00  0.00     0.049 A 
ATOM     35  H   UNL     1      15.299  -2.085   3.960  1.00  0.00     0.167 HD
ATOM     36  C   UNL     1      17.952  -3.042   3.587  1.00  0.00     0.074 A 
ATOM     37  C   UNL     1      19.319  -3.152   3.116  1.00  0.00     0.031 C 
ATOM     38  C   UNL     1      17.352  -3.947   4.402  1.00  0.00     0.034 A 
BRANCH  25  39
ATOM     39  C   UNL     1      11.417  -2.662   5.690  1.00  0.00     0.023 A 
ATOM     40  C   UNL     1      10.245  -2.998   4.990  1.00  0.00     0.031 A 
ATOM     41  C   UNL     1      11.379  -2.707   7.096  1.00  0.00     0.131 A 
ATOM     42  C   UNL     1       9.072  -3.311   5.695  1.00  0.00     0.055 A 
ATOM     43  C   UNL     1      10.228  -3.087   7.790  1.00  0.00     0.041 A 
ATOM     44  F   UNL     1      12.460  -2.378   7.820  1.00  0.00    -0.206 F 
ATOM     45  C   UNL     1       9.062  -3.381   7.090  1.00  0.00     0.022 A 
BRANCH  42  46
ATOM     46  S   UNL     1       7.527  -3.519   4.767  1.00  0.00     0.124 S 
ATOM     47  O   UNL     1       7.383  -2.210   4.135  1.00  0.00    -0.237 OA
ATOM     48  O   UNL     1       7.841  -4.628   3.874  1.00  0.00    -0.237 OA
ATOM     49  O   UNL     1       6.540  -3.814   5.804  1.00  0.00    -0.744 OA
ENDBRANCH  42  46
ENDBRANCH  25  39
BRANCH  26  50
ATOM     50  C   UNL     1      19.686   0.433   0.911  1.00  0.00     0.023 A 
ATOM     51  C   UNL     1      20.287  -0.305  -0.120  1.00  0.00     0.031 A 
ATOM     52  C   UNL     1      20.312   1.626   1.320  1.00  0.00     0.131 A 
ATOM     53  C   UNL     1      21.500   0.133  -0.676  1.00  0.00     0.055 A 
ATOM     54  C   UNL     1      21.484   2.088   0.722  1.00  0.00     0.041 A 
ATOM     55  F   UNL     1      19.778   2.372   2.300  1.00  0.00    -0.206 F 
ATOM     56  C   UNL     1      22.093   1.331  -0.273  1.00  0.00     0.022 A 
BRANCH  53  57
ATOM     57  S   UNL     1      22.346  -0.940  -1.868  1.00  0.00     0.124 S 
ATOM     58  O   UNL     1      22.449  -2.191  -1.125  1.00  0.00    -0.237 OA
ATOM     59  O   UNL     1      21.416  -0.935  -2.992  1.00  0.00    -0.237 OA
ATOM     60  O   UNL     1      23.613  -0.250  -2.106  1.00  0.00    -0.744 OA
ENDBRANCH  53  57
ENDBRANCH  26  50
BRANCH  38  61
ATOM     61  C   UNL     1      18.189  -5.132   4.816  1.00  0.00     0.023 A 
ATOM     62  C   UNL     1      19.325  -4.975   5.632  1.00  0.00     0.031 A 
ATOM     63  C   UNL     1      17.884  -6.420   4.345  1.00  0.00     0.131 A 
ATOM     64  C   UNL     1      20.157  -6.074   5.888  1.00  0.00     0.055 A 
ATOM     65  C   UNL     1      18.681  -7.522   4.657  1.00  0.00     0.041 A 
ATOM     66  F   UNL     1      16.814  -6.625   3.561  1.00  0.00    -0.206 F 
ATOM     67  C   UNL     1      19.835  -7.349   5.418  1.00  0.00     0.022 A 
BRANCH  64  68
ATOM     68  S   UNL     1      21.730  -5.790   6.746  1.00  0.00     0.124 S 
ATOM     69  O   UNL     1      22.372  -4.804   5.883  1.00  0.00    -0.237 OA
ATOM     70  O   UNL     1      21.291  -5.306   8.050  1.00  0.00    -0.237 OA
ATOM     71  O   UNL     1      22.359  -7.110   6.754  1.00  0.00    -0.744 OA
ENDBRANCH  64  68
ENDBRANCH  38  61
ENDBRANCH  12  13
ENDBRANCH   5   7
ENDBRANCH   2   3
ENDBRANCH   1   2
BRANCH   1  72
ATOM     72  C   UNL     1       7.504   5.098  -2.888  1.00  0.00     0.117 C 
BRANCH  72  73
ATOM     73  N   UNL     1       7.811   5.025  -4.303  1.00  0.00    -0.354 N 
ATOM     74  C   UNL     1       7.226   4.280  -5.286  1.00  0.00     0.249 C 
ATOM     75  H   UNL     1       8.553   5.599  -4.600  1.00  0.00     0.163 HD
ATOM     76  O   UNL     1       7.677   4.390  -6.429  1.00  0.00    -0.272 OA
BRANCH  74  77
ATOM     77  C   UNL     1       6.042   3.352  -4.956  1.00  0.00     0.207 C 
ATOM     78  C   UNL     1       4.911   3.561  -5.955  1.00  0.00     0.045 C 
ATOM     79  O   UNL     1       6.439   1.973  -5.047  1.00  0.00    -0.363 OA
ATOM     80  C   UNL     1       5.139   2.456  -6.956  1.00  0.00     0.037 C 
ATOM     81  C   UNL     1       5.641   1.335  -6.062  1.00  0.00     0.138 C 
BRANCH  81  82
ATOM     82  C   UNL     1       6.435   0.247  -6.801  1.00  0.00     0.148 C 
BRANCH  82  83
ATOM     83  N   UNL     1       5.617  -0.370  -7.827  1.00  0.00    -0.352 N 
ATOM     84  H   UNL     1       4.848  -0.930  -7.572  1.00  0.00     0.163 HD
BRANCH  83  85
ATOM     85  C   UNL     1       5.912  -0.175  -9.150  1.00  0.00     0.222 A 
ATOM     86  N   UNL     1       4.861  -0.137  -9.982  1.00  0.00    -0.222 NA
ATOM     87  N   UNL     1       7.181  -0.025  -9.548  1.00  0.00    -0.222 NA
ATOM     88  C   UNL     1       5.124   0.087 -11.283  1.00  0.00     0.117 A 
ATOM     89  C   UNL     1       7.397   0.166 -10.861  1.00  0.00     0.117 A 
ATOM     90  C   UNL     1       6.390   0.242 -11.788  1.00  0.00     0.040 A 
ENDBRANCH  83  85
ENDBRANCH  82  83
ENDBRANCH  81  82
ENDBRANCH  74  77
ENDBRANCH  72  73
ENDBRANCH   1  72
TORSDOF 16
