REMARK SMILES C[C@H](C1CC1)n1c(SCC(=O)NCCCNC(=O)c2ccc(-c3c4nc(c(-c5cc(S(=O)(=O)[O-])ccc5F)c5ccc([nH]5)c(-c5cc(S(=O)(=O)[O-])ccc5F)c5nc(c(-c6cc(S(=O)(=O)[O-])ccc6F)c6ccc3[nH]6)C=C5)C=C4)cc2)nc2cc(Cl)c(Cl)cc21
REMARK SMILES IDX 13 1 12 2 10 3 11 4 9 6 8 7 7 8 6 9 90 10 82 11 83 12 89 13
REMARK SMILES IDX 84 14 87 15 85 16 88 17 86 18 2 19 1 20 3 21 4 22 5 23 14 24
REMARK SMILES IDX 15 25 16 26 17 27 18 29 19 30 20 31 81 32 21 33 80 34 22 35
REMARK SMILES IDX 23 36 24 37 74 38 25 39 79 40 73 41 75 42 26 43 78 44 72 45
REMARK SMILES IDX 71 46 27 48 59 49 39 50 58 51 40 52 43 53 57 54 76 55 41 56
REMARK SMILES IDX 42 57 56 59 77 60 44 61 28 62 29 63 37 64 30 65 36 66 38 67
REMARK SMILES IDX 35 68 31 69 32 70 33 71 34 72 60 73 61 74 69 75 62 76 68 77
REMARK SMILES IDX 70 78 67 79 63 80 64 81 65 82 66 83 45 84 46 85 54 86 47 87
REMARK SMILES IDX 53 88 55 89 52 90 48 91 49 92 50 93 51 94
REMARK H PARENT 12 5 16 28 75 47 43 58
REMARK Flexibility Score: inf
ROOT
ATOM      1  C   UNL     1      -0.394  -4.713  -4.302  1.00  0.00     0.117 C 
ENDROOT
BRANCH   1   2
ATOM      2  N   UNL     1       0.679  -3.788  -3.999  1.00  0.00    -0.355 N 
ATOM      3  C   UNL     1       1.259  -3.529  -2.800  1.00  0.00     0.230 C 
ATOM      4  O   UNL     1       2.443  -3.172  -2.834  1.00  0.00    -0.274 OA
ATOM      5  H   UNL     1       1.035  -3.281  -4.764  1.00  0.00     0.163 HD
BRANCH   3   6
ATOM      6  C   UNL     1       0.573  -3.753  -1.470  1.00  0.00     0.178 C 
BRANCH   6   7
ATOM      7  S   UNL     1      -1.054  -3.114  -1.203  1.00  0.00    -0.078 SA
BRANCH   7   8
ATOM      8  C   UNL     1      -1.408  -1.432  -1.357  1.00  0.00     0.169 A 
ATOM      9  N   UNL     1      -0.705  -0.247  -1.226  1.00  0.00    -0.316 N 
ATOM     10  C   UNL     1      -1.649   0.795  -1.324  1.00  0.00     0.071 A 
ATOM     11  N   UNL     1      -2.701  -1.180  -1.478  1.00  0.00    -0.222 NA
ATOM     12  C   UNL     1      -2.875   0.163  -1.419  1.00  0.00     0.091 A 
ATOM     13  C   UNL     1      -1.547   2.197  -1.290  1.00  0.00     0.050 A 
ATOM     14  C   UNL     1      -4.061   0.912  -1.430  1.00  0.00     0.052 A 
ATOM     15  C   UNL     1      -2.734   2.943  -1.322  1.00  0.00     0.061 A 
ATOM     16  C   UNL     1      -3.979   2.309  -1.375  1.00  0.00     0.061 A 
ATOM     17  Cl  UNL     1      -2.574   4.667  -1.275  1.00  0.00    -0.083 Cl
ATOM     18  Cl  UNL     1      -5.462   3.199  -1.368  1.00  0.00    -0.083 Cl
BRANCH   9  19
ATOM     19  C   UNL     1       0.684   0.101  -0.919  1.00  0.00     0.090 C 
ATOM     20  C   UNL     1       1.776  -0.693  -1.587  1.00  0.00     0.032 C 
BRANCH  19  21
ATOM     21  C   UNL     1       0.882   0.397   0.552  1.00  0.00     0.012 C 
ATOM     22  C   UNL     1       0.791  -0.669   1.613  1.00  0.00     0.006 C 
ATOM     23  C   UNL     1       2.112  -0.009   1.331  1.00  0.00     0.006 C 
ENDBRANCH  19  21
ENDBRANCH   9  19
ENDBRANCH   7   8
ENDBRANCH   6   7
ENDBRANCH   3   6
ENDBRANCH   1   2
BRANCH   1  24
ATOM     24  C   UNL     1      -1.581  -4.073  -5.011  1.00  0.00     0.042 C 
BRANCH  24  25
ATOM     25  C   UNL     1      -1.280  -3.367  -6.335  1.00  0.00     0.118 C 
BRANCH  25  26
ATOM     26  N   UNL     1      -0.422  -4.079  -7.264  1.00  0.00    -0.352 N 
ATOM     27  C   UNL     1      -0.597  -5.024  -8.239  1.00  0.00     0.251 C 
ATOM     28  H   UNL     1       0.522  -3.816  -7.170  1.00  0.00     0.163 HD
ATOM     29  O   UNL     1       0.394  -5.231  -8.947  1.00  0.00    -0.269 OA
BRANCH  27  30
ATOM     30  C   UNL     1      -1.824  -5.836  -8.465  1.00  0.00     0.039 A 
ATOM     31  C   UNL     1      -3.037  -5.679  -7.799  1.00  0.00     0.014 A 
ATOM     32  C   UNL     1      -1.715  -6.877  -9.411  1.00  0.00     0.014 A 
ATOM     33  C   UNL     1      -4.076  -6.589  -8.005  1.00  0.00     0.010 A 
ATOM     34  C   UNL     1      -2.758  -7.774  -9.638  1.00  0.00     0.010 A 
ATOM     35  C   UNL     1      -3.932  -7.655  -8.905  1.00  0.00    -0.014 A 
BRANCH  35  36
ATOM     36  C   UNL     1      -5.092  -8.523  -9.134  1.00  0.00     0.031 A 
ATOM     37  C   UNL     1      -6.307  -7.822  -9.635  1.00  0.00     0.074 A 
ATOM     38  C   UNL     1      -5.113  -9.868  -9.033  1.00  0.00     0.049 A 
ATOM     39  N   UNL     1      -7.429  -7.641  -9.018  1.00  0.00    -0.248 NA
ATOM     40  C   UNL     1      -6.218  -7.143 -10.934  1.00  0.00     0.031 C 
ATOM     41  C   UNL     1      -3.981 -10.782  -8.879  1.00  0.00     0.029 A 
ATOM     42  N   UNL     1      -6.181 -10.715  -9.149  1.00  0.00    -0.354 N 
ATOM     43  C   UNL     1      -8.266  -6.986  -9.922  1.00  0.00     0.074 A 
ATOM     44  C   UNL     1      -7.421  -6.574 -11.016  1.00  0.00     0.031 C 
ATOM     45  C   UNL     1      -4.392 -12.045  -9.138  1.00  0.00     0.029 A 
ATOM     46  C   UNL     1      -5.835 -12.047  -9.330  1.00  0.00     0.049 A 
ATOM     47  H   UNL     1      -7.114 -10.406  -9.108  1.00  0.00     0.167 HD
ATOM     48  C   UNL     1      -9.625  -7.002  -9.789  1.00  0.00     0.034 A 
ATOM     49  C   UNL     1      -6.658 -13.066  -9.687  1.00  0.00     0.034 A 
ATOM     50  C   UNL     1     -10.018  -7.434  -8.473  1.00  0.00     0.049 A 
ATOM     51  C   UNL     1      -8.054 -12.678  -9.382  1.00  0.00     0.074 A 
ATOM     52  C   UNL     1      -9.772  -6.990  -7.189  1.00  0.00     0.029 A 
ATOM     53  N   UNL     1     -10.516  -8.707  -8.334  1.00  0.00    -0.354 N 
ATOM     54  N   UNL     1      -8.546 -12.583  -8.180  1.00  0.00    -0.248 NA
ATOM     55  C   UNL     1      -8.811 -12.001 -10.423  1.00  0.00     0.031 C 
ATOM     56  C   UNL     1      -9.658  -8.173  -6.406  1.00  0.00     0.029 A 
ATOM     57  C   UNL     1      -9.901  -9.263  -7.244  1.00  0.00     0.049 A 
ATOM     58  H   UNL     1     -11.189  -9.138  -8.909  1.00  0.00     0.167 HD
ATOM     59  C   UNL     1      -9.359 -11.463  -8.234  1.00  0.00     0.074 A 
ATOM     60  C   UNL     1      -9.582 -11.225  -9.659  1.00  0.00     0.031 C 
ATOM     61  C   UNL     1      -9.538 -10.661  -7.144  1.00  0.00     0.034 A 
BRANCH  48  62
ATOM     62  C   UNL     1     -10.598  -6.948 -10.947  1.00  0.00     0.023 A 
ATOM     63  C   UNL     1     -10.198  -7.073 -12.289  1.00  0.00     0.031 A 
ATOM     64  C   UNL     1     -11.990  -7.007 -10.718  1.00  0.00     0.131 A 
ATOM     65  C   UNL     1     -11.127  -7.250 -13.323  1.00  0.00     0.055 A 
ATOM     66  C   UNL     1     -12.915  -7.254 -11.742  1.00  0.00     0.041 A 
ATOM     67  F   UNL     1     -12.495  -6.895  -9.479  1.00  0.00    -0.206 F 
ATOM     68  C   UNL     1     -12.483  -7.381 -13.055  1.00  0.00     0.022 A 
BRANCH  65  69
ATOM     69  S   UNL     1     -10.563  -7.333 -15.045  1.00  0.00     0.124 S 
ATOM     70  O   UNL     1     -11.026  -8.662 -15.446  1.00  0.00    -0.237 OA
ATOM     71  O   UNL     1     -11.284  -6.209 -15.644  1.00  0.00    -0.237 OA
ATOM     72  O   UNL     1      -9.124  -7.163 -14.945  1.00  0.00    -0.744 OA
ENDBRANCH  65  69
ENDBRANCH  48  62
BRANCH  49  73
ATOM     73  C   UNL     1      -6.358 -14.146 -10.658  1.00  0.00     0.023 A 
ATOM     74  C   UNL     1      -5.377 -13.942 -11.644  1.00  0.00     0.031 A 
ATOM     75  C   UNL     1      -7.236 -15.231 -10.838  1.00  0.00     0.131 A 
ATOM     76  C   UNL     1      -5.335 -14.749 -12.788  1.00  0.00     0.055 A 
ATOM     77  C   UNL     1      -7.182 -16.048 -11.975  1.00  0.00     0.041 A 
ATOM     78  F   UNL     1      -8.216 -15.471  -9.953  1.00  0.00    -0.206 F 
ATOM     79  C   UNL     1      -6.237 -15.798 -12.965  1.00  0.00     0.022 A 
BRANCH  76  80
ATOM     80  S   UNL     1      -4.146 -14.380 -14.106  1.00  0.00     0.124 S 
ATOM     81  O   UNL     1      -3.671 -15.710 -14.480  1.00  0.00    -0.237 OA
ATOM     82  O   UNL     1      -4.991 -13.714 -15.090  1.00  0.00    -0.237 OA
ATOM     83  O   UNL     1      -3.154 -13.538 -13.443  1.00  0.00    -0.744 OA
ENDBRANCH  76  80
ENDBRANCH  49  73
BRANCH  61  84
ATOM     84  C   UNL     1      -9.076 -11.130  -5.782  1.00  0.00     0.023 A 
ATOM     85  C   UNL     1      -9.956 -10.918  -4.704  1.00  0.00     0.031 A 
ATOM     86  C   UNL     1      -7.765 -11.545  -5.476  1.00  0.00     0.131 A 
ATOM     87  C   UNL     1      -9.514 -11.069  -3.385  1.00  0.00     0.055 A 
ATOM     88  C   UNL     1      -7.351 -11.771  -4.159  1.00  0.00     0.041 A 
ATOM     89  F   UNL     1      -6.820 -11.655  -6.420  1.00  0.00    -0.206 F 
ATOM     90  C   UNL     1      -8.220 -11.514  -3.104  1.00  0.00     0.022 A 
BRANCH  87  91
ATOM     91  S   UNL     1     -10.554 -10.526  -2.005  1.00  0.00     0.124 S 
ATOM     92  O   UNL     1     -10.826 -11.782  -1.311  1.00  0.00    -0.237 OA
ATOM     93  O   UNL     1      -9.673  -9.598  -1.298  1.00  0.00    -0.237 OA
ATOM     94  O   UNL     1     -11.707  -9.907  -2.652  1.00  0.00    -0.744 OA
ENDBRANCH  87  91
ENDBRANCH  61  84
ENDBRANCH  35  36
ENDBRANCH  27  30
ENDBRANCH  25  26
ENDBRANCH  24  25
ENDBRANCH   1  24
TORSDOF 17
