REMARK SMILES Nc1ccc(-c2cc3ccccc3s2)c(C(=O)NCCCNC(=O)c2ccc(-c3c4nc(c(-c5cc(S(=O)(=O)[O-])ccc5F)c5ccc([nH]5)c(-c5cc(S(=O)(=O)[O-])ccc5F)c5nc(c(-c6cc(S(=O)(=O)[O-])ccc6F)c6ccc3[nH]6)C=C5)C=C4)cc2)n1
REMARK SMILES IDX 21 1 20 2 19 3 18 4 16 5 17 6 15 8 2 9 3 10 88 11 4 12 5 13
REMARK SMILES IDX 1 14 6 17 7 18 14 19 8 20 13 21 9 22 12 23 10 24 11 25 22 26
REMARK SMILES IDX 23 27 24 29 25 30 26 31 87 32 27 33 86 34 28 35 29 36 30 37
REMARK SMILES IDX 80 38 31 39 85 40 79 41 81 42 32 43 84 44 78 45 77 46 33 48
REMARK SMILES IDX 65 49 45 50 64 51 46 52 49 53 63 54 82 55 47 56 48 57 62 59
REMARK SMILES IDX 83 60 50 61 34 62 35 63 43 64 36 65 42 66 44 67 41 68 37 69
REMARK SMILES IDX 38 70 39 71 40 72 66 73 67 74 75 75 68 76 74 77 76 78 73 79
REMARK SMILES IDX 69 80 70 81 71 82 72 83 51 84 52 85 60 86 53 87 59 88 61 89
REMARK SMILES IDX 58 90 54 91 55 92 56 93 57 94
REMARK H PARENT 18 7 1 15 1 16 22 28 81 47 49 58
REMARK Flexibility Score: inf
ROOT
ATOM      1  C   UNL     1      -5.512   3.614   1.727  1.00  0.00     0.118 C 
ENDROOT
BRANCH   1   2
ATOM      2  C   UNL     1      -4.712   2.370   2.094  1.00  0.00     0.042 C 
BRANCH   2   3
ATOM      3  C   UNL     1      -3.877   1.783   0.972  1.00  0.00     0.118 C 
BRANCH   3   4
ATOM      4  N   UNL     1      -2.846   2.615   0.399  1.00  0.00    -0.351 N 
ATOM      5  C   UNL     1      -1.721   2.241  -0.313  1.00  0.00     0.270 C 
ATOM      6  O   UNL     1      -1.136   3.132  -0.937  1.00  0.00    -0.267 OA
ATOM      7  H   UNL     1      -2.959   3.584   0.533  1.00  0.00     0.163 HD
BRANCH   5   8
ATOM      8  C   UNL     1      -1.119   0.855  -0.287  1.00  0.00     0.139 A 
ATOM      9  C   UNL     1       0.933  -0.213   0.052  1.00  0.00     0.124 A 
ATOM     10  C   UNL     1       0.363  -1.450  -0.163  1.00  0.00     0.047 A 
ATOM     11  N   UNL     1       0.218   0.917   0.020  1.00  0.00    -0.225 NA
ATOM     12  C   UNL     1      -0.987  -1.518  -0.498  1.00  0.00     0.016 A 
ATOM     13  C   UNL     1      -1.766  -0.353  -0.594  1.00  0.00     0.023 A 
BRANCH   9  14
ATOM     14  N   UNL     1       2.273  -0.093   0.359  1.00  0.00    -0.384 N 
ATOM     15  H   UNL     1       2.843  -0.895   0.396  1.00  0.00     0.158 HD
ATOM     16  H   UNL     1       2.659   0.794   0.542  1.00  0.00     0.158 HD
ENDBRANCH   9  14
BRANCH  13  17
ATOM     17  C   UNL     1      -3.170  -0.486  -0.995  1.00  0.00     0.038 A 
ATOM     18  C   UNL     1      -3.871   0.143  -2.004  1.00  0.00     0.029 A 
ATOM     19  S   UNL     1      -4.202  -1.540  -0.109  1.00  0.00    -0.135 S 
ATOM     20  C   UNL     1      -5.299   0.011  -1.848  1.00  0.00    -0.007 A 
ATOM     21  C   UNL     1      -5.617  -0.828  -0.776  1.00  0.00     0.035 A 
ATOM     22  C   UNL     1      -6.359   0.662  -2.519  1.00  0.00     0.009 A 
ATOM     23  C   UNL     1      -6.941  -1.001  -0.332  1.00  0.00     0.019 A 
ATOM     24  C   UNL     1      -7.674   0.510  -2.069  1.00  0.00     0.001 A 
ATOM     25  C   UNL     1      -7.959  -0.302  -0.980  1.00  0.00     0.001 A 
ENDBRANCH  13  17
ENDBRANCH   5   8
ENDBRANCH   3   4
ENDBRANCH   2   3
ENDBRANCH   1   2
BRANCH   1  26
ATOM     26  N   UNL     1      -6.499   3.438   0.665  1.00  0.00    -0.352 N 
ATOM     27  C   UNL     1      -7.864   3.259   0.663  1.00  0.00     0.251 C 
ATOM     28  H   UNL     1      -6.107   3.451  -0.237  1.00  0.00     0.163 HD
ATOM     29  O   UNL     1      -8.447   3.178  -0.420  1.00  0.00    -0.269 OA
BRANCH  27  30
ATOM     30  C   UNL     1      -8.648   3.108   1.911  1.00  0.00     0.039 A 
ATOM     31  C   UNL     1      -9.713   2.196   1.935  1.00  0.00     0.014 A 
ATOM     32  C   UNL     1      -8.387   3.870   3.045  1.00  0.00     0.014 A 
ATOM     33  C   UNL     1     -10.441   1.988   3.114  1.00  0.00     0.010 A 
ATOM     34  C   UNL     1      -9.026   3.579   4.245  1.00  0.00     0.010 A 
ATOM     35  C   UNL     1     -10.070   2.644   4.295  1.00  0.00    -0.014 A 
BRANCH  35  36
ATOM     36  C   UNL     1     -10.777   2.434   5.589  1.00  0.00     0.031 A 
ATOM     37  C   UNL     1     -11.399   3.617   6.288  1.00  0.00     0.074 A 
ATOM     38  C   UNL     1     -10.762   1.226   6.186  1.00  0.00     0.049 A 
ATOM     39  N   UNL     1     -11.858   3.718   7.508  1.00  0.00    -0.248 NA
ATOM     40  C   UNL     1     -11.458   4.872   5.520  1.00  0.00     0.031 C 
ATOM     41  C   UNL     1     -10.161   0.011   5.629  1.00  0.00     0.029 A 
ATOM     42  N   UNL     1     -11.245   0.824   7.406  1.00  0.00    -0.354 N 
ATOM     43  C   UNL     1     -12.210   5.056   7.670  1.00  0.00     0.074 A 
ATOM     44  C   UNL     1     -11.853   5.734   6.443  1.00  0.00     0.031 C 
ATOM     45  C   UNL     1     -10.326  -1.000   6.497  1.00  0.00     0.029 A 
ATOM     46  C   UNL     1     -10.992  -0.498   7.695  1.00  0.00     0.049 A 
ATOM     47  H   UNL     1     -11.728   1.425   8.018  1.00  0.00     0.167 HD
ATOM     48  C   UNL     1     -12.796   5.657   8.736  1.00  0.00     0.034 A 
ATOM     49  C   UNL     1     -11.246  -1.217   8.807  1.00  0.00     0.034 A 
ATOM     50  C   UNL     1     -13.190   4.949   9.928  1.00  0.00     0.049 A 
ATOM     51  C   UNL     1     -11.921  -0.536   9.970  1.00  0.00     0.074 A 
ATOM     52  C   UNL     1     -13.856   5.434  11.040  1.00  0.00     0.029 A 
ATOM     53  N   UNL     1     -12.960   3.598  10.161  1.00  0.00    -0.354 N 
ATOM     54  N   UNL     1     -12.275   0.723  10.099  1.00  0.00    -0.248 NA
ATOM     55  C   UNL     1     -12.241  -1.373  11.133  1.00  0.00     0.031 C 
ATOM     56  C   UNL     1     -13.977   4.393  11.967  1.00  0.00     0.029 A 
ATOM     57  C   UNL     1     -13.453   3.239  11.406  1.00  0.00     0.049 A 
ATOM     58  H   UNL     1     -12.513   2.986   9.534  1.00  0.00     0.167 HD
ATOM     59  C   UNL     1     -12.886   0.820  11.347  1.00  0.00     0.074 A 
ATOM     60  C   UNL     1     -12.865  -0.510  11.922  1.00  0.00     0.031 C 
ATOM     61  C   UNL     1     -13.418   1.907  11.962  1.00  0.00     0.034 A 
BRANCH  48  62
ATOM     62  C   UNL     1     -13.020   7.150   8.658  1.00  0.00     0.023 A 
ATOM     63  C   UNL     1     -13.843   7.726   7.674  1.00  0.00     0.031 A 
ATOM     64  C   UNL     1     -12.368   8.015   9.555  1.00  0.00     0.131 A 
ATOM     65  C   UNL     1     -13.919   9.121   7.551  1.00  0.00     0.055 A 
ATOM     66  C   UNL     1     -12.521   9.402   9.484  1.00  0.00     0.041 A 
ATOM     67  F   UNL     1     -11.554   7.529  10.505  1.00  0.00    -0.206 F 
ATOM     68  C   UNL     1     -13.285   9.964   8.466  1.00  0.00     0.022 A 
BRANCH  65  69
ATOM     69  S   UNL     1     -14.729   9.816   6.085  1.00  0.00     0.124 S 
ATOM     70  O   UNL     1     -13.915   9.258   5.008  1.00  0.00    -0.237 OA
ATOM     71  O   UNL     1     -16.086   9.294   6.196  1.00  0.00    -0.237 OA
ATOM     72  O   UNL     1     -14.598  11.260   6.271  1.00  0.00    -0.744 OA
ENDBRANCH  65  69
ENDBRANCH  48  62
BRANCH  49  73
ATOM     73  C   UNL     1     -10.855  -2.655   8.886  1.00  0.00     0.023 A 
ATOM     74  C   UNL     1     -11.828  -3.663   8.977  1.00  0.00     0.031 A 
ATOM     75  C   UNL     1      -9.503  -3.041   8.903  1.00  0.00     0.131 A 
ATOM     76  C   UNL     1     -11.437  -5.003   9.126  1.00  0.00     0.055 A 
ATOM     77  C   UNL     1      -9.119  -4.380   9.001  1.00  0.00     0.041 A 
ATOM     78  F   UNL     1      -8.532  -2.119   8.810  1.00  0.00    -0.206 F 
ATOM     79  C   UNL     1     -10.089  -5.370   9.126  1.00  0.00     0.022 A 
BRANCH  76  80
ATOM     80  S   UNL     1     -12.719  -6.258   9.396  1.00  0.00     0.124 S 
ATOM     81  O   UNL     1     -13.368  -5.764  10.605  1.00  0.00    -0.237 OA
ATOM     82  O   UNL     1     -13.497  -6.164   8.166  1.00  0.00    -0.237 OA
ATOM     83  O   UNL     1     -11.957  -7.494   9.557  1.00  0.00    -0.744 OA
ENDBRANCH  76  80
ENDBRANCH  49  73
BRANCH  61  84
ATOM     84  C   UNL     1     -14.066   1.684  13.306  1.00  0.00     0.023 A 
ATOM     85  C   UNL     1     -13.315   1.331  14.440  1.00  0.00     0.031 A 
ATOM     86  C   UNL     1     -15.458   1.823  13.448  1.00  0.00     0.131 A 
ATOM     87  C   UNL     1     -13.967   1.076  15.655  1.00  0.00     0.055 A 
ATOM     88  C   UNL     1     -16.093   1.628  14.674  1.00  0.00     0.041 A 
ATOM     89  F   UNL     1     -16.222   2.158  12.396  1.00  0.00    -0.206 F 
ATOM     90  C   UNL     1     -15.349   1.240  15.784  1.00  0.00     0.022 A 
BRANCH  87  91
ATOM     91  S   UNL     1     -12.994   0.441  17.048  1.00  0.00     0.124 S 
ATOM     92  O   UNL     1     -12.434  -0.787  16.491  1.00  0.00    -0.237 OA
ATOM     93  O   UNL     1     -12.044   1.524  17.285  1.00  0.00    -0.237 OA
ATOM     94  O   UNL     1     -13.989   0.248  18.101  1.00  0.00    -0.744 OA
ENDBRANCH  87  91
ENDBRANCH  61  84
ENDBRANCH  35  36
ENDBRANCH  27  30
ENDBRANCH   1  26
TORSDOF 15
