REMARK SMILES C[NH+](C)CCCNC(=O)[C@@H]1[C@@H](C(=O)NCCCNC(=O)c2ccc(-c3c4nc(c(-c5cc(S(=O)(=O)[O-])ccc5F)c5ccc([nH]5)c(-c5cc(S(=O)(=O)[O-])ccc5F)c5nc(c(-c6cc(S(=O)(=O)[O-])ccc6F)c6ccc3[nH]6)C=C5)C=C4)cc2)C1(C)C
REMARK SMILES IDX 15 1 14 2 12 3 13 4 11 6 10 7 84 8 85 9 86 10 8 11 7 12 9 14
REMARK SMILES IDX 6 15 5 16 4 17 2 18 1 19 3 20 16 22 17 23 18 24 19 25 20 27
REMARK SMILES IDX 21 28 22 29 83 30 23 31 82 32 24 33 25 34 26 35 76 36 27 37
REMARK SMILES IDX 81 38 75 39 77 40 28 41 80 42 74 43 73 44 29 46 61 47 41 48
REMARK SMILES IDX 60 49 42 50 45 51 59 52 78 53 43 54 44 55 58 57 79 58 46 59
REMARK SMILES IDX 30 60 31 61 39 62 32 63 38 64 40 65 37 66 33 67 34 68 35 69
REMARK SMILES IDX 36 70 62 71 63 72 71 73 64 74 70 75 72 76 69 77 65 78 66 79
REMARK SMILES IDX 67 80 68 81 47 82 48 83 56 84 49 85 55 86 57 87 54 88 50 89
REMARK SMILES IDX 51 90 52 91 53 92
REMARK H PARENT 14 5 7 13 2 21 18 26 77 45 45 56
REMARK Flexibility Score: inf
ROOT
ATOM      1  C   UNL     1       1.258  -1.393  -1.288  1.00  0.00     0.117 C 
ENDROOT
BRANCH   1   2
ATOM      2  N   UNL     1       0.118  -2.306  -1.231  1.00  0.00    -0.356 N 
ATOM      3  C   UNL     1      -0.140  -3.599  -1.616  1.00  0.00     0.224 C 
ATOM      4  O   UNL     1      -1.294  -3.997  -1.458  1.00  0.00    -0.275 OA
ATOM      5  H   UNL     1      -0.666  -1.887  -0.809  1.00  0.00     0.163 HD
BRANCH   3   6
ATOM      6  C   UNL     1       0.862  -4.583  -2.128  1.00  0.00     0.098 C 
ATOM      7  C   UNL     1       2.320  -4.428  -1.855  1.00  0.00     0.098 C 
ATOM      8  C   UNL     1       1.809  -4.365  -3.303  1.00  0.00    -0.011 C 
ATOM      9  C   UNL     1       1.908  -3.055  -4.039  1.00  0.00     0.013 C 
ATOM     10  C   UNL     1       2.022  -5.553  -4.220  1.00  0.00     0.013 C 
BRANCH   7  11
ATOM     11  C   UNL     1       3.264  -5.482  -1.436  1.00  0.00     0.224 C 
ATOM     12  N   UNL     1       4.490  -5.050  -0.990  1.00  0.00    -0.356 N 
ATOM     13  H   UNL     1       5.113  -5.755  -0.700  1.00  0.00     0.163 HD
ATOM     14  O   UNL     1       2.987  -6.671  -1.490  1.00  0.00    -0.275 OA
BRANCH  12  15
ATOM     15  C   UNL     1       4.990  -3.683  -0.891  1.00  0.00     0.121 C 
BRANCH  15  16
ATOM     16  C   UNL     1       5.508  -3.349   0.501  1.00  0.00     0.083 C 
BRANCH  16  17
ATOM     17  C   UNL     1       6.813  -4.045   0.903  1.00  0.00     0.263 C 
BRANCH  17  18
ATOM     18  N   UNL     1       8.053  -3.704   0.198  1.00  0.00    -0.340 N 
ATOM     19  C   UNL     1       8.189  -4.279  -1.133  1.00  0.00     0.332 C 
ATOM     20  C   UNL     1       8.351  -2.275   0.195  1.00  0.00     0.332 C 
ATOM     21  H   UNL     1       8.766  -4.162   0.765  1.00  0.00     0.347 HD
ENDBRANCH  17  18
ENDBRANCH  16  17
ENDBRANCH  15  16
ENDBRANCH  12  15
ENDBRANCH   7  11
ENDBRANCH   3   6
ENDBRANCH   1   2
BRANCH   1  22
ATOM     22  C   UNL     1       0.978  -0.160  -2.137  1.00  0.00     0.042 C 
BRANCH  22  23
ATOM     23  C   UNL     1      -0.015   0.797  -1.503  1.00  0.00     0.118 C 
BRANCH  23  24
ATOM     24  N   UNL     1       0.560   1.520  -0.377  1.00  0.00    -0.352 N 
ATOM     25  C   UNL     1       0.989   2.825  -0.289  1.00  0.00     0.251 C 
ATOM     26  H   UNL     1       0.656   0.994   0.450  1.00  0.00     0.163 HD
ATOM     27  O   UNL     1       1.658   3.171   0.681  1.00  0.00    -0.269 OA
BRANCH  25  28
ATOM     28  C   UNL     1       0.683   3.789  -1.371  1.00  0.00     0.039 A 
ATOM     29  C   UNL     1       1.675   4.681  -1.787  1.00  0.00     0.014 A 
ATOM     30  C   UNL     1      -0.572   3.813  -1.982  1.00  0.00     0.014 A 
ATOM     31  C   UNL     1       1.439   5.522  -2.878  1.00  0.00     0.010 A 
ATOM     32  C   UNL     1      -0.771   4.577  -3.129  1.00  0.00     0.010 A 
ATOM     33  C   UNL     1       0.235   5.434  -3.596  1.00  0.00    -0.014 A 
BRANCH  33  34
ATOM     34  C   UNL     1       0.010   6.209  -4.845  1.00  0.00     0.031 A 
ATOM     35  C   UNL     1      -1.115   7.204  -4.924  1.00  0.00     0.074 A 
ATOM     36  C   UNL     1       0.768   5.958  -5.931  1.00  0.00     0.049 A 
ATOM     37  N   UNL     1      -1.544   7.889  -5.953  1.00  0.00    -0.248 NA
ATOM     38  C   UNL     1      -1.874   7.438  -3.687  1.00  0.00     0.031 C 
ATOM     39  C   UNL     1       1.874   5.000  -5.986  1.00  0.00     0.029 A 
ATOM     40  N   UNL     1       0.718   6.476  -7.202  1.00  0.00    -0.354 N 
ATOM     41  C   UNL     1      -2.626   8.630  -5.491  1.00  0.00     0.074 A 
ATOM     42  C   UNL     1      -2.828   8.255  -4.107  1.00  0.00     0.031 C 
ATOM     43  C   UNL     1       2.414   5.020  -7.215  1.00  0.00     0.029 A 
ATOM     44  C   UNL     1       1.655   5.940  -8.055  1.00  0.00     0.049 A 
ATOM     45  H   UNL     1       0.072   7.166  -7.477  1.00  0.00     0.167 HD
ATOM     46  C   UNL     1      -3.368   9.553  -6.153  1.00  0.00     0.034 A 
ATOM     47  C   UNL     1       1.865   6.145  -9.371  1.00  0.00     0.034 A 
ATOM     48  C   UNL     1      -3.155   9.910  -7.534  1.00  0.00     0.049 A 
ATOM     49  C   UNL     1       0.972   7.111 -10.109  1.00  0.00     0.074 A 
ATOM     50  C   UNL     1      -3.816  10.863  -8.289  1.00  0.00     0.029 A 
ATOM     51  N   UNL     1      -2.222   9.316  -8.376  1.00  0.00    -0.354 N 
ATOM     52  N   UNL     1      -0.018   7.839  -9.645  1.00  0.00    -0.248 NA
ATOM     53  C   UNL     1       1.221   7.280 -11.546  1.00  0.00     0.031 C 
ATOM     54  C   UNL     1      -3.344  10.787  -9.603  1.00  0.00     0.029 A 
ATOM     55  C   UNL     1      -2.325   9.848  -9.652  1.00  0.00     0.049 A 
ATOM     56  H   UNL     1      -1.581   8.620  -8.105  1.00  0.00     0.167 HD
ATOM     57  C   UNL     1      -0.490   8.572 -10.730  1.00  0.00     0.074 A 
ATOM     58  C   UNL     1       0.332   8.210 -11.866  1.00  0.00     0.031 C 
ATOM     59  C   UNL     1      -1.510   9.467 -10.782  1.00  0.00     0.034 A 
BRANCH  46  60
ATOM     60  C   UNL     1      -4.494  10.213  -5.393  1.00  0.00     0.023 A 
ATOM     61  C   UNL     1      -4.253  10.983  -4.241  1.00  0.00     0.031 A 
ATOM     62  C   UNL     1      -5.829  10.048  -5.803  1.00  0.00     0.131 A 
ATOM     63  C   UNL     1      -5.329  11.482  -3.493  1.00  0.00     0.055 A 
ATOM     64  C   UNL     1      -6.891  10.626  -5.105  1.00  0.00     0.041 A 
ATOM     65  F   UNL     1      -6.126   9.306  -6.882  1.00  0.00    -0.206 F 
ATOM     66  C   UNL     1      -6.646  11.332  -3.932  1.00  0.00     0.022 A 
BRANCH  63  67
ATOM     67  S   UNL     1      -4.989  12.177  -1.853  1.00  0.00     0.124 S 
ATOM     68  O   UNL     1      -4.316  11.060  -1.193  1.00  0.00    -0.237 OA
ATOM     69  O   UNL     1      -4.155  13.331  -2.166  1.00  0.00    -0.237 OA
ATOM     70  O   UNL     1      -6.318  12.488  -1.330  1.00  0.00    -0.744 OA
ENDBRANCH  63  67
ENDBRANCH  46  60
BRANCH  47  71
ATOM     71  C   UNL     1       2.945   5.408 -10.089  1.00  0.00     0.023 A 
ATOM     72  C   UNL     1       4.019   6.096 -10.675  1.00  0.00     0.031 A 
ATOM     73  C   UNL     1       2.901   4.009 -10.235  1.00  0.00     0.131 A 
ATOM     74  C   UNL     1       4.980   5.392 -11.417  1.00  0.00     0.055 A 
ATOM     75  C   UNL     1       3.892   3.307 -10.924  1.00  0.00     0.041 A 
ATOM     76  F   UNL     1       1.897   3.300  -9.696  1.00  0.00    -0.206 F 
ATOM     77  C   UNL     1       4.933   4.001 -11.531  1.00  0.00     0.022 A 
BRANCH  74  78
ATOM     78  S   UNL     1       6.246   6.334 -12.311  1.00  0.00     0.124 S 
ATOM     79  O   UNL     1       5.430   7.176 -13.178  1.00  0.00    -0.237 OA
ATOM     80  O   UNL     1       6.941   7.015 -11.223  1.00  0.00    -0.237 OA
ATOM     81  O   UNL     1       7.021   5.300 -12.992  1.00  0.00    -0.744 OA
ENDBRANCH  74  78
ENDBRANCH  47  71
BRANCH  59  82
ATOM     82  C   UNL     1      -1.774  10.140 -12.107  1.00  0.00     0.023 A 
ATOM     83  C   UNL     1      -2.258   9.424 -13.216  1.00  0.00     0.031 A 
ATOM     84  C   UNL     1      -1.554  11.521 -12.256  1.00  0.00     0.131 A 
ATOM     85  C   UNL     1      -2.469  10.085 -14.435  1.00  0.00     0.055 A 
ATOM     86  C   UNL     1      -1.826  12.184 -13.453  1.00  0.00     0.041 A 
ATOM     87  F   UNL     1      -1.087  12.253 -11.232  1.00  0.00    -0.206 F 
ATOM     88  C   UNL     1      -2.277  11.464 -14.555  1.00  0.00     0.022 A 
BRANCH  85  89
ATOM     89  S   UNL     1      -2.930   9.104 -15.889  1.00  0.00     0.124 S 
ATOM     90  O   UNL     1      -1.787   8.207 -16.024  1.00  0.00    -0.237 OA
ATOM     91  O   UNL     1      -4.181   8.483 -15.466  1.00  0.00    -0.237 OA
ATOM     92  O   UNL     1      -3.062  10.102 -16.949  1.00  0.00    -0.744 OA
ENDBRANCH  85  89
ENDBRANCH  59  82
ENDBRANCH  33  34
ENDBRANCH  25  28
ENDBRANCH  23  24
ENDBRANCH  22  23
ENDBRANCH   1  22
TORSDOF 18
