REMARK SMILES O=C(NCCCNC(=O)[C@H]1CC2(CCN(C(=O)C3CC3)CC2)CN1C(=O)CCn1cccn1)c1ccc(-c2c3nc(c(-c4cc(S(=O)(=O)[O-])ccc4F)c4ccc([nH]4)c(-c4cc(S(=O)(=O)[O-])ccc4F)c4nc(c(-c5cc(S(=O)(=O)[O-])ccc5F)c5ccc2[nH]5)C=C4)C=C3)cc1
REMARK SMILES IDX 5 1 4 2 3 3 1 4 2 5 34 7 35 8 96 9 36 10 95 11 37 12 38 13
REMARK SMILES IDX 39 14 89 15 40 16 94 17 88 18 90 19 41 20 93 21 87 22 86 23
REMARK SMILES IDX 42 25 74 26 54 27 73 28 55 29 58 30 72 31 91 32 56 33 57 34
REMARK SMILES IDX 71 36 92 37 59 38 43 39 44 40 52 41 45 42 51 43 53 44 50 45
REMARK SMILES IDX 46 46 47 47 48 48 49 49 75 50 76 51 84 52 77 53 83 54 85 55
REMARK SMILES IDX 82 56 78 57 79 58 80 59 81 60 60 61 61 62 69 63 62 64 68 65
REMARK SMILES IDX 70 66 67 67 63 68 64 69 65 70 66 71 6 72 7 73 8 74 9 76
REMARK SMILES IDX 10 77 11 78 24 79 12 80 23 81 13 82 22 83 14 84 21 85 15 86
REMARK SMILES IDX 16 87 17 88 25 89 26 90 27 91 28 92 29 93 30 94 33 95 31 96
REMARK SMILES IDX 32 97 18 98 19 99 20 100
REMARK H PARENT 3 6 90 24 58 35 7 75
REMARK Flexibility Score: inf
ROOT
ATOM      1  C   UNL     1       8.038   5.877  -1.753  1.00  0.00     0.042 C 
ENDROOT
BRANCH   1   2
ATOM      2  C   UNL     1       7.199   5.875  -2.990  1.00  0.00     0.118 C 
BRANCH   2   3
ATOM      3  N   UNL     1       7.080   7.216  -3.491  1.00  0.00    -0.352 N 
ATOM      4  O   UNL     1       7.564   9.136  -4.426  1.00  0.00    -0.269 OA
ATOM      5  C   UNL     1       7.913   7.966  -4.251  1.00  0.00     0.251 C 
ATOM      6  H   UNL     1       6.245   7.671  -3.236  1.00  0.00     0.163 HD
BRANCH   5   7
ATOM      7  C   UNL     1       9.259   7.517  -4.693  1.00  0.00     0.039 A 
ATOM      8  C   UNL     1       9.863   6.257  -4.704  1.00  0.00     0.014 A 
ATOM      9  C   UNL     1      10.085   8.585  -5.002  1.00  0.00     0.014 A 
ATOM     10  C   UNL     1      11.316   6.211  -4.622  1.00  0.00     0.010 A 
ATOM     11  C   UNL     1      11.389   8.354  -5.372  1.00  0.00     0.010 A 
ATOM     12  C   UNL     1      12.112   7.436  -4.638  1.00  0.00    -0.014 A 
BRANCH  12  13
ATOM     13  C   UNL     1      13.711   7.710  -4.877  1.00  0.00     0.031 A 
ATOM     14  C   UNL     1      13.757   6.718  -6.315  1.00  0.00     0.074 A 
ATOM     15  C   UNL     1      14.743   8.627  -4.172  1.00  0.00     0.049 A 
ATOM     16  N   UNL     1      14.054   5.442  -6.324  1.00  0.00    -0.248 NA
ATOM     17  C   UNL     1      12.938   6.872  -7.641  1.00  0.00     0.031 C 
ATOM     18  C   UNL     1      14.817   9.703  -2.962  1.00  0.00     0.029 A 
ATOM     19  N   UNL     1      16.166   8.845  -4.397  1.00  0.00    -0.354 N 
ATOM     20  C   UNL     1      14.207   5.090  -7.681  1.00  0.00     0.074 A 
ATOM     21  C   UNL     1      13.256   5.816  -8.405  1.00  0.00     0.031 C 
ATOM     22  C   UNL     1      15.909  10.584  -3.020  1.00  0.00     0.029 A 
ATOM     23  C   UNL     1      16.859  10.120  -4.005  1.00  0.00     0.049 A 
ATOM     24  H   UNL     1      16.693   8.130  -4.823  1.00  0.00     0.167 HD
ATOM     25  C   UNL     1      15.398   4.624  -8.128  1.00  0.00     0.034 A 
ATOM     26  C   UNL     1      18.189  10.576  -4.281  1.00  0.00     0.034 A 
ATOM     27  C   UNL     1      16.160   4.288  -6.960  1.00  0.00     0.049 A 
ATOM     28  C   UNL     1      18.786   9.392  -4.966  1.00  0.00     0.074 A 
ATOM     29  C   UNL     1      15.917   3.418  -5.913  1.00  0.00     0.029 A 
ATOM     30  N   UNL     1      16.794   5.383  -6.439  1.00  0.00    -0.354 N 
ATOM     31  N   UNL     1      19.012   8.280  -4.315  1.00  0.00    -0.248 NA
ATOM     32  C   UNL     1      18.318   9.291  -6.353  1.00  0.00     0.031 C 
ATOM     33  C   UNL     1      16.239   4.131  -4.722  1.00  0.00     0.029 A 
ATOM     34  C   UNL     1      16.872   5.314  -5.077  1.00  0.00     0.049 A 
ATOM     35  H   UNL     1      17.150   6.126  -6.978  1.00  0.00     0.167 HD
ATOM     36  C   UNL     1      18.242   7.345  -4.987  1.00  0.00     0.074 A 
ATOM     37  C   UNL     1      17.843   8.037  -6.269  1.00  0.00     0.031 C 
ATOM     38  C   UNL     1      17.577   6.321  -4.331  1.00  0.00     0.034 A 
BRANCH  25  39
ATOM     39  C   UNL     1      16.024   4.944  -9.465  1.00  0.00     0.023 A 
ATOM     40  C   UNL     1      17.131   4.168  -9.822  1.00  0.00     0.031 A 
ATOM     41  C   UNL     1      15.769   6.075 -10.286  1.00  0.00     0.131 A 
ATOM     42  C   UNL     1      17.932   4.513 -10.922  1.00  0.00     0.055 A 
ATOM     43  C   UNL     1      16.520   6.367 -11.434  1.00  0.00     0.041 A 
ATOM     44  F   UNL     1      14.841   6.992  -9.976  1.00  0.00    -0.206 F 
ATOM     45  C   UNL     1      17.615   5.582 -11.756  1.00  0.00     0.022 A 
BRANCH  42  46
ATOM     46  S   UNL     1      19.490   3.620 -11.132  1.00  0.00     0.124 S 
ATOM     47  O   UNL     1      20.152   3.875  -9.858  1.00  0.00    -0.237 OA
ATOM     48  O   UNL     1      19.024   2.255 -11.352  1.00  0.00    -0.237 OA
ATOM     49  O   UNL     1      20.095   4.267 -12.293  1.00  0.00    -0.744 OA
ENDBRANCH  42  46
ENDBRANCH  25  39
BRANCH  26  50
ATOM     50  C   UNL     1      18.746  12.036  -4.639  1.00  0.00     0.023 A 
ATOM     51  C   UNL     1      20.081  12.638  -4.760  1.00  0.00     0.031 A 
ATOM     52  C   UNL     1      17.735  12.839  -5.184  1.00  0.00     0.131 A 
ATOM     53  C   UNL     1      20.269  13.947  -5.384  1.00  0.00     0.055 A 
ATOM     54  C   UNL     1      17.936  14.062  -5.835  1.00  0.00     0.041 A 
ATOM     55  F   UNL     1      16.468  12.411  -5.173  1.00  0.00    -0.206 F 
ATOM     56  C   UNL     1      19.193  14.618  -5.957  1.00  0.00     0.022 A 
BRANCH  53  57
ATOM     57  S   UNL     1      21.869  14.921  -5.418  1.00  0.00     0.124 S 
ATOM     58  O   UNL     1      22.152  15.111  -4.000  1.00  0.00    -0.237 OA
ATOM     59  O   UNL     1      22.780  14.053  -6.154  1.00  0.00    -0.237 OA
ATOM     60  O   UNL     1      21.518  16.158  -6.126  1.00  0.00    -0.744 OA
ENDBRANCH  53  57
ENDBRANCH  26  50
BRANCH  38  61
ATOM     61  C   UNL     1      17.694   6.078  -2.809  1.00  0.00     0.023 A 
ATOM     62  C   UNL     1      17.087   6.772  -1.720  1.00  0.00     0.031 A 
ATOM     63  C   UNL     1      18.426   4.935  -2.464  1.00  0.00     0.131 A 
ATOM     64  C   UNL     1      17.422   6.438  -0.381  1.00  0.00     0.055 A 
ATOM     65  C   UNL     1      18.608   4.513  -1.147  1.00  0.00     0.041 A 
ATOM     66  F   UNL     1      18.945   4.161  -3.429  1.00  0.00    -0.206 F 
ATOM     67  C   UNL     1      18.140   5.281  -0.091  1.00  0.00     0.022 A 
BRANCH  64  68
ATOM     68  S   UNL     1      17.194   7.669   0.963  1.00  0.00     0.124 S 
ATOM     69  O   UNL     1      18.126   8.720   0.577  1.00  0.00    -0.237 OA
ATOM     70  O   UNL     1      15.793   8.043   0.846  1.00  0.00    -0.237 OA
ATOM     71  O   UNL     1      17.548   6.930   2.175  1.00  0.00    -0.744 OA
ENDBRANCH  64  68
ENDBRANCH  38  61
ENDBRANCH  12  13
ENDBRANCH   5   7
ENDBRANCH   2   3
ENDBRANCH   1   2
BRANCH   1  72
ATOM     72  C   UNL     1       7.293   6.736  -0.760  1.00  0.00     0.117 C 
BRANCH  72  73
ATOM     73  N   UNL     1       5.831   5.952  -0.241  1.00  0.00    -0.354 N 
ATOM     74  C   UNL     1       5.228   5.214   1.569  1.00  0.00     0.242 C 
ATOM     75  H   UNL     1       5.164   5.843  -0.957  1.00  0.00     0.163 HD
ATOM     76  O   UNL     1       4.142   4.657   1.962  1.00  0.00    -0.273 OA
BRANCH  74  77
ATOM     77  C   UNL     1       6.212   5.390   3.113  1.00  0.00     0.175 C 
ATOM     78  C   UNL     1       7.744   5.295   3.026  1.00  0.00     0.044 C 
ATOM     79  N   UNL     1       6.041   6.579   3.949  1.00  0.00    -0.330 N 
ATOM     80  C   UNL     1       8.424   5.977   4.163  1.00  0.00    -0.006 C 
ATOM     81  C   UNL     1       7.242   6.736   4.820  1.00  0.00     0.127 C 
ATOM     82  C   UNL     1       9.473   6.989   3.603  1.00  0.00     0.030 C 
ATOM     83  C   UNL     1       9.147   4.790   4.827  1.00  0.00     0.030 C 
ATOM     84  C   UNL     1      10.528   6.324   2.717  1.00  0.00     0.120 C 
ATOM     85  C   UNL     1      10.221   4.183   3.867  1.00  0.00     0.120 C 
ATOM     86  N   UNL     1      11.141   5.214   3.419  1.00  0.00    -0.342 N 
ATOM     87  C   UNL     1      12.477   5.055   3.748  1.00  0.00     0.225 C 
ATOM     88  O   UNL     1      12.833   4.113   4.457  1.00  0.00    -0.275 OA
BRANCH  79  89
ATOM     89  C   UNL     1       4.996   7.488   3.939  1.00  0.00     0.225 C 
ATOM     90  O   UNL     1       5.066   8.499   4.651  1.00  0.00    -0.275 OA
BRANCH  89  91
ATOM     91  C   UNL     1       3.716   7.323   3.081  1.00  0.00     0.124 C 
BRANCH  91  92
ATOM     92  C   UNL     1       3.744   7.674   1.587  1.00  0.00     0.154 C 
BRANCH  92  93
ATOM     93  N   UNL     1       4.616   6.841   0.786  1.00  0.00    -0.272 N 
ATOM     94  C   UNL     1       6.399   6.692   1.325  1.00  0.00     0.108 A 
ATOM     95  N   UNL     1       4.091   5.261  -0.081  1.00  0.00    -0.182 NA
ATOM     96  C   UNL     1       6.957   4.971   0.811  1.00  0.00     0.042 A 
ATOM     97  C   UNL     1       5.414   4.127  -0.025  1.00  0.00     0.135 A 
ENDBRANCH  92  93
ENDBRANCH  91  92
ENDBRANCH  89  91
ENDBRANCH  79  89
BRANCH  87  98
ATOM     98  C   UNL     1      13.544   5.946   3.258  1.00  0.00     0.079 C 
ATOM     99  C   UNL     1      13.492   6.904   2.114  1.00  0.00     0.014 C 
ATOM    100  C   UNL     1      13.679   7.412   3.529  1.00  0.00     0.014 C 
ENDBRANCH  87  98
ENDBRANCH  74  77
ENDBRANCH  72  73
ENDBRANCH   1  72
TORSDOF 18
