REMARK SMILES CC(C)c1nc(N2C[C@H](C)OC(C)(C)C2)sc1C(=O)NCCCNC(=O)c1ccc(-c2c3nc(c(-c4cc(S(=O)(=O)[O-])ccc4F)c4ccc([nH]4)c(-c4cc(S(=O)(=O)[O-])ccc4F)c4nc(c(-c5cc(S(=O)(=O)[O-])ccc5F)c5ccc2[nH]5)C=C4)C=C3)cc1
REMARK SMILES IDX 23 1 22 2 21 3 20 4 18 5 19 6 17 8 4 9 5 10 6 11 16 12 2 13
REMARK SMILES IDX 1 14 3 15 7 16 8 17 15 18 9 19 12 20 11 21 10 22 13 23 14 24
REMARK SMILES IDX 24 25 25 26 26 28 27 29 28 30 89 31 29 32 88 33 30 34 31 35
REMARK SMILES IDX 32 36 82 37 33 38 87 39 81 40 83 41 34 42 86 43 80 44 79 45
REMARK SMILES IDX 35 47 67 48 47 49 66 50 48 51 51 52 65 53 84 54 49 55 50 56
REMARK SMILES IDX 64 58 85 59 52 60 36 61 37 62 45 63 38 64 44 65 46 66 43 67
REMARK SMILES IDX 39 68 40 69 41 70 42 71 68 72 69 73 77 74 70 75 76 76 78 77
REMARK SMILES IDX 75 78 71 79 72 80 73 81 74 82 53 83 54 84 62 85 55 86 61 87
REMARK SMILES IDX 63 88 60 89 56 90 57 91 58 92 59 93
REMARK H PARENT 20 7 24 27 83 46 51 57
REMARK Flexibility Score: inf
ROOT
ATOM      1  C   UNL     1       2.906   4.781   0.336  1.00  0.00     0.118 C 
ENDROOT
BRANCH   1   2
ATOM      2  C   UNL     1       2.150   3.459   0.469  1.00  0.00     0.042 C 
BRANCH   2   3
ATOM      3  C   UNL     1       1.167   3.417   1.641  1.00  0.00     0.118 C 
BRANCH   3   4
ATOM      4  N   UNL     1      -0.115   3.971   1.258  1.00  0.00    -0.351 N 
ATOM      5  C   UNL     1      -1.365   3.472   0.994  1.00  0.00     0.263 C 
ATOM      6  O   UNL     1      -2.179   4.379   0.767  1.00  0.00    -0.268 OA
ATOM      7  H   UNL     1      -0.081   4.950   1.163  1.00  0.00     0.163 HD
BRANCH   5   8
ATOM      8  C   UNL     1      -1.766   2.067   1.007  1.00  0.00     0.117 A 
ATOM      9  C   UNL     1      -1.205   0.811   0.757  1.00  0.00     0.069 A 
ATOM     10  N   UNL     1      -2.098  -0.261   0.897  1.00  0.00    -0.224 NA
ATOM     11  C   UNL     1      -3.330   0.144   1.044  1.00  0.00     0.186 A 
ATOM     12  S   UNL     1      -3.481   1.831   1.257  1.00  0.00    -0.091 S 
BRANCH   9  13
ATOM     13  C   UNL     1       0.175   0.428   0.271  1.00  0.00     0.034 C 
ATOM     14  C   UNL     1       0.397  -1.093   0.207  1.00  0.00     0.014 C 
ATOM     15  C   UNL     1       0.456   1.009  -1.115  1.00  0.00     0.014 C 
ENDBRANCH   9  13
BRANCH  11  16
ATOM     16  N   UNL     1      -4.412  -0.671   1.052  1.00  0.00    -0.343 N 
ATOM     17  C   UNL     1      -5.369  -0.630  -0.054  1.00  0.00     0.150 C 
ATOM     18  C   UNL     1      -4.411  -1.899   1.843  1.00  0.00     0.153 C 
ATOM     19  C   UNL     1      -5.237  -1.906  -0.911  1.00  0.00     0.135 C 
ATOM     20  C   UNL     1      -4.441  -3.183   0.970  1.00  0.00     0.081 C 
ATOM     21  O   UNL     1      -5.405  -3.086  -0.103  1.00  0.00    -0.369 OA
ATOM     22  C   UNL     1      -6.306  -1.951  -1.997  1.00  0.00     0.040 C 
ATOM     23  C   UNL     1      -3.054  -3.539   0.417  1.00  0.00     0.044 C 
ATOM     24  C   UNL     1      -4.926  -4.356   1.839  1.00  0.00     0.044 C 
ENDBRANCH  11  16
ENDBRANCH   5   8
ENDBRANCH   3   4
ENDBRANCH   2   3
ENDBRANCH   1   2
BRANCH   1  25
ATOM     25  N   UNL     1       4.069   4.834   1.206  1.00  0.00    -0.352 N 
ATOM     26  C   UNL     1       5.405   4.624   0.956  1.00  0.00     0.251 C 
ATOM     27  H   UNL     1       3.863   5.061   2.142  1.00  0.00     0.163 HD
ATOM     28  O   UNL     1       6.148   4.466   1.924  1.00  0.00    -0.269 OA
BRANCH  26  29
ATOM     29  C   UNL     1       5.973   4.566  -0.419  1.00  0.00     0.039 A 
ATOM     30  C   UNL     1       7.096   3.757  -0.640  1.00  0.00     0.014 A 
ATOM     31  C   UNL     1       5.501   5.358  -1.468  1.00  0.00     0.014 A 
ATOM     32  C   UNL     1       7.712   3.718  -1.898  1.00  0.00     0.010 A 
ATOM     33  C   UNL     1       6.058   5.249  -2.747  1.00  0.00     0.010 A 
ATOM     34  C   UNL     1       7.186   4.446  -2.976  1.00  0.00    -0.014 A 
BRANCH  34  35
ATOM     35  C   UNL     1       7.829   4.423  -4.324  1.00  0.00     0.031 A 
ATOM     36  C   UNL     1       8.365   5.699  -4.929  1.00  0.00     0.074 A 
ATOM     37  C   UNL     1       7.894   3.275  -5.027  1.00  0.00     0.049 A 
ATOM     38  N   UNL     1       8.863   5.910  -6.122  1.00  0.00    -0.248 NA
ATOM     39  C   UNL     1       8.301   6.904  -4.089  1.00  0.00     0.031 C 
ATOM     40  C   UNL     1       7.394   1.976  -4.572  1.00  0.00     0.029 A 
ATOM     41  N   UNL     1       8.401   3.012  -6.277  1.00  0.00    -0.354 N 
ATOM     42  C   UNL     1       9.145   7.273  -6.184  1.00  0.00     0.074 A 
ATOM     43  C   UNL     1       8.704   7.844  -4.929  1.00  0.00     0.031 C 
ATOM     44  C   UNL     1       7.644   1.052  -5.515  1.00  0.00     0.029 A 
ATOM     45  C   UNL     1       8.274   1.696  -6.663  1.00  0.00     0.049 A 
ATOM     46  H   UNL     1       8.817   3.701  -6.844  1.00  0.00     0.167 HD
ATOM     47  C   UNL     1       9.737   7.979  -7.181  1.00  0.00     0.034 A 
ATOM     48  C   UNL     1       8.611   1.079  -7.814  1.00  0.00     0.034 A 
ATOM     49  C   UNL     1      10.200   7.392  -8.416  1.00  0.00     0.049 A 
ATOM     50  C   UNL     1       9.252   1.886  -8.916  1.00  0.00     0.074 A 
ATOM     51  C   UNL     1      10.859   8.004  -9.469  1.00  0.00     0.029 A 
ATOM     52  N   UNL     1      10.054   6.055  -8.766  1.00  0.00    -0.354 N 
ATOM     53  N   UNL     1       9.537   3.168  -8.944  1.00  0.00    -0.248 NA
ATOM     54  C   UNL     1       9.626   1.160 -10.137  1.00  0.00     0.031 C 
ATOM     55  C   UNL     1      11.053   7.055 -10.479  1.00  0.00     0.029 A 
ATOM     56  C   UNL     1      10.585   5.831 -10.027  1.00  0.00     0.049 A 
ATOM     57  H   UNL     1       9.634   5.367  -8.201  1.00  0.00     0.167 HD
ATOM     58  C   UNL     1      10.152   3.393 -10.173  1.00  0.00     0.074 A 
ATOM     59  C   UNL     1      10.210   2.113 -10.848  1.00  0.00     0.031 C 
ATOM     60  C   UNL     1      10.630   4.551 -10.694  1.00  0.00     0.034 A 
BRANCH  47  61
ATOM     61  C   UNL     1       9.893   9.470  -6.983  1.00  0.00     0.023 A 
ATOM     62  C   UNL     1      10.674  10.001  -5.941  1.00  0.00     0.031 A 
ATOM     63  C   UNL     1       9.230  10.376  -7.830  1.00  0.00     0.131 A 
ATOM     64  C   UNL     1      10.704  11.387  -5.721  1.00  0.00     0.055 A 
ATOM     65  C   UNL     1       9.336  11.759  -7.661  1.00  0.00     0.041 A 
ATOM     66  F   UNL     1       8.455   9.933  -8.833  1.00  0.00    -0.206 F 
ATOM     67  C   UNL     1      10.062  12.272  -6.590  1.00  0.00     0.022 A 
BRANCH  64  68
ATOM     68  S   UNL     1      11.467  12.006  -4.196  1.00  0.00     0.124 S 
ATOM     69  O   UNL     1      10.668  11.332  -3.175  1.00  0.00    -0.237 OA
ATOM     70  O   UNL     1      12.848  11.552  -4.328  1.00  0.00    -0.237 OA
ATOM     71  O   UNL     1      11.273  13.450  -4.277  1.00  0.00    -0.744 OA
ENDBRANCH  64  68
ENDBRANCH  47  61
BRANCH  48  72
ATOM     72  C   UNL     1       8.345  -0.377  -7.999  1.00  0.00     0.023 A 
ATOM     73  C   UNL     1       9.400  -1.290  -8.159  1.00  0.00     0.031 A 
ATOM     74  C   UNL     1       7.031  -0.874  -8.060  1.00  0.00     0.131 A 
ATOM     75  C   UNL     1       9.125  -2.642  -8.419  1.00  0.00     0.055 A 
ATOM     76  C   UNL     1       6.762  -2.229  -8.265  1.00  0.00     0.041 A 
ATOM     77  F   UNL     1       5.984  -0.046  -7.910  1.00  0.00    -0.206 F 
ATOM     78  C   UNL     1       7.813  -3.119  -8.459  1.00  0.00     0.022 A 
BRANCH  75  79
ATOM     79  S   UNL     1      10.508  -3.755  -8.789  1.00  0.00     0.124 S 
ATOM     80  O   UNL     1      11.112  -3.105  -9.946  1.00  0.00    -0.237 OA
ATOM     81  O   UNL     1      11.277  -3.704  -7.549  1.00  0.00    -0.237 OA
ATOM     82  O   UNL     1       9.853  -5.033  -9.060  1.00  0.00    -0.744 OA
ENDBRANCH  75  79
ENDBRANCH  48  72
BRANCH  60  83
ATOM     83  C   UNL     1      11.303   4.472 -12.043  1.00  0.00     0.023 A 
ATOM     84  C   UNL     1      10.587   4.157 -13.211  1.00  0.00     0.031 A 
ATOM     85  C   UNL     1      12.686   4.704 -12.157  1.00  0.00     0.131 A 
ATOM     86  C   UNL     1      11.265   4.027 -14.433  1.00  0.00     0.055 A 
ATOM     87  C   UNL     1      13.344   4.633 -13.385  1.00  0.00     0.041 A 
ATOM     88  F   UNL     1      13.419   5.006 -11.074  1.00  0.00    -0.206 F 
ATOM     89  C   UNL     1      12.636   4.280 -14.530  1.00  0.00     0.022 A 
BRANCH  86  90
ATOM     90  S   UNL     1      10.348   3.433 -15.880  1.00  0.00     0.124 S 
ATOM     91  O   UNL     1       9.860   2.137 -15.420  1.00  0.00    -0.237 OA
ATOM     92  O   UNL     1       9.335   4.470 -16.055  1.00  0.00    -0.237 OA
ATOM     93  O   UNL     1      11.363   3.376 -16.931  1.00  0.00    -0.744 OA
ENDBRANCH  86  90
ENDBRANCH  60  83
ENDBRANCH  34  35
ENDBRANCH  26  29
ENDBRANCH   1  25
TORSDOF 15
