REMARK SMILES CC(C)n1cncc1C[NH2+][C@@H]1CCC[C@H](C(=O)NCCCNC(=O)c2ccc(-c3c4nc(c(-c5cc(S(=O)(=O)[O-])ccc5F)c5ccc([nH]5)c(-c5cc(S(=O)(=O)[O-])ccc5F)c5nc(c(-c6cc(S(=O)(=O)[O-])ccc6F)c6ccc3[nH]6)C=C5)C=C4)cc2)C1
REMARK SMILES IDX 19 1 18 2 16 3 17 4 15 6 11 7 12 8 88 9 13 10 14 11 10 12
REMARK SMILES IDX 9 15 8 16 4 17 5 18 6 19 7 20 2 21 1 22 3 23 20 24 21 25
REMARK SMILES IDX 22 26 23 27 24 29 25 30 26 31 87 32 27 33 86 34 28 35 29 36
REMARK SMILES IDX 30 37 80 38 31 39 85 40 79 41 81 42 32 43 84 44 78 45 77 46
REMARK SMILES IDX 33 48 65 49 45 50 64 51 46 52 49 53 63 54 82 55 47 56 48 57
REMARK SMILES IDX 62 59 83 60 50 61 34 62 35 63 43 64 36 65 42 66 44 67 41 68
REMARK SMILES IDX 37 69 38 70 39 71 40 72 66 73 67 74 75 75 68 76 74 77 76 78
REMARK SMILES IDX 73 79 69 80 70 81 71 82 72 83 51 84 52 85 60 86 53 87 59 88
REMARK SMILES IDX 61 89 58 90 54 91 55 92 56 93 57 94
REMARK H PARENT 18 5 10 13 10 14 22 28 81 47 49 58
REMARK Flexibility Score: inf
ROOT
ATOM      1  C   UNL     1      -4.022   8.327   0.440  1.00  0.00     0.117 C 
ENDROOT
BRANCH   1   2
ATOM      2  N   UNL     1      -3.698   9.202  -0.683  1.00  0.00    -0.356 N 
ATOM      3  C   UNL     1      -2.631   9.212  -1.535  1.00  0.00     0.223 C 
ATOM      4  O   UNL     1      -2.663   9.975  -2.503  1.00  0.00    -0.275 OA
ATOM      5  H   UNL     1      -4.363   9.907  -0.855  1.00  0.00     0.163 HD
BRANCH   3   6
ATOM      6  C   UNL     1      -1.404   8.335  -1.295  1.00  0.00     0.084 C 
ATOM      7  C   UNL     1      -0.838   5.868  -0.642  1.00  0.00     0.183 C 
ATOM      8  C   UNL     1      -0.388   6.445   0.707  1.00  0.00     0.065 C 
ATOM      9  C   UNL     1      -1.735   6.838  -1.434  1.00  0.00     0.078 C 
ATOM     10  C   UNL     1       0.287   7.792   0.523  1.00  0.00     0.007 C 
ATOM     11  C   UNL     1      -0.708   8.797  -0.011  1.00  0.00     0.014 C 
BRANCH   7  12
ATOM     12  N   UNL     1      -1.549   4.582  -0.575  1.00  0.00    -0.339 N 
ATOM     13  H   UNL     1      -2.548   4.779  -0.634  1.00  0.00     0.346 HD
ATOM     14  H   UNL     1      -1.175   4.030  -1.347  1.00  0.00     0.346 HD
BRANCH  12  15
ATOM     15  C   UNL     1      -1.329   3.772   0.611  1.00  0.00     0.317 C 
BRANCH  15  16
ATOM     16  C   UNL     1      -1.760   2.372   0.365  1.00  0.00     0.093 A 
ATOM     17  N   UNL     1      -0.923   1.285   0.188  1.00  0.00    -0.327 N 
ATOM     18  C   UNL     1      -1.735   0.183   0.092  1.00  0.00     0.200 A 
ATOM     19  N   UNL     1      -3.008   0.494   0.139  1.00  0.00    -0.245 NA
ATOM     20  C   UNL     1      -3.037   1.849   0.297  1.00  0.00     0.140 A 
BRANCH  17  21
ATOM     21  C   UNL     1       0.542   1.281   0.196  1.00  0.00     0.082 C 
ATOM     22  C   UNL     1       1.165  -0.118   0.075  1.00  0.00     0.031 C 
ATOM     23  C   UNL     1       1.147   2.164  -0.904  1.00  0.00     0.031 C 
ENDBRANCH  17  21
ENDBRANCH  15  16
ENDBRANCH  12  15
ENDBRANCH   7  12
ENDBRANCH   3   6
ENDBRANCH   1   2
BRANCH   1  24
ATOM     24  C   UNL     1      -4.054   9.016   1.804  1.00  0.00     0.042 C 
BRANCH  24  25
ATOM     25  C   UNL     1      -5.208   9.984   1.963  1.00  0.00     0.118 C 
BRANCH  25  26
ATOM     26  N   UNL     1      -6.519   9.332   1.996  1.00  0.00    -0.352 N 
ATOM     27  C   UNL     1      -7.755   9.935   2.152  1.00  0.00     0.251 C 
ATOM     28  H   UNL     1      -6.521   8.352   1.897  1.00  0.00     0.163 HD
ATOM     29  O   UNL     1      -8.730   9.275   2.502  1.00  0.00    -0.269 OA
BRANCH  27  30
ATOM     30  C   UNL     1      -7.862  11.386   1.913  1.00  0.00     0.039 A 
ATOM     31  C   UNL     1      -8.590  12.222   2.763  1.00  0.00     0.014 A 
ATOM     32  C   UNL     1      -7.134  11.915   0.855  1.00  0.00     0.014 A 
ATOM     33  C   UNL     1      -8.486  13.603   2.594  1.00  0.00     0.010 A 
ATOM     34  C   UNL     1      -6.877  13.261   0.818  1.00  0.00     0.010 A 
ATOM     35  C   UNL     1      -7.598  14.121   1.637  1.00  0.00    -0.014 A 
BRANCH  35  36
ATOM     36  C   UNL     1      -7.327  15.555   1.542  1.00  0.00     0.031 A 
ATOM     37  C   UNL     1      -6.955  16.213   2.822  1.00  0.00     0.074 A 
ATOM     38  C   UNL     1      -7.184  16.208   0.366  1.00  0.00     0.049 A 
ATOM     39  N   UNL     1      -7.646  17.069   3.498  1.00  0.00    -0.248 NA
ATOM     40  C   UNL     1      -5.736  15.763   3.512  1.00  0.00     0.031 C 
ATOM     41  C   UNL     1      -7.209  15.650  -0.993  1.00  0.00     0.029 A 
ATOM     42  N   UNL     1      -6.856  17.510   0.142  1.00  0.00    -0.354 N 
ATOM     43  C   UNL     1      -6.842  17.459   4.565  1.00  0.00     0.074 A 
ATOM     44  C   UNL     1      -5.797  16.474   4.641  1.00  0.00     0.031 C 
ATOM     45  C   UNL     1      -6.668  16.534  -1.858  1.00  0.00     0.029 A 
ATOM     46  C   UNL     1      -6.440  17.784  -1.158  1.00  0.00     0.049 A 
ATOM     47  H   UNL     1      -6.908  18.201   0.842  1.00  0.00     0.167 HD
ATOM     48  C   UNL     1      -6.973  18.692   5.132  1.00  0.00     0.034 A 
ATOM     49  C   UNL     1      -5.932  18.948  -1.637  1.00  0.00     0.034 A 
ATOM     50  C   UNL     1      -8.221  19.311   4.730  1.00  0.00     0.049 A 
ATOM     51  C   UNL     1      -6.391  20.018  -0.719  1.00  0.00     0.074 A 
ATOM     52  C   UNL     1      -9.552  18.947   4.816  1.00  0.00     0.029 A 
ATOM     53  N   UNL     1      -8.178  20.301   3.772  1.00  0.00    -0.354 N 
ATOM     54  N   UNL     1      -7.647  20.340  -0.570  1.00  0.00    -0.248 NA
ATOM     55  C   UNL     1      -5.523  20.393   0.387  1.00  0.00     0.031 C 
ATOM     56  C   UNL     1     -10.118  19.339   3.566  1.00  0.00     0.029 A 
ATOM     57  C   UNL     1      -9.133  20.002   2.831  1.00  0.00     0.049 A 
ATOM     58  H   UNL     1      -7.574  21.079   3.764  1.00  0.00     0.167 HD
ATOM     59  C   UNL     1      -7.807  20.535   0.793  1.00  0.00     0.074 A 
ATOM     60  C   UNL     1      -6.447  20.666   1.314  1.00  0.00     0.031 C 
ATOM     61  C   UNL     1      -9.001  20.287   1.412  1.00  0.00     0.034 A 
BRANCH  48  62
ATOM     62  C   UNL     1      -5.843  19.503   5.740  1.00  0.00     0.023 A 
ATOM     63  C   UNL     1      -6.168  20.780   6.238  1.00  0.00     0.031 A 
ATOM     64  C   UNL     1      -4.462  19.237   5.607  1.00  0.00     0.131 A 
ATOM     65  C   UNL     1      -5.175  21.752   6.454  1.00  0.00     0.055 A 
ATOM     66  C   UNL     1      -3.472  20.184   5.893  1.00  0.00     0.041 A 
ATOM     67  F   UNL     1      -3.983  18.090   5.114  1.00  0.00    -0.206 F 
ATOM     68  C   UNL     1      -3.826  21.463   6.282  1.00  0.00     0.022 A 
BRANCH  65  69
ATOM     69  S   UNL     1      -5.699  23.456   6.772  1.00  0.00     0.124 S 
ATOM     70  O   UNL     1      -6.599  23.698   5.649  1.00  0.00    -0.237 OA
ATOM     71  O   UNL     1      -6.323  23.337   8.085  1.00  0.00    -0.237 OA
ATOM     72  O   UNL     1      -4.446  24.206   6.741  1.00  0.00    -0.744 OA
ENDBRANCH  65  69
ENDBRANCH  48  62
BRANCH  49  73
ATOM     73  C   UNL     1      -4.856  19.115  -2.652  1.00  0.00     0.023 A 
ATOM     74  C   UNL     1      -4.648  20.318  -3.358  1.00  0.00     0.031 A 
ATOM     75  C   UNL     1      -3.847  18.131  -2.765  1.00  0.00     0.131 A 
ATOM     76  C   UNL     1      -3.474  20.497  -4.129  1.00  0.00     0.055 A 
ATOM     77  C   UNL     1      -2.693  18.312  -3.531  1.00  0.00     0.041 A 
ATOM     78  F   UNL     1      -3.907  16.989  -2.061  1.00  0.00    -0.206 F 
ATOM     79  C   UNL     1      -2.497  19.503  -4.209  1.00  0.00     0.022 A 
BRANCH  76  80
ATOM     80  S   UNL     1      -3.152  22.084  -4.966  1.00  0.00     0.124 S 
ATOM     81  O   UNL     1      -4.155  22.088  -6.024  1.00  0.00    -0.237 OA
ATOM     82  O   UNL     1      -3.340  23.051  -3.890  1.00  0.00    -0.237 OA
ATOM     83  O   UNL     1      -1.770  21.951  -5.431  1.00  0.00    -0.744 OA
ENDBRANCH  76  80
ENDBRANCH  49  73
BRANCH  61  84
ATOM     84  C   UNL     1     -10.237  20.082   0.554  1.00  0.00     0.023 A 
ATOM     85  C   UNL     1     -10.377  19.094  -0.449  1.00  0.00     0.031 A 
ATOM     86  C   UNL     1     -11.370  20.855   0.864  1.00  0.00     0.131 A 
ATOM     87  C   UNL     1     -11.615  18.921  -1.103  1.00  0.00     0.055 A 
ATOM     88  C   UNL     1     -12.598  20.667   0.232  1.00  0.00     0.041 A 
ATOM     89  F   UNL     1     -11.312  21.793   1.825  1.00  0.00    -0.206 F 
ATOM     90  C   UNL     1     -12.724  19.702  -0.760  1.00  0.00     0.022 A 
BRANCH  87  91
ATOM     91  S   UNL     1     -11.807  17.685  -2.430  1.00  0.00     0.124 S 
ATOM     92  O   UNL     1     -10.649  17.916  -3.284  1.00  0.00    -0.237 OA
ATOM     93  O   UNL     1     -11.817  16.425  -1.690  1.00  0.00    -0.237 OA
ATOM     94  O   UNL     1     -13.092  18.038  -3.039  1.00  0.00    -0.744 OA
ENDBRANCH  87  91
ENDBRANCH  61  84
ENDBRANCH  35  36
ENDBRANCH  27  30
ENDBRANCH  25  26
ENDBRANCH  24  25
ENDBRANCH   1  24
TORSDOF 17
