REMARK SMILES Cc1ccccc1-c1nc(CC(=O)NCCCNC(=O)c2ccc(-c3c4nc(c(-c5cc(S(=O)(=O)[O-])ccc5F)c5ccc([nH]5)c(-c5cc(S(=O)(=O)[O-])ccc5F)c5nc(c(-c6cc(S(=O)(=O)[O-])ccc6F)c6ccc3[nH]6)C=C5)C=C4)cc2)cs1
REMARK SMILES IDX 16 1 15 2 14 3 12 4 13 5 11 7 10 8 8 9 9 10 85 11 84 12 7 13
REMARK SMILES IDX 1 14 2 15 3 16 4 17 6 18 5 19 17 20 18 21 19 22 20 24 21 25
REMARK SMILES IDX 22 26 83 27 23 28 82 29 24 30 25 31 26 32 76 33 27 34 81 35
REMARK SMILES IDX 75 36 77 37 28 38 80 39 74 40 73 41 29 43 61 44 41 45 60 46
REMARK SMILES IDX 42 47 45 48 59 49 78 50 43 51 44 52 58 54 79 55 46 56 30 57
REMARK SMILES IDX 31 58 39 59 32 60 38 61 40 62 37 63 33 64 34 65 35 66 36 67
REMARK SMILES IDX 62 68 63 69 71 70 64 71 70 72 72 73 69 74 65 75 66 76 67 77
REMARK SMILES IDX 68 78 47 79 48 80 56 81 49 82 55 83 57 84 54 85 50 86 51 87
REMARK SMILES IDX 52 88 53 89
REMARK H PARENT 14 6 18 23 77 42 45 53
REMARK Flexibility Score: inf
ROOT
ATOM      1  C   UNL     1       0.106   4.106  -3.071  1.00  0.00     0.042 C 
ENDROOT
BRANCH   1   2
ATOM      2  C   UNL     1       1.370   4.547  -3.803  1.00  0.00     0.117 C 
BRANCH   2   3
ATOM      3  N   UNL     1       1.938   5.767  -3.242  1.00  0.00    -0.356 N 
ATOM      4  C   UNL     1       2.844   5.907  -2.227  1.00  0.00     0.226 C 
ATOM      5  O   UNL     1       3.158   7.038  -1.850  1.00  0.00    -0.275 OA
ATOM      6  H   UNL     1       1.627   6.607  -3.651  1.00  0.00     0.163 HD
BRANCH   4   7
ATOM      7  C   UNL     1       3.453   4.681  -1.571  1.00  0.00     0.157 C 
BRANCH   7   8
ATOM      8  C   UNL     1       2.535   4.077  -0.563  1.00  0.00     0.061 A 
ATOM      9  C   UNL     1       1.183   2.457   0.134  1.00  0.00     0.123 A 
ATOM     10  N   UNL     1       2.065   2.790  -0.786  1.00  0.00    -0.241 NA
ATOM     11  S   UNL     1       0.961   3.619   1.385  1.00  0.00    -0.122 S 
ATOM     12  C   UNL     1       2.062   4.668   0.595  1.00  0.00     0.091 A 
BRANCH   9  13
ATOM     13  C   UNL     1       0.423   1.200   0.139  1.00  0.00     0.013 A 
ATOM     14  C   UNL     1       2.563  -0.210   0.092  1.00  0.00     0.045 C 
ATOM     15  C   UNL     1       1.065  -0.056   0.113  1.00  0.00    -0.041 A 
ATOM     16  C   UNL     1       0.285  -1.225   0.053  1.00  0.00     0.004 A 
ATOM     17  C   UNL     1      -1.108  -1.158   0.032  1.00  0.00     0.000 A 
ATOM     18  C   UNL     1      -0.984   1.247   0.111  1.00  0.00     0.011 A 
ATOM     19  C   UNL     1      -1.744   0.078   0.061  1.00  0.00     0.001 A 
ENDBRANCH   9  13
ENDBRANCH   7   8
ENDBRANCH   4   7
ENDBRANCH   2   3
ENDBRANCH   1   2
BRANCH   1  20
ATOM     20  C   UNL     1      -1.137   4.889  -3.467  1.00  0.00     0.118 C 
BRANCH  20  21
ATOM     21  N   UNL     1      -2.027   4.187  -4.387  1.00  0.00    -0.352 N 
ATOM     22  C   UNL     1      -3.220   4.620  -4.945  1.00  0.00     0.251 C 
ATOM     23  H   UNL     1      -1.741   3.282  -4.646  1.00  0.00     0.163 HD
ATOM     24  O   UNL     1      -3.885   3.878  -5.651  1.00  0.00    -0.269 OA
BRANCH  22  25
ATOM     25  C   UNL     1      -3.644   6.025  -4.733  1.00  0.00     0.039 A 
ATOM     26  C   UNL     1      -3.987   6.801  -5.848  1.00  0.00     0.014 A 
ATOM     27  C   UNL     1      -3.530   6.611  -3.478  1.00  0.00     0.014 A 
ATOM     28  C   UNL     1      -4.007   8.193  -5.737  1.00  0.00     0.010 A 
ATOM     29  C   UNL     1      -3.430   7.982  -3.394  1.00  0.00     0.010 A 
ATOM     30  C   UNL     1      -3.630   8.777  -4.529  1.00  0.00    -0.014 A 
BRANCH  30  31
ATOM     31  C   UNL     1      -3.280  10.185  -4.362  1.00  0.00     0.031 A 
ATOM     32  C   UNL     1      -4.053  11.061  -3.453  1.00  0.00     0.074 A 
ATOM     33  C   UNL     1      -2.106  10.620  -4.869  1.00  0.00     0.049 A 
ATOM     34  N   UNL     1      -3.945  12.345  -3.405  1.00  0.00    -0.248 NA
ATOM     35  C   UNL     1      -5.061  10.546  -2.533  1.00  0.00     0.031 C 
ATOM     36  C   UNL     1      -1.344  11.796  -4.457  1.00  0.00     0.029 A 
ATOM     37  N   UNL     1      -1.475  10.188  -6.032  1.00  0.00    -0.354 N 
ATOM     38  C   UNL     1      -4.598  12.785  -2.275  1.00  0.00     0.074 A 
ATOM     39  C   UNL     1      -5.339  11.637  -1.813  1.00  0.00     0.031 C 
ATOM     40  C   UNL     1      -0.507  12.142  -5.447  1.00  0.00     0.029 A 
ATOM     41  C   UNL     1      -0.830  11.307  -6.589  1.00  0.00     0.049 A 
ATOM     42  H   UNL     1      -1.480   9.274  -6.396  1.00  0.00     0.167 HD
ATOM     43  C   UNL     1      -4.321  14.031  -1.791  1.00  0.00     0.034 A 
ATOM     44  C   UNL     1      -1.185  11.782  -7.818  1.00  0.00     0.034 A 
ATOM     45  C   UNL     1      -3.426  14.764  -2.691  1.00  0.00     0.049 A 
ATOM     46  C   UNL     1      -1.683  13.210  -7.801  1.00  0.00     0.074 A 
ATOM     47  C   UNL     1      -2.073  15.057  -2.651  1.00  0.00     0.029 A 
ATOM     48  N   UNL     1      -3.860  15.090  -3.971  1.00  0.00    -0.354 N 
ATOM     49  N   UNL     1      -2.102  13.831  -6.733  1.00  0.00    -0.248 NA
ATOM     50  C   UNL     1      -1.750  14.046  -8.993  1.00  0.00     0.031 C 
ATOM     51  C   UNL     1      -1.687  15.524  -3.935  1.00  0.00     0.029 A 
ATOM     52  C   UNL     1      -2.809  15.539  -4.746  1.00  0.00     0.049 A 
ATOM     53  H   UNL     1      -4.790  15.011  -4.283  1.00  0.00     0.167 HD
ATOM     54  C   UNL     1      -2.504  15.103  -7.063  1.00  0.00     0.074 A 
ATOM     55  C   UNL     1      -2.240  15.192  -8.489  1.00  0.00     0.031 C 
ATOM     56  C   UNL     1      -3.025  15.956  -6.127  1.00  0.00     0.034 A 
BRANCH  43  57
ATOM     57  C   UNL     1      -4.612  14.498  -0.375  1.00  0.00     0.023 A 
ATOM     58  C   UNL     1      -3.811  15.518   0.187  1.00  0.00     0.031 A 
ATOM     59  C   UNL     1      -5.593  13.975   0.489  1.00  0.00     0.131 A 
ATOM     60  C   UNL     1      -3.922  15.891   1.540  1.00  0.00     0.055 A 
ATOM     61  C   UNL     1      -5.675  14.309   1.849  1.00  0.00     0.041 A 
ATOM     62  F   UNL     1      -6.563  13.163   0.053  1.00  0.00    -0.206 F 
ATOM     63  C   UNL     1      -4.827  15.262   2.387  1.00  0.00     0.022 A 
BRANCH  60  64
ATOM     64  S   UNL     1      -2.859  17.213   2.184  1.00  0.00     0.124 S 
ATOM     65  O   UNL     1      -1.522  16.680   1.946  1.00  0.00    -0.237 OA
ATOM     66  O   UNL     1      -3.257  18.355   1.368  1.00  0.00    -0.237 OA
ATOM     67  O   UNL     1      -3.244  17.301   3.593  1.00  0.00    -0.744 OA
ENDBRANCH  60  64
ENDBRANCH  43  57
BRANCH  44  68
ATOM     68  C   UNL     1      -1.659  10.713  -8.742  1.00  0.00     0.023 A 
ATOM     69  C   UNL     1      -0.750   9.680  -9.050  1.00  0.00     0.031 A 
ATOM     70  C   UNL     1      -3.024  10.477  -8.957  1.00  0.00     0.131 A 
ATOM     71  C   UNL     1      -1.222   8.407  -9.401  1.00  0.00     0.055 A 
ATOM     72  C   UNL     1      -3.486   9.220  -9.370  1.00  0.00     0.041 A 
ATOM     73  F   UNL     1      -3.937  11.409  -8.649  1.00  0.00    -0.206 F 
ATOM     74  C   UNL     1      -2.588   8.166  -9.553  1.00  0.00     0.022 A 
BRANCH  71  75
ATOM     75  S   UNL     1      -0.038   7.030  -9.397  1.00  0.00     0.124 S 
ATOM     76  O   UNL     1       0.727   7.282 -10.613  1.00  0.00    -0.237 OA
ATOM     77  O   UNL     1       0.676   7.238  -8.138  1.00  0.00    -0.237 OA
ATOM     78  O   UNL     1      -0.888   5.843  -9.426  1.00  0.00    -0.744 OA
ENDBRANCH  71  75
ENDBRANCH  44  68
BRANCH  56  79
ATOM     79  C   UNL     1      -3.706  17.291  -6.389  1.00  0.00     0.023 A 
ATOM     80  C   UNL     1      -4.047  17.759  -7.666  1.00  0.00     0.031 A 
ATOM     81  C   UNL     1      -4.103  18.133  -5.317  1.00  0.00     0.131 A 
ATOM     82  C   UNL     1      -4.665  19.012  -7.853  1.00  0.00     0.055 A 
ATOM     83  C   UNL     1      -4.780  19.345  -5.498  1.00  0.00     0.041 A 
ATOM     84  F   UNL     1      -3.868  17.813  -4.036  1.00  0.00    -0.206 F 
ATOM     85  C   UNL     1      -5.052  19.801  -6.775  1.00  0.00     0.022 A 
BRANCH  82  86
ATOM     86  S   UNL     1      -4.900  19.607  -9.548  1.00  0.00     0.124 S 
ATOM     87  O   UNL     1      -3.525  19.685 -10.033  1.00  0.00    -0.237 OA
ATOM     88  O   UNL     1      -5.719  18.553 -10.139  1.00  0.00    -0.237 OA
ATOM     89  O   UNL     1      -5.572  20.893  -9.375  1.00  0.00    -0.744 OA
ENDBRANCH  82  86
ENDBRANCH  56  79
ENDBRANCH  30  31
ENDBRANCH  22  25
ENDBRANCH  20  21
ENDBRANCH   1  20
TORSDOF 15
