REMARK SMILES CCCCN1C(=O)[C@@H]2[C@H](CCC(=O)NCCCNC(=O)c3ccc(-c4c5nc(c(-c6cc(S(=O)(=O)[O-])ccc6F)c6ccc([nH]6)c(-c6cc(S(=O)(=O)[O-])ccc6F)c6nc(c(-c7cc(S(=O)(=O)[O-])ccc7F)c7ccc4[nH]7)C=C6)C=C5)cc3)[NH2+][C@]3(C(=O)Nc4c(CC)cccc43)[C@@H]2C1=O
REMARK SMILES IDX 15 1 14 2 12 3 13 4 11 6 10 7 9 8 5 9 6 10 98 11 7 12 8 13
REMARK SMILES IDX 97 14 99 15 85 16 84 17 86 18 96 19 87 22 88 23 89 24 95 25
REMARK SMILES IDX 90 27 94 28 93 29 4 30 3 31 2 32 1 33 91 34 92 35 16 36
REMARK SMILES IDX 17 37 18 38 19 39 20 41 21 42 22 43 83 44 23 45 82 46 24 47
REMARK SMILES IDX 25 48 26 49 76 50 27 51 81 52 75 53 77 54 28 55 80 56 74 57
REMARK SMILES IDX 73 58 29 60 61 61 41 62 60 63 42 64 45 65 59 66 78 67 43 68
REMARK SMILES IDX 44 69 58 71 79 72 46 73 30 74 31 75 39 76 32 77 38 78 40 79
REMARK SMILES IDX 37 80 33 81 34 82 35 83 36 84 62 85 63 86 71 87 64 88 70 89
REMARK SMILES IDX 72 90 69 91 65 92 66 93 67 94 68 95 47 96 48 97 56 98 49 99
REMARK SMILES IDX 55 100 57 101 54 102 50 103 51 104 52 105 53 106
REMARK H PARENT 14 5 84 20 84 21 88 26 18 40 77 59 45 70
REMARK Flexibility Score: inf
ROOT
ATOM      1  C   UNL     1      -3.912  -1.377  -0.533  1.00  0.00     0.117 C 
ENDROOT
BRANCH   1   2
ATOM      2  N   UNL     1      -3.500  -1.457  -1.924  1.00  0.00    -0.356 N 
ATOM      3  C   UNL     1      -2.643  -0.669  -2.632  1.00  0.00     0.220 C 
ATOM      4  O   UNL     1      -2.552  -0.847  -3.847  1.00  0.00    -0.275 OA
ATOM      5  H   UNL     1      -3.902  -2.196  -2.435  1.00  0.00     0.163 HD
BRANCH   3   6
ATOM      6  C   UNL     1      -1.781   0.357  -1.928  1.00  0.00     0.106 C 
BRANCH   6   7
ATOM      7  C   UNL     1      -2.333   1.785  -1.890  1.00  0.00     0.076 C 
BRANCH   7   8
ATOM      8  C   UNL     1      -3.397   2.128  -0.830  1.00  0.00     0.197 C 
ATOM      9  N   UNL     1      -0.883   2.779   1.096  1.00  0.00    -0.282 N 
ATOM     10  C   UNL     1      -1.664   1.666   1.019  1.00  0.00     0.239 C 
ATOM     11  C   UNL     1      -1.652   3.913   1.214  1.00  0.00     0.240 C 
ATOM     12  O   UNL     1      -1.364   0.510   1.217  1.00  0.00    -0.274 OA
ATOM     13  C   UNL     1      -3.051   2.080   0.665  1.00  0.00     0.157 C 
ATOM     14  C   UNL     1      -3.105   3.513   1.174  1.00  0.00     0.174 C 
ATOM     15  O   UNL     1      -1.240   5.031   1.483  1.00  0.00    -0.274 OA
ATOM     16  C   UNL     1      -4.025   4.207   0.195  1.00  0.00     0.216 C 
ATOM     17  N   UNL     1      -3.867   3.492  -1.081  1.00  0.00    -0.326 N 
ATOM     18  C   UNL     1      -3.772   5.730  -0.041  1.00  0.00     0.291 C 
ATOM     19  C   UNL     1      -5.450   4.209   0.723  1.00  0.00     0.047 A 
ATOM     20  H   UNL     1      -4.765   3.457  -1.563  1.00  0.00     0.347 HD
ATOM     21  H   UNL     1      -3.185   3.982  -1.660  1.00  0.00     0.347 HD
ATOM     22  O   UNL     1      -2.818   6.261  -0.587  1.00  0.00    -0.267 OA
ATOM     23  N   UNL     1      -4.895   6.402   0.424  1.00  0.00    -0.320 N 
ATOM     24  C   UNL     1      -5.874   5.530   0.882  1.00  0.00     0.054 A 
ATOM     25  C   UNL     1      -6.286   3.162   1.089  1.00  0.00     0.013 A 
ATOM     26  H   UNL     1      -4.987   7.382   0.429  1.00  0.00     0.170 HD
ATOM     27  C   UNL     1      -7.111   5.860   1.415  1.00  0.00    -0.024 A 
ATOM     28  C   UNL     1      -7.534   3.464   1.639  1.00  0.00     0.001 A 
ATOM     29  C   UNL     1      -7.941   4.798   1.801  1.00  0.00     0.006 A 
BRANCH   9  30
ATOM     30  C   UNL     1       0.571   2.804   1.055  1.00  0.00     0.128 C 
BRANCH  30  31
ATOM     31  C   UNL     1       1.335   1.904   2.036  1.00  0.00     0.022 C 
BRANCH  31  32
ATOM     32  C   UNL     1       1.454   0.402   1.737  1.00  0.00    -0.002 C 
ATOM     33  C   UNL     1       1.643   0.025   0.275  1.00  0.00     0.004 C 
ENDBRANCH  31  32
ENDBRANCH  30  31
ENDBRANCH   9  30
BRANCH  27  34
ATOM     34  C   UNL     1      -7.593   7.279   1.513  1.00  0.00     0.034 C 
ATOM     35  C   UNL     1      -8.324   7.670   0.243  1.00  0.00     0.009 C 
ENDBRANCH  27  34
ENDBRANCH   7   8
ENDBRANCH   6   7
ENDBRANCH   3   6
ENDBRANCH   1   2
BRANCH   1  36
ATOM     36  C   UNL     1      -5.305  -0.767  -0.429  1.00  0.00     0.042 C 
BRANCH  36  37
ATOM     37  C   UNL     1      -6.423  -1.771  -0.636  1.00  0.00     0.118 C 
BRANCH  37  38
ATOM     38  N   UNL     1      -6.905  -2.320   0.620  1.00  0.00    -0.352 N 
ATOM     39  C   UNL     1      -8.065  -2.086   1.325  1.00  0.00     0.251 C 
ATOM     40  H   UNL     1      -6.297  -2.971   1.040  1.00  0.00     0.163 HD
ATOM     41  O   UNL     1      -8.150  -2.526   2.470  1.00  0.00    -0.269 OA
BRANCH  39  42
ATOM     42  C   UNL     1      -9.181  -1.283   0.757  1.00  0.00     0.039 A 
ATOM     43  C   UNL     1      -9.486  -1.297  -0.602  1.00  0.00     0.014 A 
ATOM     44  C   UNL     1      -9.979  -0.519   1.618  1.00  0.00     0.014 A 
ATOM     45  C   UNL     1     -10.422  -0.408  -1.123  1.00  0.00     0.010 A 
ATOM     46  C   UNL     1     -11.021   0.271   1.107  1.00  0.00     0.010 A 
ATOM     47  C   UNL     1     -11.228   0.368  -0.276  1.00  0.00    -0.014 A 
BRANCH  47  48
ATOM     48  C   UNL     1     -12.321   1.197  -0.862  1.00  0.00     0.031 A 
ATOM     49  C   UNL     1     -12.387   2.685  -0.647  1.00  0.00     0.074 A 
ATOM     50  C   UNL     1     -13.258   0.596  -1.626  1.00  0.00     0.049 A 
ATOM     51  N   UNL     1     -13.282   3.534  -1.084  1.00  0.00    -0.248 NA
ATOM     52  C   UNL     1     -11.329   3.306   0.165  1.00  0.00     0.031 C 
ATOM     53  C   UNL     1     -13.320  -0.842  -1.893  1.00  0.00     0.029 A 
ATOM     54  N   UNL     1     -14.321   1.107  -2.333  1.00  0.00    -0.354 N 
ATOM     55  C   UNL     1     -12.921   4.774  -0.571  1.00  0.00     0.074 A 
ATOM     56  C   UNL     1     -11.727   4.572   0.218  1.00  0.00     0.031 C 
ATOM     57  C   UNL     1     -14.314  -1.089  -2.754  1.00  0.00     0.029 A 
ATOM     58  C   UNL     1     -15.030   0.154  -3.029  1.00  0.00     0.049 A 
ATOM     59  H   UNL     1     -14.553   2.063  -2.341  1.00  0.00     0.167 HD
ATOM     60  C   UNL     1     -13.527   5.970  -0.753  1.00  0.00     0.034 A 
ATOM     61  C   UNL     1     -16.144   0.247  -3.784  1.00  0.00     0.034 A 
ATOM     62  C   UNL     1     -14.666   6.179  -1.604  1.00  0.00     0.049 A 
ATOM     63  C   UNL     1     -16.773   1.596  -3.995  1.00  0.00     0.074 A 
ATOM     64  C   UNL     1     -15.281   7.382  -1.907  1.00  0.00     0.029 A 
ATOM     65  N   UNL     1     -15.350   5.192  -2.292  1.00  0.00    -0.354 N 
ATOM     66  N   UNL     1     -16.375   2.764  -3.549  1.00  0.00    -0.248 NA
ATOM     67  C   UNL     1     -18.000   1.651  -4.803  1.00  0.00     0.031 C 
ATOM     68  C   UNL     1     -16.368   7.117  -2.736  1.00  0.00     0.029 A 
ATOM     69  C   UNL     1     -16.400   5.756  -2.997  1.00  0.00     0.049 A 
ATOM     70  H   UNL     1     -15.124   4.234  -2.282  1.00  0.00     0.167 HD
ATOM     71  C   UNL     1     -17.296   3.691  -4.026  1.00  0.00     0.074 A 
ATOM     72  C   UNL     1     -18.254   2.954  -4.822  1.00  0.00     0.031 C 
ATOM     73  C   UNL     1     -17.344   5.028  -3.809  1.00  0.00     0.034 A 
BRANCH  60  74
ATOM     74  C   UNL     1     -12.978   7.191  -0.070  1.00  0.00     0.023 A 
ATOM     75  C   UNL     1     -13.707   7.804   0.966  1.00  0.00     0.031 A 
ATOM     76  C   UNL     1     -11.868   7.866  -0.599  1.00  0.00     0.131 A 
ATOM     77  C   UNL     1     -13.323   9.070   1.429  1.00  0.00     0.055 A 
ATOM     78  C   UNL     1     -11.485   9.121  -0.126  1.00  0.00     0.041 A 
ATOM     79  F   UNL     1     -11.152   7.320  -1.595  1.00  0.00    -0.206 F 
ATOM     80  C   UNL     1     -12.215   9.731   0.888  1.00  0.00     0.022 A 
BRANCH  77  81
ATOM     81  S   UNL     1     -14.316   9.957   2.661  1.00  0.00     0.124 S 
ATOM     82  O   UNL     1     -13.442   9.906   3.831  1.00  0.00    -0.237 OA
ATOM     83  O   UNL     1     -14.466  11.276   2.052  1.00  0.00    -0.237 OA
ATOM     84  O   UNL     1     -15.539   9.168   2.758  1.00  0.00    -0.744 OA
ENDBRANCH  77  81
ENDBRANCH  60  74
BRANCH  61  85
ATOM     85  C   UNL     1     -16.690  -0.994  -4.408  1.00  0.00     0.023 A 
ATOM     86  C   UNL     1     -17.103  -2.075  -3.606  1.00  0.00     0.031 A 
ATOM     87  C   UNL     1     -16.655  -1.178  -5.799  1.00  0.00     0.131 A 
ATOM     88  C   UNL     1     -17.360  -3.319  -4.193  1.00  0.00     0.055 A 
ATOM     89  C   UNL     1     -16.997  -2.398  -6.387  1.00  0.00     0.041 A 
ATOM     90  F   UNL     1     -16.258  -0.180  -6.604  1.00  0.00    -0.206 F 
ATOM     91  C   UNL     1     -17.327  -3.483  -5.581  1.00  0.00     0.022 A 
BRANCH  88  92
ATOM     92  S   UNL     1     -17.573  -4.801  -3.166  1.00  0.00     0.124 S 
ATOM     93  O   UNL     1     -18.888  -5.276  -3.584  1.00  0.00    -0.237 OA
ATOM     94  O   UNL     1     -16.440  -5.619  -3.591  1.00  0.00    -0.237 OA
ATOM     95  O   UNL     1     -17.490  -4.290  -1.802  1.00  0.00    -0.744 OA
ENDBRANCH  88  92
ENDBRANCH  61  85
BRANCH  73  96
ATOM     96  C   UNL     1     -18.465   5.831  -4.418  1.00  0.00     0.023 A 
ATOM     97  C   UNL     1     -18.175   6.853  -5.343  1.00  0.00     0.031 A 
ATOM     98  C   UNL     1     -19.778   5.723  -3.931  1.00  0.00     0.131 A 
ATOM     99  C   UNL     1     -19.171   7.767  -5.703  1.00  0.00     0.055 A 
ATOM    100  C   UNL     1     -20.781   6.606  -4.334  1.00  0.00     0.041 A 
ATOM    101  F   UNL     1     -20.098   4.773  -3.038  1.00  0.00    -0.206 F 
ATOM    102  C   UNL     1     -20.474   7.646  -5.209  1.00  0.00     0.022 A 
BRANCH  99 103
ATOM    103  S   UNL     1     -18.786   9.211  -6.732  1.00  0.00     0.124 S 
ATOM    104  O   UNL     1     -19.650   8.996  -7.890  1.00  0.00    -0.237 OA
ATOM    105  O   UNL     1     -19.172  10.320  -5.863  1.00  0.00    -0.237 OA
ATOM    106  O   UNL     1     -17.355   9.088  -6.991  1.00  0.00    -0.744 OA
ENDBRANCH  99 103
ENDBRANCH  73  96
ENDBRANCH  47  48
ENDBRANCH  39  42
ENDBRANCH  37  38
ENDBRANCH  36  37
ENDBRANCH   1  36
TORSDOF 19
