REMARK SMILES COc1ccccc1[C@@H]1C[N@@H+](Cc2cn3cc(C)ccc3n2)C[C@H]1C(=O)NCCCNC(=O)c1ccc(-c2c3nc(c(-c4cc(S(=O)(=O)[O-])ccc4F)c4ccc([nH]4)c(-c4cc(S(=O)(=O)[O-])ccc4F)c4nc(c(-c5cc(S(=O)(=O)[O-])ccc5F)c5ccc2[nH]5)C=C4)C=C3)cc1
REMARK SMILES IDX 29 1 28 2 27 3 25 4 26 5 24 7 9 8 10 9 11 10 23 11 8 13 3 14
REMARK SMILES IDX 4 15 5 16 7 17 6 18 2 19 1 20 12 21 13 22 14 23 22 24 15 25
REMARK SMILES IDX 21 26 16 27 20 28 17 29 19 30 18 31 30 32 31 33 32 34 33 36
REMARK SMILES IDX 34 37 35 38 96 39 36 40 95 41 37 42 38 43 39 44 89 45 40 46
REMARK SMILES IDX 94 47 88 48 90 49 41 50 93 51 87 52 86 53 42 55 74 56 54 57
REMARK SMILES IDX 73 58 55 59 58 60 72 61 91 62 56 63 57 64 71 66 92 67 59 68
REMARK SMILES IDX 43 69 44 70 52 71 45 72 51 73 53 74 50 75 46 76 47 77 48 78
REMARK SMILES IDX 49 79 75 80 76 81 84 82 77 83 83 84 85 85 82 86 78 87 79 88
REMARK SMILES IDX 80 89 81 90 60 91 61 92 69 93 62 94 68 95 70 96 67 97 63 98
REMARK SMILES IDX 64 99 65 100 66 101
REMARK H PARENT 27 6 11 12 31 35 90 54 58 65
REMARK Flexibility Score: inf
ROOT
ATOM      1  C   UNL     1       7.066   0.922   2.276  1.00  0.00     0.042 C 
ENDROOT
BRANCH   1   2
ATOM      2  C   UNL     1       5.694   0.335   2.694  1.00  0.00     0.117 C 
BRANCH   2   3
ATOM      3  N   UNL     1       4.498   1.194   2.722  1.00  0.00    -0.356 N 
ATOM      4  C   UNL     1       3.322   1.334   2.044  1.00  0.00     0.229 C 
ATOM      5  O   UNL     1       2.589   2.231   2.500  1.00  0.00    -0.275 OA
ATOM      6  H   UNL     1       4.568   1.863   3.441  1.00  0.00     0.163 HD
BRANCH   4   7
ATOM      7  C   UNL     1       2.766   0.523   0.850  1.00  0.00     0.146 C 
ATOM      8  C   UNL     1       2.545   1.320  -0.477  1.00  0.00     0.096 C 
ATOM      9  C   UNL     1       2.951   0.349  -1.598  1.00  0.00     0.272 C 
ATOM     10  N   UNL     1       3.985  -0.513  -1.008  1.00  0.00    -0.329 N 
ATOM     11  C   UNL     1       3.516  -0.718   0.374  1.00  0.00     0.276 C 
ATOM     12  H   UNL     1       4.079  -1.403  -1.496  1.00  0.00     0.348 HD
BRANCH   8  13
ATOM     13  C   UNL     1       1.376   2.231  -0.814  1.00  0.00     0.004 A 
ATOM     14  C   UNL     1       0.094   1.859  -1.232  1.00  0.00     0.122 A 
ATOM     15  C   UNL     1      -0.807   2.835  -1.703  1.00  0.00     0.047 A 
ATOM     16  C   UNL     1      -0.450   4.182  -1.788  1.00  0.00     0.004 A 
ATOM     17  C   UNL     1       1.701   3.615  -0.907  1.00  0.00     0.008 A 
ATOM     18  C   UNL     1       0.818   4.572  -1.400  1.00  0.00     0.001 A 
BRANCH  14  19
ATOM     19  O   UNL     1      -0.338   0.573  -1.409  1.00  0.00    -0.496 OA
ATOM     20  C   UNL     1      -0.375  -0.199  -0.219  1.00  0.00     0.278 C 
ENDBRANCH  14  19
ENDBRANCH   8  13
BRANCH  10  21
ATOM     21  C   UNL     1       5.384  -0.027  -1.174  1.00  0.00     0.321 C 
BRANCH  21  22
ATOM     22  C   UNL     1       5.659   1.436  -0.919  1.00  0.00     0.114 A 
ATOM     23  C   UNL     1       6.307   2.420  -1.651  1.00  0.00     0.122 A 
ATOM     24  N   UNL     1       5.260   1.982   0.267  1.00  0.00    -0.228 NA
ATOM     25  N   UNL     1       6.199   3.592  -0.915  1.00  0.00    -0.306 N 
ATOM     26  C   UNL     1       5.468   3.271   0.210  1.00  0.00     0.137 A 
ATOM     27  C   UNL     1       6.689   4.878  -1.136  1.00  0.00     0.096 A 
ATOM     28  C   UNL     1       5.073   4.310   1.091  1.00  0.00     0.048 A 
ATOM     29  C   UNL     1       6.406   5.858  -0.248  1.00  0.00    -0.034 A 
ATOM     30  C   UNL     1       5.521   5.556   0.875  1.00  0.00     0.009 A 
ATOM     31  C   UNL     1       6.937   7.252  -0.338  1.00  0.00     0.046 C 
ENDBRANCH  21  22
ENDBRANCH  10  21
ENDBRANCH   4   7
ENDBRANCH   2   3
ENDBRANCH   1   2
BRANCH   1  32
ATOM     32  C   UNL     1       7.452   2.193   3.002  1.00  0.00     0.118 C 
BRANCH  32  33
ATOM     33  N   UNL     1       8.829   2.172   3.501  1.00  0.00    -0.352 N 
ATOM     34  C   UNL     1       9.613   3.208   3.954  1.00  0.00     0.251 C 
ATOM     35  H   UNL     1       9.257   1.286   3.514  1.00  0.00     0.163 HD
ATOM     36  O   UNL     1      10.836   3.026   4.062  1.00  0.00    -0.269 OA
BRANCH  34  37
ATOM     37  C   UNL     1       9.024   4.514   4.321  1.00  0.00     0.039 A 
ATOM     38  C   UNL     1       9.806   5.672   4.397  1.00  0.00     0.014 A 
ATOM     39  C   UNL     1       7.678   4.584   4.670  1.00  0.00     0.014 A 
ATOM     40  C   UNL     1       9.218   6.859   4.838  1.00  0.00     0.010 A 
ATOM     41  C   UNL     1       7.058   5.775   4.911  1.00  0.00     0.010 A 
ATOM     42  C   UNL     1       7.841   6.889   5.115  1.00  0.00    -0.014 A 
BRANCH  42  43
ATOM     43  C   UNL     1       7.141   8.100   5.509  1.00  0.00     0.031 A 
ATOM     44  C   UNL     1       7.299   9.184   4.520  1.00  0.00     0.074 A 
ATOM     45  C   UNL     1       6.233   8.163   6.510  1.00  0.00     0.049 A 
ATOM     46  N   UNL     1       8.130  10.169   4.574  1.00  0.00    -0.248 NA
ATOM     47  C   UNL     1       6.655   9.024   3.207  1.00  0.00     0.031 C 
ATOM     48  C   UNL     1       5.724   7.081   7.363  1.00  0.00     0.029 A 
ATOM     49  N   UNL     1       5.488   9.225   6.916  1.00  0.00    -0.354 N 
ATOM     50  C   UNL     1       7.870  10.924   3.440  1.00  0.00     0.074 A 
ATOM     51  C   UNL     1       7.210  10.031   2.530  1.00  0.00     0.031 C 
ATOM     52  C   UNL     1       4.616   7.499   8.020  1.00  0.00     0.029 A 
ATOM     53  C   UNL     1       4.429   8.918   7.770  1.00  0.00     0.049 A 
ATOM     54  H   UNL     1       5.682  10.146   6.627  1.00  0.00     0.167 HD
ATOM     55  C   UNL     1       7.922  12.284   3.491  1.00  0.00     0.034 A 
ATOM     56  C   UNL     1       3.468   9.770   8.227  1.00  0.00     0.034 A 
ATOM     57  C   UNL     1       8.563  12.719   4.721  1.00  0.00     0.049 A 
ATOM     58  C   UNL     1       4.036  11.138   8.102  1.00  0.00     0.074 A 
ATOM     59  C   UNL     1       9.782  12.456   5.319  1.00  0.00     0.029 A 
ATOM     60  N   UNL     1       7.755  13.195   5.734  1.00  0.00    -0.354 N 
ATOM     61  N   UNL     1       5.073  11.542   8.786  1.00  0.00    -0.248 NA
ATOM     62  C   UNL     1       3.795  11.865   6.864  1.00  0.00     0.031 C 
ATOM     63  C   UNL     1       9.479  12.284   6.704  1.00  0.00     0.029 A 
ATOM     64  C   UNL     1       8.125  12.567   6.899  1.00  0.00     0.049 A 
ATOM     65  H   UNL     1       7.039  13.864   5.639  1.00  0.00     0.167 HD
ATOM     66  C   UNL     1       5.856  12.235   7.875  1.00  0.00     0.074 A 
ATOM     67  C   UNL     1       4.972  12.486   6.735  1.00  0.00     0.031 C 
ATOM     68  C   UNL     1       7.217  12.277   7.997  1.00  0.00     0.034 A 
BRANCH  55  69
ATOM     69  C   UNL     1       7.046  13.215   2.678  1.00  0.00     0.023 A 
ATOM     70  C   UNL     1       7.218  14.591   2.913  1.00  0.00     0.031 A 
ATOM     71  C   UNL     1       5.898  12.863   1.931  1.00  0.00     0.131 A 
ATOM     72  C   UNL     1       6.226  15.516   2.554  1.00  0.00     0.055 A 
ATOM     73  C   UNL     1       4.946  13.798   1.515  1.00  0.00     0.041 A 
ATOM     74  F   UNL     1       5.576  11.603   1.625  1.00  0.00    -0.206 F 
ATOM     75  C   UNL     1       5.085  15.129   1.860  1.00  0.00     0.022 A 
BRANCH  72  76
ATOM     76  S   UNL     1       6.374  17.201   3.192  1.00  0.00     0.124 S 
ATOM     77  O   UNL     1       6.471  16.957   4.627  1.00  0.00    -0.237 OA
ATOM     78  O   UNL     1       7.590  17.663   2.531  1.00  0.00    -0.237 OA
ATOM     79  O   UNL     1       5.139  17.840   2.745  1.00  0.00    -0.744 OA
ENDBRANCH  72  76
ENDBRANCH  55  69
BRANCH  56  80
ATOM     80  C   UNL     1       2.017   9.502   8.463  1.00  0.00     0.023 A 
ATOM     81  C   UNL     1       1.183  10.350   9.230  1.00  0.00     0.031 A 
ATOM     82  C   UNL     1       1.365   8.510   7.696  1.00  0.00     0.131 A 
ATOM     83  C   UNL     1      -0.227  10.191   9.200  1.00  0.00     0.055 A 
ATOM     84  C   UNL     1      -0.025   8.362   7.666  1.00  0.00     0.041 A 
ATOM     85  F   UNL     1       2.056   7.706   6.873  1.00  0.00    -0.206 F 
ATOM     86  C   UNL     1      -0.828   9.209   8.410  1.00  0.00     0.022 A 
BRANCH  83  87
ATOM     87  S   UNL     1      -1.323  11.324  10.125  1.00  0.00     0.124 S 
ATOM     88  O   UNL     1      -1.038  10.971  11.511  1.00  0.00    -0.237 OA
ATOM     89  O   UNL     1      -0.868  12.636   9.681  1.00  0.00    -0.237 OA
ATOM     90  O   UNL     1      -2.663  10.957   9.664  1.00  0.00    -0.744 OA
ENDBRANCH  83  87
ENDBRANCH  56  80
BRANCH  68  91
ATOM     91  C   UNL     1       7.846  11.817   9.302  1.00  0.00     0.023 A 
ATOM     92  C   UNL     1       7.689  10.538   9.887  1.00  0.00     0.031 A 
ATOM     93  C   UNL     1       8.751  12.703   9.915  1.00  0.00     0.131 A 
ATOM     94  C   UNL     1       8.422  10.196  11.044  1.00  0.00     0.055 A 
ATOM     95  C   UNL     1       9.491  12.352  11.043  1.00  0.00     0.041 A 
ATOM     96  F   UNL     1       8.962  13.925   9.400  1.00  0.00    -0.206 F 
ATOM     97  C   UNL     1       9.325  11.098  11.616  1.00  0.00     0.022 A 
BRANCH  94  98
ATOM     98  S   UNL     1       8.201   8.575  11.852  1.00  0.00     0.124 S 
ATOM     99  O   UNL     1       6.754   8.424  11.930  1.00  0.00    -0.237 OA
ATOM    100  O   UNL     1       8.890   7.668  10.938  1.00  0.00    -0.237 OA
ATOM    101  O   UNL     1       8.865   8.747  13.147  1.00  0.00    -0.744 OA
ENDBRANCH  94  98
ENDBRANCH  68  91
ENDBRANCH  42  43
ENDBRANCH  34  37
ENDBRANCH  32  33
ENDBRANCH   1  32
TORSDOF 17
