REMARK SMILES O=C(CCC1CCCC1)N[C@H]1CCCCC[C@H]1C(=O)NCCCNC(=O)c1ccc(-c2c3nc(c(-c4cc(S(=O)(=O)[O-])ccc4F)c4ccc([nH]4)c(-c4cc(S(=O)(=O)[O-])ccc4F)c4nc(c(-c5cc(S(=O)(=O)[O-])ccc5F)c5ccc2[nH]5)C=C4)C=C3)cc1
REMARK SMILES IDX 21 1 20 2 18 3 19 4 17 6 11 7 10 9 1 10 2 11 3 13 4 14 5 15
REMARK SMILES IDX 6 16 9 17 7 18 8 19 16 20 15 21 14 22 13 23 12 24 22 26
REMARK SMILES IDX 23 27 24 28 25 29 26 31 27 32 28 33 89 34 29 35 88 36 30 37
REMARK SMILES IDX 31 38 32 39 82 40 33 41 87 42 81 43 83 44 34 45 86 46 80 47
REMARK SMILES IDX 79 48 35 50 67 51 47 52 66 53 48 54 51 55 65 56 84 57 49 58
REMARK SMILES IDX 50 59 64 61 85 62 52 63 36 64 37 65 45 66 38 67 44 68 46 69
REMARK SMILES IDX 43 70 39 71 40 72 41 73 42 74 68 75 69 76 77 77 70 78 76 79
REMARK SMILES IDX 78 80 75 81 71 82 72 83 73 84 74 85 53 86 54 87 62 88 55 89
REMARK SMILES IDX 61 90 63 91 60 92 56 93 57 94 58 95 59 96
REMARK H PARENT 20 5 10 12 24 30 83 49 51 60
REMARK Flexibility Score: 100.00
ROOT
ATOM      1  C   UNL     1       0.091   5.417   1.892  1.00  0.00     0.117 C 
ENDROOT
BRANCH   1   2
ATOM      2  N   UNL     1      -0.376   4.071   2.151  1.00  0.00    -0.356 N 
ATOM      3  C   UNL     1       0.293   2.901   2.304  1.00  0.00     0.225 C 
ATOM      4  O   UNL     1      -0.409   1.911   2.553  1.00  0.00    -0.275 OA
ATOM      5  H   UNL     1      -1.354   3.991   2.232  1.00  0.00     0.163 HD
BRANCH   3   6
ATOM      6  C   UNL     1       1.814   2.714   2.138  1.00  0.00     0.101 C 
BRANCH   6   7
ATOM      7  C   UNL     1       2.393   2.834   0.703  1.00  0.00     0.094 CG0
ATOM      8  G   UNL     1       3.681   3.665   0.590  1.00  0.00     0.000 G0
BRANCH   7   9
ATOM      9  N   UNL     1       1.346   3.042  -0.304  1.00  0.00    -0.353 N 
ATOM     10  O   UNL     1       2.442   4.209  -1.973  1.00  0.00    -0.275 OA
ATOM     11  C   UNL     1       1.444   3.641  -1.541  1.00  0.00     0.220 C 
ATOM     12  H   UNL     1       0.451   2.709  -0.063  1.00  0.00     0.163 HD
BRANCH  11  13
ATOM     13  C   UNL     1       0.159   3.551  -2.348  1.00  0.00     0.100 C 
BRANCH  13  14
ATOM     14  C   UNL     1       0.250   2.594  -3.532  1.00  0.00     0.013 C 
BRANCH  14  15
ATOM     15  C   UNL     1       0.469   1.133  -3.127  1.00  0.00    -0.011 C 
ATOM     16  C   UNL     1       0.151   0.163  -4.265  1.00  0.00     0.003 C 
ATOM     17  C   UNL     1       1.923   0.771  -2.821  1.00  0.00     0.003 C 
ATOM     18  C   UNL     1       0.792  -1.145  -3.817  1.00  0.00     0.000 C 
ATOM     19  C   UNL     1       1.975  -0.748  -2.937  1.00  0.00     0.000 C 
ENDBRANCH  14  15
ENDBRANCH  13  14
ENDBRANCH  11  13
ENDBRANCH   7   9
ENDBRANCH   6   7
BRANCH   6  20
ATOM     20  C   UNL     1       2.679   3.203   3.312  1.00  0.00     0.015 C 
BRANCH  20  21
ATOM     21  C   UNL     1       2.944   4.688   3.508  1.00  0.00     0.001 C 
BRANCH  21  22
ATOM     22  C   UNL     1       3.738   5.446   2.440  1.00  0.00     0.000 C 
BRANCH  22  23
ATOM     23  C   UNL     1       3.546   5.132   0.956  1.00  0.00     0.002 C 
BRANCH  23  24
ATOM     24  C   UNL     1       3.681   3.665   0.590  1.00  0.00     0.026 CG0
ATOM     25  G   UNL     1       2.393   2.834   0.703  1.00  0.00     0.000 G0
ENDBRANCH  23  24
ENDBRANCH  22  23
ENDBRANCH  21  22
ENDBRANCH  20  21
ENDBRANCH   6  20
ENDBRANCH   3   6
ENDBRANCH   1   2
BRANCH   1  26
ATOM     26  C   UNL     1      -0.203   5.915   0.489  1.00  0.00     0.042 C 
BRANCH  26  27
ATOM     27  C   UNL     1      -1.490   6.705   0.376  1.00  0.00     0.118 C 
BRANCH  27  28
ATOM     28  N   UNL     1      -1.347   8.054   0.901  1.00  0.00    -0.352 N 
ATOM     29  C   UNL     1      -1.095   9.254   0.277  1.00  0.00     0.251 C 
ATOM     30  H   UNL     1      -1.450   8.121   1.878  1.00  0.00     0.163 HD
ATOM     31  O   UNL     1      -0.761  10.210   0.976  1.00  0.00    -0.269 OA
BRANCH  29  32
ATOM     32  C   UNL     1      -1.195   9.417  -1.197  1.00  0.00     0.039 A 
ATOM     33  C   UNL     1      -0.390  10.371  -1.832  1.00  0.00     0.014 A 
ATOM     34  C   UNL     1      -2.114   8.699  -1.961  1.00  0.00     0.014 A 
ATOM     35  C   UNL     1      -0.475  10.558  -3.218  1.00  0.00     0.010 A 
ATOM     36  C   UNL     1      -2.103   8.788  -3.350  1.00  0.00     0.010 A 
ATOM     37  C   UNL     1      -1.308   9.742  -3.998  1.00  0.00    -0.014 A 
BRANCH  37  38
ATOM     38  C   UNL     1      -1.421   9.901  -5.476  1.00  0.00     0.031 A 
ATOM     39  C   UNL     1      -2.767  10.188  -6.099  1.00  0.00     0.074 A 
ATOM     40  C   UNL     1      -0.341   9.720  -6.262  1.00  0.00     0.049 A 
ATOM     41  N   UNL     1      -3.108  10.227  -7.362  1.00  0.00    -0.248 NA
ATOM     42  C   UNL     1      -3.888  10.418  -5.173  1.00  0.00     0.031 C 
ATOM     43  C   UNL     1       1.008   9.401  -5.788  1.00  0.00     0.029 A 
ATOM     44  N   UNL     1      -0.206   9.768  -7.628  1.00  0.00    -0.354 N 
ATOM     45  C   UNL     1      -4.483  10.451  -7.378  1.00  0.00     0.074 A 
ATOM     46  C   UNL     1      -4.920  10.465  -6.000  1.00  0.00     0.031 C 
ATOM     47  C   UNL     1       1.836   9.316  -6.841  1.00  0.00     0.029 A 
ATOM     48  C   UNL     1       1.073   9.512  -8.069  1.00  0.00     0.049 A 
ATOM     49  H   UNL     1      -0.955   9.966  -8.236  1.00  0.00     0.167 HD
ATOM     50  C   UNL     1      -5.301  10.656  -8.441  1.00  0.00     0.034 A 
ATOM     51  C   UNL     1       1.571   9.428  -9.319  1.00  0.00     0.034 A 
ATOM     52  C   UNL     1      -4.841  10.676  -9.808  1.00  0.00     0.049 A 
ATOM     53  C   UNL     1       0.641   9.644 -10.487  1.00  0.00     0.074 A 
ATOM     54  C   UNL     1      -5.565  10.938 -10.957  1.00  0.00     0.029 A 
ATOM     55  N   UNL     1      -3.535  10.422 -10.211  1.00  0.00    -0.354 N 
ATOM     56  N   UNL     1      -0.648   9.896 -10.482  1.00  0.00    -0.248 NA
ATOM     57  C   UNL     1       1.235   9.571 -11.828  1.00  0.00     0.031 C 
ATOM     58  C   UNL     1      -4.717  10.773 -12.057  1.00  0.00     0.029 A 
ATOM     59  C   UNL     1      -3.442  10.490 -11.592  1.00  0.00     0.049 A 
ATOM     60  H   UNL     1      -2.786  10.223  -9.604  1.00  0.00     0.167 HD
ATOM     61  C   UNL     1      -1.010  10.043 -11.819  1.00  0.00     0.074 A 
ATOM     62  C   UNL     1       0.198   9.867 -12.598  1.00  0.00     0.031 C 
ATOM     63  C   UNL     1      -2.230  10.305 -12.355  1.00  0.00     0.034 A 
BRANCH  50  64
ATOM     64  C   UNL     1      -6.774  10.855  -8.162  1.00  0.00     0.023 A 
ATOM     65  C   UNL     1      -7.244  11.930  -7.386  1.00  0.00     0.031 A 
ATOM     66  C   UNL     1      -7.723   9.941  -8.656  1.00  0.00     0.131 A 
ATOM     67  C   UNL     1      -8.604  12.016  -7.055  1.00  0.00     0.055 A 
ATOM     68  C   UNL     1      -9.088  10.084  -8.399  1.00  0.00     0.041 A 
ATOM     69  F   UNL     1      -7.338   8.883  -9.386  1.00  0.00    -0.206 F 
ATOM     70  C   UNL     1      -9.535  11.116  -7.579  1.00  0.00     0.022 A 
BRANCH  67  71
ATOM     71  S   UNL     1      -9.115  13.224  -5.802  1.00  0.00     0.124 S 
ATOM     72  O   UNL     1      -8.315  12.811  -4.652  1.00  0.00    -0.237 OA
ATOM     73  O   UNL     1      -8.742  14.493  -6.417  1.00  0.00    -0.237 OA
ATOM     74  O   UNL     1     -10.552  12.993  -5.668  1.00  0.00    -0.744 OA
ENDBRANCH  67  71
ENDBRANCH  50  64
BRANCH  51  75
ATOM     75  C   UNL     1       3.014   9.115  -9.540  1.00  0.00     0.023 A 
ATOM     76  C   UNL     1       3.868  10.042 -10.158  1.00  0.00     0.031 A 
ATOM     77  C   UNL     1       3.551   7.868  -9.175  1.00  0.00     0.131 A 
ATOM     78  C   UNL     1       5.199   9.693 -10.436  1.00  0.00     0.055 A 
ATOM     79  C   UNL     1       4.891   7.547  -9.399  1.00  0.00     0.041 A 
ATOM     80  F   UNL     1       2.780   6.943  -8.582  1.00  0.00    -0.206 F 
ATOM     81  C   UNL     1       5.721   8.457 -10.046  1.00  0.00     0.022 A 
BRANCH  78  82
ATOM     82  S   UNL     1       6.216  10.844 -11.401  1.00  0.00     0.124 S 
ATOM     83  O   UNL     1       5.429  10.984 -12.621  1.00  0.00    -0.237 OA
ATOM     84  O   UNL     1       6.261  12.013 -10.529  1.00  0.00    -0.237 OA
ATOM     85  O   UNL     1       7.484  10.133 -11.553  1.00  0.00    -0.744 OA
ENDBRANCH  78  82
ENDBRANCH  51  75
BRANCH  63  86
ATOM     86  C   UNL     1      -2.303  10.464 -13.854  1.00  0.00     0.023 A 
ATOM     87  C   UNL     1      -2.067   9.388 -14.726  1.00  0.00     0.031 A 
ATOM     88  C   UNL     1      -2.615  11.716 -14.415  1.00  0.00     0.131 A 
ATOM     89  C   UNL     1      -2.095   9.595 -16.114  1.00  0.00     0.055 A 
ATOM     90  C   UNL     1      -2.704  11.901 -15.795  1.00  0.00     0.041 A 
ATOM     91  F   UNL     1      -2.847  12.779 -13.628  1.00  0.00    -0.206 F 
ATOM     92  C   UNL     1      -2.430  10.840 -16.653  1.00  0.00     0.022 A 
BRANCH  89  93
ATOM     93  S   UNL     1      -1.599   8.237 -17.208  1.00  0.00     0.124 S 
ATOM     94  O   UNL     1      -0.237   7.968 -16.759  1.00  0.00    -0.237 OA
ATOM     95  O   UNL     1      -2.587   7.208 -16.897  1.00  0.00    -0.237 OA
ATOM     96  O   UNL     1      -1.709   8.816 -18.545  1.00  0.00    -0.744 OA
ENDBRANCH  89  93
ENDBRANCH  63  86
ENDBRANCH  37  38
ENDBRANCH  29  32
ENDBRANCH  27  28
ENDBRANCH  26  27
ENDBRANCH   1  26
TORSDOF 17
