REMARK SMILES Cc1nc(C(C)C)[nH]c(=O)c1C(=O)N(C)CC(=O)NCCCNC(=O)c1ccc(-c2c3nc(c(-c4cc(S(=O)(=O)[O-])ccc4F)c4ccc([nH]4)c(-c4cc(S(=O)(=O)[O-])ccc4F)c4nc(c(-c5cc(S(=O)(=O)[O-])ccc5F)c5ccc2[nH]5)C=C4)C=C3)cc1
REMARK SMILES IDX 20 1 19 2 17 3 18 4 16 6 14 7 15 8 12 9 13 10 11 11 1 12
REMARK SMILES IDX 2 13 3 14 4 15 9 16 8 17 10 18 5 20 6 21 7 22 21 23 22 24
REMARK SMILES IDX 23 25 24 26 25 28 26 29 27 30 88 31 28 32 87 33 29 34 30 35
REMARK SMILES IDX 31 36 81 37 32 38 86 39 80 40 82 41 33 42 85 43 79 44 78 45
REMARK SMILES IDX 34 47 66 48 46 49 65 50 47 51 50 52 64 53 83 54 48 55 49 56
REMARK SMILES IDX 63 58 84 59 51 60 35 61 36 62 44 63 37 64 43 65 45 66 42 67
REMARK SMILES IDX 38 68 39 69 40 70 41 71 67 72 68 73 76 74 69 75 75 76 77 77
REMARK SMILES IDX 74 78 70 79 71 80 72 81 73 82 52 83 53 84 61 85 54 86 60 87
REMARK SMILES IDX 62 88 59 89 55 90 56 91 57 92 58 93
REMARK H PARENT 19 5 8 19 23 27 82 46 50 57
REMARK Flexibility Score: inf
ROOT
ATOM      1  C   UNL     1      -2.294  -4.438  -2.759  1.00  0.00     0.117 C 
ENDROOT
BRANCH   1   2
ATOM      2  N   UNL     1      -1.066  -5.168  -2.551  1.00  0.00    -0.354 N 
ATOM      3  C   UNL     1      -0.400  -5.423  -1.390  1.00  0.00     0.239 C 
ATOM      4  O   UNL     1       0.477  -6.293  -1.425  1.00  0.00    -0.273 OA
ATOM      5  H   UNL     1      -0.650  -5.535  -3.364  1.00  0.00     0.163 HD
BRANCH   3   6
ATOM      6  C   UNL     1      -0.886  -4.856  -0.043  1.00  0.00     0.219 C 
BRANCH   6   7
ATOM      7  N   UNL     1      -1.268  -3.438   0.111  1.00  0.00    -0.332 N 
ATOM      8  C   UNL     1      -2.416  -3.198   0.968  1.00  0.00     0.147 C 
BRANCH   7   9
ATOM      9  C   UNL     1      -0.313  -2.504  -0.279  1.00  0.00     0.261 C 
ATOM     10  O   UNL     1       0.678  -2.898  -0.905  1.00  0.00    -0.269 OA
BRANCH   9  11
ATOM     11  C   UNL     1      -0.402  -1.022  -0.011  1.00  0.00     0.126 A 
ATOM     12  C   UNL     1      -2.868  -0.570  -0.472  1.00  0.00     0.068 C 
ATOM     13  C   UNL     1      -1.461  -0.182  -0.105  1.00  0.00     0.058 A 
ATOM     14  N   UNL     1      -1.381   1.192   0.026  1.00  0.00    -0.239 NA
ATOM     15  C   UNL     1      -0.219   1.754   0.011  1.00  0.00     0.111 A 
ATOM     16  C   UNL     1       0.911  -0.322   0.203  1.00  0.00     0.264 A 
ATOM     17  N   UNL     1       0.926   1.030   0.021  1.00  0.00    -0.310 N 
ATOM     18  O   UNL     1       1.930  -0.893   0.582  1.00  0.00    -0.269 OA
ATOM     19  H   UNL     1       1.787   1.490  -0.107  1.00  0.00     0.171 HD
BRANCH  15  20
ATOM     20  C   UNL     1      -0.110   3.273  -0.001  1.00  0.00     0.049 C 
ATOM     21  C   UNL     1       0.639   3.788   1.223  1.00  0.00     0.016 C 
ATOM     22  C   UNL     1       0.536   3.765  -1.293  1.00  0.00     0.016 C 
ENDBRANCH  15  20
ENDBRANCH   9  11
ENDBRANCH   7   9
ENDBRANCH   6   7
ENDBRANCH   3   6
ENDBRANCH   1   2
BRANCH   1  23
ATOM     23  C   UNL     1      -2.068  -3.076  -3.399  1.00  0.00     0.042 C 
BRANCH  23  24
ATOM     24  C   UNL     1      -1.497  -3.136  -4.811  1.00  0.00     0.118 C 
BRANCH  24  25
ATOM     25  N   UNL     1      -2.411  -3.758  -5.759  1.00  0.00    -0.352 N 
ATOM     26  C   UNL     1      -2.896  -3.277  -6.953  1.00  0.00     0.251 C 
ATOM     27  H   UNL     1      -2.729  -4.655  -5.508  1.00  0.00     0.163 HD
ATOM     28  O   UNL     1      -3.806  -3.870  -7.518  1.00  0.00    -0.269 OA
BRANCH  26  29
ATOM     29  C   UNL     1      -2.335  -2.034  -7.531  1.00  0.00     0.039 A 
ATOM     30  C   UNL     1      -3.204  -1.087  -8.080  1.00  0.00     0.014 A 
ATOM     31  C   UNL     1      -0.958  -1.804  -7.535  1.00  0.00     0.014 A 
ATOM     32  C   UNL     1      -2.696   0.120  -8.568  1.00  0.00     0.010 A 
ATOM     33  C   UNL     1      -0.462  -0.571  -7.947  1.00  0.00     0.010 A 
ATOM     34  C   UNL     1      -1.325   0.405  -8.470  1.00  0.00    -0.014 A 
BRANCH  34  35
ATOM     35  C   UNL     1      -0.755   1.699  -8.931  1.00  0.00     0.031 A 
ATOM     36  C   UNL     1       0.254   1.709 -10.049  1.00  0.00     0.074 A 
ATOM     37  C   UNL     1      -1.085   2.846  -8.305  1.00  0.00     0.049 A 
ATOM     38  N   UNL     1       0.982   2.698 -10.500  1.00  0.00    -0.248 NA
ATOM     39  C   UNL     1       0.495   0.426 -10.729  1.00  0.00     0.031 C 
ATOM     40  C   UNL     1      -2.043   2.965  -7.203  1.00  0.00     0.029 A 
ATOM     41  N   UNL     1      -0.641   4.132  -8.494  1.00  0.00    -0.354 N 
ATOM     42  C   UNL     1       1.772   2.157 -11.508  1.00  0.00     0.074 A 
ATOM     43  C   UNL     1       1.482   0.740 -11.555  1.00  0.00     0.031 C 
ATOM     44  C   UNL     1      -2.128   4.252  -6.830  1.00  0.00     0.029 A 
ATOM     45  C   UNL     1      -1.189   5.044  -7.619  1.00  0.00     0.049 A 
ATOM     46  H   UNL     1       0.009   4.380  -9.190  1.00  0.00     0.167 HD
ATOM     47  C   UNL     1       2.641   2.787 -12.336  1.00  0.00     0.034 A 
ATOM     48  C   UNL     1      -0.945   6.361  -7.457  1.00  0.00     0.034 A 
ATOM     49  C   UNL     1       2.914   4.201 -12.284  1.00  0.00     0.049 A 
ATOM     50  C   UNL     1       0.078   7.027  -8.350  1.00  0.00     0.074 A 
ATOM     51  C   UNL     1       3.765   4.944 -13.085  1.00  0.00     0.029 A 
ATOM     52  N   UNL     1       2.341   5.089 -11.384  1.00  0.00    -0.354 N 
ATOM     53  N   UNL     1       0.807   6.501  -9.308  1.00  0.00    -0.248 NA
ATOM     54  C   UNL     1       0.303   8.464  -8.148  1.00  0.00     0.031 C 
ATOM     55  C   UNL     1       3.756   6.265 -12.627  1.00  0.00     0.029 A 
ATOM     56  C   UNL     1       2.834   6.366 -11.598  1.00  0.00     0.049 A 
ATOM     57  H   UNL     1       1.681   4.847 -10.694  1.00  0.00     0.167 HD
ATOM     58  C   UNL     1       1.533   7.557  -9.855  1.00  0.00     0.074 A 
ATOM     59  C   UNL     1       1.152   8.746  -9.125  1.00  0.00     0.031 C 
ATOM     60  C   UNL     1       2.428   7.547 -10.874  1.00  0.00     0.034 A 
BRANCH  47  61
ATOM     61  C   UNL     1       3.365   1.946 -13.359  1.00  0.00     0.023 A 
ATOM     62  C   UNL     1       2.672   1.274 -14.380  1.00  0.00     0.031 A 
ATOM     63  C   UNL     1       4.764   1.810 -13.313  1.00  0.00     0.131 A 
ATOM     64  C   UNL     1       3.369   0.447 -15.274  1.00  0.00     0.055 A 
ATOM     65  C   UNL     1       5.461   1.052 -14.256  1.00  0.00     0.041 A 
ATOM     66  F   UNL     1       5.478   2.410 -12.348  1.00  0.00    -0.206 F 
ATOM     67  C   UNL     1       4.761   0.354 -15.237  1.00  0.00     0.022 A 
BRANCH  64  68
ATOM     68  S   UNL     1       2.415  -0.603 -16.402  1.00  0.00     0.124 S 
ATOM     69  O   UNL     1       1.649  -1.421 -15.465  1.00  0.00    -0.237 OA
ATOM     70  O   UNL     1       1.650   0.371 -17.172  1.00  0.00    -0.237 OA
ATOM     71  O   UNL     1       3.442  -1.323 -17.151  1.00  0.00    -0.744 OA
ENDBRANCH  64  68
ENDBRANCH  47  61
BRANCH  48  72
ATOM     72  C   UNL     1      -1.653   7.151  -6.407  1.00  0.00     0.023 A 
ATOM     73  C   UNL     1      -2.451   8.253  -6.755  1.00  0.00     0.031 A 
ATOM     74  C   UNL     1      -1.475   6.878  -5.038  1.00  0.00     0.131 A 
ATOM     75  C   UNL     1      -2.972   9.087  -5.754  1.00  0.00     0.055 A 
ATOM     76  C   UNL     1      -2.058   7.668  -4.045  1.00  0.00     0.041 A 
ATOM     77  F   UNL     1      -0.723   5.838  -4.643  1.00  0.00    -0.206 F 
ATOM     78  C   UNL     1      -2.794   8.793  -4.401  1.00  0.00     0.022 A 
BRANCH  75  79
ATOM     79  S   UNL     1      -3.761  10.643  -6.251  1.00  0.00     0.124 S 
ATOM     80  O   UNL     1      -2.708  11.267  -7.042  1.00  0.00    -0.237 OA
ATOM     81  O   UNL     1      -4.926  10.168  -6.990  1.00  0.00    -0.237 OA
ATOM     82  O   UNL     1      -4.056  11.295  -4.976  1.00  0.00    -0.744 OA
ENDBRANCH  75  79
ENDBRANCH  48  72
BRANCH  60  83
ATOM     83  C   UNL     1       2.990   8.875 -11.321  1.00  0.00     0.023 A 
ATOM     84  C   UNL     1       3.837   9.644 -10.505  1.00  0.00     0.031 A 
ATOM     85  C   UNL     1       2.675   9.371 -12.600  1.00  0.00     0.131 A 
ATOM     86  C   UNL     1       4.301  10.889 -10.957  1.00  0.00     0.055 A 
ATOM     87  C   UNL     1       3.191  10.579 -13.069  1.00  0.00     0.041 A 
ATOM     88  F   UNL     1       1.868   8.680 -13.421  1.00  0.00    -0.206 F 
ATOM     89  C   UNL     1       3.999  11.351 -12.241  1.00  0.00     0.022 A 
BRANCH  86  90
ATOM     90  S   UNL     1       5.239  11.938  -9.813  1.00  0.00     0.124 S 
ATOM     91  O   UNL     1       4.294  12.112  -8.715  1.00  0.00    -0.237 OA
ATOM     92  O   UNL     1       6.409  11.116  -9.523  1.00  0.00    -0.237 OA
ATOM     93  O   UNL     1       5.508  13.144 -10.596  1.00  0.00    -0.744 OA
ENDBRANCH  86  90
ENDBRANCH  60  83
ENDBRANCH  34  35
ENDBRANCH  26  29
ENDBRANCH  24  25
ENDBRANCH  23  24
ENDBRANCH   1  23
TORSDOF 17
