REMARK SMILES CCC[C@]1(C(=O)NCCCNC(=O)c2ccc(-c3c4nc(c(-c5cc(S(=O)(=O)[O-])ccc5F)c5ccc([nH]5)c(-c5cc(S(=O)(=O)[O-])ccc5F)c5nc(c(-c6cc(S(=O)(=O)[O-])ccc6F)c6ccc3[nH]6)C=C5)C=C4)cc2)CCN(c2cncc(C(=O)OC)n2)C1
REMARK SMILES IDX 9 1 8 2 7 3 5 4 6 5 4 7 77 8 90 9 78 10 79 11 3 12 2 13 1 14
REMARK SMILES IDX 80 15 81 16 89 17 82 18 84 19 83 20 85 21 86 22 87 23 88 24
REMARK SMILES IDX 10 25 11 26 12 27 13 29 14 30 15 31 76 32 16 33 75 34 17 35
REMARK SMILES IDX 18 36 19 37 69 38 20 39 74 40 68 41 70 42 21 43 73 44 67 45
REMARK SMILES IDX 66 46 22 48 54 49 34 50 53 51 35 52 38 53 52 54 71 55 36 56
REMARK SMILES IDX 37 57 51 59 72 60 39 61 23 62 24 63 32 64 25 65 31 66 33 67
REMARK SMILES IDX 30 68 26 69 27 70 28 71 29 72 55 73 56 74 64 75 57 76 63 77
REMARK SMILES IDX 65 78 62 79 58 80 59 81 60 82 61 83 40 84 41 85 49 86 42 87
REMARK SMILES IDX 48 88 50 89 47 90 43 91 44 92 45 93 46 94
REMARK H PARENT 7 6 11 28 70 47 38 58
REMARK Flexibility Score: inf
ROOT
ATOM      1  C   UNL     1      -0.017  -4.924   0.242  1.00  0.00     0.042 C 
ENDROOT
BRANCH   1   2
ATOM      2  C   UNL     1      -1.049  -4.032  -0.456  1.00  0.00     0.117 C 
BRANCH   2   3
ATOM      3  N   UNL     1      -0.746  -2.616  -0.330  1.00  0.00    -0.355 N 
ATOM      4  C   UNL     1       0.430  -2.098  -0.783  1.00  0.00     0.228 C 
ATOM      5  O   UNL     1       1.288  -1.833   0.063  1.00  0.00    -0.274 OA
ATOM      6  H   UNL     1      -1.404  -2.018   0.092  1.00  0.00     0.163 HD
BRANCH   4   7
ATOM      7  C   UNL     1       0.693  -1.875  -2.274  1.00  0.00     0.068 C 
ATOM      8  C   UNL     1       1.741  -2.933  -2.716  1.00  0.00     0.040 C 
ATOM      9  C   UNL     1      -0.504  -2.089  -3.242  1.00  0.00     0.135 C 
ATOM     10  C   UNL     1       1.199  -3.591  -3.975  1.00  0.00     0.119 C 
ATOM     11  N   UNL     1      -0.230  -3.380  -3.879  1.00  0.00    -0.354 N 
BRANCH   7  12
ATOM     12  C   UNL     1       1.297  -0.442  -2.416  1.00  0.00     0.018 C 
BRANCH  12  13
ATOM     13  C   UNL     1       0.505   0.723  -1.782  1.00  0.00    -0.002 C 
ATOM     14  C   UNL     1       0.851   1.018  -0.321  1.00  0.00     0.004 C 
ENDBRANCH  12  13
ENDBRANCH   7  12
BRANCH  11  15
ATOM     15  C   UNL     1      -0.979  -3.844  -4.950  1.00  0.00     0.148 A 
ATOM     16  C   UNL     1      -1.921  -4.857  -4.719  1.00  0.00     0.157 A 
ATOM     17  N   UNL     1      -0.700  -3.453  -6.220  1.00  0.00    -0.221 NA
ATOM     18  N   UNL     1      -2.598  -5.514  -5.694  1.00  0.00    -0.258 NA
ATOM     19  C   UNL     1      -1.373  -4.114  -7.213  1.00  0.00     0.169 A 
ATOM     20  C   UNL     1      -2.289  -5.125  -6.950  1.00  0.00     0.147 A 
BRANCH  19  21
ATOM     21  C   UNL     1      -1.135  -3.786  -8.646  1.00  0.00     0.358 C 
ATOM     22  O   UNL     1      -1.757  -4.315  -9.555  1.00  0.00    -0.244 OA
BRANCH  21  23
ATOM     23  O   UNL     1      -0.159  -2.855  -8.810  1.00  0.00    -0.464 OA
ATOM     24  C   UNL     1       0.107  -2.556 -10.184  1.00  0.00     0.282 C 
ENDBRANCH  21  23
ENDBRANCH  19  21
ENDBRANCH  11  15
ENDBRANCH   4   7
ENDBRANCH   2   3
ENDBRANCH   1   2
BRANCH   1  25
ATOM     25  C   UNL     1       0.219  -4.603   1.718  1.00  0.00     0.118 C 
BRANCH  25  26
ATOM     26  N   UNL     1      -0.955  -4.874   2.531  1.00  0.00    -0.352 N 
ATOM     27  C   UNL     1      -1.238  -5.938   3.350  1.00  0.00     0.251 C 
ATOM     28  H   UNL     1      -1.658  -4.186   2.487  1.00  0.00     0.163 HD
ATOM     29  O   UNL     1      -2.399  -6.110   3.713  1.00  0.00    -0.269 OA
BRANCH  27  30
ATOM     30  C   UNL     1      -0.177  -6.878   3.784  1.00  0.00     0.039 A 
ATOM     31  C   UNL     1      -0.485  -8.239   3.872  1.00  0.00     0.014 A 
ATOM     32  C   UNL     1       1.090  -6.431   4.169  1.00  0.00     0.014 A 
ATOM     33  C   UNL     1       0.487  -9.149   4.296  1.00  0.00     0.010 A 
ATOM     34  C   UNL     1       2.083  -7.349   4.514  1.00  0.00     0.010 A 
ATOM     35  C   UNL     1       1.792  -8.718   4.591  1.00  0.00    -0.014 A 
BRANCH  35  36
ATOM     36  C   UNL     1       2.849  -9.692   4.981  1.00  0.00     0.031 A 
ATOM     37  C   UNL     1       3.494  -9.619   6.340  1.00  0.00     0.074 A 
ATOM     38  C   UNL     1       3.259 -10.618   4.092  1.00  0.00     0.049 A 
ATOM     39  N   UNL     1       4.459 -10.350   6.840  1.00  0.00    -0.248 NA
ATOM     40  C   UNL     1       3.007  -8.568   7.245  1.00  0.00     0.031 C 
ATOM     41  C   UNL     1       2.743 -10.762   2.728  1.00  0.00     0.029 A 
ATOM     42  N   UNL     1       4.204 -11.609   4.193  1.00  0.00    -0.354 N 
ATOM     43  C   UNL     1       4.698  -9.845   8.115  1.00  0.00     0.074 A 
ATOM     44  C   UNL     1       3.826  -8.700   8.277  1.00  0.00     0.031 C 
ATOM     45  C   UNL     1       3.357 -11.796   2.133  1.00  0.00     0.029 A 
ATOM     46  C   UNL     1       4.345 -12.358   3.047  1.00  0.00     0.049 A 
ATOM     47  H   UNL     1       4.731 -11.768   5.009  1.00  0.00     0.167 HD
ATOM     48  C   UNL     1       5.546 -10.307   9.070  1.00  0.00     0.034 A 
ATOM     49  C   UNL     1       5.183 -13.372   2.757  1.00  0.00     0.034 A 
ATOM     50  C   UNL     1       6.413 -11.448   8.887  1.00  0.00     0.049 A 
ATOM     51  C   UNL     1       6.142 -13.849   3.818  1.00  0.00     0.074 A 
ATOM     52  C   UNL     1       7.280 -12.028   9.797  1.00  0.00     0.029 A 
ATOM     53  N   UNL     1       6.535 -12.177   7.709  1.00  0.00    -0.354 N 
ATOM     54  N   UNL     1       6.319 -13.392   5.037  1.00  0.00    -0.248 NA
ATOM     55  C   UNL     1       7.003 -14.984   3.468  1.00  0.00     0.031 C 
ATOM     56  C   UNL     1       7.978 -13.053   9.149  1.00  0.00     0.029 A 
ATOM     57  C   UNL     1       7.487 -13.175   7.860  1.00  0.00     0.049 A 
ATOM     58  H   UNL     1       6.020 -12.008   6.887  1.00  0.00     0.167 HD
ATOM     59  C   UNL     1       7.298 -14.202   5.606  1.00  0.00     0.074 A 
ATOM     60  C   UNL     1       7.653 -15.188   4.604  1.00  0.00     0.031 C 
ATOM     61  C   UNL     1       7.851 -14.139   6.845  1.00  0.00     0.034 A 
BRANCH  48  62
ATOM     62  C   UNL     1       5.588  -9.556  10.383  1.00  0.00     0.023 A 
ATOM     63  C   UNL     1       4.448  -9.430  11.197  1.00  0.00     0.031 A 
ATOM     64  C   UNL     1       6.769  -8.923  10.811  1.00  0.00     0.131 A 
ATOM     65  C   UNL     1       4.486  -8.617  12.341  1.00  0.00     0.055 A 
ATOM     66  C   UNL     1       6.825  -8.192  12.001  1.00  0.00     0.041 A 
ATOM     67  F   UNL     1       7.887  -8.988  10.071  1.00  0.00    -0.206 F 
ATOM     68  C   UNL     1       5.675  -8.019  12.764  1.00  0.00     0.022 A 
BRANCH  65  69
ATOM     69  S   UNL     1       2.922  -8.216  13.169  1.00  0.00     0.124 S 
ATOM     70  O   UNL     1       2.160  -7.608  12.080  1.00  0.00    -0.237 OA
ATOM     71  O   UNL     1       2.460  -9.523  13.621  1.00  0.00    -0.237 OA
ATOM     72  O   UNL     1       3.322  -7.293  14.229  1.00  0.00    -0.744 OA
ENDBRANCH  65  69
ENDBRANCH  48  62
BRANCH  49  73
ATOM     73  C   UNL     1       5.167 -13.993   1.401  1.00  0.00     0.023 A 
ATOM     74  C   UNL     1       4.791 -15.333   1.216  1.00  0.00     0.031 A 
ATOM     75  C   UNL     1       5.548 -13.254   0.266  1.00  0.00     0.131 A 
ATOM     76  C   UNL     1       4.841 -15.903  -0.066  1.00  0.00     0.055 A 
ATOM     77  C   UNL     1       5.543 -13.809  -1.014  1.00  0.00     0.041 A 
ATOM     78  F   UNL     1       5.913 -11.967   0.385  1.00  0.00    -0.206 F 
ATOM     79  C   UNL     1       5.199 -15.146  -1.184  1.00  0.00     0.022 A 
BRANCH  76  80
ATOM     80  S   UNL     1       4.502 -17.676  -0.243  1.00  0.00     0.124 S 
ATOM     81  O   UNL     1       5.520 -18.262   0.621  1.00  0.00    -0.237 OA
ATOM     82  O   UNL     1       3.125 -17.771   0.230  1.00  0.00    -0.237 OA
ATOM     83  O   UNL     1       4.684 -17.916  -1.674  1.00  0.00    -0.744 OA
ENDBRANCH  76  80
ENDBRANCH  49  73
BRANCH  61  84
ATOM     84  C   UNL     1       8.880 -15.191   7.190  1.00  0.00     0.023 A 
ATOM     85  C   UNL     1      10.114 -15.268   6.520  1.00  0.00     0.031 A 
ATOM     86  C   UNL     1       8.612 -16.144   8.189  1.00  0.00     0.131 A 
ATOM     87  C   UNL     1      11.004 -16.314   6.810  1.00  0.00     0.055 A 
ATOM     88  C   UNL     1       9.531 -17.139   8.523  1.00  0.00     0.041 A 
ATOM     89  F   UNL     1       7.449 -16.123   8.860  1.00  0.00    -0.206 F 
ATOM     90  C   UNL     1      10.729 -17.238   7.821  1.00  0.00     0.022 A 
BRANCH  87  91
ATOM     91  S   UNL     1      12.476 -16.517   5.771  1.00  0.00     0.124 S 
ATOM     92  O   UNL     1      11.891 -16.663   4.442  1.00  0.00    -0.237 OA
ATOM     93  O   UNL     1      13.204 -15.276   6.014  1.00  0.00    -0.237 OA
ATOM     94  O   UNL     1      13.110 -17.721   6.305  1.00  0.00    -0.744 OA
ENDBRANCH  87  91
ENDBRANCH  61  84
ENDBRANCH  35  36
ENDBRANCH  27  30
ENDBRANCH  25  26
ENDBRANCH   1  25
TORSDOF 18
