REMARK SMILES CC[C@@H](C)[C@@H](C(=O)NCCCNC(=O)c1ccc(-c2c3nc(c(-c4cc(S(=O)(=O)[O-])ccc4F)c4ccc([nH]4)c(-c4cc(S(=O)(=O)[O-])ccc4F)c4nc(c(-c5cc(S(=O)(=O)[O-])ccc5F)c5ccc2[nH]5)C=C4)C=C3)cc1)S(=O)(=O)c1ccc(OC)cc1
REMARK SMILES IDX 10 1 9 2 8 3 6 4 7 5 5 7 3 8 4 9 2 10 1 11 78 12 79 13 80 14
REMARK SMILES IDX 81 15 82 16 88 17 83 18 87 19 84 20 85 21 86 22 11 23 12 24
REMARK SMILES IDX 13 25 14 27 15 28 16 29 77 30 17 31 76 32 18 33 19 34 20 35
REMARK SMILES IDX 70 36 21 37 75 38 69 39 71 40 22 41 74 42 68 43 67 44 23 46
REMARK SMILES IDX 55 47 35 48 54 49 36 50 39 51 53 52 72 53 37 54 38 55 52 57
REMARK SMILES IDX 73 58 40 59 24 60 25 61 33 62 26 63 32 64 34 65 31 66 27 67
REMARK SMILES IDX 28 68 29 69 30 70 56 71 57 72 65 73 58 74 64 75 66 76 63 77
REMARK SMILES IDX 59 78 60 79 61 80 62 81 41 82 42 83 50 84 43 85 49 86 51 87
REMARK SMILES IDX 48 88 44 89 45 90 46 91 47 92
REMARK H PARENT 8 6 12 26 71 45 39 56
REMARK Flexibility Score: inf
ROOT
ATOM      1  C   UNL     1       0.007  -0.443  -3.325  1.00  0.00     0.042 C 
ENDROOT
BRANCH   1   2
ATOM      2  C   UNL     1      -0.486  -1.859  -2.986  1.00  0.00     0.117 C 
BRANCH   2   3
ATOM      3  N   UNL     1       0.632  -2.779  -2.873  1.00  0.00    -0.355 N 
ATOM      4  C   UNL     1       1.291  -3.337  -1.823  1.00  0.00     0.239 C 
ATOM      5  O   UNL     1       2.414  -3.747  -2.123  1.00  0.00    -0.274 OA
ATOM      6  H   UNL     1       0.989  -3.061  -3.745  1.00  0.00     0.163 HD
BRANCH   4   7
ATOM      7  C   UNL     1       0.697  -3.489  -0.410  1.00  0.00     0.205 C 
BRANCH   7   8
ATOM      8  C   UNL     1       0.902  -2.327   0.629  1.00  0.00     0.014 C 
ATOM      9  C   UNL     1       0.104  -2.523   1.929  1.00  0.00     0.009 C 
BRANCH   8  10
ATOM     10  C   UNL     1       0.558  -0.960   0.030  1.00  0.00     0.002 C 
ATOM     11  C   UNL     1       1.057   0.256   0.797  1.00  0.00     0.004 C 
ENDBRANCH   8  10
ENDBRANCH   7   8
BRANCH   7  12
ATOM     12  S   UNL     1       1.297  -5.106   0.178  1.00  0.00     0.190 S 
ATOM     13  O   UNL     1       0.819  -5.320   1.538  1.00  0.00    -0.223 OA
ATOM     14  O   UNL     1       0.941  -6.097  -0.821  1.00  0.00    -0.223 OA
BRANCH  12  15
ATOM     15  C   UNL     1       3.085  -5.133   0.313  1.00  0.00     0.068 A 
ATOM     16  C   UNL     1       3.708  -6.377   0.448  1.00  0.00     0.024 A 
ATOM     17  C   UNL     1       3.874  -3.984   0.254  1.00  0.00     0.024 A 
ATOM     18  C   UNL     1       5.106  -6.454   0.533  1.00  0.00     0.048 A 
ATOM     19  C   UNL     1       5.265  -4.063   0.347  1.00  0.00     0.048 A 
ATOM     20  C   UNL     1       5.890  -5.297   0.486  1.00  0.00     0.118 A 
BRANCH  20  21
ATOM     21  O   UNL     1       7.242  -5.490   0.570  1.00  0.00    -0.497 OA
ATOM     22  C   UNL     1       8.051  -4.319   0.488  1.00  0.00     0.278 C 
ENDBRANCH  20  21
ENDBRANCH  12  15
ENDBRANCH   7  12
ENDBRANCH   4   7
ENDBRANCH   2   3
ENDBRANCH   1   2
BRANCH   1  23
ATOM     23  C   UNL     1       0.636  -0.301  -4.709  1.00  0.00     0.118 C 
BRANCH  23  24
ATOM     24  N   UNL     1      -0.352   0.018  -5.719  1.00  0.00    -0.352 N 
ATOM     25  C   UNL     1      -0.626   1.216  -6.338  1.00  0.00     0.251 C 
ATOM     26  H   UNL     1      -0.913  -0.737  -6.007  1.00  0.00     0.163 HD
ATOM     27  O   UNL     1      -1.684   1.325  -6.953  1.00  0.00    -0.269 OA
BRANCH  25  28
ATOM     28  C   UNL     1       0.307   2.371  -6.258  1.00  0.00     0.039 A 
ATOM     29  C   UNL     1      -0.232   3.660  -6.198  1.00  0.00     0.014 A 
ATOM     30  C   UNL     1       1.696   2.216  -6.317  1.00  0.00     0.014 A 
ATOM     31  C   UNL     1       0.611   4.778  -6.154  1.00  0.00     0.010 A 
ATOM     32  C   UNL     1       2.537   3.325  -6.185  1.00  0.00     0.010 A 
ATOM     33  C   UNL     1       2.006   4.622  -6.120  1.00  0.00    -0.014 A 
BRANCH  33  34
ATOM     34  C   UNL     1       2.915   5.804  -6.060  1.00  0.00     0.031 A 
ATOM     35  C   UNL     1       3.879   6.077  -7.188  1.00  0.00     0.074 A 
ATOM     36  C   UNL     1       2.900   6.614  -4.981  1.00  0.00     0.049 A 
ATOM     37  N   UNL     1       4.793   7.010  -7.291  1.00  0.00    -0.248 NA
ATOM     38  C   UNL     1       3.826   5.165  -8.340  1.00  0.00     0.031 C 
ATOM     39  C   UNL     1       2.034   6.447  -3.811  1.00  0.00     0.029 A 
ATOM     40  N   UNL     1       3.635   7.737  -4.687  1.00  0.00    -0.354 N 
ATOM     41  C   UNL     1       5.429   6.789  -8.509  1.00  0.00     0.074 A 
ATOM     42  C   UNL     1       4.838   5.597  -9.077  1.00  0.00     0.031 C 
ATOM     43  C   UNL     1       2.269   7.444  -2.943  1.00  0.00     0.029 A 
ATOM     44  C   UNL     1       3.335   8.294  -3.464  1.00  0.00     0.049 A 
ATOM     45  H   UNL     1       4.315   8.108  -5.295  1.00  0.00     0.167 HD
ATOM     46  C   UNL     1       6.396   7.525  -9.112  1.00  0.00     0.034 A 
ATOM     47  C   UNL     1       3.864   9.359  -2.828  1.00  0.00     0.034 A 
ATOM     48  C   UNL     1       6.965   8.724  -8.547  1.00  0.00     0.049 A 
ATOM     49  C   UNL     1       4.963  10.142  -3.506  1.00  0.00     0.074 A 
ATOM     50  C   UNL     1       7.918   9.567  -9.094  1.00  0.00     0.029 A 
ATOM     51  N   UNL     1       6.638   9.252  -7.305  1.00  0.00    -0.354 N 
ATOM     52  N   UNL     1       5.523   9.938  -4.676  1.00  0.00    -0.248 NA
ATOM     53  C   UNL     1       5.493  11.305  -2.781  1.00  0.00     0.031 C 
ATOM     54  C   UNL     1       8.214  10.564  -8.158  1.00  0.00     0.029 A 
ATOM     55  C   UNL     1       7.390  10.390  -7.058  1.00  0.00     0.049 A 
ATOM     56  H   UNL     1       5.970   8.873  -6.689  1.00  0.00     0.167 HD
ATOM     57  C   UNL     1       6.445  10.969  -4.839  1.00  0.00     0.074 A 
ATOM     58  C   UNL     1       6.353  11.801  -3.658  1.00  0.00     0.031 C 
ATOM     59  C   UNL     1       7.291  11.209  -5.873  1.00  0.00     0.034 A 
BRANCH  46  60
ATOM     60  C   UNL     1       6.913   7.040 -10.447  1.00  0.00     0.023 A 
ATOM     61  C   UNL     1       6.083   6.971 -11.579  1.00  0.00     0.031 A 
ATOM     62  C   UNL     1       8.253   6.636 -10.590  1.00  0.00     0.131 A 
ATOM     63  C   UNL     1       6.578   6.445 -12.782  1.00  0.00     0.055 A 
ATOM     64  C   UNL     1       8.762   6.189 -11.811  1.00  0.00     0.041 A 
ATOM     65  F   UNL     1       9.090   6.661  -9.541  1.00  0.00    -0.206 F 
ATOM     66  C   UNL     1       7.920   6.079 -12.914  1.00  0.00     0.022 A 
BRANCH  63  67
ATOM     67  S   UNL     1       5.412   6.123 -14.133  1.00  0.00     0.124 S 
ATOM     68  O   UNL     1       4.494   5.173 -13.508  1.00  0.00    -0.237 OA
ATOM     69  O   UNL     1       4.870   7.449 -14.405  1.00  0.00    -0.237 OA
ATOM     70  O   UNL     1       6.254   5.563 -15.187  1.00  0.00    -0.744 OA
ENDBRANCH  63  67
ENDBRANCH  46  60
BRANCH  47  71
ATOM     71  C   UNL     1       3.387   9.751  -1.469  1.00  0.00     0.023 A 
ATOM     72  C   UNL     1       2.788  11.001  -1.244  1.00  0.00     0.031 A 
ATOM     73  C   UNL     1       3.584   8.908  -0.360  1.00  0.00     0.131 A 
ATOM     74  C   UNL     1       2.464  11.398   0.063  1.00  0.00     0.055 A 
ATOM     75  C   UNL     1       3.203   9.283   0.930  1.00  0.00     0.041 A 
ATOM     76  F   UNL     1       4.150   7.701  -0.515  1.00  0.00    -0.206 F 
ATOM     77  C   UNL     1       2.654  10.543   1.149  1.00  0.00     0.022 A 
BRANCH  74  78
ATOM     78  S   UNL     1       1.892  13.098   0.336  1.00  0.00     0.124 S 
ATOM     79  O   UNL     1       2.985  13.874  -0.237  1.00  0.00    -0.237 OA
ATOM     80  O   UNL     1       0.635  13.116  -0.405  1.00  0.00    -0.237 OA
ATOM     81  O   UNL     1       1.759  13.183   1.789  1.00  0.00    -0.744 OA
ENDBRANCH  74  78
ENDBRANCH  47  71
BRANCH  59  82
ATOM     82  C   UNL     1       8.145  12.451  -5.789  1.00  0.00     0.023 A 
ATOM     83  C   UNL     1       9.156  12.592  -4.822  1.00  0.00     0.031 A 
ATOM     84  C   UNL     1       7.934  13.516  -6.684  1.00  0.00     0.131 A 
ATOM     85  C   UNL     1       9.877  13.792  -4.735  1.00  0.00     0.055 A 
ATOM     86  C   UNL     1       8.697  14.683  -6.632  1.00  0.00     0.041 A 
ATOM     87  F   UNL     1       6.981  13.437  -7.627  1.00  0.00    -0.206 F 
ATOM     88  C   UNL     1       9.666  14.831  -5.645  1.00  0.00     0.022 A 
BRANCH  85  89
ATOM     89  S   UNL     1      11.033  14.015  -3.354  1.00  0.00     0.124 S 
ATOM     90  O   UNL     1      10.159  13.849  -2.197  1.00  0.00    -0.237 OA
ATOM     91  O   UNL     1      11.999  12.945  -3.581  1.00  0.00    -0.237 OA
ATOM     92  O   UNL     1      11.549  15.368  -3.553  1.00  0.00    -0.744 OA
ENDBRANCH  85  89
ENDBRANCH  59  82
ENDBRANCH  33  34
ENDBRANCH  25  28
ENDBRANCH  23  24
ENDBRANCH   1  23
TORSDOF 18
