REMARK SMILES O=C(NCCCNC(=O)[C@@H]1[C@@H](C(=O)N2CCN(c3cccc(Cl)c3)CC2)[C@H]2CC[C@@H]1O2)c1ccc(-c2c3nc(c(-c4cc(S(=O)(=O)[O-])ccc4F)c4ccc([nH]4)c(-c4cc(S(=O)(=O)[O-])ccc4F)c4nc(c(-c5cc(S(=O)(=O)[O-])ccc5F)c5ccc2[nH]5)C=C4)C=C3)cc1
REMARK SMILES IDX 4 1 3 2 1 3 2 4 32 6 33 7 94 8 34 9 93 10 35 11 36 12 37 13
REMARK SMILES IDX 87 14 38 15 92 16 86 17 88 18 39 19 91 20 85 21 84 22 40 24
REMARK SMILES IDX 72 25 52 26 71 27 53 28 56 29 70 30 89 31 54 32 55 33 69 35
REMARK SMILES IDX 90 36 57 37 41 38 42 39 50 40 43 41 49 42 51 43 48 44 44 45
REMARK SMILES IDX 45 46 46 47 47 48 73 49 74 50 82 51 75 52 81 53 83 54 80 55
REMARK SMILES IDX 76 56 77 57 78 58 79 59 58 60 59 61 67 62 60 63 66 64 68 65
REMARK SMILES IDX 65 66 61 67 62 68 63 69 64 70 5 71 6 72 7 73 8 74 9 76 10 77
REMARK SMILES IDX 11 78 30 79 27 80 29 81 31 82 28 83 12 84 13 85 14 86 15 87
REMARK SMILES IDX 26 88 16 89 25 90 17 91 18 92 19 93 24 94 20 95 22 96 21 97
REMARK SMILES IDX 23 98
REMARK H PARENT 3 5 88 23 56 34 7 75
REMARK Flexibility Score: inf
ROOT
ATOM      1  C   UNL     1       4.632   1.216  -0.029  1.00  0.00     0.118 C 
ENDROOT
BRANCH   1   2
ATOM      2  N   UNL     1       3.187   1.044   0.045  1.00  0.00    -0.352 N 
ATOM      3  O   UNL     1       1.203  -0.015  -0.073  1.00  0.00    -0.269 OA
ATOM      4  C   UNL     1       2.426  -0.102   0.012  1.00  0.00     0.251 C 
ATOM      5  H   UNL     1       2.673   1.879   0.131  1.00  0.00     0.163 HD
BRANCH   4   6
ATOM      6  C   UNL     1       3.074  -1.432   0.054  1.00  0.00     0.039 A 
ATOM      7  C   UNL     1       4.145  -1.676   0.913  1.00  0.00     0.014 A 
ATOM      8  C   UNL     1       2.599  -2.455  -0.772  1.00  0.00     0.014 A 
ATOM      9  C   UNL     1       4.859  -2.862   0.809  1.00  0.00     0.010 A 
ATOM     10  C   UNL     1       3.246  -3.696  -0.786  1.00  0.00     0.010 A 
ATOM     11  C   UNL     1       4.406  -3.898  -0.023  1.00  0.00    -0.014 A 
BRANCH  11  12
ATOM     12  C   UNL     1       5.134  -5.195  -0.020  1.00  0.00     0.031 A 
ATOM     13  C   UNL     1       5.793  -5.723  -1.264  1.00  0.00     0.074 A 
ATOM     14  C   UNL     1       5.231  -5.874   1.141  1.00  0.00     0.049 A 
ATOM     15  N   UNL     1       6.472  -6.830  -1.430  1.00  0.00    -0.248 NA
ATOM     16  C   UNL     1       5.666  -4.912  -2.483  1.00  0.00     0.031 C 
ATOM     17  C   UNL     1       4.628  -5.457   2.411  1.00  0.00     0.029 A 
ATOM     18  N   UNL     1       5.886  -7.036   1.456  1.00  0.00    -0.354 N 
ATOM     19  C   UNL     1       6.835  -6.862  -2.772  1.00  0.00     0.074 A 
ATOM     20  C   UNL     1       6.273  -5.675  -3.382  1.00  0.00     0.031 C 
ATOM     21  C   UNL     1       4.989  -6.315   3.375  1.00  0.00     0.029 A 
ATOM     22  C   UNL     1       5.776  -7.388   2.781  1.00  0.00     0.049 A 
ATOM     23  H   UNL     1       6.387  -7.569   0.796  1.00  0.00     0.167 HD
ATOM     24  C   UNL     1       7.574  -7.793  -3.429  1.00  0.00     0.034 A 
ATOM     25  C   UNL     1       6.232  -8.466   3.445  1.00  0.00     0.034 A 
ATOM     26  C   UNL     1       8.132  -8.966  -2.798  1.00  0.00     0.049 A 
ATOM     27  C   UNL     1       7.018  -9.499   2.686  1.00  0.00     0.074 A 
ATOM     28  C   UNL     1       8.917  -9.958  -3.363  1.00  0.00     0.029 A 
ATOM     29  N   UNL     1       7.961  -9.313  -1.463  1.00  0.00    -0.354 N 
ATOM     30  N   UNL     1       7.354  -9.508   1.417  1.00  0.00    -0.248 NA
ATOM     31  C   UNL     1       7.484 -10.663   3.446  1.00  0.00     0.031 C 
ATOM     32  C   UNL     1       9.165 -10.933  -2.389  1.00  0.00     0.029 A 
ATOM     33  C   UNL     1       8.599 -10.516  -1.195  1.00  0.00     0.049 A 
ATOM     34  H   UNL     1       7.460  -8.781  -0.803  1.00  0.00     0.167 HD
ATOM     35  C   UNL     1       8.086 -10.676   1.231  1.00  0.00     0.074 A 
ATOM     36  C   UNL     1       8.161 -11.329   2.522  1.00  0.00     0.031 C 
ATOM     37  C   UNL     1       8.646 -11.164   0.095  1.00  0.00     0.034 A 
BRANCH  24  38
ATOM     38  C   UNL     1       7.777  -7.602  -4.914  1.00  0.00     0.023 A 
ATOM     39  C   UNL     1       8.503  -6.516  -5.433  1.00  0.00     0.031 A 
ATOM     40  C   UNL     1       7.222  -8.518  -5.827  1.00  0.00     0.131 A 
ATOM     41  C   UNL     1       8.601  -6.337  -6.822  1.00  0.00     0.055 A 
ATOM     42  C   UNL     1       7.387  -8.375  -7.207  1.00  0.00     0.041 A 
ATOM     43  F   UNL     1       6.502  -9.564  -5.394  1.00  0.00    -0.206 F 
ATOM     44  C   UNL     1       8.068  -7.272  -7.713  1.00  0.00     0.022 A 
BRANCH  41  45
ATOM     45  S   UNL     1       9.320  -4.795  -7.451  1.00  0.00     0.124 S 
ATOM     46  O   UNL     1       8.450  -3.792  -6.841  1.00  0.00    -0.237 OA
ATOM     47  O   UNL     1      10.684  -4.852  -6.940  1.00  0.00    -0.237 OA
ATOM     48  O   UNL     1       9.190  -4.921  -8.901  1.00  0.00    -0.744 OA
ENDBRANCH  41  45
ENDBRANCH  24  38
BRANCH  25  49
ATOM     49  C   UNL     1       5.921  -8.641   4.891  1.00  0.00     0.023 A 
ATOM     50  C   UNL     1       6.937  -8.649   5.858  1.00  0.00     0.031 A 
ATOM     51  C   UNL     1       4.594  -8.819   5.325  1.00  0.00     0.131 A 
ATOM     52  C   UNL     1       6.615  -8.867   7.207  1.00  0.00     0.055 A 
ATOM     53  C   UNL     1       4.274  -8.981   6.673  1.00  0.00     0.041 A 
ATOM     54  F   UNL     1       3.584  -8.814   4.441  1.00  0.00    -0.206 F 
ATOM     55  C   UNL     1       5.290  -9.018   7.622  1.00  0.00     0.022 A 
BRANCH  52  56
ATOM     56  S   UNL     1       7.965  -9.027   8.406  1.00  0.00     0.124 S 
ATOM     57  O   UNL     1       8.734 -10.132   7.844  1.00  0.00    -0.237 OA
ATOM     58  O   UNL     1       8.589  -7.710   8.337  1.00  0.00    -0.237 OA
ATOM     59  O   UNL     1       7.273  -9.322   9.659  1.00  0.00    -0.744 OA
ENDBRANCH  52  56
ENDBRANCH  25  49
BRANCH  37  60
ATOM     60  C   UNL     1       9.417 -12.453   0.223  1.00  0.00     0.023 A 
ATOM     61  C   UNL     1       8.775 -13.669   0.516  1.00  0.00     0.031 A 
ATOM     62  C   UNL     1      10.816 -12.458   0.082  1.00  0.00     0.131 A 
ATOM     63  C   UNL     1       9.538 -14.830   0.716  1.00  0.00     0.055 A 
ATOM     64  C   UNL     1      11.563 -13.627   0.225  1.00  0.00     0.041 A 
ATOM     65  F   UNL     1      11.478 -11.323  -0.194  1.00  0.00    -0.206 F 
ATOM     66  C   UNL     1      10.926 -14.819   0.558  1.00  0.00     0.022 A 
BRANCH  63  67
ATOM     67  S   UNL     1       8.699 -16.336   1.280  1.00  0.00     0.124 S 
ATOM     68  O   UNL     1       8.102 -15.897   2.538  1.00  0.00    -0.237 OA
ATOM     69  O   UNL     1       7.767 -16.602   0.190  1.00  0.00    -0.237 OA
ATOM     70  O   UNL     1       9.787 -17.303   1.415  1.00  0.00    -0.744 OA
ENDBRANCH  63  67
ENDBRANCH  37  60
ENDBRANCH  11  12
ENDBRANCH   4   6
ENDBRANCH   1   2
BRANCH   1  71
ATOM     71  C   UNL     1       5.099   1.815  -1.347  1.00  0.00     0.042 C 
BRANCH  71  72
ATOM     72  C   UNL     1       4.654   3.250  -1.569  1.00  0.00     0.117 C 
BRANCH  72  73
ATOM     73  N   UNL     1       5.143   4.152  -0.540  1.00  0.00    -0.356 N 
ATOM     74  C   UNL     1       5.743   5.367  -0.660  1.00  0.00     0.226 C 
ATOM     75  H   UNL     1       5.022   3.836   0.384  1.00  0.00     0.163 HD
ATOM     76  O   UNL     1       6.130   5.912   0.375  1.00  0.00    -0.275 OA
BRANCH  74  77
ATOM     77  C   UNL     1       5.992   5.951  -2.041  1.00  0.00     0.122 C 
ATOM     78  C   UNL     1       6.530   7.386  -1.952  1.00  0.00     0.122 C 
ATOM     79  C   UNL     1       4.684   6.177  -2.815  1.00  0.00     0.132 C 
ATOM     80  C   UNL     1       5.530   8.168  -2.817  1.00  0.00     0.132 C 
ATOM     81  C   UNL     1       5.003   6.379  -4.296  1.00  0.00     0.035 C 
ATOM     82  O   UNL     1       4.300   7.519  -2.418  1.00  0.00    -0.373 OA
ATOM     83  C   UNL     1       5.528   7.813  -4.305  1.00  0.00     0.035 C 
BRANCH  78  84
ATOM     84  C   UNL     1       7.939   7.592  -2.456  1.00  0.00     0.229 C 
ATOM     85  O   UNL     1       8.345   7.150  -3.526  1.00  0.00    -0.274 OA
ATOM     86  N   UNL     1       8.643   8.512  -1.712  1.00  0.00    -0.339 N 
ATOM     87  C   UNL     1       9.382   9.582  -2.374  1.00  0.00     0.141 C 
ATOM     88  C   UNL     1       9.066   8.207  -0.340  1.00  0.00     0.141 C 
ATOM     89  C   UNL     1       9.330  10.865  -1.521  1.00  0.00     0.138 C 
ATOM     90  C   UNL     1       9.120   9.463   0.546  1.00  0.00     0.138 C 
ATOM     91  N   UNL     1       9.801  10.557  -0.166  1.00  0.00    -0.368 N 
BRANCH  91  92
ATOM     92  C   UNL     1      10.616  11.428   0.517  1.00  0.00     0.038 A 
ATOM     93  C   UNL     1      11.822  10.964   1.061  1.00  0.00     0.026 A 
ATOM     94  C   UNL     1      10.304  12.783   0.660  1.00  0.00     0.046 A 
ATOM     95  C   UNL     1      12.707  11.826   1.709  1.00  0.00     0.004 A 
ATOM     96  C   UNL     1      11.178  13.643   1.328  1.00  0.00     0.043 A 
ATOM     97  C   UNL     1      12.382  13.173   1.845  1.00  0.00     0.020 A 
ATOM     98  Cl  UNL     1      10.765  15.305   1.513  1.00  0.00    -0.084 Cl
ENDBRANCH  91  92
ENDBRANCH  78  84
ENDBRANCH  74  77
ENDBRANCH  72  73
ENDBRANCH  71  72
ENDBRANCH   1  71
TORSDOF 15
