REMARK SMILES C[C@@H](C(=O)NCCCNC(=O)c1ccc(-c2c3nc(c(-c4cc(S(=O)(=O)[O-])ccc4F)c4ccc([nH]4)c(-c4cc(S(=O)(=O)[O-])ccc4F)c4nc(c(-c5cc(S(=O)(=O)[O-])ccc5F)c5ccc2[nH]5)C=C4)C=C3)cc1)c1ccc(-c2cccc(OC(=O)NCCCc3ccccc3)c2)c(F)c1
REMARK SMILES IDX 1 1 2 2 3 3 4 4 5 5 6 7 7 8 8 9 9 10 10 11 11 13 12 14 13 15
REMARK SMILES IDX 74 16 14 17 73 18 15 19 16 20 17 21 67 22 18 23 72 24 66 25
REMARK SMILES IDX 68 26 19 27 71 28 65 29 64 30 20 32 52 33 32 34 51 35 33 36
REMARK SMILES IDX 36 37 50 38 69 39 34 40 35 41 49 43 70 44 37 45 21 46 22 47
REMARK SMILES IDX 30 48 23 49 29 50 31 51 28 52 24 53 25 54 26 55 27 56 53 57
REMARK SMILES IDX 54 58 62 59 55 60 61 61 63 62 60 63 56 64 57 65 58 66 59 67
REMARK SMILES IDX 38 68 39 69 47 70 40 71 46 72 48 73 45 74 41 75 42 76 43 77
REMARK SMILES IDX 44 78 75 79 76 80 100 81 77 82 98 83 78 84 99 85 79 86 80 87
REMARK SMILES IDX 97 88 81 89 83 90 82 91 84 92 85 93 86 94 87 95 88 97 89 98
REMARK SMILES IDX 90 99 91 100 92 101 96 102 93 103 95 104 94 105
REMARK H PARENT 5 6 9 12 68 31 36 42 87 96
REMARK Flexibility Score: inf
ROOT
ATOM      1  C   UNL     1       1.071  -0.296  -0.053  1.00  0.00     0.023 C 
ATOM      2  C   UNL     1       0.531   1.137   0.027  1.00  0.00     0.105 C 
ENDROOT
BRANCH   2   3
ATOM      3  C   UNL     1       1.120   2.008  -1.098  1.00  0.00     0.227 C 
ATOM      4  O   UNL     1       0.454   2.426  -2.048  1.00  0.00    -0.274 OA
ATOM      5  N   UNL     1       2.423   2.408  -1.049  1.00  0.00    -0.356 N 
ATOM      6  H   UNL     1       2.664   3.109  -1.697  1.00  0.00     0.163 HD
BRANCH   5   7
ATOM      7  C   UNL     1       3.510   1.967  -0.197  1.00  0.00     0.117 C 
BRANCH   7   8
ATOM      8  C   UNL     1       4.398   0.951  -0.916  1.00  0.00     0.042 C 
BRANCH   8   9
ATOM      9  C   UNL     1       5.105   1.508  -2.149  1.00  0.00     0.118 C 
BRANCH   9  10
ATOM     10  N   UNL     1       6.058   2.555  -1.816  1.00  0.00    -0.352 N 
ATOM     11  C   UNL     1       7.425   2.579  -1.949  1.00  0.00     0.251 C 
ATOM     12  H   UNL     1       5.663   3.373  -1.436  1.00  0.00     0.163 HD
ATOM     13  O   UNL     1       8.065   3.473  -1.402  1.00  0.00    -0.269 OA
BRANCH  11  14
ATOM     14  C   UNL     1       8.124   1.524  -2.717  1.00  0.00     0.039 A 
ATOM     15  C   UNL     1       9.290   0.968  -2.185  1.00  0.00     0.014 A 
ATOM     16  C   UNL     1       7.643   1.085  -3.954  1.00  0.00     0.014 A 
ATOM     17  C   UNL     1       9.922  -0.087  -2.849  1.00  0.00     0.010 A 
ATOM     18  C   UNL     1       8.234  -0.011  -4.581  1.00  0.00     0.010 A 
ATOM     19  C   UNL     1       9.368  -0.622  -4.024  1.00  0.00    -0.014 A 
BRANCH  19  20
ATOM     20  C   UNL     1       9.921  -1.858  -4.640  1.00  0.00     0.031 A 
ATOM     21  C   UNL     1      10.516  -1.828  -6.022  1.00  0.00     0.074 A 
ATOM     22  C   UNL     1       9.813  -3.026  -3.972  1.00  0.00     0.049 A 
ATOM     23  N   UNL     1      10.964  -2.821  -6.747  1.00  0.00    -0.248 NA
ATOM     24  C   UNL     1      10.602  -0.516  -6.682  1.00  0.00     0.031 C 
ATOM     25  C   UNL     1       9.224  -3.183  -2.639  1.00  0.00     0.029 A 
ATOM     26  N   UNL     1      10.175  -4.304  -4.322  1.00  0.00    -0.354 N 
ATOM     27  C   UNL     1      11.373  -2.260  -7.952  1.00  0.00     0.074 A 
ATOM     28  C   UNL     1      11.088  -0.843  -7.872  1.00  0.00     0.031 C 
ATOM     29  C   UNL     1       9.279  -4.475  -2.281  1.00  0.00     0.029 A 
ATOM     30  C   UNL     1       9.848  -5.252  -3.377  1.00  0.00     0.049 A 
ATOM     31  H   UNL     1      10.627  -4.523  -5.169  1.00  0.00     0.167 HD
ATOM     32  C   UNL     1      11.943  -2.874  -9.018  1.00  0.00     0.034 A 
ATOM     33  C   UNL     1       9.962  -6.595  -3.401  1.00  0.00     0.034 A 
ATOM     34  C   UNL     1      12.234  -4.286  -9.073  1.00  0.00     0.049 A 
ATOM     35  C   UNL     1      10.555  -7.251  -4.625  1.00  0.00     0.074 A 
ATOM     36  C   UNL     1      12.891  -4.987 -10.070  1.00  0.00     0.029 A 
ATOM     37  N   UNL     1      11.873  -5.215  -8.108  1.00  0.00    -0.354 N 
ATOM     38  N   UNL     1      11.014  -6.690  -5.720  1.00  0.00    -0.248 NA
ATOM     39  C   UNL     1      10.647  -8.717  -4.616  1.00  0.00     0.031 C 
ATOM     40  C   UNL     1      12.848  -6.347  -9.751  1.00  0.00     0.029 A 
ATOM     41  C   UNL     1      12.242  -6.489  -8.514  1.00  0.00     0.049 A 
ATOM     42  H   UNL     1      11.421  -5.002  -7.260  1.00  0.00     0.167 HD
ATOM     43  C   UNL     1      11.471  -7.737  -6.516  1.00  0.00     0.074 A 
ATOM     44  C   UNL     1      11.259  -8.956  -5.765  1.00  0.00     0.031 C 
ATOM     45  C   UNL     1      12.011  -7.697  -7.760  1.00  0.00     0.034 A 
BRANCH  32  46
ATOM     46  C   UNL     1      12.265  -2.038 -10.232  1.00  0.00     0.023 A 
ATOM     47  C   UNL     1      13.255  -1.042 -10.209  1.00  0.00     0.031 A 
ATOM     48  C   UNL     1      11.602  -2.283 -11.449  1.00  0.00     0.131 A 
ATOM     49  C   UNL     1      13.529  -0.302 -11.370  1.00  0.00     0.055 A 
ATOM     50  C   UNL     1      11.925  -1.590 -12.616  1.00  0.00     0.041 A 
ATOM     51  F   UNL     1      10.634  -3.211 -11.524  1.00  0.00    -0.206 F 
ATOM     52  C   UNL     1      12.890  -0.588 -12.580  1.00  0.00     0.022 A 
BRANCH  49  53
ATOM     53  S   UNL     1      14.674   1.100 -11.259  1.00  0.00     0.124 S 
ATOM     54  O   UNL     1      14.002   1.953 -10.283  1.00  0.00    -0.237 OA
ATOM     55  O   UNL     1      15.908   0.466 -10.811  1.00  0.00    -0.237 OA
ATOM     56  O   UNL     1      14.703   1.627 -12.622  1.00  0.00    -0.744 OA
ENDBRANCH  49  53
ENDBRANCH  32  46
BRANCH  33  57
ATOM     57  C   UNL     1       9.465  -7.429  -2.265  1.00  0.00     0.023 A 
ATOM     58  C   UNL     1      10.331  -8.278  -1.559  1.00  0.00     0.031 A 
ATOM     59  C   UNL     1       8.099  -7.459  -1.928  1.00  0.00     0.131 A 
ATOM     60  C   UNL     1       9.815  -9.172  -0.608  1.00  0.00     0.055 A 
ATOM     61  C   UNL     1       7.601  -8.298  -0.930  1.00  0.00     0.041 A 
ATOM     62  F   UNL     1       7.222  -6.671  -2.571  1.00  0.00    -0.206 F 
ATOM     63  C   UNL     1       8.459  -9.177  -0.277  1.00  0.00     0.022 A 
BRANCH  60  64
ATOM     64  S   UNL     1      10.923 -10.429   0.088  1.00  0.00     0.124 S 
ATOM     65  O   UNL     1      11.438 -11.069  -1.117  1.00  0.00    -0.237 OA
ATOM     66  O   UNL     1      11.872  -9.612   0.837  1.00  0.00    -0.237 OA
ATOM     67  O   UNL     1      10.033 -11.254   0.902  1.00  0.00    -0.744 OA
ENDBRANCH  60  64
ENDBRANCH  33  57
BRANCH  45  68
ATOM     68  C   UNL     1      12.433  -9.013  -8.367  1.00  0.00     0.023 A 
ATOM     69  C   UNL     1      11.492  -9.999  -8.711  1.00  0.00     0.031 A 
ATOM     70  C   UNL     1      13.793  -9.287  -8.599  1.00  0.00     0.131 A 
ATOM     71  C   UNL     1      11.925 -11.234  -9.216  1.00  0.00     0.055 A 
ATOM     72  C   UNL     1      14.213 -10.492  -9.163  1.00  0.00     0.041 A 
ATOM     73  F   UNL     1      14.735  -8.384  -8.286  1.00  0.00    -0.206 F 
ATOM     74  C   UNL     1      13.278 -11.479  -9.463  1.00  0.00     0.022 A 
BRANCH  71  75
ATOM     75  S   UNL     1      10.703 -12.549  -9.467  1.00  0.00     0.124 S 
ATOM     76  O   UNL     1      10.176 -12.734  -8.119  1.00  0.00    -0.237 OA
ATOM     77  O   UNL     1       9.788 -11.947 -10.431  1.00  0.00    -0.237 OA
ATOM     78  O   UNL     1      11.498 -13.663  -9.981  1.00  0.00    -0.744 OA
ENDBRANCH  71  75
ENDBRANCH  45  68
ENDBRANCH  19  20
ENDBRANCH  11  14
ENDBRANCH   9  10
ENDBRANCH   8   9
ENDBRANCH   7   8
ENDBRANCH   5   7
ENDBRANCH   2   3
BRANCH   2  79
ATOM     79  C   UNL     1      -0.999   1.202   0.047  1.00  0.00    -0.033 A 
ATOM     80  C   UNL     1      -1.644   2.448   0.169  1.00  0.00     0.005 A 
ATOM     81  C   UNL     1      -1.801   0.059  -0.049  1.00  0.00     0.044 A 
ATOM     82  C   UNL     1      -3.041   2.545   0.185  1.00  0.00     0.012 A 
ATOM     83  C   UNL     1      -3.186   0.161  -0.019  1.00  0.00     0.131 A 
ATOM     84  C   UNL     1      -3.834   1.395   0.107  1.00  0.00     0.018 A 
ATOM     85  F   UNL     1      -3.899  -0.975  -0.089  1.00  0.00    -0.206 F 
BRANCH  84  86
ATOM     86  C   UNL     1      -5.289   1.453   0.258  1.00  0.00    -0.012 A 
ATOM     87  C   UNL     1      -6.117   2.153  -0.629  1.00  0.00     0.009 A 
ATOM     88  C   UNL     1      -5.878   0.761   1.327  1.00  0.00     0.056 A 
ATOM     89  C   UNL     1      -7.505   2.147  -0.454  1.00  0.00     0.004 A 
ATOM     90  C   UNL     1      -7.252   0.766   1.508  1.00  0.00     0.133 A 
ATOM     91  C   UNL     1      -8.074   1.453   0.615  1.00  0.00     0.047 A 
BRANCH  90  92
ATOM     92  O   UNL     1      -7.907   0.063   2.544  1.00  0.00    -0.410 OA
BRANCH  92  93
ATOM     93  C   UNL     1      -7.274  -0.549   3.626  1.00  0.00     0.412 C 
ATOM     94  O   UNL     1      -6.082  -0.521   3.899  1.00  0.00    -0.224 OA
ATOM     95  N   UNL     1      -8.143  -1.217   4.442  1.00  0.00    -0.321 N 
ATOM     96  H   UNL     1      -7.754  -1.769   5.158  1.00  0.00     0.167 HD
BRANCH  95  97
ATOM     97  C   UNL     1      -9.579  -1.179   4.343  1.00  0.00     0.120 C 
BRANCH  97  98
ATOM     98  C   UNL     1     -10.279  -2.430   4.870  1.00  0.00     0.026 C 
BRANCH  98  99
ATOM     99  C   UNL     1      -9.724  -3.099   6.134  1.00  0.00     0.037 C 
BRANCH  99 100
ATOM    100  C   UNL     1      -9.865  -2.436   7.485  1.00  0.00    -0.048 A 
ATOM    101  C   UNL     1     -10.069  -1.067   7.685  1.00  0.00     0.004 A 
ATOM    102  C   UNL     1      -9.713  -3.248   8.624  1.00  0.00     0.004 A 
ATOM    103  C   UNL     1     -10.113  -0.526   8.975  1.00  0.00     0.000 A 
ATOM    104  C   UNL     1      -9.767  -2.712   9.912  1.00  0.00     0.000 A 
ATOM    105  C   UNL     1      -9.963  -1.347  10.088  1.00  0.00     0.000 A 
ENDBRANCH  99 100
ENDBRANCH  98  99
ENDBRANCH  97  98
ENDBRANCH  95  97
ENDBRANCH  92  93
ENDBRANCH  90  92
ENDBRANCH  84  86
ENDBRANCH   2  79
TORSDOF 21
