REMARK SMILES CCCc1cc(OC(F)(F)F)cc2c1O[C@@H](C(F)(F)F)C(C(=O)NCCCNC(=O)c1ccc(-c3c4nc(c(-c5cc(S(=O)(=O)[O-])ccc5F)c5ccc([nH]5)c(-c5cc(S(=O)(=O)[O-])ccc5F)c5nc(c(-c6cc(S(=O)(=O)[O-])ccc6F)c6ccc3[nH]6)C=C5)C=C4)cc1)=C2
REMARK SMILES IDX 26 1 25 2 24 3 22 4 23 5 21 7 4 8 5 9 14 10 6 11 13 12 15 13
REMARK SMILES IDX 12 14 94 15 16 16 3 17 2 18 1 19 7 20 8 21 9 22 10 23 11 24
REMARK SMILES IDX 17 25 18 26 19 27 20 28 27 29 28 30 29 31 30 33 31 34 32 35
REMARK SMILES IDX 93 36 33 37 92 38 34 39 35 40 36 41 86 42 37 43 91 44 85 45
REMARK SMILES IDX 87 46 38 47 90 48 84 49 83 50 39 52 71 53 51 54 70 55 52 56
REMARK SMILES IDX 55 57 69 58 88 59 53 60 54 61 68 63 89 64 56 65 40 66 41 67
REMARK SMILES IDX 49 68 42 69 48 70 50 71 47 72 43 73 44 74 45 75 46 76 72 77
REMARK SMILES IDX 73 78 81 79 74 80 80 81 82 82 79 83 75 84 76 85 77 86 78 87
REMARK SMILES IDX 57 88 58 89 66 90 59 91 65 92 67 93 64 94 60 95 61 96 62 97
REMARK SMILES IDX 63 98
REMARK H PARENT 24 6 28 32 87 51 55 62
REMARK Flexibility Score: inf
ROOT
ATOM      1  C   UNL     1      -0.037  -8.091   5.265  1.00  0.00     0.042 C 
ENDROOT
BRANCH   1   2
ATOM      2  C   UNL     1       1.231  -7.963   4.416  1.00  0.00     0.118 C 
BRANCH   2   3
ATOM      3  N   UNL     1       1.063  -8.614   3.125  1.00  0.00    -0.352 N 
ATOM      4  C   UNL     1       0.688  -8.160   1.901  1.00  0.00     0.251 C 
ATOM      5  O   UNL     1       0.548  -8.982   0.998  1.00  0.00    -0.270 OA
ATOM      6  H   UNL     1       1.260  -9.579   3.143  1.00  0.00     0.163 HD
BRANCH   4   7
ATOM      7  C   UNL     1       0.503  -6.718   1.593  1.00  0.00     0.067 C 
ATOM      8  C   UNL     1       0.209  -2.649   0.527  1.00  0.00    -0.002 A 
ATOM      9  C   UNL     1      -0.423  -1.773   1.428  1.00  0.00     0.054 A 
ATOM     10  C   UNL     1       0.315  -4.007   0.883  1.00  0.00     0.131 A 
ATOM     11  C   UNL     1      -0.890  -2.216   2.667  1.00  0.00     0.130 A 
ATOM     12  C   UNL     1      -0.194  -4.466   2.098  1.00  0.00     0.021 A 
ATOM     13  O   UNL     1       0.992  -4.836   0.032  1.00  0.00    -0.475 OA
ATOM     14  C   UNL     1      -0.790  -3.569   2.987  1.00  0.00     0.058 A 
ATOM     15  C   UNL     1      -0.035  -5.862   2.471  1.00  0.00     0.025 C 
ATOM     16  C   UNL     1       0.775  -6.275   0.160  1.00  0.00     0.314 C 
BRANCH   8  17
ATOM     17  C   UNL     1       0.784  -2.188  -0.801  1.00  0.00     0.039 C 
BRANCH  17  18
ATOM     18  C   UNL     1       0.529  -0.742  -1.250  1.00  0.00     0.001 C 
ATOM     19  C   UNL     1       1.430   0.279  -0.565  1.00  0.00     0.004 C 
ENDBRANCH  17  18
ENDBRANCH   8  17
BRANCH  11  20
ATOM     20  O   UNL     1      -1.452  -1.444   3.643  1.00  0.00    -0.406 OA
BRANCH  20  21
ATOM     21  C   UNL     1      -1.341  -0.036   3.513  1.00  0.00     0.573 C 
ATOM     22  F   UNL     1      -0.059   0.344   3.319  1.00  0.00    -0.132 F 
ATOM     23  F   UNL     1      -2.100   0.412   2.490  1.00  0.00    -0.132 F 
ATOM     24  F   UNL     1      -1.780   0.545   4.651  1.00  0.00    -0.132 F 
ENDBRANCH  20  21
ENDBRANCH  11  20
BRANCH  16  25
ATOM     25  C   UNL     1       1.947  -6.970  -0.571  1.00  0.00     0.429 C 
ATOM     26  F   UNL     1       1.597  -8.148  -1.132  1.00  0.00    -0.167 F 
ATOM     27  F   UNL     1       2.394  -6.202  -1.605  1.00  0.00    -0.167 F 
ATOM     28  F   UNL     1       3.010  -7.182   0.238  1.00  0.00    -0.167 F 
ENDBRANCH  16  25
ENDBRANCH   4   7
ENDBRANCH   2   3
ENDBRANCH   1   2
BRANCH   1  29
ATOM     29  C   UNL     1      -0.241  -9.485   5.855  1.00  0.00     0.118 C 
BRANCH  29  30
ATOM     30  N   UNL     1       0.717  -9.766   6.912  1.00  0.00    -0.352 N 
ATOM     31  C   UNL     1       0.505 -10.100   8.227  1.00  0.00     0.251 C 
ATOM     32  H   UNL     1       1.662  -9.708   6.644  1.00  0.00     0.163 HD
ATOM     33  O   UNL     1       1.448 -10.044   9.010  1.00  0.00    -0.269 OA
BRANCH  31  34
ATOM     34  C   UNL     1      -0.836 -10.512   8.704  1.00  0.00     0.039 A 
ATOM     35  C   UNL     1      -1.252 -10.097   9.974  1.00  0.00     0.014 A 
ATOM     36  C   UNL     1      -1.658 -11.351   7.945  1.00  0.00     0.014 A 
ATOM     37  C   UNL     1      -2.502 -10.488  10.462  1.00  0.00     0.010 A 
ATOM     38  C   UNL     1      -2.931 -11.687   8.406  1.00  0.00     0.010 A 
ATOM     39  C   UNL     1      -3.363 -11.267   9.674  1.00  0.00    -0.014 A 
BRANCH  39  40
ATOM     40  C   UNL     1      -4.708 -11.667  10.165  1.00  0.00     0.031 A 
ATOM     41  C   UNL     1      -5.023 -13.120  10.406  1.00  0.00     0.074 A 
ATOM     42  C   UNL     1      -5.661 -10.730  10.338  1.00  0.00     0.049 A 
ATOM     43  N   UNL     1      -6.156 -13.677  10.751  1.00  0.00    -0.248 NA
ATOM     44  C   UNL     1      -3.922 -14.073  10.203  1.00  0.00     0.031 C 
ATOM     45  C   UNL     1      -5.485  -9.295  10.103  1.00  0.00     0.029 A 
ATOM     46  N   UNL     1      -6.969 -10.842  10.738  1.00  0.00    -0.354 N 
ATOM     47  C   UNL     1      -5.911 -15.046  10.787  1.00  0.00     0.074 A 
ATOM     48  C   UNL     1      -4.535 -15.235  10.377  1.00  0.00     0.031 C 
ATOM     49  C   UNL     1      -6.636  -8.661  10.376  1.00  0.00     0.029 A 
ATOM     50  C   UNL     1      -7.643  -9.643  10.764  1.00  0.00     0.049 A 
ATOM     51  H   UNL     1      -7.386 -11.700  10.983  1.00  0.00     0.167 HD
ATOM     52  C   UNL     1      -6.751 -16.050  11.147  1.00  0.00     0.034 A 
ATOM     53  C   UNL     1      -8.931  -9.367  11.051  1.00  0.00     0.034 A 
ATOM     54  C   UNL     1      -8.115 -15.840  11.569  1.00  0.00     0.049 A 
ATOM     55  C   UNL     1      -9.847 -10.498  11.443  1.00  0.00     0.074 A 
ATOM     56  C   UNL     1      -9.036 -16.776  12.010  1.00  0.00     0.029 A 
ATOM     57  N   UNL     1      -8.760 -14.610  11.598  1.00  0.00    -0.354 N 
ATOM     58  N   UNL     1      -9.588 -11.784  11.517  1.00  0.00    -0.248 NA
ATOM     59  C   UNL     1     -11.225 -10.140  11.801  1.00  0.00     0.031 C 
ATOM     60  C   UNL     1     -10.251 -16.122  12.243  1.00  0.00     0.029 A 
ATOM     61  C   UNL     1     -10.071 -14.767  12.021  1.00  0.00     0.049 A 
ATOM     62  H   UNL     1      -8.345 -13.751  11.353  1.00  0.00     0.167 HD
ATOM     63  C   UNL     1     -10.764 -12.383  11.960  1.00  0.00     0.074 A 
ATOM     64  C   UNL     1     -11.726 -11.316  12.149  1.00  0.00     0.031 C 
ATOM     65  C   UNL     1     -11.024 -13.694  12.194  1.00  0.00     0.034 A 
BRANCH  52  66
ATOM     66  C   UNL     1      -6.221 -17.463  11.068  1.00  0.00     0.023 A 
ATOM     67  C   UNL     1      -5.142 -17.895  11.859  1.00  0.00     0.031 A 
ATOM     68  C   UNL     1      -6.786 -18.386  10.170  1.00  0.00     0.131 A 
ATOM     69  C   UNL     1      -4.612 -19.182  11.682  1.00  0.00     0.055 A 
ATOM     70  C   UNL     1      -6.307 -19.694  10.058  1.00  0.00     0.041 A 
ATOM     71  F   UNL     1      -7.806 -18.029   9.374  1.00  0.00    -0.206 F 
ATOM     72  C   UNL     1      -5.204 -20.093  10.805  1.00  0.00     0.022 A 
BRANCH  69  73
ATOM     73  S   UNL     1      -3.052 -19.598  12.509  1.00  0.00     0.124 S 
ATOM     74  O   UNL     1      -2.151 -18.585  11.963  1.00  0.00    -0.237 OA
ATOM     75  O   UNL     1      -3.394 -19.456  13.919  1.00  0.00    -0.237 OA
ATOM     76  O   UNL     1      -2.783 -20.964  12.066  1.00  0.00    -0.744 OA
ENDBRANCH  69  73
ENDBRANCH  52  66
BRANCH  53  77
ATOM     77  C   UNL     1      -9.437  -7.968  10.972  1.00  0.00     0.023 A 
ATOM     78  C   UNL     1      -9.870  -7.287  12.120  1.00  0.00     0.031 A 
ATOM     79  C   UNL     1      -9.524  -7.300   9.737  1.00  0.00     0.131 A 
ATOM     80  C   UNL     1     -10.411  -5.997  12.007  1.00  0.00     0.055 A 
ATOM     81  C   UNL     1     -10.017  -5.998   9.635  1.00  0.00     0.041 A 
ATOM     82  F   UNL     1      -9.116  -7.903   8.609  1.00  0.00    -0.206 F 
ATOM     83  C   UNL     1     -10.476  -5.343  10.774  1.00  0.00     0.022 A 
BRANCH  80  84
ATOM     84  S   UNL     1     -11.101  -5.211  13.489  1.00  0.00     0.124 S 
ATOM     85  O   UNL     1     -12.118  -6.177  13.891  1.00  0.00    -0.237 OA
ATOM     86  O   UNL     1      -9.930  -5.115  14.353  1.00  0.00    -0.237 OA
ATOM     87  O   UNL     1     -11.612  -3.936  12.990  1.00  0.00    -0.744 OA
ENDBRANCH  80  84
ENDBRANCH  53  77
BRANCH  65  88
ATOM     88  C   UNL     1     -12.394 -14.036  12.724  1.00  0.00     0.023 A 
ATOM     89  C   UNL     1     -13.552 -13.873  11.944  1.00  0.00     0.031 A 
ATOM     90  C   UNL     1     -12.542 -14.518  14.037  1.00  0.00     0.131 A 
ATOM     91  C   UNL     1     -14.812 -14.137  12.502  1.00  0.00     0.055 A 
ATOM     92  C   UNL     1     -13.793 -14.836  14.566  1.00  0.00     0.041 A 
ATOM     93  F   UNL     1     -11.470 -14.691  14.826  1.00  0.00    -0.206 F 
ATOM     94  C   UNL     1     -14.939 -14.633  13.803  1.00  0.00     0.022 A 
BRANCH  91  95
ATOM     95  S   UNL     1     -16.294 -13.736  11.536  1.00  0.00     0.124 S 
ATOM     96  O   UNL     1     -16.122 -12.307  11.295  1.00  0.00    -0.237 OA
ATOM     97  O   UNL     1     -16.150 -14.601  10.370  1.00  0.00    -0.237 OA
ATOM     98  O   UNL     1     -17.394 -14.085  12.433  1.00  0.00    -0.744 OA
ENDBRANCH  91  95
ENDBRANCH  65  88
ENDBRANCH  39  40
ENDBRANCH  31  34
ENDBRANCH  29  30
ENDBRANCH   1  29
TORSDOF 18
