REMARK SMILES C[C@@]1(CN2C(=O)c3ccc(C(=O)NCCCNC(=O)c4ccc(-c5c6nc(c(-c7cc(S(=O)(=O)[O-])ccc7F)c7ccc([nH]7)c(-c7cc(S(=O)(=O)[O-])ccc7F)c7nc(c(-c8cc(S(=O)(=O)[O-])ccc8F)c8ccc5[nH]8)C=C7)C=C6)cc4)cc3C2=O)CCCO1
REMARK SMILES IDX 15 1 14 2 13 3 11 4 12 5 10 7 4 8 5 9 85 10 6 11 7 12 84 13
REMARK SMILES IDX 86 14 8 15 83 16 9 17 3 18 2 19 1 20 87 21 90 22 88 23 89 24
REMARK SMILES IDX 16 25 17 26 18 27 19 29 20 30 21 31 82 32 22 33 81 34 23 35
REMARK SMILES IDX 24 36 25 37 75 38 26 39 80 40 74 41 76 42 27 43 79 44 73 45
REMARK SMILES IDX 72 46 28 48 60 49 40 50 59 51 41 52 44 53 58 54 77 55 42 56
REMARK SMILES IDX 43 57 57 59 78 60 45 61 29 62 30 63 38 64 31 65 37 66 39 67
REMARK SMILES IDX 36 68 32 69 33 70 34 71 35 72 61 73 62 74 70 75 63 76 69 77
REMARK SMILES IDX 71 78 68 79 64 80 65 81 66 82 67 83 46 84 47 85 55 86 48 87
REMARK SMILES IDX 54 88 56 89 53 90 49 91 50 92 51 93 52 94
REMARK H PARENT 13 6 17 28 76 47 44 58
REMARK Flexibility Score: inf
ROOT
ATOM      1  C   UNL     1      -2.084   8.006  -4.437  1.00  0.00     0.042 C 
ENDROOT
BRANCH   1   2
ATOM      2  C   UNL     1      -3.148   7.019  -3.958  1.00  0.00     0.118 C 
BRANCH   2   3
ATOM      3  N   UNL     1      -3.459   6.035  -4.979  1.00  0.00    -0.352 N 
ATOM      4  C   UNL     1      -3.055   4.740  -5.172  1.00  0.00     0.251 C 
ATOM      5  O   UNL     1      -3.579   4.113  -6.093  1.00  0.00    -0.269 OA
ATOM      6  H   UNL     1      -4.083   6.361  -5.667  1.00  0.00     0.163 HD
BRANCH   4   7
ATOM      7  C   UNL     1      -2.044   4.044  -4.322  1.00  0.00     0.040 A 
ATOM      8  N   UNL     1       0.209   0.423  -2.574  1.00  0.00    -0.271 N 
ATOM      9  C   UNL     1       0.723   1.648  -2.261  1.00  0.00     0.261 C 
ATOM     10  C   UNL     1      -0.880   0.525  -3.401  1.00  0.00     0.261 C 
ATOM     11  O   UNL     1       1.727   1.929  -1.632  1.00  0.00    -0.269 OA
ATOM     12  C   UNL     1      -0.155   2.635  -2.869  1.00  0.00     0.053 A 
ATOM     13  C   UNL     1      -1.129   1.960  -3.578  1.00  0.00     0.054 A 
ATOM     14  O   UNL     1      -1.517  -0.349  -3.951  1.00  0.00    -0.269 OA
ATOM     15  C   UNL     1      -0.078   4.008  -2.850  1.00  0.00     0.015 A 
ATOM     16  C   UNL     1      -2.084   2.634  -4.315  1.00  0.00     0.028 A 
ATOM     17  C   UNL     1      -1.024   4.709  -3.603  1.00  0.00     0.015 A 
BRANCH   8  18
ATOM     18  C   UNL     1       0.815  -0.829  -2.157  1.00  0.00     0.164 C 
BRANCH  18  19
ATOM     19  C   UNL     1       0.460  -1.262  -0.706  1.00  0.00     0.084 C 
ATOM     20  C   UNL     1       0.829  -0.217   0.347  1.00  0.00     0.044 C 
ATOM     21  C   UNL     1       1.122  -2.606  -0.376  1.00  0.00     0.039 C 
ATOM     22  O   UNL     1      -0.962  -1.501  -0.620  1.00  0.00    -0.373 OA
ATOM     23  C   UNL     1       0.104  -3.608  -0.859  1.00  0.00     0.031 C 
ATOM     24  C   UNL     1      -1.203  -2.912  -0.550  1.00  0.00     0.161 C 
ENDBRANCH  18  19
ENDBRANCH   8  18
ENDBRANCH   4   7
ENDBRANCH   2   3
ENDBRANCH   1   2
BRANCH   1  25
ATOM     25  C   UNL     1      -2.629   9.071  -5.383  1.00  0.00     0.118 C 
BRANCH  25  26
ATOM     26  N   UNL     1      -3.519   9.996  -4.697  1.00  0.00    -0.352 N 
ATOM     27  C   UNL     1      -3.413  11.355  -4.530  1.00  0.00     0.251 C 
ATOM     28  H   UNL     1      -4.318   9.586  -4.293  1.00  0.00     0.163 HD
ATOM     29  O   UNL     1      -4.124  11.915  -3.701  1.00  0.00    -0.269 OA
BRANCH  27  30
ATOM     30  C   UNL     1      -2.443  12.132  -5.332  1.00  0.00     0.039 A 
ATOM     31  C   UNL     1      -1.725  13.165  -4.721  1.00  0.00     0.014 A 
ATOM     32  C   UNL     1      -2.265  11.866  -6.693  1.00  0.00     0.014 A 
ATOM     33  C   UNL     1      -0.788  13.891  -5.461  1.00  0.00     0.010 A 
ATOM     34  C   UNL     1      -1.278  12.538  -7.407  1.00  0.00     0.010 A 
ATOM     35  C   UNL     1      -0.534  13.562  -6.802  1.00  0.00    -0.014 A 
BRANCH  35  36
ATOM     36  C   UNL     1       0.484  14.286  -7.607  1.00  0.00     0.031 A 
ATOM     37  C   UNL     1       0.056  15.063  -8.823  1.00  0.00     0.074 A 
ATOM     38  C   UNL     1       1.790  14.179  -7.292  1.00  0.00     0.049 A 
ATOM     39  N   UNL     1       0.789  15.638  -9.741  1.00  0.00    -0.248 NA
ATOM     40  C   UNL     1      -1.393  15.178  -9.052  1.00  0.00     0.031 C 
ATOM     41  C   UNL     1       2.326  13.440  -6.147  1.00  0.00     0.029 A 
ATOM     42  N   UNL     1       2.908  14.678  -7.914  1.00  0.00    -0.354 N 
ATOM     43  C   UNL     1      -0.106  16.167 -10.664  1.00  0.00     0.074 A 
ATOM     44  C   UNL     1      -1.433  15.790 -10.226  1.00  0.00     0.031 C 
ATOM     45  C   UNL     1       3.664  13.548  -6.141  1.00  0.00     0.029 A 
ATOM     46  C   UNL     1       4.088  14.312  -7.309  1.00  0.00     0.049 A 
ATOM     47  H   UNL     1       2.868  15.244  -8.719  1.00  0.00     0.167 HD
ATOM     48  C   UNL     1       0.154  16.917 -11.764  1.00  0.00     0.034 A 
ATOM     49  C   UNL     1       5.367  14.547  -7.668  1.00  0.00     0.034 A 
ATOM     50  C   UNL     1       1.484  17.293 -12.176  1.00  0.00     0.049 A 
ATOM     51  C   UNL     1       5.633  15.344  -8.923  1.00  0.00     0.074 A 
ATOM     52  C   UNL     1       1.863  18.080 -13.250  1.00  0.00     0.029 A 
ATOM     53  N   UNL     1       2.655  16.906 -11.536  1.00  0.00    -0.354 N 
ATOM     54  N   UNL     1       4.774  15.860  -9.772  1.00  0.00    -0.248 NA
ATOM     55  C   UNL     1       7.040  15.596  -9.264  1.00  0.00     0.031 C 
ATOM     56  C   UNL     1       3.260  18.111 -13.299  1.00  0.00     0.029 A 
ATOM     57  C   UNL     1       3.755  17.416 -12.207  1.00  0.00     0.049 A 
ATOM     58  H   UNL     1       2.697  16.351 -10.724  1.00  0.00     0.167 HD
ATOM     59  C   UNL     1       5.538  16.536 -10.720  1.00  0.00     0.074 A 
ATOM     60  C   UNL     1       6.923  16.364 -10.337  1.00  0.00     0.031 C 
ATOM     61  C   UNL     1       5.131  17.241 -11.806  1.00  0.00     0.034 A 
BRANCH  48  62
ATOM     62  C   UNL     1      -1.021  17.355 -12.604  1.00  0.00     0.023 A 
ATOM     63  C   UNL     1      -2.025  18.195 -12.088  1.00  0.00     0.031 A 
ATOM     64  C   UNL     1      -1.153  16.915 -13.933  1.00  0.00     0.131 A 
ATOM     65  C   UNL     1      -3.149  18.504 -12.868  1.00  0.00     0.055 A 
ATOM     66  C   UNL     1      -2.232  17.298 -14.733  1.00  0.00     0.041 A 
ATOM     67  F   UNL     1      -0.239  16.095 -14.476  1.00  0.00    -0.206 F 
ATOM     68  C   UNL     1      -3.247  18.085 -14.196  1.00  0.00     0.022 A 
BRANCH  65  69
ATOM     69  S   UNL     1      -4.548  19.341 -12.072  1.00  0.00     0.124 S 
ATOM     70  O   UNL     1      -4.896  18.392 -11.017  1.00  0.00    -0.237 OA
ATOM     71  O   UNL     1      -3.955  20.598 -11.631  1.00  0.00    -0.237 OA
ATOM     72  O   UNL     1      -5.533  19.457 -13.146  1.00  0.00    -0.744 OA
ENDBRANCH  65  69
ENDBRANCH  48  62
BRANCH  49  73
ATOM     73  C   UNL     1       6.497  14.015  -6.852  1.00  0.00     0.023 A 
ATOM     74  C   UNL     1       7.409  14.884  -6.232  1.00  0.00     0.031 A 
ATOM     75  C   UNL     1       6.717  12.632  -6.724  1.00  0.00     0.131 A 
ATOM     76  C   UNL     1       8.529  14.365  -5.565  1.00  0.00     0.055 A 
ATOM     77  C   UNL     1       7.799  12.119  -6.006  1.00  0.00     0.041 A 
ATOM     78  F   UNL     1       5.876  11.754  -7.294  1.00  0.00    -0.206 F 
ATOM     79  C   UNL     1       8.723  12.988  -5.435  1.00  0.00     0.022 A 
BRANCH  76  80
ATOM     80  S   UNL     1       9.791  15.521  -4.963  1.00  0.00     0.124 S 
ATOM     81  O   UNL     1      10.149  16.230  -6.187  1.00  0.00    -0.237 OA
ATOM     82  O   UNL     1       9.047  16.289  -3.970  1.00  0.00    -0.237 OA
ATOM     83  O   UNL     1      10.826  14.643  -4.424  1.00  0.00    -0.744 OA
ENDBRANCH  76  80
ENDBRANCH  49  73
BRANCH  61  84
ATOM     84  C   UNL     1       6.194  17.943 -12.615  1.00  0.00     0.023 A 
ATOM     85  C   UNL     1       7.145  17.236 -13.370  1.00  0.00     0.031 A 
ATOM     86  C   UNL     1       6.240  19.349 -12.639  1.00  0.00     0.131 A 
ATOM     87  C   UNL     1       8.129  17.937 -14.084  1.00  0.00     0.055 A 
ATOM     88  C   UNL     1       7.183  20.041 -13.399  1.00  0.00     0.041 A 
ATOM     89  F   UNL     1       5.356  20.073 -11.934  1.00  0.00    -0.206 F 
ATOM     90  C   UNL     1       8.142  19.334 -14.119  1.00  0.00     0.022 A 
BRANCH  87  91
ATOM     91  S   UNL     1       9.443  16.999 -14.910  1.00  0.00     0.124 S 
ATOM     92  O   UNL     1      10.056  16.287 -13.794  1.00  0.00    -0.237 OA
ATOM     93  O   UNL     1       8.694  16.178 -15.856  1.00  0.00    -0.237 OA
ATOM     94  O   UNL     1      10.276  18.036 -15.517  1.00  0.00    -0.744 OA
ENDBRANCH  87  91
ENDBRANCH  61  84
ENDBRANCH  35  36
ENDBRANCH  27  30
ENDBRANCH  25  26
ENDBRANCH   1  25
TORSDOF 15
