REMARK SMILES Cc1cccc(C(=O)NCCCNC(=O)c2ccc(-c3c4nc(c(-c5cc(S(=O)(=O)[O-])ccc5F)c5ccc([nH]5)c(-c5cc(S(=O)(=O)[O-])ccc5F)c5nc(c(-c6cc(S(=O)(=O)[O-])ccc6F)c6ccc3[nH]6)C=C5)C=C4)cc2)c1NC(=O)Cc1ccccc1
REMARK SMILES IDX 11 1 10 2 9 3 7 4 8 5 6 7 1 8 2 9 3 10 79 11 4 12 5 13 80 14
REMARK SMILES IDX 81 15 82 17 83 18 84 19 85 20 89 21 86 22 88 23 87 24 12 25
REMARK SMILES IDX 13 26 14 27 15 29 16 30 17 31 78 32 18 33 77 34 19 35 20 36
REMARK SMILES IDX 21 37 71 38 22 39 76 40 70 41 72 42 23 43 75 44 69 45 68 46
REMARK SMILES IDX 24 48 56 49 36 50 55 51 37 52 40 53 54 54 73 55 38 56 39 57
REMARK SMILES IDX 53 59 74 60 41 61 25 62 26 63 34 64 27 65 33 66 35 67 32 68
REMARK SMILES IDX 28 69 29 70 30 71 31 72 57 73 58 74 66 75 59 76 65 77 67 78
REMARK SMILES IDX 64 79 60 80 61 81 62 82 63 83 42 84 43 85 51 86 44 87 50 88
REMARK SMILES IDX 52 89 49 90 45 91 46 92 47 93 48 94
REMARK H PARENT 9 6 80 16 13 28 72 47 40 58
REMARK Flexibility Score: inf
ROOT
ATOM      1  C   UNL     1       2.110   4.043   0.180  1.00  0.00     0.042 C 
ENDROOT
BRANCH   1   2
ATOM      2  C   UNL     1       1.405   3.583   1.457  1.00  0.00     0.118 C 
BRANCH   2   3
ATOM      3  N   UNL     1      -0.055   3.601   1.431  1.00  0.00    -0.352 N 
ATOM      4  C   UNL     1      -0.962   2.563   1.361  1.00  0.00     0.253 C 
ATOM      5  O   UNL     1      -2.111   2.698   1.777  1.00  0.00    -0.269 OA
ATOM      6  H   UNL     1      -0.457   4.499   1.470  1.00  0.00     0.163 HD
BRANCH   4   7
ATOM      7  C   UNL     1      -0.584   1.222   0.838  1.00  0.00     0.063 A 
ATOM      8  C   UNL     1       2.197  -0.310  -1.191  1.00  0.00     0.046 C 
ATOM      9  C   UNL     1       0.941  -0.181  -0.378  1.00  0.00    -0.027 A 
ATOM     10  C   UNL     1       0.458  -1.302   0.309  1.00  0.00     0.005 A 
ATOM     11  C   UNL     1       0.216   1.019  -0.285  1.00  0.00     0.056 A 
ATOM     12  C   UNL     1      -0.605  -1.176   1.198  1.00  0.00     0.001 A 
ATOM     13  C   UNL     1      -1.064   0.098   1.527  1.00  0.00     0.016 A 
BRANCH  11  14
ATOM     14  N   UNL     1       0.208   1.833  -1.433  1.00  0.00    -0.325 N 
ATOM     15  C   UNL     1      -0.807   2.501  -2.058  1.00  0.00     0.228 C 
ATOM     16  H   UNL     1       1.089   1.940  -1.861  1.00  0.00     0.169 HD
ATOM     17  O   UNL     1      -0.501   3.078  -3.110  1.00  0.00    -0.274 OA
BRANCH  15  18
ATOM     18  C   UNL     1      -2.255   2.445  -1.588  1.00  0.00     0.135 C 
BRANCH  18  19
ATOM     19  C   UNL     1      -2.881   3.799  -1.386  1.00  0.00    -0.039 A 
ATOM     20  C   UNL     1      -4.266   3.960  -1.540  1.00  0.00     0.004 A 
ATOM     21  C   UNL     1      -2.109   4.899  -1.001  1.00  0.00     0.004 A 
ATOM     22  C   UNL     1      -4.851   5.212  -1.389  1.00  0.00     0.000 A 
ATOM     23  C   UNL     1      -2.694   6.142  -0.838  1.00  0.00     0.000 A 
ATOM     24  C   UNL     1      -4.057   6.298  -1.053  1.00  0.00     0.000 A 
ENDBRANCH  18  19
ENDBRANCH  15  18
ENDBRANCH  11  14
ENDBRANCH   4   7
ENDBRANCH   2   3
ENDBRANCH   1   2
BRANCH   1  25
ATOM     25  C   UNL     1       1.807   5.469  -0.276  1.00  0.00     0.118 C 
BRANCH  25  26
ATOM     26  N   UNL     1       2.930   6.375  -0.067  1.00  0.00    -0.352 N 
ATOM     27  C   UNL     1       3.160   7.630  -0.585  1.00  0.00     0.251 C 
ATOM     28  H   UNL     1       3.631   6.038   0.536  1.00  0.00     0.163 HD
ATOM     29  O   UNL     1       4.237   8.200  -0.401  1.00  0.00    -0.269 OA
BRANCH  27  30
ATOM     30  C   UNL     1       2.055   8.376  -1.228  1.00  0.00     0.039 A 
ATOM     31  C   UNL     1       1.784   9.656  -0.719  1.00  0.00     0.014 A 
ATOM     32  C   UNL     1       1.214   7.812  -2.183  1.00  0.00     0.014 A 
ATOM     33  C   UNL     1       0.583  10.291  -1.029  1.00  0.00     0.010 A 
ATOM     34  C   UNL     1      -0.006   8.416  -2.450  1.00  0.00     0.010 A 
ATOM     35  C   UNL     1      -0.345   9.626  -1.832  1.00  0.00    -0.014 A 
BRANCH  35  36
ATOM     36  C   UNL     1      -1.746  10.033  -1.901  1.00  0.00     0.031 A 
ATOM     37  C   UNL     1      -2.326  10.706  -3.074  1.00  0.00     0.074 A 
ATOM     38  C   UNL     1      -2.571   9.670  -0.897  1.00  0.00     0.049 A 
ATOM     39  N   UNL     1      -3.387  11.442  -3.029  1.00  0.00    -0.248 NA
ATOM     40  C   UNL     1      -1.751  10.602  -4.406  1.00  0.00     0.031 C 
ATOM     41  C   UNL     1      -4.030   9.695  -0.885  1.00  0.00     0.029 A 
ATOM     42  N   UNL     1      -2.238   9.294   0.396  1.00  0.00    -0.354 N 
ATOM     43  C   UNL     1      -3.822  11.612  -4.320  1.00  0.00     0.074 A 
ATOM     44  C   UNL     1      -2.720  11.158  -5.143  1.00  0.00     0.031 C 
ATOM     45  C   UNL     1      -4.459   9.586   0.382  1.00  0.00     0.029 A 
ATOM     46  C   UNL     1      -3.286   9.683   1.231  1.00  0.00     0.049 A 
ATOM     47  H   UNL     1      -1.411   8.837   0.675  1.00  0.00     0.167 HD
ATOM     48  C   UNL     1      -5.120  11.959  -4.564  1.00  0.00     0.034 A 
ATOM     49  C   UNL     1      -3.133  10.552   2.269  1.00  0.00     0.034 A 
ATOM     50  C   UNL     1      -5.909  12.052  -3.331  1.00  0.00     0.049 A 
ATOM     51  C   UNL     1      -4.034  11.758   2.059  1.00  0.00     0.074 A 
ATOM     52  C   UNL     1      -6.856  11.213  -2.762  1.00  0.00     0.029 A 
ATOM     53  N   UNL     1      -5.585  12.990  -2.351  1.00  0.00    -0.354 N 
ATOM     54  N   UNL     1      -4.481  12.129   0.886  1.00  0.00    -0.248 NA
ATOM     55  C   UNL     1      -4.553  12.596   3.135  1.00  0.00     0.031 C 
ATOM     56  C   UNL     1      -7.053  11.617  -1.416  1.00  0.00     0.029 A 
ATOM     57  C   UNL     1      -6.254  12.722  -1.171  1.00  0.00     0.049 A 
ATOM     58  H   UNL     1      -4.963  13.742  -2.482  1.00  0.00     0.167 HD
ATOM     59  C   UNL     1      -5.402  13.129   1.034  1.00  0.00     0.074 A 
ATOM     60  C   UNL     1      -5.376  13.420   2.460  1.00  0.00     0.031 C 
ATOM     61  C   UNL     1      -6.148  13.602  -0.011  1.00  0.00     0.034 A 
BRANCH  48  62
ATOM     62  C   UNL     1      -5.740  11.900  -5.947  1.00  0.00     0.023 A 
ATOM     63  C   UNL     1      -7.103  11.572  -6.112  1.00  0.00     0.031 A 
ATOM     64  C   UNL     1      -5.033  12.152  -7.139  1.00  0.00     0.131 A 
ATOM     65  C   UNL     1      -7.668  11.399  -7.391  1.00  0.00     0.055 A 
ATOM     66  C   UNL     1      -5.572  11.912  -8.410  1.00  0.00     0.041 A 
ATOM     67  F   UNL     1      -3.804  12.690  -7.120  1.00  0.00    -0.206 F 
ATOM     68  C   UNL     1      -6.895  11.518  -8.542  1.00  0.00     0.022 A 
BRANCH  65  69
ATOM     69  S   UNL     1      -9.444  11.047  -7.541  1.00  0.00     0.124 S 
ATOM     70  O   UNL     1      -9.582   9.803  -6.790  1.00  0.00    -0.237 OA
ATOM     71  O   UNL     1     -10.046  12.233  -6.942  1.00  0.00    -0.237 OA
ATOM     72  O   UNL     1      -9.645  10.920  -8.985  1.00  0.00    -0.744 OA
ENDBRANCH  65  69
ENDBRANCH  48  62
BRANCH  49  73
ATOM     73  C   UNL     1      -1.753  10.531   2.846  1.00  0.00     0.023 A 
ATOM     74  C   UNL     1      -1.254   9.278   3.300  1.00  0.00     0.031 A 
ATOM     75  C   UNL     1      -0.822  11.534   2.551  1.00  0.00     0.131 A 
ATOM     76  C   UNL     1       0.125   9.010   3.285  1.00  0.00     0.055 A 
ATOM     77  C   UNL     1       0.556  11.280   2.597  1.00  0.00     0.041 A 
ATOM     78  F   UNL     1      -1.223  12.722   2.078  1.00  0.00    -0.206 F 
ATOM     79  C   UNL     1       1.032  10.008   2.925  1.00  0.00     0.022 A 
BRANCH  76  80
ATOM     80  S   UNL     1       0.715   7.292   3.487  1.00  0.00     0.124 S 
ATOM     81  O   UNL     1       0.804   7.170   4.937  1.00  0.00    -0.237 OA
ATOM     82  O   UNL     1      -0.319   6.489   2.840  1.00  0.00    -0.237 OA
ATOM     83  O   UNL     1       1.996   7.277   2.782  1.00  0.00    -0.744 OA
ENDBRANCH  76  80
ENDBRANCH  49  73
BRANCH  61  84
ATOM     84  C   UNL     1      -6.974  14.870   0.009  1.00  0.00     0.023 A 
ATOM     85  C   UNL     1      -6.771  15.891   0.947  1.00  0.00     0.031 A 
ATOM     86  C   UNL     1      -7.925  15.149  -1.006  1.00  0.00     0.131 A 
ATOM     87  C   UNL     1      -7.534  17.072   0.915  1.00  0.00     0.055 A 
ATOM     88  C   UNL     1      -8.627  16.355  -1.081  1.00  0.00     0.041 A 
ATOM     89  F   UNL     1      -8.201  14.271  -1.981  1.00  0.00    -0.206 F 
ATOM     90  C   UNL     1      -8.445  17.323  -0.108  1.00  0.00     0.022 A 
BRANCH  87  91
ATOM     91  S   UNL     1      -7.332  18.256   2.268  1.00  0.00     0.124 S 
ATOM     92  O   UNL     1      -7.853  17.501   3.405  1.00  0.00    -0.237 OA
ATOM     93  O   UNL     1      -5.891  18.490   2.272  1.00  0.00    -0.237 OA
ATOM     94  O   UNL     1      -8.145  19.397   1.854  1.00  0.00    -0.744 OA
ENDBRANCH  87  91
ENDBRANCH  61  84
ENDBRANCH  35  36
ENDBRANCH  27  30
ENDBRANCH  25  26
ENDBRANCH   1  25
TORSDOF 16
