REMARK SMILES CC[C@H](C)[C@H](NS(=O)(=O)c1ccc(C)cc1)C(=O)NCCCNC(=O)c1ccc(-c2c3nc(c(-c4cc(S(=O)(=O)[O-])ccc4F)c4ccc([nH]4)c(-c4cc(S(=O)(=O)[O-])ccc4F)c4nc(c(-c5cc(S(=O)(=O)[O-])ccc5F)c5ccc2[nH]5)C=C4)C=C3)cc1
REMARK SMILES IDX 21 1 20 2 19 3 17 4 18 5 5 7 3 8 4 9 2 10 1 11 6 12 7 14
REMARK SMILES IDX 8 15 9 16 10 17 11 18 16 19 12 20 15 21 13 22 14 23 22 24
REMARK SMILES IDX 23 25 24 26 25 28 26 29 27 30 88 31 28 32 87 33 29 34 30 35
REMARK SMILES IDX 31 36 81 37 32 38 86 39 80 40 82 41 33 42 85 43 79 44 78 45
REMARK SMILES IDX 34 47 66 48 46 49 65 50 47 51 50 52 64 53 83 54 48 55 49 56
REMARK SMILES IDX 63 58 84 59 51 60 35 61 36 62 44 63 37 64 43 65 45 66 42 67
REMARK SMILES IDX 38 68 39 69 40 70 41 71 67 72 68 73 76 74 69 75 75 76 77 77
REMARK SMILES IDX 74 78 70 79 71 80 72 81 73 82 52 83 53 84 61 85 54 86 60 87
REMARK SMILES IDX 62 88 59 89 55 90 56 91 57 92 58 93
REMARK H PARENT 19 6 6 13 23 27 82 46 50 57
REMARK Flexibility Score: inf
ROOT
ATOM      1  C   UNL     1       5.052  -1.974   2.555  1.00  0.00     0.042 C 
ENDROOT
BRANCH   1   2
ATOM      2  C   UNL     1       4.032  -3.053   2.871  1.00  0.00     0.117 C 
BRANCH   2   3
ATOM      3  N   UNL     1       3.213  -2.856   4.047  1.00  0.00    -0.355 N 
ATOM      4  C   UNL     1       1.854  -2.773   4.169  1.00  0.00     0.238 C 
ATOM      5  O   UNL     1       1.369  -2.835   5.305  1.00  0.00    -0.273 OA
ATOM      6  H   UNL     1       3.712  -2.767   4.891  1.00  0.00     0.163 HD
BRANCH   4   7
ATOM      7  C   UNL     1       0.915  -2.556   2.962  1.00  0.00     0.161 C 
BRANCH   7   8
ATOM      8  C   UNL     1       0.848  -3.675   1.852  1.00  0.00     0.013 C 
ATOM      9  C   UNL     1       1.120  -3.200   0.417  1.00  0.00     0.010 C 
BRANCH   8  10
ATOM     10  C   UNL     1       1.516  -5.038   2.212  1.00  0.00     0.002 C 
ATOM     11  C   UNL     1       2.614  -5.563   1.283  1.00  0.00     0.004 C 
ENDBRANCH   8  10
ENDBRANCH   7   8
BRANCH   7  12
ATOM     12  N   UNL     1       1.062  -1.183   2.417  1.00  0.00    -0.198 NA
ATOM     13  H   UNL     1       0.730  -1.221   1.453  1.00  0.00     0.142 HD
BRANCH  12  14
ATOM     14  S   UNL     1       0.302   0.147   3.125  1.00  0.00     0.241 S 
ATOM     15  O   UNL     1       0.505   1.240   2.226  1.00  0.00    -0.207 OA
ATOM     16  O   UNL     1      -1.039  -0.276   3.506  1.00  0.00    -0.207 OA
BRANCH  14  17
ATOM     17  C   UNL     1       1.231   0.490   4.588  1.00  0.00     0.082 A 
ATOM     18  C   UNL     1       2.613   0.293   4.563  1.00  0.00     0.022 A 
ATOM     19  C   UNL     1       0.568   0.783   5.781  1.00  0.00     0.022 A 
ATOM     20  C   UNL     1       3.297   0.188   5.765  1.00  0.00     0.005 A 
ATOM     21  C   UNL     1       1.269   0.727   6.979  1.00  0.00     0.005 A 
ATOM     22  C   UNL     1       2.608   0.335   6.973  1.00  0.00    -0.051 A 
ATOM     23  C   UNL     1       3.282  -0.039   8.249  1.00  0.00     0.044 C 
ENDBRANCH  14  17
ENDBRANCH  12  14
ENDBRANCH   7  12
ENDBRANCH   4   7
ENDBRANCH   2   3
ENDBRANCH   1   2
BRANCH   1  24
ATOM     24  C   UNL     1       6.084  -1.738   3.646  1.00  0.00     0.118 C 
BRANCH  24  25
ATOM     25  N   UNL     1       7.454  -2.000   3.203  1.00  0.00    -0.352 N 
ATOM     26  C   UNL     1       8.646  -1.650   3.808  1.00  0.00     0.251 C 
ATOM     27  H   UNL     1       7.538  -2.495   2.356  1.00  0.00     0.163 HD
ATOM     28  O   UNL     1       9.730  -1.962   3.324  1.00  0.00    -0.269 OA
BRANCH  26  29
ATOM     29  C   UNL     1       8.596  -1.013   5.141  1.00  0.00     0.039 A 
ATOM     30  C   UNL     1       9.212  -1.695   6.195  1.00  0.00     0.014 A 
ATOM     31  C   UNL     1       7.738   0.053   5.387  1.00  0.00     0.014 A 
ATOM     32  C   UNL     1       8.767  -1.480   7.494  1.00  0.00     0.010 A 
ATOM     33  C   UNL     1       7.225   0.198   6.661  1.00  0.00     0.010 A 
ATOM     34  C   UNL     1       7.690  -0.620   7.700  1.00  0.00    -0.014 A 
BRANCH  34  35
ATOM     35  C   UNL     1       6.913  -0.628   8.935  1.00  0.00     0.031 A 
ATOM     36  C   UNL     1       6.937   0.526   9.850  1.00  0.00     0.074 A 
ATOM     37  C   UNL     1       6.080  -1.661   9.190  1.00  0.00     0.049 A 
ATOM     38  N   UNL     1       6.597   0.475  11.091  1.00  0.00    -0.248 NA
ATOM     39  C   UNL     1       7.387   1.846   9.437  1.00  0.00     0.031 C 
ATOM     40  C   UNL     1       5.022  -1.729  10.199  1.00  0.00     0.029 A 
ATOM     41  N   UNL     1       6.074  -2.927   8.617  1.00  0.00    -0.354 N 
ATOM     42  C   UNL     1       6.476   1.765  11.552  1.00  0.00     0.074 A 
ATOM     43  C   UNL     1       7.073   2.571  10.513  1.00  0.00     0.031 C 
ATOM     44  C   UNL     1       4.593  -2.995  10.314  1.00  0.00     0.029 A 
ATOM     45  C   UNL     1       5.505  -3.817   9.545  1.00  0.00     0.049 A 
ATOM     46  H   UNL     1       6.410  -3.160   7.721  1.00  0.00     0.167 HD
ATOM     47  C   UNL     1       5.760   1.992  12.693  1.00  0.00     0.034 A 
ATOM     48  C   UNL     1       6.277  -4.812  10.078  1.00  0.00     0.034 A 
ATOM     49  C   UNL     1       5.311   0.726  13.297  1.00  0.00     0.049 A 
ATOM     50  C   UNL     1       6.534  -4.605  11.561  1.00  0.00     0.074 A 
ATOM     51  C   UNL     1       4.080   0.089  13.357  1.00  0.00     0.029 A 
ATOM     52  N   UNL     1       6.252  -0.215  13.716  1.00  0.00    -0.354 N 
ATOM     53  N   UNL     1       6.334  -3.474  12.188  1.00  0.00    -0.248 NA
ATOM     54  C   UNL     1       6.994  -5.654  12.463  1.00  0.00     0.031 C 
ATOM     55  C   UNL     1       4.303  -1.265  13.733  1.00  0.00     0.029 A 
ATOM     56  C   UNL     1       5.661  -1.446  13.940  1.00  0.00     0.049 A 
ATOM     57  H   UNL     1       7.211  -0.028  13.836  1.00  0.00     0.167 HD
ATOM     58  C   UNL     1       6.597  -3.618  13.523  1.00  0.00     0.074 A 
ATOM     59  C   UNL     1       7.005  -5.009  13.644  1.00  0.00     0.031 C 
ATOM     60  C   UNL     1       6.447  -2.585  14.411  1.00  0.00     0.034 A 
BRANCH  47  61
ATOM     61  C   UNL     1       5.214   3.349  13.118  1.00  0.00     0.023 A 
ATOM     62  C   UNL     1       4.104   3.407  13.992  1.00  0.00     0.031 A 
ATOM     63  C   UNL     1       5.683   4.606  12.684  1.00  0.00     0.131 A 
ATOM     64  C   UNL     1       3.466   4.626  14.304  1.00  0.00     0.055 A 
ATOM     65  C   UNL     1       5.020   5.813  12.948  1.00  0.00     0.041 A 
ATOM     66  F   UNL     1       6.845   4.749  12.040  1.00  0.00    -0.206 F 
ATOM     67  C   UNL     1       3.897   5.828  13.754  1.00  0.00     0.022 A 
BRANCH  64  68
ATOM     68  S   UNL     1       2.059   4.627  15.449  1.00  0.00     0.124 S 
ATOM     69  O   UNL     1       1.102   3.764  14.764  1.00  0.00    -0.237 OA
ATOM     70  O   UNL     1       2.654   4.095  16.670  1.00  0.00    -0.237 OA
ATOM     71  O   UNL     1       1.677   6.037  15.517  1.00  0.00    -0.744 OA
ENDBRANCH  64  68
ENDBRANCH  47  61
BRANCH  48  72
ATOM     72  C   UNL     1       7.208  -5.383   9.055  1.00  0.00     0.023 A 
ATOM     73  C   UNL     1       6.604  -5.887   7.874  1.00  0.00     0.031 A 
ATOM     74  C   UNL     1       8.556  -5.012   8.988  1.00  0.00     0.131 A 
ATOM     75  C   UNL     1       7.272  -5.806   6.643  1.00  0.00     0.055 A 
ATOM     76  C   UNL     1       9.251  -5.026   7.768  1.00  0.00     0.041 A 
ATOM     77  F   UNL     1       9.177  -4.489  10.056  1.00  0.00    -0.206 F 
ATOM     78  C   UNL     1       8.595  -5.371   6.583  1.00  0.00     0.022 A 
BRANCH  75  79
ATOM     79  S   UNL     1       6.297  -5.954   5.109  1.00  0.00     0.124 S 
ATOM     80  O   UNL     1       6.347  -7.387   4.848  1.00  0.00    -0.237 OA
ATOM     81  O   UNL     1       4.994  -5.414   5.493  1.00  0.00    -0.237 OA
ATOM     82  O   UNL     1       7.013  -5.112   4.151  1.00  0.00    -0.744 OA
ENDBRANCH  75  79
ENDBRANCH  48  72
BRANCH  60  83
ATOM     83  C   UNL     1       6.941  -2.581  15.844  1.00  0.00     0.023 A 
ATOM     84  C   UNL     1       7.891  -3.489  16.332  1.00  0.00     0.031 A 
ATOM     85  C   UNL     1       6.529  -1.580  16.761  1.00  0.00     0.131 A 
ATOM     86  C   UNL     1       8.321  -3.448  17.671  1.00  0.00     0.055 A 
ATOM     87  C   UNL     1       7.024  -1.487  18.065  1.00  0.00     0.041 A 
ATOM     88  F   UNL     1       5.635  -0.637  16.427  1.00  0.00    -0.206 F 
ATOM     89  C   UNL     1       7.914  -2.437  18.536  1.00  0.00     0.022 A 
BRANCH  86  90
ATOM     90  S   UNL     1       9.375  -4.794  18.269  1.00  0.00     0.124 S 
ATOM     91  O   UNL     1       8.495  -5.950  18.120  1.00  0.00    -0.237 OA
ATOM     92  O   UNL     1      10.508  -4.739  17.351  1.00  0.00    -0.237 OA
ATOM     93  O   UNL     1       9.672  -4.413  19.648  1.00  0.00    -0.744 OA
ENDBRANCH  86  90
ENDBRANCH  60  83
ENDBRANCH  34  35
ENDBRANCH  26  29
ENDBRANCH  24  25
ENDBRANCH   1  24
TORSDOF 18
