REMARK SMILES COc1ccc(/C=C2/C(=O)N(c3ccccc3)C(=O)[NH+]=C2NCCCNC(=O)c2ccc(-c3c4nc(c(-c5cc(S(=O)(=O)[O-])ccc5F)c5ccc([nH]5)c(-c5cc(S(=O)(=O)[O-])ccc5F)c5nc(c(-c6cc(S(=O)(=O)[O-])ccc6F)c6ccc3[nH]6)C=C5)C=C4)cc2)cc1C(=O)[O-]
REMARK SMILES IDX 25 1 24 2 23 3 22 4 7 5 8 6 9 7 21 8 10 9 11 10 20 11 18 12
REMARK SMILES IDX 19 15 6 16 3 17 4 18 93 19 5 20 92 21 2 22 1 23 94 24 95 25
REMARK SMILES IDX 96 26 12 27 13 28 17 29 14 30 16 31 15 32 26 33 27 34 28 36
REMARK SMILES IDX 29 37 30 38 91 39 31 40 90 41 32 42 33 43 34 44 84 45 35 46
REMARK SMILES IDX 89 47 83 48 85 49 36 50 88 51 82 52 81 53 37 55 69 56 49 57
REMARK SMILES IDX 68 58 50 59 53 60 67 61 86 62 51 63 52 64 66 66 87 67 54 68
REMARK SMILES IDX 38 69 39 70 47 71 40 72 46 73 48 74 45 75 41 76 42 77 43 78
REMARK SMILES IDX 44 79 70 80 71 81 79 82 72 83 78 84 80 85 77 86 73 87 74 88
REMARK SMILES IDX 75 89 76 90 55 91 56 92 64 93 57 94 63 95 65 96 62 97 58 98
REMARK SMILES IDX 59 99 60 100 61 101
REMARK H PARENT 20 13 22 14 26 35 85 54 53 65
REMARK Flexibility Score: inf
ROOT
ATOM      1  C   UNL     1      -2.180  -1.633  -2.331  1.00  0.00     0.119 C 
ENDROOT
BRANCH   1   2
ATOM      2  C   UNL     1      -1.425  -2.212  -3.520  1.00  0.00     0.059 C 
BRANCH   2   3
ATOM      3  C   UNL     1      -1.561  -3.716  -3.584  1.00  0.00     0.195 C 
BRANCH   3   4
ATOM      4  N   UNL     1      -1.397  -4.239  -4.897  1.00  0.00    -0.305 N 
ATOM      5  C   UNL     1       1.982  -3.703  -5.307  1.00  0.00     0.030 C 
ATOM      6  C   UNL     1       0.972  -4.136  -6.107  1.00  0.00     0.129 C 
ATOM      7  C   UNL     1       1.483  -4.541  -7.494  1.00  0.00     0.328 C 
ATOM      8  C   UNL     1      -0.506  -4.298  -5.921  1.00  0.00     0.236 C 
ATOM      9  O   UNL     1       2.696  -4.562  -7.725  1.00  0.00    -0.249 OA
ATOM     10  N   UNL     1       0.527  -4.843  -8.460  1.00  0.00    -0.155 N 
ATOM     11  N   UNL     1      -1.264  -4.623  -6.934  1.00  0.00    -0.209 N 
ATOM     12  C   UNL     1      -0.837  -4.848  -8.195  1.00  0.00     0.448 C 
ATOM     13  H   UNL     1      -2.230  -4.710  -6.763  1.00  0.00     0.270 HD
ATOM     14  H   UNL     1      -2.213  -4.727  -5.152  1.00  0.00     0.256 HD
ATOM     15  O   UNL     1      -1.692  -5.124  -9.033  1.00  0.00    -0.212 OA
BRANCH   5  16
ATOM     16  C   UNL     1       2.119  -3.211  -3.925  1.00  0.00    -0.024 A 
ATOM     17  C   UNL     1       2.304  -2.109  -1.342  1.00  0.00     0.127 A 
ATOM     18  C   UNL     1       1.524  -3.240  -1.579  1.00  0.00     0.048 A 
ATOM     19  C   UNL     1       3.187  -1.676  -2.330  1.00  0.00     0.040 A 
ATOM     20  C   UNL     1       1.499  -3.829  -2.849  1.00  0.00     0.012 A 
ATOM     21  C   UNL     1       3.039  -2.183  -3.637  1.00  0.00     0.022 A 
BRANCH  17  22
ATOM     22  O   UNL     1       2.158  -1.520  -0.115  1.00  0.00    -0.496 OA
ATOM     23  C   UNL     1       1.624  -0.195  -0.242  1.00  0.00     0.278 C 
ENDBRANCH  17  22
BRANCH  19  24
ATOM     24  C   UNL     1       4.337  -0.771  -2.065  1.00  0.00     0.075 C 
ATOM     25  O   UNL     1       4.985  -0.191  -2.912  1.00  0.00    -0.545 OA
ATOM     26  O   UNL     1       4.697  -0.743  -0.768  1.00  0.00    -0.545 OA
ENDBRANCH  19  24
ENDBRANCH   5  16
BRANCH  10  27
ATOM     27  C   UNL     1       0.936  -5.260  -9.778  1.00  0.00     0.111 A 
ATOM     28  C   UNL     1       0.253  -4.807 -10.921  1.00  0.00     0.044 A 
ATOM     29  C   UNL     1       1.945  -6.219  -9.949  1.00  0.00     0.044 A 
ATOM     30  C   UNL     1       0.528  -5.332 -12.185  1.00  0.00     0.004 A 
ATOM     31  C   UNL     1       2.213  -6.753 -11.214  1.00  0.00     0.004 A 
ATOM     32  C   UNL     1       1.498  -6.318 -12.328  1.00  0.00     0.000 A 
ENDBRANCH  10  27
ENDBRANCH   3   4
ENDBRANCH   2   3
ENDBRANCH   1   2
BRANCH   1  33
ATOM     33  N   UNL     1      -1.955  -2.311  -1.061  1.00  0.00    -0.352 N 
ATOM     34  C   UNL     1      -2.012  -1.817   0.221  1.00  0.00     0.251 C 
ATOM     35  H   UNL     1      -1.728  -3.267  -1.132  1.00  0.00     0.163 HD
ATOM     36  O   UNL     1      -1.765  -2.571   1.159  1.00  0.00    -0.269 OA
BRANCH  34  37
ATOM     37  C   UNL     1      -2.310  -0.388   0.463  1.00  0.00     0.039 A 
ATOM     38  C   UNL     1      -1.624   0.280   1.483  1.00  0.00     0.014 A 
ATOM     39  C   UNL     1      -3.234   0.306  -0.318  1.00  0.00     0.014 A 
ATOM     40  C   UNL     1      -1.802   1.654   1.658  1.00  0.00     0.010 A 
ATOM     41  C   UNL     1      -3.332   1.685  -0.215  1.00  0.00     0.010 A 
ATOM     42  C   UNL     1      -2.629   2.373   0.783  1.00  0.00    -0.014 A 
BRANCH  42  43
ATOM     43  C   UNL     1      -2.842   3.836   0.913  1.00  0.00     0.031 A 
ATOM     44  C   UNL     1      -4.233   4.348   1.176  1.00  0.00     0.074 A 
ATOM     45  C   UNL     1      -1.826   4.689   0.685  1.00  0.00     0.049 A 
ATOM     46  N   UNL     1      -4.689   5.573   1.143  1.00  0.00    -0.248 NA
ATOM     47  C   UNL     1      -5.260   3.333   1.460  1.00  0.00     0.031 C 
ATOM     48  C   UNL     1      -0.448   4.304   0.371  1.00  0.00     0.029 A 
ATOM     49  N   UNL     1      -1.800   6.060   0.659  1.00  0.00    -0.354 N 
ATOM     50  C   UNL     1      -6.059   5.470   1.362  1.00  0.00     0.074 A 
ATOM     51  C   UNL     1      -6.365   4.059   1.454  1.00  0.00     0.031 C 
ATOM     52  C   UNL     1       0.291   5.413   0.202  1.00  0.00     0.029 A 
ATOM     53  C   UNL     1      -0.567   6.585   0.349  1.00  0.00     0.049 A 
ATOM     54  H   UNL     1      -2.591   6.616   0.846  1.00  0.00     0.167 HD
ATOM     55  C   UNL     1      -6.971   6.463   1.504  1.00  0.00     0.034 A 
ATOM     56  C   UNL     1      -0.181   7.866   0.190  1.00  0.00     0.034 A 
ATOM     57  C   UNL     1      -6.632   7.862   1.450  1.00  0.00     0.049 A 
ATOM     58  C   UNL     1      -1.206   8.956   0.375  1.00  0.00     0.074 A 
ATOM     59  C   UNL     1      -7.451   8.959   1.644  1.00  0.00     0.029 A 
ATOM     60  N   UNL     1      -5.360   8.357   1.187  1.00  0.00    -0.354 N 
ATOM     61  N   UNL     1      -2.491   8.848   0.627  1.00  0.00    -0.248 NA
ATOM     62  C   UNL     1      -0.727  10.340   0.269  1.00  0.00     0.031 C 
ATOM     63  C   UNL     1      -6.688  10.116   1.448  1.00  0.00     0.029 A 
ATOM     64  C   UNL     1      -5.376   9.742   1.197  1.00  0.00     0.049 A 
ATOM     65  H   UNL     1      -4.563   7.804   1.018  1.00  0.00     0.167 HD
ATOM     66  C   UNL     1      -2.966  10.151   0.743  1.00  0.00     0.074 A 
ATOM     67  C   UNL     1      -1.827  11.025   0.542  1.00  0.00     0.031 C 
ATOM     68  C   UNL     1      -4.225  10.589   0.995  1.00  0.00     0.034 A 
BRANCH  55  69
ATOM     69  C   UNL     1      -8.411   6.056   1.713  1.00  0.00     0.023 A 
ATOM     70  C   UNL     1      -8.808   5.292   2.825  1.00  0.00     0.031 A 
ATOM     71  C   UNL     1      -9.393   6.385   0.762  1.00  0.00     0.131 A 
ATOM     72  C   UNL     1     -10.118   4.800   2.909  1.00  0.00     0.055 A 
ATOM     73  C   UNL     1     -10.720   5.971   0.899  1.00  0.00     0.041 A 
ATOM     74  F   UNL     1      -9.075   7.095  -0.332  1.00  0.00    -0.206 F 
ATOM     75  C   UNL     1     -11.085   5.157   1.967  1.00  0.00     0.022 A 
BRANCH  72  76
ATOM     76  S   UNL     1     -10.493   3.554   4.172  1.00  0.00     0.124 S 
ATOM     77  O   UNL     1      -9.573   2.479   3.805  1.00  0.00    -0.237 OA
ATOM     78  O   UNL     1     -10.189   4.259   5.412  1.00  0.00    -0.237 OA
ATOM     79  O   UNL     1     -11.907   3.257   3.953  1.00  0.00    -0.744 OA
ENDBRANCH  72  76
ENDBRANCH  55  69
BRANCH  56  80
ATOM     80  C   UNL     1       1.231   8.193  -0.155  1.00  0.00     0.023 A 
ATOM     81  C   UNL     1       2.052   8.880   0.754  1.00  0.00     0.031 A 
ATOM     82  C   UNL     1       1.773   7.854  -1.407  1.00  0.00     0.131 A 
ATOM     83  C   UNL     1       3.354   9.248   0.382  1.00  0.00     0.055 A 
ATOM     84  C   UNL     1       3.085   8.180  -1.755  1.00  0.00     0.041 A 
ATOM     85  F   UNL     1       1.034   7.186  -2.307  1.00  0.00    -0.206 F 
ATOM     86  C   UNL     1       3.880   8.893  -0.863  1.00  0.00     0.022 A 
BRANCH  83  87
ATOM     87  S   UNL     1       4.327  10.266   1.525  1.00  0.00     0.124 S 
ATOM     88  O   UNL     1       3.467  11.431   1.691  1.00  0.00    -0.237 OA
ATOM     89  O   UNL     1       4.448   9.386   2.683  1.00  0.00    -0.237 OA
ATOM     90  O   UNL     1       5.570  10.504   0.794  1.00  0.00    -0.744 OA
ENDBRANCH  83  87
ENDBRANCH  56  80
BRANCH  68  91
ATOM     91  C   UNL     1      -4.417  12.079   1.123  1.00  0.00     0.023 A 
ATOM     92  C   UNL     1      -4.293  12.938   0.019  1.00  0.00     0.031 A 
ATOM     93  C   UNL     1      -4.728  12.642   2.373  1.00  0.00     0.131 A 
ATOM     94  C   UNL     1      -4.431  14.322   0.195  1.00  0.00     0.055 A 
ATOM     95  C   UNL     1      -4.919  14.014   2.532  1.00  0.00     0.041 A 
ATOM     96  F   UNL     1      -4.857  11.864   3.460  1.00  0.00    -0.206 F 
ATOM     97  C   UNL     1      -4.759  14.864   1.441  1.00  0.00     0.022 A 
BRANCH  94  98
ATOM     98  S   UNL     1      -4.098  15.415  -1.213  1.00  0.00     0.124 S 
ATOM     99  O   UNL     1      -2.713  15.087  -1.532  1.00  0.00    -0.237 OA
ATOM    100  O   UNL     1      -5.096  14.984  -2.186  1.00  0.00    -0.237 OA
ATOM    101  O   UNL     1      -4.308  16.754  -0.664  1.00  0.00    -0.744 OA
ENDBRANCH  94  98
ENDBRANCH  68  91
ENDBRANCH  42  43
ENDBRANCH  34  37
ENDBRANCH   1  33
TORSDOF 16
