REMARK SMILES COc1cc(/C=N/NC(=O)c2cc(Cl)ccc2O)ccc1OCC(=O)NCCCNC(=O)c1ccc(-c2c3nc(c(-c4cc(S(=O)(=O)[O-])ccc4F)c4ccc([nH]4)c(-c4cc(S(=O)(=O)[O-])ccc4F)c4nc(c(-c5cc(S(=O)(=O)[O-])ccc5F)c5ccc2[nH]5)C=C4)C=C3)cc1
REMARK SMILES IDX 24 1 25 2 26 3 23 5 22 6 21 7 3 8 4 9 5 10 20 11 19 12 2 13
REMARK SMILES IDX 1 14 6 15 7 16 8 17 9 18 10 20 11 21 12 22 17 23 13 24 16 25
REMARK SMILES IDX 14 26 15 27 18 28 27 30 28 31 29 32 30 33 31 34 32 36 33 37
REMARK SMILES IDX 34 38 95 39 35 40 94 41 36 42 37 43 38 44 88 45 39 46 93 47
REMARK SMILES IDX 87 48 89 49 40 50 92 51 86 52 85 53 41 55 73 56 53 57 72 58
REMARK SMILES IDX 54 59 57 60 71 61 90 62 55 63 56 64 70 66 91 67 58 68 42 69
REMARK SMILES IDX 43 70 51 71 44 72 50 73 52 74 49 75 45 76 46 77 47 78 48 79
REMARK SMILES IDX 74 80 75 81 83 82 76 83 82 84 84 85 81 86 77 87 78 88 79 89
REMARK SMILES IDX 80 90 59 91 60 92 68 93 61 94 67 95 69 96 66 97 62 98 63 99
REMARK SMILES IDX 64 100 65 101
REMARK H PARENT 26 4 8 19 18 29 30 35 89 54 57 65
REMARK Flexibility Score: inf
ROOT
ATOM      1  C   UNL     1       2.296  -1.237  -0.684  1.00  0.00     0.257 C 
ATOM      2  O   UNL     1       1.409  -0.821  -1.432  1.00  0.00    -0.271 OA
ATOM      3  N   UNL     1       2.520  -2.584  -0.647  1.00  0.00    -0.353 N 
ATOM      4  H   UNL     1       1.845  -3.140  -1.099  1.00  0.00     0.163 HD
ENDROOT
BRANCH   1   5
ATOM      5  C   UNL     1       3.187  -0.291   0.131  1.00  0.00     0.329 C 
BRANCH   5   6
ATOM      6  O   UNL     1       3.359  -0.582   1.507  1.00  0.00    -0.480 OA
BRANCH   6   7
ATOM      7  C   UNL     1       2.289  -0.526   2.357  1.00  0.00     0.161 A 
ATOM      8  C   UNL     1       1.082   0.170   2.199  1.00  0.00     0.161 A 
ATOM      9  C   UNL     1       0.120   0.139   3.220  1.00  0.00     0.060 A 
ATOM     10  C   UNL     1       0.339  -0.625   4.368  1.00  0.00    -0.002 A 
ATOM     11  C   UNL     1       2.499  -1.262   3.533  1.00  0.00     0.051 A 
ATOM     12  C   UNL     1       1.524  -1.338   4.527  1.00  0.00     0.014 A 
BRANCH   8  13
ATOM     13  O   UNL     1       0.891   0.978   1.110  1.00  0.00    -0.493 OA
ATOM     14  C   UNL     1      -0.348   0.738   0.439  1.00  0.00     0.278 C 
ENDBRANCH   8  13
BRANCH  10  15
ATOM     15  C   UNL     1      -0.626  -0.621   5.481  1.00  0.00     0.141 C 
ATOM     16  N   UNL     1      -1.390   0.407   5.697  1.00  0.00    -0.180 NA
BRANCH  16  17
ATOM     17  N   UNL     1      -2.148   0.398   6.830  1.00  0.00    -0.243 N 
ATOM     18  C   UNL     1      -1.775   0.131   8.139  1.00  0.00     0.275 C 
ATOM     19  H   UNL     1      -3.100   0.613   6.701  1.00  0.00     0.194 HD
ATOM     20  O   UNL     1      -2.622   0.117   9.030  1.00  0.00    -0.267 OA
BRANCH  18  21
ATOM     21  C   UNL     1      -0.358  -0.124   8.491  1.00  0.00     0.084 A 
ATOM     22  C   UNL     1      -0.109  -1.164   9.397  1.00  0.00     0.038 A 
ATOM     23  C   UNL     1       0.716   0.625   7.991  1.00  0.00     0.128 A 
ATOM     24  C   UNL     1       1.202  -1.482   9.745  1.00  0.00     0.042 A 
ATOM     25  C   UNL     1       2.026   0.300   8.342  1.00  0.00     0.048 A 
ATOM     26  Cl  UNL     1       1.505  -2.774  10.838  1.00  0.00    -0.084 Cl
ATOM     27  C   UNL     1       2.271  -0.764   9.210  1.00  0.00     0.024 A 
BRANCH  23  28
ATOM     28  O   UNL     1       0.568   1.687   7.141  1.00  0.00    -0.507 OA
ATOM     29  H   UNL     1      -0.287   1.954   6.869  1.00  0.00     0.293 HD
ENDBRANCH  23  28
ENDBRANCH  18  21
ENDBRANCH  16  17
ENDBRANCH  10  15
ENDBRANCH   6   7
ENDBRANCH   5   6
ENDBRANCH   1   5
BRANCH   3  30
ATOM     30  C   UNL     1       3.617  -3.306  -0.032  1.00  0.00     0.117 C 
BRANCH  30  31
ATOM     31  C   UNL     1       3.182  -4.190   1.131  1.00  0.00     0.042 C 
BRANCH  31  32
ATOM     32  C   UNL     1       2.073  -5.188   0.809  1.00  0.00     0.118 C 
BRANCH  32  33
ATOM     33  N   UNL     1       2.405  -6.066  -0.301  1.00  0.00    -0.352 N 
ATOM     34  C   UNL     1       2.643  -7.416  -0.353  1.00  0.00     0.251 C 
ATOM     35  H   UNL     1       2.469  -5.610  -1.171  1.00  0.00     0.163 HD
ATOM     36  O   UNL     1       3.100  -7.886  -1.393  1.00  0.00    -0.269 OA
BRANCH  34  37
ATOM     37  C   UNL     1       2.388  -8.300   0.808  1.00  0.00     0.039 A 
ATOM     38  C   UNL     1       3.258  -9.373   1.029  1.00  0.00     0.014 A 
ATOM     39  C   UNL     1       1.276  -8.136   1.639  1.00  0.00     0.014 A 
ATOM     40  C   UNL     1       3.042 -10.242   2.102  1.00  0.00     0.010 A 
ATOM     41  C   UNL     1       1.111  -8.951   2.760  1.00  0.00     0.010 A 
ATOM     42  C   UNL     1       1.982 -10.025   2.996  1.00  0.00    -0.014 A 
BRANCH  42  43
ATOM     43  C   UNL     1       1.764 -10.933   4.155  1.00  0.00     0.031 A 
ATOM     44  C   UNL     1       0.504 -11.754   4.253  1.00  0.00     0.074 A 
ATOM     45  C   UNL     1       2.686 -10.995   5.136  1.00  0.00     0.049 A 
ATOM     46  N   UNL     1       0.126 -12.586   5.191  1.00  0.00    -0.248 NA
ATOM     47  C   UNL     1      -0.474 -11.595   3.167  1.00  0.00     0.031 C 
ATOM     48  C   UNL     1       3.923 -10.211   5.184  1.00  0.00     0.029 A 
ATOM     49  N   UNL     1       2.732 -11.751   6.281  1.00  0.00    -0.354 N 
ATOM     50  C   UNL     1      -1.135 -13.038   4.816  1.00  0.00     0.074 A 
ATOM     51  C   UNL     1      -1.485 -12.333   3.600  1.00  0.00     0.031 C 
ATOM     52  C   UNL     1       4.619 -10.553   6.280  1.00  0.00     0.029 A 
ATOM     53  C   UNL     1       3.866 -11.549   7.034  1.00  0.00     0.049 A 
ATOM     54  H   UNL     1       2.019 -12.380   6.539  1.00  0.00     0.167 HD
ATOM     55  C   UNL     1      -1.918 -13.973   5.412  1.00  0.00     0.034 A 
ATOM     56  C   UNL     1       4.255 -12.103   8.199  1.00  0.00     0.034 A 
ATOM     57  C   UNL     1      -1.548 -14.680   6.614  1.00  0.00     0.049 A 
ATOM     58  C   UNL     1       3.373 -13.146   8.838  1.00  0.00     0.074 A 
ATOM     59  C   UNL     1      -2.238 -15.683   7.273  1.00  0.00     0.029 A 
ATOM     60  N   UNL     1      -0.386 -14.458   7.342  1.00  0.00    -0.354 N 
ATOM     61  N   UNL     1       2.209 -13.605   8.436  1.00  0.00    -0.248 NA
ATOM     62  C   UNL     1       3.869 -13.760  10.075  1.00  0.00     0.031 C 
ATOM     63  C   UNL     1      -1.527 -16.021   8.430  1.00  0.00     0.029 A 
ATOM     64  C   UNL     1      -0.353 -15.286   8.455  1.00  0.00     0.049 A 
ATOM     65  H   UNL     1       0.314 -13.808   7.103  1.00  0.00     0.167 HD
ATOM     66  C   UNL     1       1.849 -14.582   9.361  1.00  0.00     0.074 A 
ATOM     67  C   UNL     1       2.933 -14.663  10.319  1.00  0.00     0.031 C 
ATOM     68  C   UNL     1       0.726 -15.344   9.415  1.00  0.00     0.034 A 
BRANCH  55  69
ATOM     69  C   UNL     1      -3.260 -14.261   4.777  1.00  0.00     0.023 A 
ATOM     70  C   UNL     1      -3.366 -14.780   3.474  1.00  0.00     0.031 A 
ATOM     71  C   UNL     1      -4.452 -13.986   5.471  1.00  0.00     0.131 A 
ATOM     72  C   UNL     1      -4.627 -14.927   2.876  1.00  0.00     0.055 A 
ATOM     73  C   UNL     1      -5.707 -14.217   4.901  1.00  0.00     0.041 A 
ATOM     74  F   UNL     1      -4.419 -13.471   6.710  1.00  0.00    -0.206 F 
ATOM     75  C   UNL     1      -5.800 -14.675   3.590  1.00  0.00     0.022 A 
BRANCH  72  76
ATOM     76  S   UNL     1      -4.706 -15.308   1.104  1.00  0.00     0.124 S 
ATOM     77  O   UNL     1      -3.988 -14.173   0.528  1.00  0.00    -0.237 OA
ATOM     78  O   UNL     1      -4.030 -16.598   1.028  1.00  0.00    -0.237 OA
ATOM     79  O   UNL     1      -6.140 -15.337   0.823  1.00  0.00    -0.744 OA
ENDBRANCH  72  76
ENDBRANCH  55  69
BRANCH  56  80
ATOM     80  C   UNL     1       5.538 -11.696   8.841  1.00  0.00     0.023 A 
ATOM     81  C   UNL     1       6.592 -12.609   8.998  1.00  0.00     0.031 A 
ATOM     82  C   UNL     1       5.710 -10.397   9.352  1.00  0.00     0.131 A 
ATOM     83  C   UNL     1       7.750 -12.230   9.695  1.00  0.00     0.055 A 
ATOM     84  C   UNL     1       6.885 -10.008   9.998  1.00  0.00     0.041 A 
ATOM     85  F   UNL     1       4.737  -9.481   9.221  1.00  0.00    -0.206 F 
ATOM     86  C   UNL     1       7.908 -10.932  10.186  1.00  0.00     0.022 A 
BRANCH  83  87
ATOM     87  S   UNL     1       9.014 -13.488  10.029  1.00  0.00     0.124 S 
ATOM     88  O   UNL     1       8.250 -14.491  10.761  1.00  0.00    -0.237 OA
ATOM     89  O   UNL     1       9.434 -13.858   8.681  1.00  0.00    -0.237 OA
ATOM     90  O   UNL     1      10.013 -12.766  10.814  1.00  0.00    -0.744 OA
ENDBRANCH  83  87
ENDBRANCH  56  80
BRANCH  68  91
ATOM     91  C   UNL     1       0.643 -16.354  10.535  1.00  0.00     0.023 A 
ATOM     92  C   UNL     1       0.590 -15.959  11.883  1.00  0.00     0.031 A 
ATOM     93  C   UNL     1       0.662 -17.731  10.251  1.00  0.00     0.131 A 
ATOM     94  C   UNL     1       0.638 -16.926  12.898  1.00  0.00     0.055 A 
ATOM     95  C   UNL     1       0.638 -18.691  11.265  1.00  0.00     0.041 A 
ATOM     96  F   UNL     1       0.713 -18.168   8.983  1.00  0.00    -0.206 F 
ATOM     97  C   UNL     1       0.645 -18.290  12.598  1.00  0.00     0.022 A 
BRANCH  94  98
ATOM     98  S   UNL     1       0.823 -16.373  14.616  1.00  0.00     0.124 S 
ATOM     99  O   UNL     1       2.029 -15.554  14.544  1.00  0.00    -0.237 OA
ATOM    100  O   UNL     1      -0.425 -15.651  14.846  1.00  0.00    -0.237 OA
ATOM    101  O   UNL     1       0.964 -17.620  15.364  1.00  0.00    -0.744 OA
ENDBRANCH  94  98
ENDBRANCH  68  91
ENDBRANCH  42  43
ENDBRANCH  34  37
ENDBRANCH  32  33
ENDBRANCH  31  32
ENDBRANCH  30  31
ENDBRANCH   3  30
TORSDOF 20
