REMARK SMILES CCC1(CC)CCN(C(=O)NC(CC)(CC)C(=O)NCCCNC(=O)c2ccc(-c3c4nc(c(-c5cc(S(=O)(=O)[O-])ccc5F)c5ccc([nH]5)c(-c5cc(S(=O)(=O)[O-])ccc5F)c5nc(c(-c6cc(S(=O)(=O)[O-])ccc6F)c6ccc3[nH]6)C=C5)C=C4)cc2)CC1
REMARK SMILES IDX 21 1 20 2 19 3 17 4 18 5 12 7 11 8 3 9 6 10 90 11 7 12 89 13
REMARK SMILES IDX 8 14 9 15 10 16 2 18 1 19 4 20 5 21 13 22 14 23 15 24 16 25
REMARK SMILES IDX 22 26 23 27 24 28 25 30 26 31 27 32 88 33 28 34 87 35 29 36
REMARK SMILES IDX 30 37 31 38 81 39 32 40 86 41 80 42 82 43 33 44 85 45 79 46
REMARK SMILES IDX 78 47 34 49 66 50 46 51 65 52 47 53 50 54 64 55 83 56 48 57
REMARK SMILES IDX 49 58 63 60 84 61 51 62 35 63 36 64 44 65 37 66 43 67 45 68
REMARK SMILES IDX 42 69 38 70 39 71 40 72 41 73 67 74 68 75 76 76 69 77 75 78
REMARK SMILES IDX 77 79 74 80 70 81 71 82 72 83 73 84 52 85 53 86 61 87 54 88
REMARK SMILES IDX 60 89 62 90 59 91 55 92 56 93 57 94 58 95
REMARK H PARENT 19 6 11 17 23 29 82 48 50 59
REMARK Flexibility Score: inf
ROOT
ATOM      1  C   UNL     1      -2.138  -7.554   1.448  1.00  0.00     0.042 C 
ENDROOT
BRANCH   1   2
ATOM      2  C   UNL     1      -1.090  -7.832   0.373  1.00  0.00     0.117 C 
BRANCH   2   3
ATOM      3  N   UNL     1      -0.160  -6.730   0.203  1.00  0.00    -0.354 N 
ATOM      4  C   UNL     1       0.691  -6.402   1.236  1.00  0.00     0.245 C 
ATOM      5  O   UNL     1       0.252  -5.688   2.133  1.00  0.00    -0.272 OA
ATOM      6  H   UNL     1      -0.137  -6.223  -0.641  1.00  0.00     0.163 HD
BRANCH   4   7
ATOM      7  C   UNL     1       2.154  -6.947   1.177  1.00  0.00     0.120 C 
BRANCH   7   8
ATOM      8  N   UNL     1       3.265  -5.942   1.314  1.00  0.00    -0.323 N 
ATOM      9  C   UNL     1       1.103  -1.588   1.142  1.00  0.00    -0.027 C 
ATOM     10  C   UNL     1       2.646  -1.509   1.371  1.00  0.00     0.028 C 
ATOM     11  C   UNL     1       0.732  -3.089   0.936  1.00  0.00     0.028 C 
ATOM     12  C   UNL     1       3.490  -2.372   0.411  1.00  0.00     0.122 C 
ATOM     13  C   UNL     1       1.620  -3.793  -0.091  1.00  0.00     0.122 C 
ATOM     14  N   UNL     1       2.983  -3.750   0.367  1.00  0.00    -0.325 N 
ATOM     15  C   UNL     1       3.727  -4.749   0.912  1.00  0.00     0.318 C 
ATOM     16  O   UNL     1       4.928  -4.578   1.163  1.00  0.00    -0.249 OA
ATOM     17  H   UNL     1       3.914  -6.306   1.958  1.00  0.00     0.166 HD
BRANCH   9  18
ATOM     18  C   UNL     1       0.577  -0.801  -0.096  1.00  0.00     0.004 C 
ATOM     19  C   UNL     1       1.231   0.532  -0.420  1.00  0.00     0.004 C 
ENDBRANCH   9  18
BRANCH   9  20
ATOM     20  C   UNL     1       0.353  -1.142   2.443  1.00  0.00     0.004 C 
ATOM     21  C   UNL     1       0.433   0.328   2.823  1.00  0.00     0.004 C 
ENDBRANCH   9  20
ENDBRANCH   7   8
BRANCH   7  22
ATOM     22  C   UNL     1       2.405  -7.797  -0.116  1.00  0.00     0.035 C 
ATOM     23  C   UNL     1       3.373  -8.971   0.012  1.00  0.00     0.007 C 
ENDBRANCH   7  22
BRANCH   7  24
ATOM     24  C   UNL     1       2.234  -7.846   2.471  1.00  0.00     0.035 C 
ATOM     25  C   UNL     1       2.275  -7.089   3.807  1.00  0.00     0.007 C 
ENDBRANCH   7  24
ENDBRANCH   4   7
ENDBRANCH   2   3
ENDBRANCH   1   2
BRANCH   1  26
ATOM     26  C   UNL     1      -2.890  -6.240   1.247  1.00  0.00     0.118 C 
BRANCH  26  27
ATOM     27  N   UNL     1      -3.674  -6.245   0.020  1.00  0.00    -0.352 N 
ATOM     28  C   UNL     1      -5.028  -6.414  -0.145  1.00  0.00     0.251 C 
ATOM     29  H   UNL     1      -3.162  -6.108  -0.809  1.00  0.00     0.163 HD
ATOM     30  O   UNL     1      -5.472  -6.670  -1.258  1.00  0.00    -0.269 OA
BRANCH  28  31
ATOM     31  C   UNL     1      -5.929  -6.311   1.022  1.00  0.00     0.039 A 
ATOM     32  C   UNL     1      -6.946  -7.253   1.181  1.00  0.00     0.014 A 
ATOM     33  C   UNL     1      -5.776  -5.279   1.953  1.00  0.00     0.014 A 
ATOM     34  C   UNL     1      -7.767  -7.199   2.310  1.00  0.00     0.010 A 
ATOM     35  C   UNL     1      -6.536  -5.279   3.119  1.00  0.00     0.010 A 
ATOM     36  C   UNL     1      -7.545  -6.234   3.308  1.00  0.00    -0.014 A 
BRANCH  36  37
ATOM     37  C   UNL     1      -8.367  -6.199   4.546  1.00  0.00     0.031 A 
ATOM     38  C   UNL     1      -9.223  -4.998   4.848  1.00  0.00     0.074 A 
ATOM     39  C   UNL     1      -8.302  -7.223   5.421  1.00  0.00     0.049 A 
ATOM     40  N   UNL     1      -9.948  -4.743   5.907  1.00  0.00    -0.248 NA
ATOM     41  C   UNL     1      -9.242  -3.931   3.836  1.00  0.00     0.031 C 
ATOM     42  C   UNL     1      -7.486  -8.428   5.254  1.00  0.00     0.029 A 
ATOM     43  N   UNL     1      -8.929  -7.415   6.627  1.00  0.00    -0.354 N 
ATOM     44  C   UNL     1     -10.508  -3.488   5.689  1.00  0.00     0.074 A 
ATOM     45  C   UNL     1      -9.976  -3.005   4.433  1.00  0.00     0.031 C 
ATOM     46  C   UNL     1      -7.686  -9.244   6.300  1.00  0.00     0.029 A 
ATOM     47  C   UNL     1      -8.600  -8.602   7.240  1.00  0.00     0.049 A 
ATOM     48  H   UNL     1      -9.556  -6.764   7.017  1.00  0.00     0.167 HD
ATOM     49  C   UNL     1     -11.404  -2.813   6.452  1.00  0.00     0.034 A 
ATOM     50  C   UNL     1      -8.980  -9.109   8.430  1.00  0.00     0.034 A 
ATOM     51  C   UNL     1     -11.926  -3.308   7.702  1.00  0.00     0.049 A 
ATOM     52  C   UNL     1      -9.934  -8.313   9.287  1.00  0.00     0.074 A 
ATOM     53  C   UNL     1     -12.856  -2.721   8.542  1.00  0.00     0.029 A 
ATOM     54  N   UNL     1     -11.558  -4.508   8.298  1.00  0.00    -0.354 N 
ATOM     55  N   UNL     1     -10.483  -7.144   9.048  1.00  0.00    -0.248 NA
ATOM     56  C   UNL     1     -10.327  -8.911  10.569  1.00  0.00     0.031 C 
ATOM     57  C   UNL     1     -12.999  -3.530   9.674  1.00  0.00     0.029 A 
ATOM     58  C   UNL     1     -12.222  -4.664   9.506  1.00  0.00     0.049 A 
ATOM     59  H   UNL     1     -10.918  -5.154   7.919  1.00  0.00     0.167 HD
ATOM     60  C   UNL     1     -11.316  -6.888  10.134  1.00  0.00     0.074 A 
ATOM     61  C   UNL     1     -11.209  -8.030  11.018  1.00  0.00     0.031 C 
ATOM     62  C   UNL     1     -12.103  -5.809  10.379  1.00  0.00     0.034 A 
BRANCH  49  63
ATOM     63  C   UNL     1     -11.858  -1.461   5.954  1.00  0.00     0.023 A 
ATOM     64  C   UNL     1     -12.548  -1.319   4.737  1.00  0.00     0.031 A 
ATOM     65  C   UNL     1     -11.581  -0.295   6.690  1.00  0.00     0.131 A 
ATOM     66  C   UNL     1     -12.867  -0.041   4.254  1.00  0.00     0.055 A 
ATOM     67  C   UNL     1     -11.978   0.968   6.246  1.00  0.00     0.041 A 
ATOM     68  F   UNL     1     -10.906  -0.362   7.849  1.00  0.00    -0.206 F 
ATOM     69  C   UNL     1     -12.611   1.102   5.013  1.00  0.00     0.022 A 
BRANCH  66  70
ATOM     70  S   UNL     1     -13.484   0.112   2.556  1.00  0.00     0.124 S 
ATOM     71  O   UNL     1     -12.388  -0.476   1.790  1.00  0.00    -0.237 OA
ATOM     72  O   UNL     1     -14.721  -0.659   2.598  1.00  0.00    -0.237 OA
ATOM     73  O   UNL     1     -13.652   1.554   2.382  1.00  0.00    -0.744 OA
ENDBRANCH  66  70
ENDBRANCH  49  63
BRANCH  50  74
ATOM     74  C   UNL     1      -8.461 -10.427   8.898  1.00  0.00     0.023 A 
ATOM     75  C   UNL     1      -9.333 -11.502   9.136  1.00  0.00     0.031 A 
ATOM     76  C   UNL     1      -7.096 -10.615   9.180  1.00  0.00     0.131 A 
ATOM     77  C   UNL     1      -8.843 -12.691   9.698  1.00  0.00     0.055 A 
ATOM     78  C   UNL     1      -6.603 -11.822   9.678  1.00  0.00     0.041 A 
ATOM     79  F   UNL     1      -6.216  -9.623   8.969  1.00  0.00    -0.206 F 
ATOM     80  C   UNL     1      -7.482 -12.864   9.957  1.00  0.00     0.022 A 
BRANCH  77  81
ATOM     81  S   UNL     1     -10.032 -13.969  10.193  1.00  0.00     0.124 S 
ATOM     82  O   UNL     1     -10.896 -13.230  11.107  1.00  0.00    -0.237 OA
ATOM     83  O   UNL     1     -10.623 -14.344   8.913  1.00  0.00    -0.237 OA
ATOM     84  O   UNL     1      -9.193 -14.991  10.814  1.00  0.00    -0.744 OA
ENDBRANCH  77  81
ENDBRANCH  50  74
BRANCH  62  85
ATOM     85  C   UNL     1     -12.952  -5.846  11.627  1.00  0.00     0.023 A 
ATOM     86  C   UNL     1     -12.383  -5.837  12.913  1.00  0.00     0.031 A 
ATOM     87  C   UNL     1     -14.353  -5.906  11.525  1.00  0.00     0.131 A 
ATOM     88  C   UNL     1     -13.209  -5.949  14.042  1.00  0.00     0.055 A 
ATOM     89  C   UNL     1     -15.172  -5.949  12.653  1.00  0.00     0.041 A 
ATOM     90  F   UNL     1     -14.951  -5.920  10.322  1.00  0.00    -0.206 F 
ATOM     91  C   UNL     1     -14.600  -5.986  13.921  1.00  0.00     0.022 A 
BRANCH  88  92
ATOM     92  S   UNL     1     -12.434  -6.144  15.671  1.00  0.00     0.124 S 
ATOM     93  O   UNL     1     -11.637  -7.352  15.485  1.00  0.00    -0.237 OA
ATOM     94  O   UNL     1     -11.684  -4.901  15.812  1.00  0.00    -0.237 OA
ATOM     95  O   UNL     1     -13.573  -6.287  16.577  1.00  0.00    -0.744 OA
ENDBRANCH  88  92
ENDBRANCH  62  85
ENDBRANCH  36  37
ENDBRANCH  28  31
ENDBRANCH  26  27
ENDBRANCH   1  26
TORSDOF 18
