REMARK SMILES C[C@H]1[C@H](C(=O)NCCCNC(=O)c2ccc(-c3c4nc(c(-c5cc(S(=O)(=O)[O-])ccc5F)c5ccc([nH]5)c(-c5cc(S(=O)(=O)[O-])ccc5F)c5nc(c(-c6cc(S(=O)(=O)[O-])ccc6F)c6ccc3[nH]6)C=C5)C=C4)cc2)CC[N@@H+]1Cc1ccc(C(F)(F)F)cc1
REMARK SMILES IDX 8 1 7 2 6 3 4 4 5 5 3 7 1 8 2 9 78 10 76 11 77 12 79 14
REMARK SMILES IDX 80 15 81 16 89 17 82 18 88 19 83 20 84 21 85 22 86 23 87 24
REMARK SMILES IDX 9 25 10 26 11 27 12 29 13 30 14 31 75 32 15 33 74 34 16 35
REMARK SMILES IDX 17 36 18 37 68 38 19 39 73 40 67 41 69 42 20 43 72 44 66 45
REMARK SMILES IDX 65 46 21 48 53 49 33 50 52 51 34 52 37 53 51 54 70 55 35 56
REMARK SMILES IDX 36 57 50 59 71 60 38 61 22 62 23 63 31 64 24 65 30 66 32 67
REMARK SMILES IDX 29 68 25 69 26 70 27 71 28 72 54 73 55 74 63 75 56 76 62 77
REMARK SMILES IDX 64 78 61 79 57 80 58 81 59 82 60 83 39 84 40 85 48 86 41 87
REMARK SMILES IDX 47 88 49 89 46 90 42 91 43 92 44 93 45 94
REMARK H PARENT 6 6 78 13 10 28 69 47 37 58
REMARK Flexibility Score: inf
ROOT
ATOM      1  C   UNL     1       0.475   1.032   4.095  1.00  0.00     0.042 C 
ENDROOT
BRANCH   1   2
ATOM      2  C   UNL     1      -0.511   1.584   3.068  1.00  0.00     0.117 C 
BRANCH   2   3
ATOM      3  N   UNL     1       0.090   2.569   2.200  1.00  0.00    -0.356 N 
ATOM      4  C   UNL     1       0.397   2.498   0.880  1.00  0.00     0.229 C 
ATOM      5  O   UNL     1       0.833   3.533   0.361  1.00  0.00    -0.275 OA
ATOM      6  H   UNL     1       0.310   3.425   2.633  1.00  0.00     0.163 HD
BRANCH   4   7
ATOM      7  C   UNL     1       0.175   1.262   0.013  1.00  0.00     0.142 C 
ATOM      8  C   UNL     1       2.016  -0.431  -0.173  1.00  0.00     0.076 C 
ATOM      9  C   UNL     1       0.681  -0.107   0.512  1.00  0.00     0.193 C 
ATOM     10  N   UNL     1      -0.321  -1.099   0.066  1.00  0.00    -0.328 N 
ATOM     11  C   UNL     1      -1.270   1.014  -0.391  1.00  0.00     0.081 C 
ATOM     12  C   UNL     1      -1.219  -0.431  -0.866  1.00  0.00     0.263 C 
ATOM     13  H   UNL     1       0.174  -1.843  -0.426  1.00  0.00     0.348 HD
BRANCH  10  14
ATOM     14  C   UNL     1      -0.910  -2.015   1.063  1.00  0.00     0.299 C 
BRANCH  14  15
ATOM     15  C   UNL     1      -1.951  -1.498   2.049  1.00  0.00     0.006 A 
ATOM     16  C   UNL     1      -1.744  -1.610   3.434  1.00  0.00     0.010 A 
ATOM     17  C   UNL     1      -3.151  -0.909   1.632  1.00  0.00     0.010 A 
ATOM     18  C   UNL     1      -2.596  -0.965   4.347  1.00  0.00     0.013 A 
ATOM     19  C   UNL     1      -3.979  -0.232   2.530  1.00  0.00     0.013 A 
ATOM     20  C   UNL     1      -3.678  -0.202   3.893  1.00  0.00     0.056 A 
BRANCH  20  21
ATOM     21  C   UNL     1      -4.441   0.716   4.820  1.00  0.00     0.416 C 
ATOM     22  F   UNL     1      -4.831   0.130   5.978  1.00  0.00    -0.166 F 
ATOM     23  F   UNL     1      -3.706   1.820   5.141  1.00  0.00    -0.166 F 
ATOM     24  F   UNL     1      -5.582   1.209   4.251  1.00  0.00    -0.166 F 
ENDBRANCH  20  21
ENDBRANCH  14  15
ENDBRANCH  10  14
ENDBRANCH   4   7
ENDBRANCH   2   3
ENDBRANCH   1   2
BRANCH   1  25
ATOM     25  C   UNL     1       0.461   1.782   5.423  1.00  0.00     0.118 C 
BRANCH  25  26
ATOM     26  N   UNL     1      -0.827   1.702   6.106  1.00  0.00    -0.352 N 
ATOM     27  C   UNL     1      -1.254   1.006   7.207  1.00  0.00     0.251 C 
ATOM     28  H   UNL     1      -1.528   2.258   5.694  1.00  0.00     0.163 HD
ATOM     29  O   UNL     1      -2.465   0.963   7.434  1.00  0.00    -0.269 OA
BRANCH  27  30
ATOM     30  C   UNL     1      -0.336   0.280   8.106  1.00  0.00     0.039 A 
ATOM     31  C   UNL     1      -0.814  -0.866   8.761  1.00  0.00     0.014 A 
ATOM     32  C   UNL     1       0.944   0.749   8.393  1.00  0.00     0.014 A 
ATOM     33  C   UNL     1       0.002  -1.554   9.662  1.00  0.00     0.010 A 
ATOM     34  C   UNL     1       1.791   0.008   9.209  1.00  0.00     0.010 A 
ATOM     35  C   UNL     1       1.322  -1.136   9.873  1.00  0.00    -0.014 A 
BRANCH  35  36
ATOM     36  C   UNL     1       2.223  -1.821  10.833  1.00  0.00     0.031 A 
ATOM     37  C   UNL     1       2.771  -1.047  12.003  1.00  0.00     0.074 A 
ATOM     38  C   UNL     1       2.616  -3.088  10.601  1.00  0.00     0.049 A 
ATOM     39  N   UNL     1       3.733  -1.358  12.831  1.00  0.00    -0.248 NA
ATOM     40  C   UNL     1       2.186   0.283  12.233  1.00  0.00     0.031 C 
ATOM     41  C   UNL     1       2.166  -3.923   9.485  1.00  0.00     0.029 A 
ATOM     42  N   UNL     1       3.503  -3.886  11.276  1.00  0.00    -0.354 N 
ATOM     43  C   UNL     1       3.898  -0.246  13.652  1.00  0.00     0.074 A 
ATOM     44  C   UNL     1       2.978   0.765  13.177  1.00  0.00     0.031 C 
ATOM     45  C   UNL     1       2.774  -5.117   9.557  1.00  0.00     0.029 A 
ATOM     46  C   UNL     1       3.696  -5.114  10.688  1.00  0.00     0.049 A 
ATOM     47  H   UNL     1       3.959  -3.606  12.102  1.00  0.00     0.167 HD
ATOM     48  C   UNL     1       4.729  -0.093  14.714  1.00  0.00     0.034 A 
ATOM     49  C   UNL     1       4.540  -6.112  11.011  1.00  0.00     0.034 A 
ATOM     50  C   UNL     1       5.610  -1.135  15.183  1.00  0.00     0.049 A 
ATOM     51  C   UNL     1       5.440  -5.931  12.206  1.00  0.00     0.074 A 
ATOM     52  C   UNL     1       6.466  -1.123  16.270  1.00  0.00     0.029 A 
ATOM     53  N   UNL     1       5.741  -2.387  14.591  1.00  0.00    -0.354 N 
ATOM     54  N   UNL     1       5.582  -4.879  12.981  1.00  0.00    -0.248 NA
ATOM     55  C   UNL     1       6.281  -7.074  12.577  1.00  0.00     0.031 C 
ATOM     56  C   UNL     1       7.150  -2.344  16.304  1.00  0.00     0.029 A 
ATOM     57  C   UNL     1       6.672  -3.148  15.281  1.00  0.00     0.049 A 
ATOM     58  H   UNL     1       5.243  -2.689  13.797  1.00  0.00     0.167 HD
ATOM     59  C   UNL     1       6.515  -5.244  13.947  1.00  0.00     0.074 A 
ATOM     60  C   UNL     1       6.880  -6.619  13.668  1.00  0.00     0.031 C 
ATOM     61  C   UNL     1       7.028  -4.513  14.971  1.00  0.00     0.034 A 
BRANCH  48  62
ATOM     62  C   UNL     1       4.731   1.252  15.407  1.00  0.00     0.023 A 
ATOM     63  C   UNL     1       3.573   1.778  16.008  1.00  0.00     0.031 A 
ATOM     64  C   UNL     1       5.891   2.048  15.420  1.00  0.00     0.131 A 
ATOM     65  C   UNL     1       3.570   3.090  16.503  1.00  0.00     0.055 A 
ATOM     66  C   UNL     1       5.908   3.319  16.001  1.00  0.00     0.041 A 
ATOM     67  F   UNL     1       7.025   1.615  14.847  1.00  0.00    -0.206 F 
ATOM     68  C   UNL     1       4.737   3.856  16.529  1.00  0.00     0.022 A 
BRANCH  65  69
ATOM     69  S   UNL     1       1.982   3.841  16.958  1.00  0.00     0.124 S 
ATOM     70  O   UNL     1       1.253   3.769  15.693  1.00  0.00    -0.237 OA
ATOM     71  O   UNL     1       1.508   2.957  18.019  1.00  0.00    -0.237 OA
ATOM     72  O   UNL     1       2.348   5.188  17.384  1.00  0.00    -0.744 OA
ENDBRANCH  65  69
ENDBRANCH  48  62
BRANCH  49  73
ATOM     73  C   UNL     1       4.584  -7.357  10.192  1.00  0.00     0.023 A 
ATOM     74  C   UNL     1       4.179  -8.589  10.728  1.00  0.00     0.031 A 
ATOM     75  C   UNL     1       5.046  -7.336   8.864  1.00  0.00     0.131 A 
ATOM     76  C   UNL     1       4.279  -9.756   9.955  1.00  0.00     0.055 A 
ATOM     77  C   UNL     1       5.098  -8.492   8.082  1.00  0.00     0.041 A 
ATOM     78  F   UNL     1       5.435  -6.182   8.297  1.00  0.00    -0.206 F 
ATOM     79  C   UNL     1       4.723  -9.714   8.632  1.00  0.00     0.022 A 
BRANCH  76  80
ATOM     80  S   UNL     1       3.883 -11.347  10.731  1.00  0.00     0.124 S 
ATOM     81  O   UNL     1       4.811 -11.370  11.855  1.00  0.00    -0.237 OA
ATOM     82  O   UNL     1       2.473 -11.176  11.066  1.00  0.00    -0.237 OA
ATOM     83  O   UNL     1       4.156 -12.318   9.673  1.00  0.00    -0.744 OA
ENDBRANCH  76  80
ENDBRANCH  49  73
BRANCH  61  84
ATOM     84  C   UNL     1       8.009  -5.216  15.876  1.00  0.00     0.023 A 
ATOM     85  C   UNL     1       9.270  -5.629  15.414  1.00  0.00     0.031 A 
ATOM     86  C   UNL     1       7.663  -5.503  17.207  1.00  0.00     0.131 A 
ATOM     87  C   UNL     1      10.113  -6.368  16.256  1.00  0.00     0.055 A 
ATOM     88  C   UNL     1       8.533  -6.181  18.061  1.00  0.00     0.041 A 
ATOM     89  F   UNL     1       6.470  -5.132  17.699  1.00  0.00    -0.206 F 
ATOM     90  C   UNL     1       9.760  -6.632  17.582  1.00  0.00     0.022 A 
BRANCH  87  91
ATOM     91  S   UNL     1      11.630  -7.077  15.560  1.00  0.00     0.124 S 
ATOM     92  O   UNL     1      11.110  -7.888  14.463  1.00  0.00    -0.237 OA
ATOM     93  O   UNL     1      12.381  -5.887  15.172  1.00  0.00    -0.237 OA
ATOM     94  O   UNL     1      12.198  -7.832  16.675  1.00  0.00    -0.744 OA
ENDBRANCH  87  91
ENDBRANCH  61  84
ENDBRANCH  35  36
ENDBRANCH  27  30
ENDBRANCH  25  26
ENDBRANCH   1  25
TORSDOF 16
