REMARK SMILES [NH3+][C@@H](CNc1ccc(C(=O)NCCCNC(=O)c2ccc(-c3c4nc(c(-c5cc(S(=O)(=O)[O-])ccc5F)c5ccc([nH]5)c(-c5cc(S(=O)(=O)[O-])ccc5F)c5nc(c(-c6cc(S(=O)(=O)[O-])ccc6F)c6ccc3[nH]6)C=C5)C=C4)cc2)c(F)c1F)c1ccccc1
REMARK SMILES IDX 12 1 11 2 9 3 10 4 8 6 5 7 6 8 83 9 7 10 81 11 84 12 82 13
REMARK SMILES IDX 4 14 3 16 2 17 1 18 85 22 86 23 90 24 87 25 89 26 88 27
REMARK SMILES IDX 13 28 14 29 15 30 16 31 17 33 18 34 19 35 80 36 20 37 79 38
REMARK SMILES IDX 21 39 22 40 23 41 73 42 24 43 78 44 72 45 74 46 25 47 77 48
REMARK SMILES IDX 71 49 70 50 26 52 58 53 38 54 57 55 39 56 42 57 56 58 75 59
REMARK SMILES IDX 40 60 41 61 55 63 76 64 43 65 27 66 28 67 36 68 29 69 35 70
REMARK SMILES IDX 37 71 34 72 30 73 31 74 32 75 33 76 59 77 60 78 68 79 61 80
REMARK SMILES IDX 67 81 69 82 66 83 62 84 63 85 64 86 65 87 44 88 45 89 53 90
REMARK SMILES IDX 46 91 52 92 54 93 51 94 47 95 48 96 49 97 50 98
REMARK H PARENT 11 5 4 15 1 19 1 20 1 21 15 32 74 51 42 62
REMARK Flexibility Score: inf
ROOT
ATOM      1  C   UNL     1      -4.744  -2.876   6.100  1.00  0.00     0.118 C 
ENDROOT
BRANCH   1   2
ATOM      2  N   UNL     1      -4.091  -4.152   5.886  1.00  0.00    -0.352 N 
ATOM      3  C   UNL     1      -2.985  -4.584   5.213  1.00  0.00     0.254 C 
ATOM      4  O   UNL     1      -2.776  -5.800   5.302  1.00  0.00    -0.269 OA
ATOM      5  H   UNL     1      -4.562  -4.890   6.337  1.00  0.00     0.163 HD
BRANCH   3   6
ATOM      6  C   UNL     1      -2.005  -3.769   4.434  1.00  0.00     0.078 A 
ATOM      7  C   UNL     1       0.103  -2.516   2.963  1.00  0.00     0.074 A 
ATOM      8  C   UNL     1       0.148  -3.878   3.236  1.00  0.00     0.030 A 
ATOM      9  C   UNL     1      -1.011  -1.802   3.418  1.00  0.00     0.182 A 
ATOM     10  C   UNL     1      -0.874  -4.485   3.975  1.00  0.00     0.019 A 
ATOM     11  C   UNL     1      -2.066  -2.419   4.101  1.00  0.00     0.173 A 
ATOM     12  F   UNL     1      -1.080  -0.483   3.164  1.00  0.00    -0.201 F 
ATOM     13  F   UNL     1      -3.132  -1.656   4.353  1.00  0.00    -0.203 F 
BRANCH   7  14
ATOM     14  N   UNL     1       1.079  -1.899   2.177  1.00  0.00    -0.376 N 
ATOM     15  H   UNL     1       1.645  -1.179   2.538  1.00  0.00     0.160 HD
BRANCH  14  16
ATOM     16  C   UNL     1       1.232  -2.365   0.790  1.00  0.00     0.183 C 
BRANCH  16  17
ATOM     17  C   UNL     1       0.521  -1.422  -0.242  1.00  0.00     0.231 C 
BRANCH  17  18
ATOM     18  N   UNL     1       1.087  -0.056  -0.145  1.00  0.00    -0.350 N 
ATOM     19  H   UNL     1       2.104  -0.104  -0.204  1.00  0.00     0.345 HD
ATOM     20  H   UNL     1       0.817   0.361   0.745  1.00  0.00     0.345 HD
ATOM     21  H   UNL     1       0.728   0.515  -0.911  1.00  0.00     0.345 HD
ENDBRANCH  17  18
BRANCH  17  22
ATOM     22  C   UNL     1      -1.006  -1.442  -0.162  1.00  0.00     0.011 A 
ATOM     23  C   UNL     1      -1.774  -0.264  -0.133  1.00  0.00     0.010 A 
ATOM     24  C   UNL     1      -1.700  -2.667  -0.156  1.00  0.00     0.010 A 
ATOM     25  C   UNL     1      -3.168  -0.306  -0.045  1.00  0.00     0.001 A 
ATOM     26  C   UNL     1      -3.095  -2.710  -0.069  1.00  0.00     0.001 A 
ATOM     27  C   UNL     1      -3.828  -1.530  -0.005  1.00  0.00     0.000 A 
ENDBRANCH  17  22
ENDBRANCH  16  17
ENDBRANCH  14  16
ENDBRANCH   7  14
ENDBRANCH   3   6
ENDBRANCH   1   2
BRANCH   1  28
ATOM     28  C   UNL     1      -5.905  -2.674   5.127  1.00  0.00     0.042 C 
BRANCH  28  29
ATOM     29  C   UNL     1      -7.189  -3.374   5.585  1.00  0.00     0.118 C 
BRANCH  29  30
ATOM     30  N   UNL     1      -7.700  -2.808   6.830  1.00  0.00    -0.352 N 
ATOM     31  C   UNL     1      -8.854  -2.112   7.090  1.00  0.00     0.251 C 
ATOM     32  H   UNL     1      -7.120  -2.948   7.613  1.00  0.00     0.163 HD
ATOM     33  O   UNL     1      -8.943  -1.479   8.139  1.00  0.00    -0.269 OA
BRANCH  31  34
ATOM     34  C   UNL     1      -9.977  -2.124   6.130  1.00  0.00     0.039 A 
ATOM     35  C   UNL     1     -10.728  -0.958   5.951  1.00  0.00     0.014 A 
ATOM     36  C   UNL     1     -10.330  -3.293   5.454  1.00  0.00     0.014 A 
ATOM     37  C   UNL     1     -11.797  -0.953   5.053  1.00  0.00     0.010 A 
ATOM     38  C   UNL     1     -11.343  -3.264   4.500  1.00  0.00     0.010 A 
ATOM     39  C   UNL     1     -12.094  -2.097   4.296  1.00  0.00    -0.014 A 
BRANCH  39  40
ATOM     40  C   UNL     1     -13.189  -2.098   3.292  1.00  0.00     0.031 A 
ATOM     41  C   UNL     1     -14.360  -3.028   3.454  1.00  0.00     0.074 A 
ATOM     42  C   UNL     1     -13.081  -1.323   2.195  1.00  0.00     0.049 A 
ATOM     43  N   UNL     1     -15.361  -3.251   2.643  1.00  0.00    -0.248 NA
ATOM     44  C   UNL     1     -14.382  -3.848   4.675  1.00  0.00     0.031 C 
ATOM     45  C   UNL     1     -11.960  -0.427   1.903  1.00  0.00     0.029 A 
ATOM     46  N   UNL     1     -13.912  -1.179   1.113  1.00  0.00    -0.354 N 
ATOM     47  C   UNL     1     -16.117  -4.255   3.240  1.00  0.00     0.074 A 
ATOM     48  C   UNL     1     -15.419  -4.639   4.449  1.00  0.00     0.031 C 
ATOM     49  C   UNL     1     -12.180   0.183   0.728  1.00  0.00     0.029 A 
ATOM     50  C   UNL     1     -13.430  -0.311   0.161  1.00  0.00     0.049 A 
ATOM     51  H   UNL     1     -14.771  -1.652   1.026  1.00  0.00     0.167 HD
ATOM     52  C   UNL     1     -17.293  -4.792   2.826  1.00  0.00     0.034 A 
ATOM     53  C   UNL     1     -13.927   0.033  -1.043  1.00  0.00     0.034 A 
ATOM     54  C   UNL     1     -17.976  -4.376   1.623  1.00  0.00     0.049 A 
ATOM     55  C   UNL     1     -15.239  -0.563  -1.482  1.00  0.00     0.074 A 
ATOM     56  C   UNL     1     -19.211  -4.781   1.149  1.00  0.00     0.029 A 
ATOM     57  N   UNL     1     -17.473  -3.471   0.695  1.00  0.00    -0.354 N 
ATOM     58  N   UNL     1     -15.985  -1.455  -0.870  1.00  0.00    -0.248 NA
ATOM     59  C   UNL     1     -15.782  -0.096  -2.762  1.00  0.00     0.031 C 
ATOM     60  C   UNL     1     -19.419  -4.183  -0.100  1.00  0.00     0.029 A 
ATOM     61  C   UNL     1     -18.354  -3.336  -0.368  1.00  0.00     0.049 A 
ATOM     62  H   UNL     1     -16.616  -2.995   0.779  1.00  0.00     0.167 HD
ATOM     63  C   UNL     1     -17.098  -1.641  -1.684  1.00  0.00     0.074 A 
ATOM     64  C   UNL     1     -16.932  -0.754  -2.818  1.00  0.00     0.031 C 
ATOM     65  C   UNL     1     -18.164  -2.464  -1.506  1.00  0.00     0.034 A 
BRANCH  52  66
ATOM     66  C   UNL     1     -17.884  -5.905   3.663  1.00  0.00     0.023 A 
ATOM     67  C   UNL     1     -18.229  -5.717   5.014  1.00  0.00     0.031 A 
ATOM     68  C   UNL     1     -18.055  -7.191   3.119  1.00  0.00     0.131 A 
ATOM     69  C   UNL     1     -18.625  -6.812   5.798  1.00  0.00     0.055 A 
ATOM     70  C   UNL     1     -18.543  -8.256   3.881  1.00  0.00     0.041 A 
ATOM     71  F   UNL     1     -17.728  -7.443   1.842  1.00  0.00    -0.206 F 
ATOM     72  C   UNL     1     -18.811  -8.075   5.234  1.00  0.00     0.022 A 
BRANCH  69  73
ATOM     73  S   UNL     1     -18.716  -6.598   7.598  1.00  0.00     0.124 S 
ATOM     74  O   UNL     1     -17.368  -6.127   7.907  1.00  0.00    -0.237 OA
ATOM     75  O   UNL     1     -19.785  -5.618   7.745  1.00  0.00    -0.237 OA
ATOM     76  O   UNL     1     -19.025  -7.940   8.087  1.00  0.00    -0.744 OA
ENDBRANCH  69  73
ENDBRANCH  52  66
BRANCH  53  77
ATOM     77  C   UNL     1     -13.172   0.974  -1.918  1.00  0.00     0.023 A 
ATOM     78  C   UNL     1     -13.664   2.256  -2.207  1.00  0.00     0.031 A 
ATOM     79  C   UNL     1     -11.935   0.600  -2.474  1.00  0.00     0.131 A 
ATOM     80  C   UNL     1     -12.937   3.109  -3.053  1.00  0.00     0.055 A 
ATOM     81  C   UNL     1     -11.194   1.469  -3.276  1.00  0.00     0.041 A 
ATOM     82  F   UNL     1     -11.415  -0.611  -2.219  1.00  0.00    -0.206 F 
ATOM     83  C   UNL     1     -11.699   2.729  -3.578  1.00  0.00     0.022 A 
BRANCH  80  84
ATOM     84  S   UNL     1     -13.659   4.710  -3.505  1.00  0.00     0.124 S 
ATOM     85  O   UNL     1     -14.897   4.304  -4.161  1.00  0.00    -0.237 OA
ATOM     86  O   UNL     1     -13.804   5.355  -2.204  1.00  0.00    -0.237 OA
ATOM     87  O   UNL     1     -12.652   5.303  -4.382  1.00  0.00    -0.744 OA
ENDBRANCH  80  84
ENDBRANCH  53  77
BRANCH  65  88
ATOM     88  C   UNL     1     -19.249  -2.415  -2.554  1.00  0.00     0.023 A 
ATOM     89  C   UNL     1     -19.026  -2.846  -3.874  1.00  0.00     0.031 A 
ATOM     90  C   UNL     1     -20.525  -1.921  -2.227  1.00  0.00     0.131 A 
ATOM     91  C   UNL     1     -20.045  -2.724  -4.831  1.00  0.00     0.055 A 
ATOM     92  C   UNL     1     -21.555  -1.863  -3.167  1.00  0.00     0.041 A 
ATOM     93  F   UNL     1     -20.794  -1.492  -0.984  1.00  0.00    -0.206 F 
ATOM     94  C   UNL     1     -21.314  -2.253  -4.481  1.00  0.00     0.022 A 
BRANCH  91  95
ATOM     95  S   UNL     1     -19.662  -3.097  -6.564  1.00  0.00     0.124 S 
ATOM     96  O   UNL     1     -18.571  -2.168  -6.839  1.00  0.00    -0.237 OA
ATOM     97  O   UNL     1     -19.299  -4.509  -6.507  1.00  0.00    -0.237 OA
ATOM     98  O   UNL     1     -20.914  -2.807  -7.262  1.00  0.00    -0.744 OA
ENDBRANCH  91  95
ENDBRANCH  65  88
ENDBRANCH  39  40
ENDBRANCH  31  34
ENDBRANCH  29  30
ENDBRANCH  28  29
ENDBRANCH   1  28
TORSDOF 18
