REMARK SMILES CC1(C)CC[C@@]2(C(=O)NCCCNC(=O)c3ccc(-c4c5nc(c(-c6cc(S(=O)(=O)[O-])ccc6F)c6ccc([nH]6)c(-c6cc(S(=O)(=O)[O-])ccc6F)c6nc(c(-c7cc(S(=O)(=O)[O-])ccc7F)c7ccc4[nH]7)C=C6)C=C5)cc3)CC[C@@]3(C)C(=CC[C@H]4[C@@]5(C)CC[C@H](O)C(C)(C)[C@@H]5CC[C@]43C)[C@@H]2C1
REMARK SMILES IDX 12 1 11 2 10 3 9 4 7 5 8 6 6 8 1 9 2 10 3 11 4 12 102 13
REMARK SMILES IDX 5 14 101 15 83 16 79 17 81 18 84 19 80 20 82 21 99 22 85 23
REMARK SMILES IDX 86 24 98 25 100 26 87 27 97 28 88 29 89 30 96 31 90 32 93 33
REMARK SMILES IDX 91 34 94 35 95 36 92 37 13 39 14 40 15 42 16 43 17 44 78 45
REMARK SMILES IDX 18 46 77 47 19 48 20 49 21 50 71 51 22 52 76 53 70 54 72 55
REMARK SMILES IDX 23 56 75 57 69 58 68 59 24 61 56 62 36 63 55 64 37 65 40 66
REMARK SMILES IDX 54 67 73 68 38 69 39 70 53 72 74 73 41 74 25 75 26 76 34 77
REMARK SMILES IDX 27 78 33 79 35 80 32 81 28 82 29 83 30 84 31 85 57 86 58 87
REMARK SMILES IDX 66 88 59 89 65 90 67 91 64 92 60 93 61 94 62 95 63 96 42 97
REMARK SMILES IDX 43 98 51 99 44 100 50 101 52 102 49 103 45 104 46 105 47 106
REMARK SMILES IDX 48 107
REMARK H PARENT 9 7 92 38 13 41 72 60 40 71
REMARK Flexibility Score: inf
ROOT
ATOM      1  C   UNL     1      -2.451   0.998   3.581  1.00  0.00     0.118 C 
ENDROOT
BRANCH   1   2
ATOM      2  C   UNL     1      -2.252  -0.421   3.071  1.00  0.00     0.042 C 
BRANCH   2   3
ATOM      3  C   UNL     1      -1.057  -0.744   2.200  1.00  0.00     0.117 C 
BRANCH   3   4
ATOM      4  N   UNL     1       0.279  -0.443   2.654  1.00  0.00    -0.356 N 
ATOM      5  C   UNL     1       1.311  -1.344   2.857  1.00  0.00     0.226 C 
ATOM      6  O   UNL     1       1.107  -2.483   3.272  1.00  0.00    -0.274 OA
ATOM      7  H   UNL     1       0.478   0.503   2.839  1.00  0.00     0.163 HD
BRANCH   5   8
ATOM      8  C   UNL     1       2.731  -0.918   2.325  1.00  0.00     0.056 C 
ATOM      9  C   UNL     1       2.483  -0.150  -1.672  1.00  0.00     0.011 C 
ATOM     10  C   UNL     1       1.615  -0.300  -0.409  1.00  0.00    -0.035 C 
ATOM     11  C   UNL     1       0.141  -0.177  -0.906  1.00  0.00     0.011 C 
ATOM     12  C   UNL     1       1.823  -1.736   0.113  1.00  0.00     0.007 C 
ATOM     13  C   UNL     1       1.968   0.861   0.623  1.00  0.00     0.015 C 
ATOM     14  C   UNL     1       2.967  -1.838   1.105  1.00  0.00     0.018 C 
ATOM     15  C   UNL     1       2.872   0.566   1.902  1.00  0.00     0.031 C 
ATOM     16  C   UNL     1       2.687   1.423   3.221  1.00  0.00    -0.064 C 
ATOM     17  C   UNL     1       3.857  -1.226   3.335  1.00  0.00     0.018 C 
ATOM     18  C   UNL     1       3.562   1.102   4.485  1.00  0.00    -0.006 C 
ATOM     19  C   UNL     1       1.642   2.260   3.337  1.00  0.00    -0.027 C 
ATOM     20  C   UNL     1       3.728  -0.430   4.628  1.00  0.00     0.013 C 
ATOM     21  C   UNL     1       4.984   1.691   4.218  1.00  0.00     0.017 C 
ATOM     22  C   UNL     1       2.968   1.786   5.878  1.00  0.00    -0.020 C 
ATOM     23  C   UNL     1       0.870   2.446   4.614  1.00  0.00     0.032 C 
ATOM     24  C   UNL     1       1.397   1.763   5.900  1.00  0.00     0.006 C 
ATOM     25  C   UNL     1       3.544   1.224   7.230  1.00  0.00     0.008 C 
ATOM     26  C   UNL     1       3.365   3.321   5.904  1.00  0.00     0.012 C 
ATOM     27  C   UNL     1       0.572   0.538   6.657  1.00  0.00    -0.025 C 
ATOM     28  C   UNL     1       2.502   0.738   8.270  1.00  0.00     0.005 C 
ATOM     29  C   UNL     1      -0.562   1.299   7.419  1.00  0.00     0.012 C 
ATOM     30  C   UNL     1      -0.166  -0.517   5.801  1.00  0.00     0.010 C 
ATOM     31  C   UNL     1       1.550  -0.235   7.585  1.00  0.00     0.003 C 
ATOM     32  C   UNL     1      -0.319  -1.993   6.246  1.00  0.00     0.033 C 
ATOM     33  C   UNL     1       0.980  -1.476   8.367  1.00  0.00    -0.006 C 
ATOM     34  C   UNL     1       0.687  -2.530   7.261  1.00  0.00     0.120 C 
ATOM     35  C   UNL     1      -0.296  -1.250   9.199  1.00  0.00     0.014 C 
ATOM     36  C   UNL     1       2.028  -2.054   9.344  1.00  0.00     0.014 C 
BRANCH  34  37
ATOM     37  O   UNL     1       0.212  -3.747   7.842  1.00  0.00    -0.393 OA
ATOM     38  H   UNL     1      -0.618  -3.578   8.314  1.00  0.00     0.210 HD
ENDBRANCH  34  37
ENDBRANCH   5   8
ENDBRANCH   3   4
ENDBRANCH   2   3
ENDBRANCH   1   2
BRANCH   1  39
ATOM     39  N   UNL     1      -2.345   2.090   2.623  1.00  0.00    -0.352 N 
ATOM     40  C   UNL     1      -3.199   3.186   2.493  1.00  0.00     0.251 C 
ATOM     41  H   UNL     1      -1.586   2.051   1.998  1.00  0.00     0.163 HD
ATOM     42  O   UNL     1      -3.006   4.047   1.685  1.00  0.00    -0.269 OA
BRANCH  40  43
ATOM     43  C   UNL     1      -4.392   3.194   3.377  1.00  0.00     0.039 A 
ATOM     44  C   UNL     1      -5.645   2.982   2.803  1.00  0.00     0.014 A 
ATOM     45  C   UNL     1      -4.214   3.147   4.760  1.00  0.00     0.014 A 
ATOM     46  C   UNL     1      -6.713   2.610   3.622  1.00  0.00     0.010 A 
ATOM     47  C   UNL     1      -5.247   2.658   5.550  1.00  0.00     0.010 A 
ATOM     48  C   UNL     1      -6.509   2.380   4.994  1.00  0.00    -0.014 A 
BRANCH  48  49
ATOM     49  C   UNL     1      -7.604   1.863   5.863  1.00  0.00     0.031 A 
ATOM     50  C   UNL     1      -8.018   2.651   7.078  1.00  0.00     0.074 A 
ATOM     51  C   UNL     1      -8.171   0.664   5.614  1.00  0.00     0.049 A 
ATOM     52  N   UNL     1      -8.878   2.346   8.015  1.00  0.00    -0.248 NA
ATOM     53  C   UNL     1      -7.321   3.927   7.298  1.00  0.00     0.031 C 
ATOM     54  C   UNL     1      -7.799  -0.245   4.526  1.00  0.00     0.029 A 
ATOM     55  N   UNL     1      -9.182  -0.003   6.263  1.00  0.00    -0.354 N 
ATOM     56  C   UNL     1      -8.797   3.377   8.946  1.00  0.00     0.074 A 
ATOM     57  C   UNL     1      -7.726   4.246   8.514  1.00  0.00     0.031 C 
ATOM     58  C   UNL     1      -8.596  -1.325   4.559  1.00  0.00     0.029 A 
ATOM     59  C   UNL     1      -9.512  -1.210   5.689  1.00  0.00     0.049 A 
ATOM     60  H   UNL     1      -9.630   0.351   7.065  1.00  0.00     0.167 HD
ATOM     61  C   UNL     1      -9.577   3.612  10.031  1.00  0.00     0.034 A 
ATOM     62  C   UNL     1     -10.447  -2.119   6.034  1.00  0.00     0.034 A 
ATOM     63  C   UNL     1     -10.665   2.753  10.424  1.00  0.00     0.049 A 
ATOM     64  C   UNL     1     -11.335  -1.829   7.218  1.00  0.00     0.074 A 
ATOM     65  C   UNL     1     -11.563   2.912  11.464  1.00  0.00     0.029 A 
ATOM     66  N   UNL     1     -11.005   1.566   9.784  1.00  0.00    -0.354 N 
ATOM     67  N   UNL     1     -11.295  -0.813   8.050  1.00  0.00    -0.248 NA
ATOM     68  C   UNL     1     -12.404  -2.795   7.498  1.00  0.00     0.031 C 
ATOM     69  C   UNL     1     -12.410   1.798  11.486  1.00  0.00     0.029 A 
ATOM     70  C   UNL     1     -12.088   0.976  10.417  1.00  0.00     0.049 A 
ATOM     71  H   UNL     1     -10.544   1.198   8.997  1.00  0.00     0.167 HD
ATOM     72  C   UNL     1     -12.349  -1.007   8.939  1.00  0.00     0.074 A 
ATOM     73  C   UNL     1     -13.016  -2.226   8.527  1.00  0.00     0.031 C 
ATOM     74  C   UNL     1     -12.733  -0.247   9.997  1.00  0.00     0.034 A 
BRANCH  61  75
ATOM     75  C   UNL     1      -9.257   4.844  10.849  1.00  0.00     0.023 A 
ATOM     76  C   UNL     1      -9.269   6.129  10.271  1.00  0.00     0.031 A 
ATOM     77  C   UNL     1      -8.844   4.734  12.187  1.00  0.00     0.131 A 
ATOM     78  C   UNL     1      -8.751   7.222  10.980  1.00  0.00     0.055 A 
ATOM     79  C   UNL     1      -8.435   5.849  12.925  1.00  0.00     0.041 A 
ATOM     80  F   UNL     1      -8.796   3.538  12.793  1.00  0.00    -0.206 F 
ATOM     81  C   UNL     1      -8.360   7.098  12.313  1.00  0.00     0.022 A 
BRANCH  78  82
ATOM     82  S   UNL     1      -8.399   8.749  10.064  1.00  0.00     0.124 S 
ATOM     83  O   UNL     1      -7.468   8.271   9.043  1.00  0.00    -0.237 OA
ATOM     84  O   UNL     1      -9.719   9.145   9.589  1.00  0.00    -0.237 OA
ATOM     85  O   UNL     1      -7.808   9.625  11.073  1.00  0.00    -0.744 OA
ENDBRANCH  78  82
ENDBRANCH  61  75
BRANCH  62  86
ATOM     86  C   UNL     1     -10.601  -3.379   5.249  1.00  0.00     0.023 A 
ATOM     87  C   UNL     1     -11.751  -3.626   4.481  1.00  0.00     0.031 A 
ATOM     88  C   UNL     1      -9.599  -4.366   5.268  1.00  0.00     0.131 A 
ATOM     89  C   UNL     1     -11.887  -4.843   3.792  1.00  0.00     0.055 A 
ATOM     90  C   UNL     1      -9.720  -5.556   4.546  1.00  0.00     0.041 A 
ATOM     91  F   UNL     1      -8.475  -4.176   5.976  1.00  0.00    -0.206 F 
ATOM     92  C   UNL     1     -10.874  -5.804   3.810  1.00  0.00     0.022 A 
BRANCH  89  93
ATOM     93  S   UNL     1     -13.438  -5.179   2.910  1.00  0.00     0.124 S 
ATOM     94  O   UNL     1     -14.415  -5.114   3.990  1.00  0.00    -0.237 OA
ATOM     95  O   UNL     1     -13.477  -4.089   1.941  1.00  0.00    -0.237 OA
ATOM     96  O   UNL     1     -13.224  -6.508   2.340  1.00  0.00    -0.744 OA
ENDBRANCH  89  93
ENDBRANCH  62  86
BRANCH  74  97
ATOM     97  C   UNL     1     -13.955  -0.699  10.757  1.00  0.00     0.023 A 
ATOM     98  C   UNL     1     -13.960  -1.882  11.515  1.00  0.00     0.031 A 
ATOM     99  C   UNL     1     -15.132   0.070  10.720  1.00  0.00     0.131 A 
ATOM    100  C   UNL     1     -15.135  -2.291  12.163  1.00  0.00     0.055 A 
ATOM    101  C   UNL     1     -16.280  -0.311  11.416  1.00  0.00     0.041 A 
ATOM    102  F   UNL     1     -15.183   1.209  10.011  1.00  0.00    -0.206 F 
ATOM    103  C   UNL     1     -16.290  -1.504  12.132  1.00  0.00     0.022 A 
BRANCH 100 104
ATOM    104  S   UNL     1     -15.163  -3.913  12.973  1.00  0.00     0.124 S 
ATOM    105  O   UNL     1     -14.829  -4.809  11.870  1.00  0.00    -0.237 OA
ATOM    106  O   UNL     1     -14.142  -3.764  14.005  1.00  0.00    -0.237 OA
ATOM    107  O   UNL     1     -16.533  -4.025  13.469  1.00  0.00    -0.744 OA
ENDBRANCH 100 104
ENDBRANCH  74  97
ENDBRANCH  48  49
ENDBRANCH  40  43
ENDBRANCH   1  39
TORSDOF 14
