REMARK SMILES O=C(NCCCNC(=O)[C@@H]1CN(C(=O)CCC(F)(F)F)C[C@H]1c1ccc2c(c1)OCO2)c1ccc(-c2c3nc(c(-c4cc(S(=O)(=O)[O-])ccc4F)c4ccc([nH]4)c(-c4cc(S(=O)(=O)[O-])ccc4F)c4nc(c(-c5cc(S(=O)(=O)[O-])ccc5F)c5ccc2[nH]5)C=C4)C=C3)cc1
REMARK SMILES IDX 5 1 4 2 3 3 1 4 2 5 32 7 33 8 94 9 34 10 93 11 35 12 36 13
REMARK SMILES IDX 37 14 87 15 38 16 92 17 86 18 88 19 39 20 91 21 85 22 84 23
REMARK SMILES IDX 40 25 72 26 52 27 71 28 53 29 56 30 70 31 89 32 54 33 55 34
REMARK SMILES IDX 69 36 90 37 57 38 41 39 42 40 50 41 43 42 49 43 51 44 48 45
REMARK SMILES IDX 44 46 45 47 46 48 47 49 73 50 74 51 82 52 75 53 81 54 83 55
REMARK SMILES IDX 80 56 76 57 77 58 78 59 79 60 58 61 59 62 67 63 60 64 66 65
REMARK SMILES IDX 68 66 65 67 61 68 62 69 63 70 64 71 6 72 7 73 8 74 9 76
REMARK SMILES IDX 10 77 11 78 22 79 12 80 21 81 23 82 24 83 28 84 25 85 27 86
REMARK SMILES IDX 26 87 29 88 31 89 30 90 13 91 14 92 15 93 16 94 17 95 18 96
REMARK SMILES IDX 19 97 20 98
REMARK H PARENT 3 6 88 24 56 35 7 75
REMARK Flexibility Score: inf
ROOT
ATOM      1  C   UNL     1       4.953   1.460   1.888  1.00  0.00     0.042 C 
ENDROOT
BRANCH   1   2
ATOM      2  C   UNL     1       4.499   0.110   1.355  1.00  0.00     0.118 C 
BRANCH   2   3
ATOM      3  N   UNL     1       3.059   0.021   1.153  1.00  0.00    -0.352 N 
ATOM      4  O   UNL     1       1.104  -0.012   0.046  1.00  0.00    -0.269 OA
ATOM      5  C   UNL     1       2.325  -0.093  -0.006  1.00  0.00     0.251 C 
ATOM      6  H   UNL     1       2.524   0.048   1.980  1.00  0.00     0.163 HD
BRANCH   5   7
ATOM      7  C   UNL     1       3.001  -0.289  -1.311  1.00  0.00     0.039 A 
ATOM      8  C   UNL     1       4.081  -1.162  -1.439  1.00  0.00     0.014 A 
ATOM      9  C   UNL     1       2.526   0.396  -2.435  1.00  0.00     0.014 A 
ATOM     10  C   UNL     1       4.791  -1.218  -2.633  1.00  0.00     0.010 A 
ATOM     11  C   UNL     1       3.177   0.253  -3.666  1.00  0.00     0.010 A 
ATOM     12  C   UNL     1       4.336  -0.530  -3.769  1.00  0.00    -0.014 A 
BRANCH  12  13
ATOM     13  C   UNL     1       5.055  -0.705  -5.059  1.00  0.00     0.031 A 
ATOM     14  C   UNL     1       5.723   0.456  -5.745  1.00  0.00     0.074 A 
ATOM     15  C   UNL     1       5.133  -1.941  -5.592  1.00  0.00     0.049 A 
ATOM     16  N   UNL     1       6.391   0.476  -6.870  1.00  0.00    -0.248 NA
ATOM     17  C   UNL     1       5.620   1.767  -5.087  1.00  0.00     0.031 C 
ATOM     18  C   UNL     1       4.525  -3.144  -5.015  1.00  0.00     0.029 A 
ATOM     19  N   UNL     1       5.766  -2.401  -6.718  1.00  0.00    -0.354 N 
ATOM     20  C   UNL     1       6.778   1.798  -7.066  1.00  0.00     0.074 A 
ATOM     21  C   UNL     1       6.235   2.556  -5.957  1.00  0.00     0.031 C 
ATOM     22  C   UNL     1       4.861  -4.207  -5.757  1.00  0.00     0.029 A 
ATOM     23  C   UNL     1       5.635  -3.757  -6.907  1.00  0.00     0.049 A 
ATOM     24  H   UNL     1       6.266  -1.817  -7.332  1.00  0.00     0.167 HD
ATOM     25  C   UNL     1       7.522   2.324  -8.071  1.00  0.00     0.034 A 
ATOM     26  C   UNL     1       6.062  -4.552  -7.907  1.00  0.00     0.034 A 
ATOM     27  C   UNL     1       8.053   1.549  -9.170  1.00  0.00     0.049 A 
ATOM     28  C   UNL     1       6.835  -3.933  -9.039  1.00  0.00     0.074 A 
ATOM     29  C   UNL     1       8.836   1.978 -10.229  1.00  0.00     0.029 A 
ATOM     30  N   UNL     1       7.850   0.187  -9.358  1.00  0.00    -0.354 N 
ATOM     31  N   UNL     1       7.193  -2.680  -9.205  1.00  0.00    -0.248 NA
ATOM     32  C   UNL     1       7.259  -4.832 -10.117  1.00  0.00     0.031 C 
ATOM     33  C   UNL     1       9.045   0.895 -11.091  1.00  0.00     0.029 A 
ATOM     34  C   UNL     1       8.462  -0.231 -10.532  1.00  0.00     0.049 A 
ATOM     35  H   UNL     1       7.344  -0.397  -8.748  1.00  0.00     0.167 HD
ATOM     36  C   UNL     1       7.902  -2.647 -10.401  1.00  0.00     0.074 A 
ATOM     37  C   UNL     1       7.939  -4.007 -10.899  1.00  0.00     0.031 C 
ATOM     38  C   UNL     1       8.473  -1.587 -11.029  1.00  0.00     0.034 A 
BRANCH  25  39
ATOM     39  C   UNL     1       7.767   3.816  -8.052  1.00  0.00     0.023 A 
ATOM     40  C   UNL     1       8.506   4.434  -7.028  1.00  0.00     0.031 A 
ATOM     41  C   UNL     1       7.240   4.635  -9.067  1.00  0.00     0.131 A 
ATOM     42  C   UNL     1       8.640   5.831  -7.005  1.00  0.00     0.055 A 
ATOM     43  C   UNL     1       7.443   6.017  -9.080  1.00  0.00     0.041 A 
ATOM     44  F   UNL     1       6.509   4.107 -10.061  1.00  0.00    -0.206 F 
ATOM     45  C   UNL     1       8.135   6.625  -8.037  1.00  0.00     0.022 A 
BRANCH  42  46
ATOM     46  S   UNL     1       9.366   6.609  -5.535  1.00  0.00     0.124 S 
ATOM     47  O   UNL     1       8.479   6.128  -4.478  1.00  0.00    -0.237 OA
ATOM     48  O   UNL     1      10.720   6.067  -5.528  1.00  0.00    -0.237 OA
ATOM     49  O   UNL     1       9.266   8.039  -5.819  1.00  0.00    -0.744 OA
ENDBRANCH  42  46
ENDBRANCH  25  39
BRANCH  26  50
ATOM     50  C   UNL     1       5.734  -6.005  -7.901  1.00  0.00     0.023 A 
ATOM     51  C   UNL     1       6.743  -6.977  -7.821  1.00  0.00     0.031 A 
ATOM     52  C   UNL     1       4.401  -6.444  -7.996  1.00  0.00     0.131 A 
ATOM     53  C   UNL     1       6.407  -8.338  -7.874  1.00  0.00     0.055 A 
ATOM     54  C   UNL     1       4.067  -7.798  -7.990  1.00  0.00     0.041 A 
ATOM     55  F   UNL     1       3.397  -5.555  -8.071  1.00  0.00    -0.206 F 
ATOM     56  C   UNL     1       5.075  -8.755  -7.942  1.00  0.00     0.022 A 
BRANCH  53  57
ATOM     57  S   UNL     1       7.744  -9.561  -7.931  1.00  0.00     0.124 S 
ATOM     58  O   UNL     1       8.476  -9.146  -9.122  1.00  0.00    -0.237 OA
ATOM     59  O   UNL     1       8.414  -9.336  -6.654  1.00  0.00    -0.237 OA
ATOM     60  O   UNL     1       7.036 -10.834  -8.045  1.00  0.00    -0.744 OA
ENDBRANCH  53  57
ENDBRANCH  26  50
BRANCH  38  61
ATOM     61  C   UNL     1       9.215  -1.878 -12.309  1.00  0.00     0.023 A 
ATOM     62  C   UNL     1       8.547  -2.308 -13.470  1.00  0.00     0.031 A 
ATOM     63  C   UNL     1      10.614  -1.749 -12.360  1.00  0.00     0.131 A 
ATOM     64  C   UNL     1       9.284  -2.650 -14.614  1.00  0.00     0.055 A 
ATOM     65  C   UNL     1      11.336  -2.032 -13.521  1.00  0.00     0.041 A 
ATOM     66  F   UNL     1      11.303  -1.347 -11.280  1.00  0.00    -0.206 F 
ATOM     67  C   UNL     1      10.672  -2.498 -14.652  1.00  0.00     0.022 A 
BRANCH  64  68
ATOM     68  S   UNL     1       8.412  -3.385 -16.024  1.00  0.00     0.124 S 
ATOM     69  O   UNL     1       7.823  -4.580 -15.427  1.00  0.00    -0.237 OA
ATOM     70  O   UNL     1       7.475  -2.331 -16.397  1.00  0.00    -0.237 OA
ATOM     71  O   UNL     1       9.477  -3.637 -16.992  1.00  0.00    -0.744 OA
ENDBRANCH  64  68
ENDBRANCH  38  61
ENDBRANCH  12  13
ENDBRANCH   5   7
ENDBRANCH   2   3
ENDBRANCH   1   2
BRANCH   1  72
ATOM     72  C   UNL     1       4.466   1.786   3.292  1.00  0.00     0.117 C 
BRANCH  72  73
ATOM     73  N   UNL     1       4.858   0.793   4.280  1.00  0.00    -0.356 N 
ATOM     74  C   UNL     1       5.617   0.884   5.402  1.00  0.00     0.225 C 
ATOM     75  H   UNL     1       4.509  -0.110   4.103  1.00  0.00     0.163 HD
ATOM     76  O   UNL     1       5.702  -0.129   6.103  1.00  0.00    -0.275 OA
BRANCH  74  77
ATOM     77  C   UNL     1       6.338   2.154   5.819  1.00  0.00     0.107 C 
ATOM     78  C   UNL     1       5.366   3.285   6.101  1.00  0.00     0.133 C 
ATOM     79  C   UNL     1       7.382   2.668   4.803  1.00  0.00     0.053 C 
ATOM     80  N   UNL     1       5.892   4.457   5.435  1.00  0.00    -0.341 N 
ATOM     81  C   UNL     1       7.169   4.193   4.793  1.00  0.00     0.128 C 
BRANCH  79  82
ATOM     82  C   UNL     1       8.780   2.145   5.137  1.00  0.00    -0.038 A 
ATOM     83  C   UNL     1       8.987   0.739   5.161  1.00  0.00     0.008 A 
ATOM     84  C   UNL     1       9.867   2.978   5.451  1.00  0.00     0.054 A 
ATOM     85  C   UNL     1      10.208   0.175   5.550  1.00  0.00     0.051 A 
ATOM     86  C   UNL     1      11.059   2.395   5.837  1.00  0.00     0.166 A 
ATOM     87  C   UNL     1      11.223   1.033   5.896  1.00  0.00     0.165 A 
ATOM     88  O   UNL     1      12.179   3.068   6.219  1.00  0.00    -0.454 OA
ATOM     89  O   UNL     1      12.460   0.674   6.328  1.00  0.00    -0.454 OA
ATOM     90  C   UNL     1      13.057   1.970   6.538  1.00  0.00     0.468 C 
ENDBRANCH  79  82
BRANCH  80  91
ATOM     91  C   UNL     1       5.370   5.729   5.449  1.00  0.00     0.222 C 
ATOM     92  O   UNL     1       5.918   6.670   4.874  1.00  0.00    -0.275 OA
BRANCH  91  93
ATOM     93  C   UNL     1       4.076   5.966   6.202  1.00  0.00     0.109 C 
BRANCH  93  94
ATOM     94  C   UNL     1       2.920   6.265   5.255  1.00  0.00     0.125 C 
BRANCH  94  95
ATOM     95  C   UNL     1       2.459   5.042   4.499  1.00  0.00     0.389 C 
ATOM     96  F   UNL     1       2.148   4.039   5.352  1.00  0.00    -0.171 F 
ATOM     97  F   UNL     1       1.352   5.313   3.777  1.00  0.00    -0.171 F 
ATOM     98  F   UNL     1       3.399   4.582   3.653  1.00  0.00    -0.171 F 
ENDBRANCH  94  95
ENDBRANCH  93  94
ENDBRANCH  91  93
ENDBRANCH  80  91
ENDBRANCH  74  77
ENDBRANCH  72  73
ENDBRANCH   1  72
TORSDOF 18
