REMARK SMILES C[C@@H]([NH2+]C1(CO)CCCCC1)[C@@H](C)C(=O)NCCCNC(=O)c1ccc(-c2c3nc(c(-c4cc(S(=O)(=O)[O-])ccc4F)c4ccc([nH]4)c(-c4cc(S(=O)(=O)[O-])ccc4F)c4nc(c(-c5cc(S(=O)(=O)[O-])ccc5F)c5ccc2[nH]5)C=C4)C=C3)cc1
REMARK SMILES IDX 17 1 16 2 14 3 15 4 12 6 13 7 2 8 1 9 3 10 4 13 7 14 11 15
REMARK SMILES IDX 8 16 10 17 9 18 5 19 6 20 18 22 19 23 20 24 21 25 22 27
REMARK SMILES IDX 23 28 24 29 85 30 25 31 84 32 26 33 27 34 28 35 78 36 29 37
REMARK SMILES IDX 83 38 77 39 79 40 30 41 82 42 76 43 75 44 31 46 63 47 43 48
REMARK SMILES IDX 62 49 44 50 47 51 61 52 80 53 45 54 46 55 60 57 81 58 48 59
REMARK SMILES IDX 32 60 33 61 41 62 34 63 40 64 42 65 39 66 35 67 36 68 37 69
REMARK SMILES IDX 38 70 64 71 65 72 73 73 66 74 72 75 74 76 71 77 67 78 68 79
REMARK SMILES IDX 69 80 70 81 49 82 50 83 58 84 51 85 57 86 59 87 56 88 52 89
REMARK SMILES IDX 53 90 54 91 55 92
REMARK H PARENT 16 5 3 11 3 12 6 21 20 26 79 45 47 56
REMARK Flexibility Score: inf
ROOT
ATOM      1  C   UNL     1      -0.340   0.168   4.232  1.00  0.00     0.117 C 
ENDROOT
BRANCH   1   2
ATOM      2  N   UNL     1      -1.377   1.044   3.717  1.00  0.00    -0.356 N 
ATOM      3  C   UNL     1      -1.869   1.258   2.472  1.00  0.00     0.228 C 
ATOM      4  O   UNL     1      -3.001   1.754   2.420  1.00  0.00    -0.275 OA
ATOM      5  H   UNL     1      -1.809   1.593   4.411  1.00  0.00     0.163 HD
BRANCH   3   6
ATOM      6  C   UNL     1      -1.155   0.866   1.181  1.00  0.00     0.133 C 
ATOM      7  C   UNL     1      -1.400  -0.636   0.976  1.00  0.00     0.024 C 
BRANCH   6   8
ATOM      8  C   UNL     1       0.318   1.364   1.041  1.00  0.00     0.192 C 
ATOM      9  C   UNL     1       1.137   0.416   0.135  1.00  0.00     0.076 C 
BRANCH   8  10
ATOM     10  N   UNL     1       0.465   2.714   0.417  1.00  0.00    -0.337 N 
ATOM     11  H   UNL     1      -0.276   2.799  -0.278  1.00  0.00     0.347 HD
ATOM     12  H   UNL     1       1.428   2.712   0.082  1.00  0.00     0.347 HD
BRANCH  10  13
ATOM     13  C   UNL     1       0.402   3.951   1.269  1.00  0.00     0.120 C 
ATOM     14  C   UNL     1       1.179   3.823   2.591  1.00  0.00     0.071 C 
ATOM     15  C   UNL     1       1.084   5.090   0.449  1.00  0.00     0.071 C 
ATOM     16  C   UNL     1       1.255   5.122   3.392  1.00  0.00     0.007 C 
ATOM     17  C   UNL     1       1.171   6.420   1.208  1.00  0.00     0.007 C 
ATOM     18  C   UNL     1       1.832   6.270   2.575  1.00  0.00     0.001 C 
BRANCH  13  19
ATOM     19  C   UNL     1      -1.083   4.344   1.504  1.00  0.00     0.224 C 
BRANCH  19  20
ATOM     20  O   UNL     1      -1.795   4.307   0.267  1.00  0.00    -0.390 OA
ATOM     21  H   UNL     1      -1.395   4.933  -0.356  1.00  0.00     0.210 HD
ENDBRANCH  19  20
ENDBRANCH  13  19
ENDBRANCH  10  13
ENDBRANCH   8  10
ENDBRANCH   6   8
ENDBRANCH   3   6
ENDBRANCH   1   2
BRANCH   1  22
ATOM     22  C   UNL     1       0.841   0.876   4.895  1.00  0.00     0.042 C 
BRANCH  22  23
ATOM     23  C   UNL     1       0.504   2.086   5.763  1.00  0.00     0.118 C 
BRANCH  23  24
ATOM     24  N   UNL     1      -0.137   1.731   7.013  1.00  0.00    -0.352 N 
ATOM     25  C   UNL     1       0.323   1.844   8.302  1.00  0.00     0.251 C 
ATOM     26  H   UNL     1      -1.040   1.349   6.925  1.00  0.00     0.163 HD
ATOM     27  O   UNL     1      -0.324   1.320   9.210  1.00  0.00    -0.269 OA
BRANCH  25  28
ATOM     28  C   UNL     1       1.589   2.550   8.609  1.00  0.00     0.039 A 
ATOM     29  C   UNL     1       2.471   1.965   9.523  1.00  0.00     0.014 A 
ATOM     30  C   UNL     1       1.896   3.797   8.055  1.00  0.00     0.014 A 
ATOM     31  C   UNL     1       3.676   2.600   9.841  1.00  0.00     0.010 A 
ATOM     32  C   UNL     1       3.127   4.401   8.325  1.00  0.00     0.010 A 
ATOM     33  C   UNL     1       4.028   3.812   9.228  1.00  0.00    -0.014 A 
BRANCH  33  34
ATOM     34  C   UNL     1       5.320   4.482   9.545  1.00  0.00     0.031 A 
ATOM     35  C   UNL     1       5.334   5.807  10.261  1.00  0.00     0.074 A 
ATOM     36  C   UNL     1       6.483   3.915   9.167  1.00  0.00     0.049 A 
ATOM     37  N   UNL     1       6.352   6.562  10.590  1.00  0.00    -0.248 NA
ATOM     38  C   UNL     1       4.026   6.363  10.632  1.00  0.00     0.031 C 
ATOM     39  C   UNL     1       6.609   2.643   8.453  1.00  0.00     0.029 A 
ATOM     40  N   UNL     1       7.780   4.334   9.330  1.00  0.00    -0.354 N 
ATOM     41  C   UNL     1       5.808   7.685  11.206  1.00  0.00     0.074 A 
ATOM     42  C   UNL     1       4.368   7.538  11.137  1.00  0.00     0.031 C 
ATOM     43  C   UNL     1       7.911   2.372   8.267  1.00  0.00     0.029 A 
ATOM     44  C   UNL     1       8.711   3.466   8.809  1.00  0.00     0.049 A 
ATOM     45  H   UNL     1       8.021   5.176   9.779  1.00  0.00     0.167 HD
ATOM     46  C   UNL     1       6.446   8.728  11.798  1.00  0.00     0.034 A 
ATOM     47  C   UNL     1      10.056   3.544   8.767  1.00  0.00     0.034 A 
ATOM     48  C   UNL     1       7.882   8.866  11.859  1.00  0.00     0.049 A 
ATOM     49  C   UNL     1      10.744   4.739   9.376  1.00  0.00     0.074 A 
ATOM     50  C   UNL     1       8.631   9.864  12.460  1.00  0.00     0.029 A 
ATOM     51  N   UNL     1       8.791   7.982  11.290  1.00  0.00    -0.354 N 
ATOM     52  N   UNL     1      10.216   5.777   9.981  1.00  0.00    -0.248 NA
ATOM     53  C   UNL     1      12.211   4.764   9.303  1.00  0.00     0.031 C 
ATOM     54  C   UNL     1       9.985   9.619  12.200  1.00  0.00     0.029 A 
ATOM     55  C   UNL     1      10.088   8.428  11.500  1.00  0.00     0.049 A 
ATOM     56  H   UNL     1       8.550   7.159  10.808  1.00  0.00     0.167 HD
ATOM     57  C   UNL     1      11.290   6.563  10.390  1.00  0.00     0.074 A 
ATOM     58  C   UNL     1      12.493   5.874   9.969  1.00  0.00     0.031 C 
ATOM     59  C   UNL     1      11.283   7.743  11.062  1.00  0.00     0.034 A 
BRANCH  46  60
ATOM     60  C   UNL     1       5.578   9.812  12.397  1.00  0.00     0.023 A 
ATOM     61  C   UNL     1       4.680   9.538  13.445  1.00  0.00     0.031 A 
ATOM     62  C   UNL     1       5.604  11.120  11.882  1.00  0.00     0.131 A 
ATOM     63  C   UNL     1       3.779  10.524  13.873  1.00  0.00     0.055 A 
ATOM     64  C   UNL     1       4.767  12.123  12.377  1.00  0.00     0.041 A 
ATOM     65  F   UNL     1       6.426  11.441  10.871  1.00  0.00    -0.206 F 
ATOM     66  C   UNL     1       3.833  11.823  13.364  1.00  0.00     0.022 A 
BRANCH  63  67
ATOM     67  S   UNL     1       2.421  10.032  14.971  1.00  0.00     0.124 S 
ATOM     68  O   UNL     1       1.777   8.978  14.189  1.00  0.00    -0.237 OA
ATOM     69  O   UNL     1       3.127   9.599  16.171  1.00  0.00    -0.237 OA
ATOM     70  O   UNL     1       1.636  11.257  15.114  1.00  0.00    -0.744 OA
ENDBRANCH  63  67
ENDBRANCH  46  60
BRANCH  47  71
ATOM     71  C   UNL     1      10.852   2.459   8.126  1.00  0.00     0.023 A 
ATOM     72  C   UNL     1      11.706   1.647   8.890  1.00  0.00     0.031 A 
ATOM     73  C   UNL     1      10.797   2.241   6.739  1.00  0.00     0.131 A 
ATOM     74  C   UNL     1      12.500   0.680   8.257  1.00  0.00     0.055 A 
ATOM     75  C   UNL     1      11.556   1.246   6.120  1.00  0.00     0.041 A 
ATOM     76  F   UNL     1       9.992   2.986   5.965  1.00  0.00    -0.206 F 
ATOM     77  C   UNL     1      12.422   0.466   6.879  1.00  0.00     0.022 A 
BRANCH  74  78
ATOM     78  S   UNL     1      13.689  -0.257   9.256  1.00  0.00     0.124 S 
ATOM     79  O   UNL     1      14.538   0.807   9.782  1.00  0.00    -0.237 OA
ATOM     80  O   UNL     1      12.818  -0.920  10.220  1.00  0.00    -0.237 OA
ATOM     81  O   UNL     1      14.326  -1.142   8.284  1.00  0.00    -0.744 OA
ENDBRANCH  74  78
ENDBRANCH  47  71
BRANCH  59  82
ATOM     82  C   UNL     1      12.624   8.334  11.422  1.00  0.00     0.023 A 
ATOM     83  C   UNL     1      13.506   8.825  10.443  1.00  0.00     0.031 A 
ATOM     84  C   UNL     1      13.033   8.386  12.767  1.00  0.00     0.131 A 
ATOM     85  C   UNL     1      14.774   9.296  10.818  1.00  0.00     0.055 A 
ATOM     86  C   UNL     1      14.274   8.907  13.139  1.00  0.00     0.041 A 
ATOM     87  F   UNL     1      12.233   7.928  13.743  1.00  0.00    -0.206 F 
ATOM     88  C   UNL     1      15.157   9.354  12.160  1.00  0.00     0.022 A 
BRANCH  85  89
ATOM     89  S   UNL     1      15.955   9.750   9.518  1.00  0.00     0.124 S 
ATOM     90  O   UNL     1      16.071   8.506   8.764  1.00  0.00    -0.237 OA
ATOM     91  O   UNL     1      15.267  10.844   8.839  1.00  0.00    -0.237 OA
ATOM     92  O   UNL     1      17.152  10.139  10.261  1.00  0.00    -0.744 OA
ENDBRANCH  85  89
ENDBRANCH  59  82
ENDBRANCH  33  34
ENDBRANCH  25  28
ENDBRANCH  23  24
ENDBRANCH  22  23
ENDBRANCH   1  22
TORSDOF 18
