REMARK SMILES COc1cccc(CC2(CO)CCN(c3nc(C)ccc3C(=O)NCCCNC(=O)c3ccc(-c4c5nc(c(-c6cc(S(=O)(=O)[O-])ccc6F)c6ccc([nH]6)c(-c6cc(S(=O)(=O)[O-])ccc6F)c6nc(c(-c7cc(S(=O)(=O)[O-])ccc7F)c7ccc4[nH]7)C=C6)C=C5)cc3)CC2)c1
REMARK SMILES IDX 25 1 24 2 22 3 23 4 21 6 15 7 16 8 17 9 20 10 18 11 19 12
REMARK SMILES IDX 14 13 9 14 12 15 95 16 13 17 94 18 8 19 7 20 3 21 4 22 96 23
REMARK SMILES IDX 5 24 6 25 2 26 1 27 10 28 11 29 26 31 27 32 28 33 29 34
REMARK SMILES IDX 30 36 31 37 32 38 93 39 33 40 92 41 34 42 35 43 36 44 86 45
REMARK SMILES IDX 37 46 91 47 85 48 87 49 38 50 90 51 84 52 83 53 39 55 71 56
REMARK SMILES IDX 51 57 70 58 52 59 55 60 69 61 88 62 53 63 54 64 68 66 89 67
REMARK SMILES IDX 56 68 40 69 41 70 49 71 42 72 48 73 50 74 47 75 43 76 44 77
REMARK SMILES IDX 45 78 46 79 72 80 73 81 81 82 74 83 80 84 82 85 79 86 75 87
REMARK SMILES IDX 76 88 77 89 78 90 57 91 58 92 66 93 59 94 65 95 67 96 64 97
REMARK SMILES IDX 60 98 61 99 62 100 63 101
REMARK H PARENT 24 5 11 30 28 35 87 54 55 65
REMARK Flexibility Score: inf
ROOT
ATOM      1  C   UNL     1      -2.396  -5.662   4.239  1.00  0.00     0.118 C 
ENDROOT
BRANCH   1   2
ATOM      2  N   UNL     1      -1.336  -5.084   3.437  1.00  0.00    -0.352 N 
ATOM      3  C   UNL     1      -0.156  -5.512   2.882  1.00  0.00     0.255 C 
ATOM      4  O   UNL     1       0.475  -4.577   2.388  1.00  0.00    -0.269 OA
ATOM      5  H   UNL     1      -1.508  -4.135   3.238  1.00  0.00     0.163 HD
BRANCH   3   6
ATOM      6  C   UNL     1       0.327  -6.935   2.826  1.00  0.00     0.082 A 
ATOM      7  C   UNL     1       1.240  -7.420   1.859  1.00  0.00     0.141 A 
ATOM      8  N   UNL     1       1.426  -8.767   1.702  1.00  0.00    -0.235 NA
ATOM      9  C   UNL     1       0.816  -9.654   2.512  1.00  0.00     0.040 A 
ATOM     10  C   UNL     1      -0.200  -7.881   3.720  1.00  0.00     0.019 A 
ATOM     11  C   UNL     1       1.060 -11.102   2.226  1.00  0.00     0.067 C 
ATOM     12  C   UNL     1       0.027  -9.245   3.562  1.00  0.00     0.024 A 
BRANCH   7  13
ATOM     13  N   UNL     1       2.051  -6.697   1.009  1.00  0.00    -0.356 N 
ATOM     14  C   UNL     1       4.101  -5.590  -0.794  1.00  0.00     0.001 C 
ATOM     15  C   UNL     1       3.252  -6.840  -1.143  1.00  0.00     0.031 C 
ATOM     16  C   UNL     1       4.107  -5.387   0.741  1.00  0.00     0.031 C 
ATOM     17  C   UNL     1       1.917  -6.986  -0.408  1.00  0.00     0.119 C 
ATOM     18  C   UNL     1       2.733  -5.475   1.396  1.00  0.00     0.119 C 
BRANCH  14  19
ATOM     19  C   UNL     1       3.683  -4.308  -1.604  1.00  0.00     0.045 C 
BRANCH  19  20
ATOM     20  C   UNL     1       2.303  -3.716  -1.443  1.00  0.00    -0.044 A 
ATOM     21  C   UNL     1       0.784  -2.155  -0.371  1.00  0.00     0.119 A 
ATOM     22  C   UNL     1      -0.301  -2.754  -1.001  1.00  0.00     0.046 A 
ATOM     23  C   UNL     1       2.080  -2.635  -0.575  1.00  0.00     0.050 A 
ATOM     24  C   UNL     1      -0.084  -3.780  -1.916  1.00  0.00     0.004 A 
ATOM     25  C   UNL     1       1.215  -4.234  -2.159  1.00  0.00     0.004 A 
BRANCH  21  26
ATOM     26  O   UNL     1       0.526  -1.144   0.514  1.00  0.00    -0.497 OA
ATOM     27  C   UNL     1       1.013   0.100   0.015  1.00  0.00     0.278 C 
ENDBRANCH  21  26
ENDBRANCH  19  20
ENDBRANCH  14  19
BRANCH  14  28
ATOM     28  C   UNL     1       5.581  -5.881  -1.193  1.00  0.00     0.163 C 
BRANCH  28  29
ATOM     29  O   UNL     1       5.723  -6.151  -2.583  1.00  0.00    -0.396 OA
ATOM     30  H   UNL     1       5.207  -6.940  -2.814  1.00  0.00     0.210 HD
ENDBRANCH  28  29
ENDBRANCH  14  28
ENDBRANCH   7  13
ENDBRANCH   3   6
ENDBRANCH   1   2
BRANCH   1  31
ATOM     31  C   UNL     1      -2.118  -5.454   5.729  1.00  0.00     0.042 C 
BRANCH  31  32
ATOM     32  C   UNL     1      -2.240  -3.994   6.175  1.00  0.00     0.118 C 
BRANCH  32  33
ATOM     33  N   UNL     1      -3.617  -3.525   6.120  1.00  0.00    -0.352 N 
ATOM     34  C   UNL     1      -4.455  -3.121   7.126  1.00  0.00     0.251 C 
ATOM     35  H   UNL     1      -4.009  -3.493   5.217  1.00  0.00     0.163 HD
ATOM     36  O   UNL     1      -5.663  -3.034   6.892  1.00  0.00    -0.269 OA
BRANCH  34  37
ATOM     37  C   UNL     1      -3.939  -2.794   8.474  1.00  0.00     0.039 A 
ATOM     38  C   UNL     1      -4.707  -3.139   9.591  1.00  0.00     0.014 A 
ATOM     39  C   UNL     1      -2.746  -2.084   8.646  1.00  0.00     0.014 A 
ATOM     40  C   UNL     1      -4.262  -2.811  10.875  1.00  0.00     0.010 A 
ATOM     41  C   UNL     1      -2.271  -1.816   9.931  1.00  0.00     0.010 A 
ATOM     42  C   UNL     1      -3.029  -2.165  11.058  1.00  0.00    -0.014 A 
BRANCH  42  43
ATOM     43  C   UNL     1      -2.536  -1.827  12.421  1.00  0.00     0.031 A 
ATOM     44  C   UNL     1      -2.371  -0.387  12.831  1.00  0.00     0.074 A 
ATOM     45  C   UNL     1      -2.196  -2.815  13.271  1.00  0.00     0.049 A 
ATOM     46  N   UNL     1      -1.897   0.110  13.945  1.00  0.00    -0.248 NA
ATOM     47  C   UNL     1      -2.766   0.627  11.842  1.00  0.00     0.031 C 
ATOM     48  C   UNL     1      -2.274  -4.247  12.975  1.00  0.00     0.029 A 
ATOM     49  N   UNL     1      -1.709  -2.769  14.553  1.00  0.00    -0.354 N 
ATOM     50  C   UNL     1      -1.927   1.492  13.789  1.00  0.00     0.074 A 
ATOM     51  C   UNL     1      -2.405   1.749  12.446  1.00  0.00     0.031 C 
ATOM     52  C   UNL     1      -1.867  -4.941  14.050  1.00  0.00     0.029 A 
ATOM     53  C   UNL     1      -1.462  -4.009  15.096  1.00  0.00     0.049 A 
ATOM     54  H   UNL     1      -1.551  -1.927  15.039  1.00  0.00     0.167 HD
ATOM     55  C   UNL     1      -1.610   2.458  14.688  1.00  0.00     0.034 A 
ATOM     56  C   UNL     1      -0.957  -4.355  16.297  1.00  0.00     0.034 A 
ATOM     57  C   UNL     1      -1.140   2.185  16.026  1.00  0.00     0.049 A 
ATOM     58  C   UNL     1      -0.607  -3.266  17.279  1.00  0.00     0.074 A 
ATOM     59  C   UNL     1      -0.816   3.082  17.029  1.00  0.00     0.029 A 
ATOM     60  N   UNL     1      -0.925   0.915  16.549  1.00  0.00    -0.354 N 
ATOM     61  N   UNL     1      -0.677  -1.963  17.129  1.00  0.00    -0.248 NA
ATOM     62  C   UNL     1      -0.129  -3.696  18.599  1.00  0.00     0.031 C 
ATOM     63  C   UNL     1      -0.353   2.359  18.135  1.00  0.00     0.029 A 
ATOM     64  C   UNL     1      -0.457   1.007  17.851  1.00  0.00     0.049 A 
ATOM     65  H   UNL     1      -1.083   0.073  16.065  1.00  0.00     0.167 HD
ATOM     66  C   UNL     1      -0.281  -1.419  18.348  1.00  0.00     0.074 A 
ATOM     67  C   UNL     1       0.007  -2.536  19.225  1.00  0.00     0.031 C 
ATOM     68  C   UNL     1      -0.166  -0.116  18.711  1.00  0.00     0.034 A 
BRANCH  55  69
ATOM     69  C   UNL     1      -1.744   3.895  14.237  1.00  0.00     0.023 A 
ATOM     70  C   UNL     1      -2.987   4.435  13.859  1.00  0.00     0.031 A 
ATOM     71  C   UNL     1      -0.615   4.728  14.148  1.00  0.00     0.131 A 
ATOM     72  C   UNL     1      -3.058   5.733  13.332  1.00  0.00     0.055 A 
ATOM     73  C   UNL     1      -0.706   6.049  13.703  1.00  0.00     0.041 A 
ATOM     74  F   UNL     1       0.603   4.267  14.476  1.00  0.00    -0.206 F 
ATOM     75  C   UNL     1      -1.930   6.553  13.275  1.00  0.00     0.022 A 
BRANCH  72  76
ATOM     76  S   UNL     1      -4.618   6.278  12.582  1.00  0.00     0.124 S 
ATOM     77  O   UNL     1      -4.799   5.285  11.526  1.00  0.00    -0.237 OA
ATOM     78  O   UNL     1      -5.550   6.200  13.700  1.00  0.00    -0.237 OA
ATOM     79  O   UNL     1      -4.318   7.629  12.111  1.00  0.00    -0.744 OA
ENDBRANCH  72  76
ENDBRANCH  55  69
BRANCH  56  80
ATOM     80  C   UNL     1      -0.746  -5.790  16.642  1.00  0.00     0.023 A 
ATOM     81  C   UNL     1      -1.467  -6.400  17.680  1.00  0.00     0.031 A 
ATOM     82  C   UNL     1       0.215  -6.562  15.964  1.00  0.00     0.131 A 
ATOM     83  C   UNL     1      -1.183  -7.726  18.045  1.00  0.00     0.055 A 
ATOM     84  C   UNL     1       0.457  -7.896  16.295  1.00  0.00     0.041 A 
ATOM     85  F   UNL     1       0.926  -6.030  14.957  1.00  0.00    -0.206 F 
ATOM     86  C   UNL     1      -0.234  -8.481  17.352  1.00  0.00     0.022 A 
BRANCH  83  87
ATOM     87  S   UNL     1      -2.011  -8.422  19.501  1.00  0.00     0.124 S 
ATOM     88  O   UNL     1      -1.634  -7.472  20.541  1.00  0.00    -0.237 OA
ATOM     89  O   UNL     1      -3.411  -8.402  19.089  1.00  0.00    -0.237 OA
ATOM     90  O   UNL     1      -1.419  -9.752  19.625  1.00  0.00    -0.744 OA
ENDBRANCH  83  87
ENDBRANCH  56  80
BRANCH  68  91
ATOM     91  C   UNL     1       0.244   0.159  20.138  1.00  0.00     0.023 A 
ATOM     92  C   UNL     1       1.518  -0.186  20.623  1.00  0.00     0.031 A 
ATOM     93  C   UNL     1      -0.668   0.748  21.033  1.00  0.00     0.131 A 
ATOM     94  C   UNL     1       1.821  -0.003  21.981  1.00  0.00     0.055 A 
ATOM     95  C   UNL     1      -0.338   0.986  22.368  1.00  0.00     0.041 A 
ATOM     96  F   UNL     1      -1.898   1.096  20.625  1.00  0.00    -0.206 F 
ATOM     97  C   UNL     1       0.907   0.595  22.852  1.00  0.00     0.022 A 
BRANCH  94  98
ATOM     98  S   UNL     1       3.389  -0.658  22.618  1.00  0.00     0.124 S 
ATOM     99  O   UNL     1       3.298  -2.069  22.257  1.00  0.00    -0.237 OA
ATOM    100  O   UNL     1       4.375   0.126  21.883  1.00  0.00    -0.237 OA
ATOM    101  O   UNL     1       3.320  -0.379  24.051  1.00  0.00    -0.744 OA
ENDBRANCH  94  98
ENDBRANCH  68  91
ENDBRANCH  42  43
ENDBRANCH  34  37
ENDBRANCH  32  33
ENDBRANCH  31  32
ENDBRANCH   1  31
TORSDOF 19
