REMARK SMILES O=C(Cn1cc(/C=C2\SC(N3CCOCC3)=[NH+]C2=O)c2ccccc21)NCCCNC(=O)c1ccc(-c2c3nc(c(-c4cc(S(=O)(=O)[O-])ccc4F)c4ccc([nH]4)c(-c4cc(S(=O)(=O)[O-])ccc4F)c4nc(c(-c5cc(S(=O)(=O)[O-])ccc5F)c5ccc2[nH]5)C=C4)C=C3)cc1
REMARK SMILES IDX 28 1 27 2 26 3 1 4 2 5 3 7 4 8 5 9 25 10 6 11 20 12 24 13
REMARK SMILES IDX 21 14 23 15 22 16 7 17 8 18 9 19 18 20 10 21 17 22 19 23
REMARK SMILES IDX 11 24 12 26 16 27 13 28 15 29 14 30 29 31 30 32 31 33 32 35
REMARK SMILES IDX 33 36 34 37 95 38 35 39 94 40 36 41 37 42 38 43 88 44 39 45
REMARK SMILES IDX 93 46 87 47 89 48 40 49 92 50 86 51 85 52 41 54 73 55 53 56
REMARK SMILES IDX 72 57 54 58 57 59 71 60 90 61 55 62 56 63 70 65 91 66 58 67
REMARK SMILES IDX 42 68 43 69 51 70 44 71 50 72 52 73 49 74 45 75 46 76 47 77
REMARK SMILES IDX 48 78 74 79 75 80 83 81 76 82 82 83 84 84 81 85 77 86 78 87
REMARK SMILES IDX 79 88 80 89 59 90 60 91 68 92 61 93 67 94 69 95 66 96 62 97
REMARK SMILES IDX 63 98 64 99 65 100
REMARK H PARENT 26 6 17 25 30 34 89 53 57 64
REMARK Flexibility Score: inf
ROOT
ATOM      1  C   UNL     1       2.582   2.756  -2.523  1.00  0.00     0.042 C 
ENDROOT
BRANCH   1   2
ATOM      2  C   UNL     1       2.201   1.286  -2.329  1.00  0.00     0.117 C 
BRANCH   2   3
ATOM      3  N   UNL     1       2.841   0.675  -1.175  1.00  0.00    -0.354 N 
ATOM      4  O   UNL     1       0.920   0.030  -0.083  1.00  0.00    -0.273 OA
ATOM      5  C   UNL     1       2.146   0.053  -0.155  1.00  0.00     0.239 C 
ATOM      6  H   UNL     1       3.824   0.707  -1.118  1.00  0.00     0.163 HD
BRANCH   5   7
ATOM      7  C   UNL     1       3.014  -0.542   0.940  1.00  0.00     0.222 C 
BRANCH   7   8
ATOM      8  N   UNL     1       3.804  -1.676   0.480  1.00  0.00    -0.337 N 
ATOM      9  C   UNL     1       5.045  -1.552  -0.093  1.00  0.00     0.095 A 
ATOM     10  C   UNL     1       3.478  -3.013   0.609  1.00  0.00     0.049 A 
ATOM     11  C   UNL     1       5.491  -2.813  -0.418  1.00  0.00     0.001 A 
ATOM     12  C   UNL     1       4.518  -3.749   0.023  1.00  0.00     0.007 A 
ATOM     13  C   UNL     1       2.362  -3.643   1.184  1.00  0.00     0.027 A 
ATOM     14  C   UNL     1       4.433  -5.157   0.007  1.00  0.00     0.011 A 
ATOM     15  C   UNL     1       2.313  -5.041   1.171  1.00  0.00     0.002 A 
ATOM     16  C   UNL     1       3.330  -5.790   0.588  1.00  0.00     0.001 A 
BRANCH  11  17
ATOM     17  C   UNL     1       6.730  -3.066  -1.076  1.00  0.00     0.034 C 
ATOM     18  C   UNL     1       7.943  -2.777  -0.585  1.00  0.00     0.110 C 
ATOM     19  S   UNL     1       8.322  -2.172   0.977  1.00  0.00     0.006 SA
ATOM     20  C   UNL     1       9.199  -2.914  -1.369  1.00  0.00     0.346 C 
ATOM     21  C   UNL     1       9.987  -1.960   0.479  1.00  0.00     0.319 C 
ATOM     22  N   UNL     1      10.271  -2.345  -0.723  1.00  0.00    -0.200 N 
ATOM     23  O   UNL     1       9.251  -3.472  -2.464  1.00  0.00    -0.240 OA
ATOM     24  N   UNL     1      10.842  -1.352   1.351  1.00  0.00    -0.251 N 
ATOM     25  H   UNL     1      11.161  -2.242  -1.131  1.00  0.00     0.316 HD
ATOM     26  C   UNL     1      10.960  -1.703   2.767  1.00  0.00     0.265 C 
ATOM     27  C   UNL     1      11.770  -0.305   0.920  1.00  0.00     0.265 C 
ATOM     28  C   UNL     1      10.822  -0.441   3.624  1.00  0.00     0.206 C 
ATOM     29  C   UNL     1      11.600   0.914   1.846  1.00  0.00     0.206 C 
ATOM     30  O   UNL     1      11.780   0.557   3.230  1.00  0.00    -0.373 OA
ENDBRANCH  11  17
ENDBRANCH   7   8
ENDBRANCH   5   7
ENDBRANCH   2   3
ENDBRANCH   1   2
BRANCH   1  31
ATOM     31  C   UNL     1       4.081   3.032  -2.665  1.00  0.00     0.118 C 
BRANCH  31  32
ATOM     32  N   UNL     1       4.738   2.275  -3.712  1.00  0.00    -0.352 N 
ATOM     33  C   UNL     1       5.137   2.537  -4.994  1.00  0.00     0.251 C 
ATOM     34  H   UNL     1       4.947   1.354  -3.434  1.00  0.00     0.163 HD
ATOM     35  O   UNL     1       5.908   1.704  -5.480  1.00  0.00    -0.269 OA
BRANCH  33  36
ATOM     36  C   UNL     1       4.679   3.674  -5.843  1.00  0.00     0.039 A 
ATOM     37  C   UNL     1       3.757   4.649  -5.467  1.00  0.00     0.014 A 
ATOM     38  C   UNL     1       5.158   3.687  -7.171  1.00  0.00     0.014 A 
ATOM     39  C   UNL     1       3.267   5.552  -6.413  1.00  0.00     0.010 A 
ATOM     40  C   UNL     1       4.672   4.588  -8.118  1.00  0.00     0.010 A 
ATOM     41  C   UNL     1       3.687   5.495  -7.750  1.00  0.00    -0.014 A 
BRANCH  41  42
ATOM     42  C   UNL     1       3.069   6.423  -8.699  1.00  0.00     0.031 A 
ATOM     43  C   UNL     1       3.240   7.872  -8.399  1.00  0.00     0.074 A 
ATOM     44  C   UNL     1       2.390   6.064  -9.808  1.00  0.00     0.049 A 
ATOM     45  N   UNL     1       2.353   8.699  -7.947  1.00  0.00    -0.248 NA
ATOM     46  C   UNL     1       4.584   8.444  -8.524  1.00  0.00     0.031 C 
ATOM     47  C   UNL     1       2.334   4.763 -10.476  1.00  0.00     0.029 A 
ATOM     48  N   UNL     1       1.629   6.859 -10.617  1.00  0.00    -0.354 N 
ATOM     49  C   UNL     1       2.974   9.947  -7.880  1.00  0.00     0.074 A 
ATOM     50  C   UNL     1       4.374   9.703  -8.131  1.00  0.00     0.031 C 
ATOM     51  C   UNL     1       1.752   4.908 -11.691  1.00  0.00     0.029 A 
ATOM     52  C   UNL     1       1.243   6.264 -11.808  1.00  0.00     0.049 A 
ATOM     53  H   UNL     1       1.375   7.778 -10.374  1.00  0.00     0.167 HD
ATOM     54  C   UNL     1       2.262  11.107  -7.769  1.00  0.00     0.034 A 
ATOM     55  C   UNL     1       0.581   6.854 -12.833  1.00  0.00     0.034 A 
ATOM     56  C   UNL     1       0.889  10.848  -7.431  1.00  0.00     0.049 A 
ATOM     57  C   UNL     1      -0.115   8.053 -12.313  1.00  0.00     0.074 A 
ATOM     58  C   UNL     1       0.233  10.305  -6.345  1.00  0.00     0.029 A 
ATOM     59  N   UNL     1      -0.033  10.882  -8.447  1.00  0.00    -0.354 N 
ATOM     60  N   UNL     1      -1.151   8.017 -11.524  1.00  0.00    -0.248 NA
ATOM     61  C   UNL     1       0.588   9.325 -12.364  1.00  0.00     0.031 C 
ATOM     62  C   UNL     1      -0.881   9.612  -6.897  1.00  0.00     0.029 A 
ATOM     63  C   UNL     1      -0.864   9.806  -8.281  1.00  0.00     0.049 A 
ATOM     64  H   UNL     1      -0.087  11.555  -9.164  1.00  0.00     0.167 HD
ATOM     65  C   UNL     1      -0.959   9.076 -10.652  1.00  0.00     0.074 A 
ATOM     66  C   UNL     1       0.054   9.913 -11.292  1.00  0.00     0.031 C 
ATOM     67  C   UNL     1      -1.431   9.038  -9.372  1.00  0.00     0.034 A 
BRANCH  54  68
ATOM     68  C   UNL     1       2.718  12.468  -8.245  1.00  0.00     0.023 A 
ATOM     69  C   UNL     1       3.845  12.656  -9.063  1.00  0.00     0.031 A 
ATOM     70  C   UNL     1       1.890  13.601  -8.073  1.00  0.00     0.131 A 
ATOM     71  C   UNL     1       4.117  13.893  -9.666  1.00  0.00     0.055 A 
ATOM     72  C   UNL     1       2.125  14.817  -8.728  1.00  0.00     0.041 A 
ATOM     73  F   UNL     1       0.788  13.547  -7.309  1.00  0.00    -0.206 F 
ATOM     74  C   UNL     1       3.244  14.968  -9.534  1.00  0.00     0.022 A 
BRANCH  71  75
ATOM     75  S   UNL     1       5.619  14.120 -10.656  1.00  0.00     0.124 S 
ATOM     76  O   UNL     1       5.067  14.427 -11.971  1.00  0.00    -0.237 OA
ATOM     77  O   UNL     1       6.265  15.232  -9.965  1.00  0.00    -0.237 OA
ATOM     78  O   UNL     1       6.303  12.836 -10.534  1.00  0.00    -0.744 OA
ENDBRANCH  71  75
ENDBRANCH  54  68
BRANCH  55  79
ATOM     79  C   UNL     1       0.900   6.726 -14.273  1.00  0.00     0.023 A 
ATOM     80  C   UNL     1       2.231   6.495 -14.665  1.00  0.00     0.031 A 
ATOM     81  C   UNL     1      -0.002   7.164 -15.258  1.00  0.00     0.131 A 
ATOM     82  C   UNL     1       2.639   6.765 -15.978  1.00  0.00     0.055 A 
ATOM     83  C   UNL     1       0.404   7.413 -16.575  1.00  0.00     0.041 A 
ATOM     84  F   UNL     1      -1.278   7.435 -14.941  1.00  0.00    -0.206 F 
ATOM     85  C   UNL     1       1.736   7.230 -16.935  1.00  0.00     0.022 A 
BRANCH  82  86
ATOM     86  S   UNL     1       4.386   6.610 -16.442  1.00  0.00     0.124 S 
ATOM     87  O   UNL     1       4.306   5.868 -17.698  1.00  0.00    -0.237 OA
ATOM     88  O   UNL     1       4.785   8.008 -16.561  1.00  0.00    -0.237 OA
ATOM     89  O   UNL     1       4.972   5.873 -15.326  1.00  0.00    -0.744 OA
ENDBRANCH  82  86
ENDBRANCH  55  79
BRANCH  67  90
ATOM     90  C   UNL     1      -2.411   7.956  -8.978  1.00  0.00     0.023 A 
ATOM     91  C   UNL     1      -3.549   8.356  -8.253  1.00  0.00     0.031 A 
ATOM     92  C   UNL     1      -2.160   6.574  -9.081  1.00  0.00     0.131 A 
ATOM     93  C   UNL     1      -4.359   7.407  -7.622  1.00  0.00     0.055 A 
ATOM     94  C   UNL     1      -3.018   5.625  -8.514  1.00  0.00     0.041 A 
ATOM     95  F   UNL     1      -1.042   6.103  -9.648  1.00  0.00    -0.206 F 
ATOM     96  C   UNL     1      -4.113   6.039  -7.764  1.00  0.00     0.022 A 
BRANCH  93  97
ATOM     97  S   UNL     1      -5.647   7.932  -6.461  1.00  0.00     0.124 S 
ATOM     98  O   UNL     1      -6.866   7.481  -7.126  1.00  0.00    -0.237 OA
ATOM     99  O   UNL     1      -5.288   7.201  -5.247  1.00  0.00    -0.237 OA
ATOM    100  O   UNL     1      -5.480   9.380  -6.378  1.00  0.00    -0.744 OA
ENDBRANCH  93  97
ENDBRANCH  67  90
ENDBRANCH  41  42
ENDBRANCH  33  36
ENDBRANCH  31  32
ENDBRANCH   1  31
TORSDOF 15
