REMARK SMILES O=C(NCCCNC(=O)c1ccc(-c2c3nc(c(-c4cc(S(=O)(=O)[O-])ccc4F)c4ccc([nH]4)c(-c4cc(S(=O)(=O)[O-])ccc4F)c4nc(c(-c5cc(S(=O)(=O)[O-])ccc5F)c5ccc2[nH]5)C=C4)C=C3)cc1)C1=Cc2cc(S(F)(F)(F)(F)F)cc(Br)c2O[C@@H]1C(F)(F)F
REMARK SMILES IDX 6 1 5 2 4 3 3 4 1 5 2 6 73 8 74 9 89 10 75 11 88 12 76 13
REMARK SMILES IDX 87 14 77 15 85 16 84 17 86 18 90 19 91 20 92 21 93 22 78 23
REMARK SMILES IDX 79 24 80 25 81 26 82 27 83 28 7 29 8 30 9 32 10 33 11 34
REMARK SMILES IDX 72 35 12 36 71 37 13 38 14 39 15 40 65 41 16 42 70 43 64 44
REMARK SMILES IDX 66 45 17 46 69 47 63 48 62 49 18 51 50 52 30 53 49 54 31 55
REMARK SMILES IDX 34 56 48 57 67 58 32 59 33 60 47 62 68 63 35 64 19 65 20 66
REMARK SMILES IDX 28 67 21 68 27 69 29 70 26 71 22 72 23 73 24 74 25 75 51 76
REMARK SMILES IDX 52 77 60 78 53 79 59 80 61 81 58 82 54 83 55 84 56 85 57 86
REMARK SMILES IDX 36 87 37 88 45 89 38 90 44 91 46 92 43 93 39 94 40 95 41 96
REMARK SMILES IDX 42 97
REMARK H PARENT 3 7 7 31 66 50 34 61
REMARK Flexibility Score: inf
ROOT
ATOM      1  C   UNL     1       4.502   1.955   3.045  1.00  0.00     0.118 C 
ENDROOT
BRANCH   1   2
ATOM      2  C   UNL     1       5.009   1.675   1.639  1.00  0.00     0.042 C 
BRANCH   2   3
ATOM      3  C   UNL     1       4.502   0.317   1.180  1.00  0.00     0.118 C 
BRANCH   3   4
ATOM      4  N   UNL     1       3.032   0.317   1.180  1.00  0.00    -0.352 N 
ATOM      5  O   UNL     1       1.026   0.068  -0.069  1.00  0.00    -0.270 OA
ATOM      6  C   UNL     1       2.297   0.068  -0.069  1.00  0.00     0.251 C 
ATOM      7  H   UNL     1       2.540   0.484   2.016  1.00  0.00     0.163 HD
BRANCH   6   8
ATOM      8  C   UNL     1       3.057  -0.190  -1.359  1.00  0.00     0.067 C 
ATOM      9  C   UNL     1       4.418  -0.190  -1.359  1.00  0.00     0.025 C 
ATOM     10  C   UNL     1       2.297  -0.448  -2.650  1.00  0.00     0.314 C 
ATOM     11  C   UNL     1       5.178   0.068  -0.069  1.00  0.00     0.020 A 
ATOM     12  O   UNL     1       3.572  -1.276   1.057  1.00  0.00    -0.474 OA
ATOM     13  C   UNL     1       6.275   0.913  -0.078  1.00  0.00     0.036 A 
ATOM     14  C   UNL     1       4.791  -0.546   1.043  1.00  0.00     0.142 A 
ATOM     15  C   UNL     1       7.080   0.821   1.082  1.00  0.00     0.109 A 
ATOM     16  C   UNL     1       5.559  -0.482   2.181  1.00  0.00     0.062 A 
ATOM     17  C   UNL     1       6.688   0.287   2.224  1.00  0.00     0.044 A 
ATOM     18  Br  UNL     1       5.027  -1.508   3.764  1.00  0.00    -0.047 Br
BRANCH  10  19
ATOM     19  C   UNL     1       2.664  -1.821  -3.189  1.00  0.00     0.429 C 
ATOM     20  F   UNL     1       2.343  -2.749  -2.292  1.00  0.00    -0.167 F 
ATOM     21  F   UNL     1       1.999  -2.047  -4.318  1.00  0.00    -0.167 F 
ATOM     22  F   UNL     1       3.972  -1.869  -3.427  1.00  0.00    -0.167 F 
ENDBRANCH  10  19
BRANCH  15  23
ATOM     23  S   UNL     1       8.763   1.480   0.993  1.00  0.00     0.310 S 
ATOM     24  F   UNL     1       8.911   1.485   2.572  1.00  0.00    -0.094 F 
ATOM     25  F   UNL     1       8.169   2.934   1.113  1.00  0.00    -0.094 F 
ATOM     26  F   UNL     1      10.209   2.046   0.917  1.00  0.00    -0.094 F 
ATOM     27  F   UNL     1       9.348   0.013   1.016  1.00  0.00    -0.094 F 
ATOM     28  F   UNL     1       7.310   0.888   1.184  1.00  0.00    -0.094 F 
ENDBRANCH  15  23
ENDBRANCH   6   8
ENDBRANCH   3   4
ENDBRANCH   2   3
ENDBRANCH   1   2
BRANCH   1  29
ATOM     29  N   UNL     1       4.992   0.914   3.959  1.00  0.00    -0.352 N 
ATOM     30  C   UNL     1       5.837   1.281   5.105  1.00  0.00     0.251 C 
ATOM     31  H   UNL     1       4.754  -0.029   3.804  1.00  0.00     0.163 HD
ATOM     32  O   UNL     1       6.261   0.380   5.896  1.00  0.00    -0.269 OA
BRANCH  30  33
ATOM     33  C   UNL     1       6.204   2.736   5.344  1.00  0.00     0.039 A 
ATOM     34  C   UNL     1       7.505   3.076   5.679  1.00  0.00     0.014 A 
ATOM     35  C   UNL     1       5.255   3.659   5.244  1.00  0.00     0.014 A 
ATOM     36  C   UNL     1       7.643   4.393   6.176  1.00  0.00     0.010 A 
ATOM     37  C   UNL     1       5.500   4.958   5.620  1.00  0.00     0.010 A 
ATOM     38  C   UNL     1       6.747   5.351   6.019  1.00  0.00    -0.014 A 
BRANCH  38  39
ATOM     39  C   UNL     1       7.085   6.812   6.268  1.00  0.00     0.031 A 
ATOM     40  C   UNL     1       6.338   7.457   7.255  1.00  0.00     0.074 A 
ATOM     41  C   UNL     1       8.108   7.413   5.554  1.00  0.00     0.049 A 
ATOM     42  N   UNL     1       6.485   8.705   7.701  1.00  0.00    -0.248 NA
ATOM     43  C   UNL     1       5.229   6.831   7.990  1.00  0.00     0.031 C 
ATOM     44  C   UNL     1       8.872   6.767   4.563  1.00  0.00     0.029 A 
ATOM     45  N   UNL     1       8.566   8.708   5.662  1.00  0.00    -0.354 N 
ATOM     46  C   UNL     1       5.597   8.958   8.665  1.00  0.00     0.074 A 
ATOM     47  C   UNL     1       4.772   7.758   8.860  1.00  0.00     0.031 C 
ATOM     48  C   UNL     1       9.770   7.662   4.072  1.00  0.00     0.029 A 
ATOM     49  C   UNL     1       9.583   8.882   4.749  1.00  0.00     0.049 A 
ATOM     50  H   UNL     1       8.226   9.390   6.285  1.00  0.00     0.167 HD
ATOM     51  C   UNL     1       5.444  10.141   9.389  1.00  0.00     0.034 A 
ATOM     52  C   UNL     1      10.316  10.032   4.504  1.00  0.00     0.034 A 
ATOM     53  C   UNL     1       6.206  11.278   9.174  1.00  0.00     0.049 A 
ATOM     54  C   UNL     1      10.123  11.235   5.189  1.00  0.00     0.074 A 
ATOM     55  C   UNL     1       6.069  12.477   9.900  1.00  0.00     0.029 A 
ATOM     56  N   UNL     1       7.206  11.460   8.243  1.00  0.00    -0.354 N 
ATOM     57  N   UNL     1       9.262  11.475   6.179  1.00  0.00    -0.248 NA
ATOM     58  C   UNL     1      10.871  12.469   4.916  1.00  0.00     0.031 C 
ATOM     59  C   UNL     1       6.968  13.372   9.409  1.00  0.00     0.029 A 
ATOM     60  C   UNL     1       7.679  12.748   8.367  1.00  0.00     0.049 A 
ATOM     61  H   UNL     1       7.526  10.786   7.601  1.00  0.00     0.167 HD
ATOM     62  C   UNL     1       9.381  12.737   6.596  1.00  0.00     0.074 A 
ATOM     63  C   UNL     1      10.413  13.396   5.784  1.00  0.00     0.031 C 
ATOM     64  C   UNL     1       8.674  13.364   7.623  1.00  0.00     0.034 A 
BRANCH  51  65
ATOM     65  C   UNL     1       4.381  10.185  10.475  1.00  0.00     0.023 A 
ATOM     66  C   UNL     1       4.455   9.296  11.534  1.00  0.00     0.031 A 
ATOM     67  C   UNL     1       3.399  11.075  10.390  1.00  0.00     0.131 A 
ATOM     68  C   UNL     1       3.275   9.232  12.312  1.00  0.00     0.055 A 
ATOM     69  C   UNL     1       2.343  11.037  11.268  1.00  0.00     0.041 A 
ATOM     70  F   UNL     1       3.437  12.010   9.445  1.00  0.00    -0.206 F 
ATOM     71  C   UNL     1       2.322  10.145  12.305  1.00  0.00     0.022 A 
BRANCH  68  72
ATOM     72  S   UNL     1       3.057   7.796  13.394  1.00  0.00     0.124 S 
ATOM     73  O   UNL     1       3.053   6.519  12.551  1.00  0.00    -0.237 OA
ATOM     74  O   UNL     1       4.207   7.738  14.403  1.00  0.00    -0.237 OA
ATOM     75  O   UNL     1       1.572   7.933  14.229  1.00  0.00    -0.744 OA
ENDBRANCH  68  72
ENDBRANCH  51  65
BRANCH  52  76
ATOM     76  C   UNL     1      11.389   9.983   3.429  1.00  0.00     0.023 A 
ATOM     77  C   UNL     1      12.706  10.244   3.772  1.00  0.00     0.031 A 
ATOM     78  C   UNL     1      11.048   9.690   2.180  1.00  0.00     0.131 A 
ATOM     79  C   UNL     1      13.556  10.456   2.661  1.00  0.00     0.055 A 
ATOM     80  C   UNL     1      11.966   9.788   1.163  1.00  0.00     0.041 A 
ATOM     81  F   UNL     1       9.806   9.298   1.911  1.00  0.00    -0.206 F 
ATOM     82  C   UNL     1      13.272  10.100   1.422  1.00  0.00     0.022 A 
BRANCH  79  83
ATOM     83  S   UNL     1      15.144  11.273   2.960  1.00  0.00     0.124 S 
ATOM     84  O   UNL     1      14.899  12.664   3.549  1.00  0.00    -0.237 OA
ATOM     85  O   UNL     1      15.969  10.440   3.943  1.00  0.00    -0.237 OA
ATOM     86  O   UNL     1      15.995  11.420   1.484  1.00  0.00    -0.744 OA
ENDBRANCH  79  83
ENDBRANCH  52  76
BRANCH  64  87
ATOM     87  C   UNL     1       9.014  14.809   7.945  1.00  0.00     0.023 A 
ATOM     88  C   UNL     1       8.925  15.783   6.964  1.00  0.00     0.031 A 
ATOM     89  C   UNL     1       9.444  15.101   9.168  1.00  0.00     0.131 A 
ATOM     90  C   UNL     1       9.591  16.988   7.290  1.00  0.00     0.055 A 
ATOM     91  C   UNL     1       9.958  16.343   9.451  1.00  0.00     0.041 A 
ATOM     92  F   UNL     1       9.377  14.181  10.126  1.00  0.00    -0.206 F 
ATOM     93  C   UNL     1       9.956  17.336   8.511  1.00  0.00     0.022 A 
BRANCH  90  94
ATOM     94  S   UNL     1       9.969  18.133   5.940  1.00  0.00     0.124 S 
ATOM     95  O   UNL     1      10.874  17.437   4.920  1.00  0.00    -0.237 OA
ATOM     96  O   UNL     1       8.669  18.564   5.258  1.00  0.00    -0.237 OA
ATOM     97  O   UNL     1      10.768  19.509   6.566  1.00  0.00    -0.744 OA
ENDBRANCH  90  94
ENDBRANCH  64  87
ENDBRANCH  38  39
ENDBRANCH  30  33
ENDBRANCH   1  29
TORSDOF 15
