REMARK SMILES O=C(CN(CC(F)(F)F)C(=O)CC[C@H]1CCC[NH2+]C1)NCCCNC(=O)c1ccc(-c2c3nc(c(-c4cc(S(=O)(=O)[O-])ccc4F)c4ccc([nH]4)c(-c4cc(S(=O)(=O)[O-])ccc4F)c4nc(c(-c5cc(S(=O)(=O)[O-])ccc5F)c5ccc2[nH]5)C=C4)C=C3)cc1
REMARK SMILES IDX 21 1 20 2 1 3 2 4 3 6 4 7 5 8 6 9 7 10 8 11 9 12 10 13 11 14
REMARK SMILES IDX 12 15 13 16 14 17 15 18 19 19 16 20 18 21 17 22 22 25 23 26
REMARK SMILES IDX 24 27 25 28 26 30 27 31 28 32 89 33 29 34 88 35 30 36 31 37
REMARK SMILES IDX 32 38 82 39 33 40 87 41 81 42 83 43 34 44 86 45 80 46 79 47
REMARK SMILES IDX 35 49 67 50 47 51 66 52 48 53 51 54 65 55 84 56 49 57 50 58
REMARK SMILES IDX 64 60 85 61 52 62 36 63 37 64 45 65 38 66 44 67 46 68 43 69
REMARK SMILES IDX 39 70 40 71 41 72 42 73 68 74 69 75 77 76 70 77 76 78 78 79
REMARK SMILES IDX 75 80 71 81 72 82 73 83 74 84 53 85 54 86 62 87 55 88 61 89
REMARK SMILES IDX 63 90 60 91 56 92 57 93 58 94 59 95
REMARK H PARENT 20 5 18 23 18 24 24 29 83 48 51 59
REMARK Flexibility Score: inf
ROOT
ATOM      1  C   UNL     1       0.688   3.392  -0.627  1.00  0.00     0.117 C 
ENDROOT
BRANCH   1   2
ATOM      2  N   UNL     1       1.584   2.381  -1.157  1.00  0.00    -0.354 N 
ATOM      3  O   UNL     1       0.058   1.486  -2.612  1.00  0.00    -0.273 OA
ATOM      4  C   UNL     1       1.226   1.613  -2.243  1.00  0.00     0.239 C 
ATOM      5  H   UNL     1       2.462   2.243  -0.734  1.00  0.00     0.163 HD
BRANCH   4   6
ATOM      6  C   UNL     1       2.349   0.798  -2.916  1.00  0.00     0.219 C 
BRANCH   6   7
ATOM      7  N   UNL     1       3.757   1.157  -2.674  1.00  0.00    -0.324 N 
BRANCH   7   8
ATOM      8  C   UNL     1       4.693   0.018  -2.599  1.00  0.00     0.235 C 
BRANCH   8   9
ATOM      9  C   UNL     1       5.268  -0.526  -3.908  1.00  0.00     0.406 C 
ATOM     10  F   UNL     1       5.563   0.459  -4.783  1.00  0.00    -0.169 F 
ATOM     11  F   UNL     1       6.422  -1.194  -3.659  1.00  0.00    -0.169 F 
ATOM     12  F   UNL     1       4.420  -1.384  -4.508  1.00  0.00    -0.169 F 
ENDBRANCH   8   9
ENDBRANCH   7   8
BRANCH   7  13
ATOM     13  C   UNL     1       4.160   2.456  -2.983  1.00  0.00     0.223 C 
ATOM     14  O   UNL     1       3.342   3.297  -3.360  1.00  0.00    -0.275 OA
BRANCH  13  15
ATOM     15  C   UNL     1       5.624   2.879  -2.817  1.00  0.00     0.101 C 
BRANCH  15  16
ATOM     16  C   UNL     1       6.036   3.309  -1.394  1.00  0.00     0.019 C 
BRANCH  16  17
ATOM     17  C   UNL     1       6.267   2.137  -0.431  1.00  0.00     0.045 C 
ATOM     18  C   UNL     1       7.484   1.269  -0.808  1.00  0.00     0.015 C 
ATOM     19  C   UNL     1       6.443   2.529   1.041  1.00  0.00     0.264 C 
ATOM     20  C   UNL     1       7.445  -0.009   0.027  1.00  0.00     0.062 C 
ATOM     21  N   UNL     1       6.327   1.305   1.844  1.00  0.00    -0.346 N 
ATOM     22  C   UNL     1       7.345   0.301   1.521  1.00  0.00     0.260 C 
ATOM     23  H   UNL     1       6.420   1.554   2.829  1.00  0.00     0.346 HD
ATOM     24  H   UNL     1       5.419   0.891   1.635  1.00  0.00     0.346 HD
ENDBRANCH  16  17
ENDBRANCH  15  16
ENDBRANCH  13  15
ENDBRANCH   7  13
ENDBRANCH   6   7
ENDBRANCH   4   6
ENDBRANCH   1   2
BRANCH   1  25
ATOM     25  C   UNL     1       0.004   2.995   0.675  1.00  0.00     0.042 C 
BRANCH  25  26
ATOM     26  C   UNL     1       0.926   2.935   1.891  1.00  0.00     0.118 C 
BRANCH  26  27
ATOM     27  N   UNL     1       1.542   4.218   2.205  1.00  0.00    -0.352 N 
ATOM     28  C   UNL     1       1.501   4.998   3.332  1.00  0.00     0.251 C 
ATOM     29  H   UNL     1       2.087   4.593   1.475  1.00  0.00     0.163 HD
ATOM     30  O   UNL     1       1.996   6.130   3.274  1.00  0.00    -0.269 OA
BRANCH  28  31
ATOM     31  C   UNL     1       0.873   4.541   4.593  1.00  0.00     0.039 A 
ATOM     32  C   UNL     1       0.200   5.483   5.380  1.00  0.00     0.014 A 
ATOM     33  C   UNL     1       0.981   3.224   5.049  1.00  0.00     0.014 A 
ATOM     34  C   UNL     1      -0.409   5.095   6.577  1.00  0.00     0.010 A 
ATOM     35  C   UNL     1       0.303   2.821   6.204  1.00  0.00     0.010 A 
ATOM     36  C   UNL     1      -0.400   3.751   6.983  1.00  0.00    -0.014 A 
BRANCH  36  37
ATOM     37  C   UNL     1      -1.143   3.322   8.202  1.00  0.00     0.031 A 
ATOM     38  C   UNL     1      -0.420   2.737   9.388  1.00  0.00     0.074 A 
ATOM     39  C   UNL     1      -2.487   3.439   8.229  1.00  0.00     0.049 A 
ATOM     40  N   UNL     1      -0.906   2.323  10.532  1.00  0.00    -0.248 NA
ATOM     41  C   UNL     1       1.034   2.570   9.261  1.00  0.00     0.031 C 
ATOM     42  C   UNL     1      -3.310   3.940   7.125  1.00  0.00     0.029 A 
ATOM     43  N   UNL     1      -3.398   3.153   9.216  1.00  0.00    -0.354 N 
ATOM     44  C   UNL     1       0.179   1.845  11.259  1.00  0.00     0.074 A 
ATOM     45  C   UNL     1       1.337   1.960  10.397  1.00  0.00     0.031 C 
ATOM     46  C   UNL     1      -4.595   3.966   7.511  1.00  0.00     0.029 A 
ATOM     47  C   UNL     1      -4.698   3.443   8.869  1.00  0.00     0.049 A 
ATOM     48  H   UNL     1      -3.145   2.776  10.089  1.00  0.00     0.167 HD
ATOM     49  C   UNL     1       0.212   1.375  12.533  1.00  0.00     0.034 A 
ATOM     50  C   UNL     1      -5.846   3.305   9.562  1.00  0.00     0.034 A 
ATOM     51  C   UNL     1      -0.953   1.266  13.382  1.00  0.00     0.049 A 
ATOM     52  C   UNL     1      -5.784   2.774  10.972  1.00  0.00     0.074 A 
ATOM     53  C   UNL     1      -1.024   0.848  14.700  1.00  0.00     0.029 A 
ATOM     54  N   UNL     1      -2.255   1.565  12.996  1.00  0.00    -0.354 N 
ATOM     55  N   UNL     1      -4.740   2.383  11.665  1.00  0.00    -0.248 NA
ATOM     56  C   UNL     1      -7.057   2.688  11.698  1.00  0.00     0.031 C 
ATOM     57  C   UNL     1      -2.370   0.823  15.085  1.00  0.00     0.029 A 
ATOM     58  C   UNL     1      -3.135   1.312  14.039  1.00  0.00     0.049 A 
ATOM     59  H   UNL     1      -2.514   1.908  12.110  1.00  0.00     0.167 HD
ATOM     60  C   UNL     1      -5.229   2.035  12.922  1.00  0.00     0.074 A 
ATOM     61  C   UNL     1      -6.654   2.291  12.895  1.00  0.00     0.031 C 
ATOM     62  C   UNL     1      -4.560   1.549  14.000  1.00  0.00     0.034 A 
BRANCH  49  63
ATOM     63  C   UNL     1       1.550   0.921  13.075  1.00  0.00     0.023 A 
ATOM     64  C   UNL     1       2.636   1.806  13.204  1.00  0.00     0.031 A 
ATOM     65  C   UNL     1       1.752  -0.419  13.452  1.00  0.00     0.131 A 
ATOM     66  C   UNL     1       3.888   1.327  13.622  1.00  0.00     0.055 A 
ATOM     67  C   UNL     1       2.976  -0.871  13.950  1.00  0.00     0.041 A 
ATOM     68  F   UNL     1       0.762  -1.319  13.333  1.00  0.00    -0.206 F 
ATOM     69  C   UNL     1       4.059   0.001  14.022  1.00  0.00     0.022 A 
BRANCH  66  70
ATOM     70  S   UNL     1       5.326   2.425  13.489  1.00  0.00     0.124 S 
ATOM     71  O   UNL     1       5.320   2.749  12.064  1.00  0.00    -0.237 OA
ATOM     72  O   UNL     1       4.975   3.516  14.393  1.00  0.00    -0.237 OA
ATOM     73  O   UNL     1       6.440   1.588  13.925  1.00  0.00    -0.744 OA
ENDBRANCH  66  70
ENDBRANCH  49  63
BRANCH  50  74
ATOM     74  C   UNL     1      -7.153   3.675   8.945  1.00  0.00     0.023 A 
ATOM     75  C   UNL     1      -7.937   4.713   9.472  1.00  0.00     0.031 A 
ATOM     76  C   UNL     1      -7.659   2.963   7.843  1.00  0.00     0.131 A 
ATOM     77  C   UNL     1      -9.206   4.976   8.933  1.00  0.00     0.055 A 
ATOM     78  C   UNL     1      -8.896   3.268   7.271  1.00  0.00     0.041 A 
ATOM     79  F   UNL     1      -6.949   1.963   7.296  1.00  0.00    -0.206 F 
ATOM     80  C   UNL     1      -9.684   4.271   7.827  1.00  0.00     0.022 A 
BRANCH  77  81
ATOM     81  S   UNL     1     -10.266   6.194   9.760  1.00  0.00     0.124 S 
ATOM     82  O   UNL     1     -10.359   5.642  11.106  1.00  0.00    -0.237 OA
ATOM     83  O   UNL     1      -9.485   7.419   9.622  1.00  0.00    -0.237 OA
ATOM     84  O   UNL     1     -11.502   6.154   8.981  1.00  0.00    -0.744 OA
ENDBRANCH  77  81
ENDBRANCH  50  74
BRANCH  62  85
ATOM     85  C   UNL     1      -5.373   1.307  15.253  1.00  0.00     0.023 A 
ATOM     86  C   UNL     1      -6.420   0.368  15.288  1.00  0.00     0.031 A 
ATOM     87  C   UNL     1      -5.135   2.068  16.411  1.00  0.00     0.131 A 
ATOM     88  C   UNL     1      -7.245   0.280  16.420  1.00  0.00     0.055 A 
ATOM     89  C   UNL     1      -5.909   1.919  17.563  1.00  0.00     0.041 A 
ATOM     90  F   UNL     1      -4.152   2.982  16.440  1.00  0.00    -0.206 F 
ATOM     91  C   UNL     1      -6.985   1.037  17.565  1.00  0.00     0.022 A 
BRANCH  88  92
ATOM     92  S   UNL     1      -8.750  -0.729  16.322  1.00  0.00     0.124 S 
ATOM     93  O   UNL     1      -9.414  -0.169  15.149  1.00  0.00    -0.237 OA
ATOM     94  O   UNL     1      -8.212  -2.076  16.168  1.00  0.00    -0.237 OA
ATOM     95  O   UNL     1      -9.420  -0.470  17.595  1.00  0.00    -0.744 OA
ENDBRANCH  88  92
ENDBRANCH  62  85
ENDBRANCH  36  37
ENDBRANCH  28  31
ENDBRANCH  26  27
ENDBRANCH  25  26
ENDBRANCH   1  25
TORSDOF 20
