REMARK SMILES CC(C)Nc1cc2ccccc2cc1C(=O)NCCCNC(=O)c1ccc(-c2c3nc(c(-c4cc(S(=O)(=O)[O-])ccc4F)c4ccc([nH]4)c(-c4cc(S(=O)(=O)[O-])ccc4F)c4nc(c(-c5cc(S(=O)(=O)[O-])ccc5F)c5ccc2[nH]5)C=C4)C=C3)cc1
REMARK SMILES IDX 19 1 18 2 17 3 15 4 16 5 14 7 5 8 6 9 7 10 13 11 8 12 12 13
REMARK SMILES IDX 9 14 11 15 10 16 4 17 2 19 1 20 3 21 20 22 21 23 22 24 23 26
REMARK SMILES IDX 24 27 25 28 86 29 26 30 85 31 27 32 28 33 29 34 79 35 30 36
REMARK SMILES IDX 84 37 78 38 80 39 31 40 83 41 77 42 76 43 32 45 64 46 44 47
REMARK SMILES IDX 63 48 45 49 48 50 62 51 81 52 46 53 47 54 61 56 82 57 49 58
REMARK SMILES IDX 33 59 34 60 42 61 35 62 41 63 43 64 40 65 36 66 37 67 38 68
REMARK SMILES IDX 39 69 65 70 66 71 74 72 67 73 73 74 75 75 72 76 68 77 69 78
REMARK SMILES IDX 70 79 71 80 50 81 51 82 59 83 52 84 58 85 60 86 57 87 53 88
REMARK SMILES IDX 54 89 55 90 56 91
REMARK H PARENT 17 6 4 18 21 25 80 44 48 55
REMARK Flexibility Score: inf
ROOT
ATOM      1  C   UNL     1      -0.654  -3.752   1.898  1.00  0.00     0.042 C 
ENDROOT
BRANCH   1   2
ATOM      2  C   UNL     1      -0.904  -3.146   0.529  1.00  0.00     0.118 C 
BRANCH   2   3
ATOM      3  N   UNL     1      -0.275  -3.830  -0.586  1.00  0.00    -0.352 N 
ATOM      4  C   UNL     1      -0.331  -3.510  -1.925  1.00  0.00     0.253 C 
ATOM      5  O   UNL     1       0.349  -4.156  -2.723  1.00  0.00    -0.269 OA
ATOM      6  H   UNL     1       0.259  -4.625  -0.356  1.00  0.00     0.163 HD
BRANCH   4   7
ATOM      7  C   UNL     1      -1.298  -2.507  -2.439  1.00  0.00     0.063 A 
ATOM      8  C   UNL     1      -1.504  -1.222  -1.914  1.00  0.00     0.048 A 
ATOM      9  C   UNL     1      -2.667  -0.541  -2.326  1.00  0.00     0.035 A 
ATOM     10  C   UNL     1      -3.554  -1.060  -3.287  1.00  0.00    -0.016 A 
ATOM     11  C   UNL     1      -2.136  -3.005  -3.461  1.00  0.00     0.024 A 
ATOM     12  C   UNL     1      -4.725  -0.378  -3.656  1.00  0.00     0.009 A 
ATOM     13  C   UNL     1      -3.254  -2.289  -3.903  1.00  0.00    -0.017 A 
ATOM     14  C   UNL     1      -5.565  -0.885  -4.650  1.00  0.00     0.001 A 
ATOM     15  C   UNL     1      -4.093  -2.776  -4.920  1.00  0.00     0.009 A 
ATOM     16  C   UNL     1      -5.239  -2.074  -5.295  1.00  0.00     0.001 A 
BRANCH   8  17
ATOM     17  N   UNL     1      -0.638  -0.525  -1.077  1.00  0.00    -0.382 N 
ATOM     18  H   UNL     1      -0.978  -0.225  -0.203  1.00  0.00     0.160 HD
BRANCH  17  19
ATOM     19  C   UNL     1       0.751  -0.214  -1.425  1.00  0.00     0.073 C 
ATOM     20  C   UNL     1       1.035   1.223  -0.970  1.00  0.00     0.030 C 
ATOM     21  C   UNL     1       1.734  -1.112  -0.689  1.00  0.00     0.030 C 
ENDBRANCH  17  19
ENDBRANCH   8  17
ENDBRANCH   4   7
ENDBRANCH   2   3
ENDBRANCH   1   2
BRANCH   1  22
ATOM     22  C   UNL     1       0.784  -4.144   2.217  1.00  0.00     0.118 C 
BRANCH  22  23
ATOM     23  N   UNL     1       1.755  -3.055   2.222  1.00  0.00    -0.352 N 
ATOM     24  C   UNL     1       2.453  -2.436   3.236  1.00  0.00     0.251 C 
ATOM     25  H   UNL     1       1.949  -2.692   1.327  1.00  0.00     0.163 HD
ATOM     26  O   UNL     1       3.126  -1.436   2.990  1.00  0.00    -0.269 OA
BRANCH  24  27
ATOM     27  C   UNL     1       2.384  -2.959   4.617  1.00  0.00     0.039 A 
ATOM     28  C   UNL     1       2.367  -2.086   5.708  1.00  0.00     0.014 A 
ATOM     29  C   UNL     1       2.320  -4.331   4.833  1.00  0.00     0.014 A 
ATOM     30  C   UNL     1       2.170  -2.597   6.996  1.00  0.00     0.010 A 
ATOM     31  C   UNL     1       1.949  -4.816   6.074  1.00  0.00     0.010 A 
ATOM     32  C   UNL     1       1.895  -3.962   7.181  1.00  0.00    -0.014 A 
BRANCH  32  33
ATOM     33  C   UNL     1       1.591  -4.547   8.513  1.00  0.00     0.031 A 
ATOM     34  C   UNL     1       2.422  -5.699   9.026  1.00  0.00     0.074 A 
ATOM     35  C   UNL     1       0.516  -4.117   9.204  1.00  0.00     0.049 A 
ATOM     36  N   UNL     1       2.246  -6.443  10.087  1.00  0.00    -0.248 NA
ATOM     37  C   UNL     1       3.567  -6.111   8.196  1.00  0.00     0.031 C 
ATOM     38  C   UNL     1      -0.407  -3.064   8.771  1.00  0.00     0.029 A 
ATOM     39  N   UNL     1       0.012  -4.515  10.416  1.00  0.00    -0.354 N 
ATOM     40  C   UNL     1       3.234  -7.423  10.029  1.00  0.00     0.074 A 
ATOM     41  C   UNL     1       3.935  -7.239   8.779  1.00  0.00     0.031 C 
ATOM     42  C   UNL     1      -1.331  -2.866   9.724  1.00  0.00     0.029 A 
ATOM     43  C   UNL     1      -1.102  -3.810  10.811  1.00  0.00     0.049 A 
ATOM     44  H   UNL     1       0.409  -5.239  10.952  1.00  0.00     0.167 HD
ATOM     45  C   UNL     1       3.556  -8.363  10.951  1.00  0.00     0.034 A 
ATOM     46  C   UNL     1      -1.850  -3.915  11.927  1.00  0.00     0.034 A 
ATOM     47  C   UNL     1       2.867  -8.497  12.210  1.00  0.00     0.049 A 
ATOM     48  C   UNL     1      -1.456  -4.945  12.955  1.00  0.00     0.074 A 
ATOM     49  C   UNL     1       3.135  -9.363  13.255  1.00  0.00     0.029 A 
ATOM     50  N   UNL     1       1.770  -7.735  12.596  1.00  0.00    -0.354 N 
ATOM     51  N   UNL     1      -0.480  -5.826  12.914  1.00  0.00    -0.248 NA
ATOM     52  C   UNL     1      -2.250  -4.981  14.188  1.00  0.00     0.031 C 
ATOM     53  C   UNL     1       2.164  -9.167  14.244  1.00  0.00     0.029 A 
ATOM     54  C   UNL     1       1.338  -8.124  13.854  1.00  0.00     0.049 A 
ATOM     55  H   UNL     1       1.361  -7.022  12.055  1.00  0.00     0.167 HD
ATOM     56  C   UNL     1      -0.526  -6.498  14.132  1.00  0.00     0.074 A 
ATOM     57  C   UNL     1      -1.606  -5.900  14.891  1.00  0.00     0.031 C 
ATOM     58  C   UNL     1       0.250  -7.518  14.585  1.00  0.00     0.034 A 
BRANCH  45  59
ATOM     59  C   UNL     1       4.691  -9.306  10.619  1.00  0.00     0.023 A 
ATOM     60  C   UNL     1       5.992  -8.835  10.358  1.00  0.00     0.031 A 
ATOM     61  C   UNL     1       4.465 -10.690  10.511  1.00  0.00     0.131 A 
ATOM     62  C   UNL     1       6.985  -9.720   9.910  1.00  0.00     0.055 A 
ATOM     63  C   UNL     1       5.484 -11.578  10.157  1.00  0.00     0.041 A 
ATOM     64  F   UNL     1       3.243 -11.202  10.724  1.00  0.00    -0.206 F 
ATOM     65  C   UNL     1       6.748 -11.093   9.835  1.00  0.00     0.022 A 
BRANCH  62  66
ATOM     66  S   UNL     1       8.533  -9.027   9.267  1.00  0.00     0.124 S 
ATOM     67  O   UNL     1       8.048  -8.197   8.166  1.00  0.00    -0.237 OA
ATOM     68  O   UNL     1       9.063  -8.310  10.421  1.00  0.00    -0.237 OA
ATOM     69  O   UNL     1       9.294 -10.206   8.860  1.00  0.00    -0.744 OA
ENDBRANCH  62  66
ENDBRANCH  45  59
BRANCH  46  70
ATOM     70  C   UNL     1      -3.022  -3.017  12.148  1.00  0.00     0.023 A 
ATOM     71  C   UNL     1      -3.038  -2.102  13.213  1.00  0.00     0.031 A 
ATOM     72  C   UNL     1      -4.158  -3.082  11.322  1.00  0.00     0.131 A 
ATOM     73  C   UNL     1      -4.184  -1.330  13.460  1.00  0.00     0.055 A 
ATOM     74  C   UNL     1      -5.274  -2.270  11.536  1.00  0.00     0.041 A 
ATOM     75  F   UNL     1      -4.195  -3.931  10.283  1.00  0.00    -0.206 F 
ATOM     76  C   UNL     1      -5.297  -1.398  12.620  1.00  0.00     0.022 A 
BRANCH  73  77
ATOM     77  S   UNL     1      -4.234  -0.300  14.952  1.00  0.00     0.124 S 
ATOM     78  O   UNL     1      -3.999  -1.285  16.002  1.00  0.00    -0.237 OA
ATOM     79  O   UNL     1      -3.149   0.644  14.704  1.00  0.00    -0.237 OA
ATOM     80  O   UNL     1      -5.577   0.276  14.924  1.00  0.00    -0.744 OA
ENDBRANCH  73  77
ENDBRANCH  46  70
BRANCH  58  81
ATOM     81  C   UNL     1      -0.027  -8.008  15.986  1.00  0.00     0.023 A 
ATOM     82  C   UNL     1      -1.250  -8.610  16.328  1.00  0.00     0.031 A 
ATOM     83  C   UNL     1       0.933  -7.835  16.999  1.00  0.00     0.131 A 
ATOM     84  C   UNL     1      -1.514  -8.941  17.664  1.00  0.00     0.055 A 
ATOM     85  C   UNL     1       0.694  -8.239  18.312  1.00  0.00     0.041 A 
ATOM     86  F   UNL     1       2.118  -7.265  16.730  1.00  0.00    -0.206 F 
ATOM     87  C   UNL     1      -0.543  -8.777  18.655  1.00  0.00     0.022 A 
BRANCH  84  88
ATOM     88  S   UNL     1      -3.194  -9.459  18.110  1.00  0.00     0.124 S 
ATOM     89  O   UNL     1      -3.994  -8.337  17.628  1.00  0.00    -0.237 OA
ATOM     90  O   UNL     1      -3.340 -10.709  17.373  1.00  0.00    -0.237 OA
ATOM     91  O   UNL     1      -3.134  -9.599  19.564  1.00  0.00    -0.744 OA
ENDBRANCH  84  88
ENDBRANCH  58  81
ENDBRANCH  32  33
ENDBRANCH  24  27
ENDBRANCH  22  23
ENDBRANCH   1  22
TORSDOF 15
