REMARK SMILES C[C@@H](C(=O)NCCCNC(=O)c1ccc(-c2c3nc(c(-c4cc(S(=O)(=O)[O-])ccc4F)c4ccc([nH]4)c(-c4cc(S(=O)(=O)[O-])ccc4F)c4nc(c(-c5cc(S(=O)(=O)[O-])ccc5F)c5ccc2[nH]5)C=C4)C=C3)cc1)c1ccc(Cc2ccoc2)cc1F
REMARK SMILES IDX 7 1 6 2 5 3 3 4 4 5 2 7 1 8 75 9 76 10 86 11 77 12 85 13
REMARK SMILES IDX 87 14 78 15 79 16 80 17 81 18 84 19 82 20 83 21 8 22 9 23
REMARK SMILES IDX 10 24 11 26 12 27 13 28 74 29 14 30 73 31 15 32 16 33 17 34
REMARK SMILES IDX 67 35 18 36 72 37 66 38 68 39 19 40 71 41 65 42 64 43 20 45
REMARK SMILES IDX 52 46 32 47 51 48 33 49 36 50 50 51 69 52 34 53 35 54 49 56
REMARK SMILES IDX 70 57 37 58 21 59 22 60 30 61 23 62 29 63 31 64 28 65 24 66
REMARK SMILES IDX 25 67 26 68 27 69 53 70 54 71 62 72 55 73 61 74 63 75 60 76
REMARK SMILES IDX 56 77 57 78 58 79 59 80 38 81 39 82 47 83 40 84 46 85 48 86
REMARK SMILES IDX 45 87 41 88 42 89 43 90 44 91
REMARK H PARENT 5 6 9 25 68 44 36 55
REMARK Flexibility Score: inf
ROOT
ATOM      1  C   UNL     1       4.253  -1.090   0.666  1.00  0.00     0.042 C 
ENDROOT
BRANCH   1   2
ATOM      2  C   UNL     1       3.308  -2.157   0.111  1.00  0.00     0.117 C 
BRANCH   2   3
ATOM      3  N   UNL     1       2.229  -2.441   1.039  1.00  0.00    -0.356 N 
ATOM      4  C   UNL     1       0.942  -1.981   1.069  1.00  0.00     0.227 C 
ATOM      5  O   UNL     1       0.294  -2.207   2.092  1.00  0.00    -0.274 OA
ATOM      6  H   UNL     1       2.461  -3.065   1.764  1.00  0.00     0.163 HD
BRANCH   4   7
ATOM      7  C   UNL     1       0.361  -1.227  -0.143  1.00  0.00     0.108 C 
ATOM      8  C   UNL     1       0.941   0.193  -0.190  1.00  0.00     0.023 C 
BRANCH   7   9
ATOM      9  C   UNL     1      -1.170  -1.253  -0.155  1.00  0.00    -0.000 A 
ATOM     10  C   UNL     1      -1.951  -0.091  -0.231  1.00  0.00     0.008 A 
ATOM     11  C   UNL     1      -1.849  -2.478  -0.105  1.00  0.00     0.127 A 
ATOM     12  C   UNL     1      -3.346  -0.158  -0.235  1.00  0.00     0.004 A 
ATOM     13  C   UNL     1      -3.245  -2.549  -0.059  1.00  0.00     0.043 A 
ATOM     14  F   UNL     1      -1.155  -3.626  -0.117  1.00  0.00    -0.207 F 
ATOM     15  C   UNL     1      -4.017  -1.381  -0.110  1.00  0.00    -0.041 A 
BRANCH  15  16
ATOM     16  C   UNL     1      -5.526  -1.438  -0.095  1.00  0.00     0.074 C 
BRANCH  16  17
ATOM     17  C   UNL     1      -6.004  -0.905   1.218  1.00  0.00    -0.005 A 
ATOM     18  C   UNL     1      -5.951   0.435   1.712  1.00  0.00     0.046 A 
ATOM     19  C   UNL     1      -6.678  -1.611   2.197  1.00  0.00     0.198 A 
ATOM     20  C   UNL     1      -6.560   0.432   2.944  1.00  0.00     0.195 A 
ATOM     21  O   UNL     1      -7.017  -0.809   3.239  1.00  0.00    -0.472 OA
ENDBRANCH  16  17
ENDBRANCH  15  16
ENDBRANCH   7   9
ENDBRANCH   4   7
ENDBRANCH   2   3
ENDBRANCH   1   2
BRANCH   1  22
ATOM     22  C   UNL     1       5.030  -1.523   1.905  1.00  0.00     0.118 C 
BRANCH  22  23
ATOM     23  N   UNL     1       6.004  -2.558   1.609  1.00  0.00    -0.352 N 
ATOM     24  C   UNL     1       7.351  -2.592   1.856  1.00  0.00     0.251 C 
ATOM     25  H   UNL     1       5.641  -3.358   1.164  1.00  0.00     0.163 HD
ATOM     26  O   UNL     1       8.024  -3.481   1.324  1.00  0.00    -0.269 OA
BRANCH  24  27
ATOM     27  C   UNL     1       8.008  -1.587   2.724  1.00  0.00     0.039 A 
ATOM     28  C   UNL     1       9.304  -1.173   2.403  1.00  0.00     0.014 A 
ATOM     29  C   UNL     1       7.396  -1.099   3.884  1.00  0.00     0.014 A 
ATOM     30  C   UNL     1       9.974  -0.263   3.226  1.00  0.00     0.010 A 
ATOM     31  C   UNL     1       8.034  -0.132   4.661  1.00  0.00     0.010 A 
ATOM     32  C   UNL     1       9.342   0.276   4.357  1.00  0.00    -0.014 A 
BRANCH  32  33
ATOM     33  C   UNL     1      10.064   1.207   5.264  1.00  0.00     0.031 A 
ATOM     34  C   UNL     1      10.367   0.791   6.681  1.00  0.00     0.074 A 
ATOM     35  C   UNL     1      10.423   2.430   4.829  1.00  0.00     0.049 A 
ATOM     36  N   UNL     1      10.949   1.466   7.640  1.00  0.00    -0.248 NA
ATOM     37  C   UNL     1       9.924  -0.553   7.079  1.00  0.00     0.031 C 
ATOM     38  C   UNL     1      10.148   2.966   3.495  1.00  0.00     0.029 A 
ATOM     39  N   UNL     1      11.093   3.446   5.464  1.00  0.00    -0.354 N 
ATOM     40  C   UNL     1      10.932   0.634   8.755  1.00  0.00     0.074 A 
ATOM     41  C   UNL     1      10.213  -0.562   8.370  1.00  0.00     0.031 C 
ATOM     42  C   UNL     1      10.662   4.203   3.405  1.00  0.00     0.029 A 
ATOM     43  C   UNL     1      11.274   4.562   4.681  1.00  0.00     0.049 A 
ATOM     44  H   UNL     1      11.415   3.382   6.392  1.00  0.00     0.167 HD
ATOM     45  C   UNL     1      11.490   0.832   9.976  1.00  0.00     0.034 A 
ATOM     46  C   UNL     1      11.863   5.742   4.960  1.00  0.00     0.034 A 
ATOM     47  C   UNL     1      12.211   2.028  10.342  1.00  0.00     0.049 A 
ATOM     48  C   UNL     1      12.487   5.941   6.318  1.00  0.00     0.074 A 
ATOM     49  C   UNL     1      12.835   2.331  11.540  1.00  0.00     0.029 A 
ATOM     50  N   UNL     1      12.405   3.124   9.509  1.00  0.00    -0.354 N 
ATOM     51  N   UNL     1      12.496   5.129   7.351  1.00  0.00    -0.248 NA
ATOM     52  C   UNL     1      13.203   7.203   6.537  1.00  0.00     0.031 C 
ATOM     53  C   UNL     1      13.358   3.627  11.449  1.00  0.00     0.029 A 
ATOM     54  C   UNL     1      13.127   4.106  10.170  1.00  0.00     0.049 A 
ATOM     55  H   UNL     1      12.077   3.192   8.583  1.00  0.00     0.167 HD
ATOM     56  C   UNL     1      13.247   5.772   8.331  1.00  0.00     0.074 A 
ATOM     57  C   UNL     1      13.686   7.029   7.758  1.00  0.00     0.031 C 
ATOM     58  C   UNL     1      13.552   5.359   9.588  1.00  0.00     0.034 A 
BRANCH  45  59
ATOM     59  C   UNL     1      11.315  -0.268  11.000  1.00  0.00     0.023 A 
ATOM     60  C   UNL     1      11.816  -1.564  10.779  1.00  0.00     0.031 A 
ATOM     61  C   UNL     1      10.590  -0.041  12.183  1.00  0.00     0.131 A 
ATOM     62  C   UNL     1      11.505  -2.600  11.672  1.00  0.00     0.055 A 
ATOM     63  C   UNL     1      10.363  -1.056  13.115  1.00  0.00     0.041 A 
ATOM     64  F   UNL     1      10.069   1.168  12.445  1.00  0.00    -0.206 F 
ATOM     65  C   UNL     1      10.803  -2.350  12.852  1.00  0.00     0.022 A 
BRANCH  62  66
ATOM     66  S   UNL     1      11.879  -4.306  11.180  1.00  0.00     0.124 S 
ATOM     67  O   UNL     1      11.118  -4.427   9.938  1.00  0.00    -0.237 OA
ATOM     68  O   UNL     1      13.330  -4.284  11.040  1.00  0.00    -0.237 OA
ATOM     69  O   UNL     1      11.370  -5.104  12.293  1.00  0.00    -0.744 OA
ENDBRANCH  62  66
ENDBRANCH  45  59
BRANCH  46  70
ATOM     70  C   UNL     1      11.897   6.824   3.936  1.00  0.00     0.023 A 
ATOM     71  C   UNL     1      13.107   7.245   3.362  1.00  0.00     0.031 A 
ATOM     72  C   UNL     1      10.715   7.470   3.533  1.00  0.00     0.131 A 
ATOM     73  C   UNL     1      13.114   8.313   2.451  1.00  0.00     0.055 A 
ATOM     74  C   UNL     1      10.721   8.498   2.590  1.00  0.00     0.041 A 
ATOM     75  F   UNL     1       9.530   7.096   4.043  1.00  0.00    -0.206 F 
ATOM     76  C   UNL     1      11.928   8.934   2.052  1.00  0.00     0.022 A 
BRANCH  73  77
ATOM     77  S   UNL     1      14.709   8.926   1.842  1.00  0.00     0.124 S 
ATOM     78  O   UNL     1      15.375   9.306   3.082  1.00  0.00    -0.237 OA
ATOM     79  O   UNL     1      15.244   7.753   1.159  1.00  0.00    -0.237 OA
ATOM     80  O   UNL     1      14.335  10.036   0.968  1.00  0.00    -0.744 OA
ENDBRANCH  73  77
ENDBRANCH  46  70
BRANCH  58  81
ATOM     81  C   UNL     1      14.450   6.258  10.405  1.00  0.00     0.023 A 
ATOM     82  C   UNL     1      14.040   7.535  10.826  1.00  0.00     0.031 A 
ATOM     83  C   UNL     1      15.748   5.835  10.745  1.00  0.00     0.131 A 
ATOM     84  C   UNL     1      14.941   8.370  11.504  1.00  0.00     0.055 A 
ATOM     85  C   UNL     1      16.618   6.646  11.474  1.00  0.00     0.041 A 
ATOM     86  F   UNL     1      16.193   4.626  10.368  1.00  0.00    -0.206 F 
ATOM     87  C   UNL     1      16.222   7.928  11.844  1.00  0.00     0.022 A 
BRANCH  84  88
ATOM     88  S   UNL     1      14.455  10.085  11.840  1.00  0.00     0.124 S 
ATOM     89  O   UNL     1      14.117  10.573  10.507  1.00  0.00    -0.237 OA
ATOM     90  O   UNL     1      13.335   9.917  12.760  1.00  0.00    -0.237 OA
ATOM     91  O   UNL     1      15.657  10.673  12.429  1.00  0.00    -0.744 OA
ENDBRANCH  84  88
ENDBRANCH  58  81
ENDBRANCH  32  33
ENDBRANCH  24  27
ENDBRANCH  22  23
ENDBRANCH   1  22
TORSDOF 16
