REMARK SMILES CC(C)C[C@H](C(=O)NCCCNC(=O)c1ccc(-c2c3nc(c(-c4cc(S(=O)(=O)[O-])ccc4F)c4ccc([nH]4)c(-c4cc(S(=O)(=O)[O-])ccc4F)c4nc(c(-c5cc(S(=O)(=O)[O-])ccc5F)c5ccc2[nH]5)C=C4)C=C3)cc1)N1C(=O)/C(=C2\C(=O)Nc3ccc(Br)cc32)SC1=S
REMARK SMILES IDX 10 1 9 2 8 3 6 4 7 5 5 7 4 8 2 9 1 10 3 11 78 12 79 13 94 14
REMARK SMILES IDX 80 15 81 16 93 17 95 18 82 19 83 20 92 21 84 22 85 23 86 24
REMARK SMILES IDX 91 25 87 27 89 28 88 29 90 30 11 31 12 32 13 33 14 35 15 36
REMARK SMILES IDX 16 37 77 38 17 39 76 40 18 41 19 42 20 43 70 44 21 45 75 46
REMARK SMILES IDX 69 47 71 48 22 49 74 50 68 51 67 52 23 54 55 55 35 56 54 57
REMARK SMILES IDX 36 58 39 59 53 60 72 61 37 62 38 63 52 65 73 66 40 67 24 68
REMARK SMILES IDX 25 69 33 70 26 71 32 72 34 73 31 74 27 75 28 76 29 77 30 78
REMARK SMILES IDX 56 79 57 80 65 81 58 82 64 83 66 84 63 85 59 86 60 87 61 88
REMARK SMILES IDX 62 89 41 90 42 91 50 92 43 93 49 94 51 95 48 96 44 97 45 98
REMARK SMILES IDX 46 99 47 100
REMARK H PARENT 8 6 85 26 12 34 71 53 39 64
REMARK Flexibility Score: inf
ROOT
ATOM      1  C   UNL     1      -3.049   1.204   1.829  1.00  0.00     0.042 C 
ENDROOT
BRANCH   1   2
ATOM      2  C   UNL     1      -1.779   0.784   1.102  1.00  0.00     0.117 C 
BRANCH   2   3
ATOM      3  N   UNL     1      -1.540  -0.643   1.213  1.00  0.00    -0.354 N 
ATOM      4  C   UNL     1      -1.570  -1.625   0.263  1.00  0.00     0.243 C 
ATOM      5  O   UNL     1      -1.240  -2.760   0.609  1.00  0.00    -0.273 OA
ATOM      6  H   UNL     1      -1.321  -0.955   2.120  1.00  0.00     0.163 HD
BRANCH   4   7
ATOM      7  C   UNL     1      -1.941  -1.284  -1.196  1.00  0.00     0.181 C 
BRANCH   7   8
ATOM      8  C   UNL     1      -1.136  -2.163  -2.196  1.00  0.00     0.038 C 
BRANCH   8   9
ATOM      9  C   UNL     1      -1.718  -3.542  -2.564  1.00  0.00    -0.015 C 
ATOM     10  C   UNL     1      -2.529  -3.469  -3.862  1.00  0.00     0.007 C 
ATOM     11  C   UNL     1      -0.601  -4.573  -2.747  1.00  0.00     0.007 C 
ENDBRANCH   8   9
ENDBRANCH   7   8
BRANCH   7  12
ATOM     12  N   UNL     1      -3.382  -1.172  -1.508  1.00  0.00    -0.280 N 
ATOM     13  C   UNL     1      -4.253  -2.200  -1.175  1.00  0.00     0.267 C 
ATOM     14  C   UNL     1      -3.948  -0.151  -2.241  1.00  0.00     0.149 C 
ATOM     15  O   UNL     1      -4.166  -2.911  -0.190  1.00  0.00    -0.268 OA
ATOM     16  C   UNL     1      -5.414  -2.197  -2.118  1.00  0.00     0.093 C 
ATOM     17  S   UNL     1      -5.611  -0.565  -2.647  1.00  0.00    -0.053 SA
ATOM     18  S   UNL     1      -3.254   1.265  -2.781  1.00  0.00    -0.052 S 
ATOM     19  C   UNL     1      -6.049  -3.277  -2.605  1.00  0.00     0.069 C 
ATOM     20  C   UNL     1      -5.701  -4.699  -2.223  1.00  0.00     0.257 C 
ATOM     21  C   UNL     1      -7.100  -3.389  -3.647  1.00  0.00     0.013 A 
ATOM     22  O   UNL     1      -4.784  -5.116  -1.540  1.00  0.00    -0.269 OA
ATOM     23  N   UNL     1      -6.581  -5.500  -2.922  1.00  0.00    -0.321 N 
ATOM     24  C   UNL     1      -7.383  -4.756  -3.772  1.00  0.00     0.049 A 
ATOM     25  C   UNL     1      -7.740  -2.494  -4.491  1.00  0.00     0.026 A 
ATOM     26  H   UNL     1      -6.633  -6.479  -2.829  1.00  0.00     0.170 HD
ATOM     27  C   UNL     1      -8.291  -5.270  -4.678  1.00  0.00     0.028 A 
ATOM     28  C   UNL     1      -8.650  -2.996  -5.432  1.00  0.00     0.018 A 
ATOM     29  C   UNL     1      -8.933  -4.368  -5.524  1.00  0.00     0.018 A 
ATOM     30  Br  UNL     1      -9.494  -1.802  -6.636  1.00  0.00    -0.051 Br
ENDBRANCH   7  12
ENDBRANCH   4   7
ENDBRANCH   2   3
ENDBRANCH   1   2
BRANCH   1  31
ATOM     31  C   UNL     1      -2.931   1.146   3.349  1.00  0.00     0.118 C 
BRANCH  31  32
ATOM     32  N   UNL     1      -2.011   2.145   3.873  1.00  0.00    -0.352 N 
ATOM     33  C   UNL     1      -2.195   3.103   4.840  1.00  0.00     0.251 C 
ATOM     34  H   UNL     1      -1.113   2.132   3.470  1.00  0.00     0.163 HD
ATOM     35  O   UNL     1      -1.334   3.968   4.984  1.00  0.00    -0.269 OA
BRANCH  33  36
ATOM     36  C   UNL     1      -3.414   3.119   5.684  1.00  0.00     0.039 A 
ATOM     37  C   UNL     1      -3.968   4.356   6.027  1.00  0.00     0.014 A 
ATOM     38  C   UNL     1      -3.988   1.943   6.175  1.00  0.00     0.014 A 
ATOM     39  C   UNL     1      -5.122   4.409   6.813  1.00  0.00     0.010 A 
ATOM     40  C   UNL     1      -5.182   1.995   6.896  1.00  0.00     0.010 A 
ATOM     41  C   UNL     1      -5.759   3.228   7.228  1.00  0.00    -0.014 A 
BRANCH  41  42
ATOM     42  C   UNL     1      -7.029   3.288   8.000  1.00  0.00     0.031 A 
ATOM     43  C   UNL     1      -7.091   2.788   9.418  1.00  0.00     0.074 A 
ATOM     44  C   UNL     1      -8.138   3.772   7.406  1.00  0.00     0.049 A 
ATOM     45  N   UNL     1      -8.104   2.777  10.248  1.00  0.00    -0.248 NA
ATOM     46  C   UNL     1      -5.861   2.199   9.967  1.00  0.00     0.031 C 
ATOM     47  C   UNL     1      -8.217   4.232   6.017  1.00  0.00     0.029 A 
ATOM     48  N   UNL     1      -9.407   3.964   7.889  1.00  0.00    -0.354 N 
ATOM     49  C   UNL     1      -7.636   2.180  11.415  1.00  0.00     0.074 A 
ATOM     50  C   UNL     1      -6.267   1.784  11.157  1.00  0.00     0.031 C 
ATOM     51  C   UNL     1      -9.456   4.687   5.774  1.00  0.00     0.029 A 
ATOM     52  C   UNL     1     -10.270   4.519   6.973  1.00  0.00     0.049 A 
ATOM     53  H   UNL     1      -9.676   3.727   8.806  1.00  0.00     0.167 HD
ATOM     54  C   UNL     1      -8.278   2.002  12.597  1.00  0.00     0.034 A 
ATOM     55  C   UNL     1     -11.569   4.857   7.085  1.00  0.00     0.034 A 
ATOM     56  C   UNL     1      -9.644   2.407  12.837  1.00  0.00     0.049 A 
ATOM     57  C   UNL     1     -12.262   4.651   8.407  1.00  0.00     0.074 A 
ATOM     58  C   UNL     1     -10.376   2.323  14.009  1.00  0.00     0.029 A 
ATOM     59  N   UNL     1     -10.489   2.965  11.885  1.00  0.00    -0.354 N 
ATOM     60  N   UNL     1     -11.784   4.145   9.521  1.00  0.00    -0.248 NA
ATOM     61  C   UNL     1     -13.662   5.080   8.490  1.00  0.00     0.031 C 
ATOM     62  C   UNL     1     -11.678   2.767  13.749  1.00  0.00     0.029 A 
ATOM     63  C   UNL     1     -11.741   3.201  12.435  1.00  0.00     0.049 A 
ATOM     64  H   UNL     1     -10.236   3.163  10.955  1.00  0.00     0.167 HD
ATOM     65  C   UNL     1     -12.823   4.214  10.444  1.00  0.00     0.074 A 
ATOM     66  C   UNL     1     -13.939   4.840   9.762  1.00  0.00     0.031 C 
ATOM     67  C   UNL     1     -12.855   3.799  11.736  1.00  0.00     0.034 A 
BRANCH  54  68
ATOM     68  C   UNL     1      -7.513   1.319  13.707  1.00  0.00     0.023 A 
ATOM     69  C   UNL     1      -6.347   1.884  14.256  1.00  0.00     0.031 A 
ATOM     70  C   UNL     1      -7.936   0.075  14.208  1.00  0.00     0.131 A 
ATOM     71  C   UNL     1      -5.605   1.174  15.213  1.00  0.00     0.055 A 
ATOM     72  C   UNL     1      -7.238  -0.589  15.219  1.00  0.00     0.041 A 
ATOM     73  F   UNL     1      -9.030  -0.525  13.713  1.00  0.00    -0.206 F 
ATOM     74  C   UNL     1      -6.056  -0.047  15.717  1.00  0.00     0.022 A 
BRANCH  71  75
ATOM     75  S   UNL     1      -3.970   1.803  15.684  1.00  0.00     0.124 S 
ATOM     76  O   UNL     1      -3.280   1.823  14.396  1.00  0.00    -0.237 OA
ATOM     77  O   UNL     1      -4.287   3.105  16.260  1.00  0.00    -0.237 OA
ATOM     78  O   UNL     1      -3.478   0.805  16.630  1.00  0.00    -0.744 OA
ENDBRANCH  71  75
ENDBRANCH  54  68
BRANCH  55  79
ATOM     79  C   UNL     1     -12.303   5.430   5.920  1.00  0.00     0.023 A 
ATOM     80  C   UNL     1     -12.792   6.745   5.947  1.00  0.00     0.031 A 
ATOM     81  C   UNL     1     -12.558   4.654   4.775  1.00  0.00     0.131 A 
ATOM     82  C   UNL     1     -13.550   7.232   4.871  1.00  0.00     0.055 A 
ATOM     83  C   UNL     1     -13.268   5.160   3.685  1.00  0.00     0.041 A 
ATOM     84  F   UNL     1     -12.105   3.393   4.694  1.00  0.00    -0.206 F 
ATOM     85  C   UNL     1     -13.781   6.453   3.735  1.00  0.00     0.022 A 
BRANCH  82  86
ATOM     86  S   UNL     1     -14.301   8.877   5.011  1.00  0.00     0.124 S 
ATOM     87  O   UNL     1     -15.114   8.733   6.213  1.00  0.00    -0.237 OA
ATOM     88  O   UNL     1     -13.127   9.736   5.128  1.00  0.00    -0.237 OA
ATOM     89  O   UNL     1     -15.049   9.017   3.763  1.00  0.00    -0.744 OA
ENDBRANCH  82  86
ENDBRANCH  55  79
BRANCH  67  90
ATOM     90  C   UNL     1     -14.142   4.035  12.491  1.00  0.00     0.023 A 
ATOM     91  C   UNL     1     -15.338   3.392  12.127  1.00  0.00     0.031 A 
ATOM     92  C   UNL     1     -14.183   4.951  13.557  1.00  0.00     0.131 A 
ATOM     93  C   UNL     1     -16.538   3.729  12.770  1.00  0.00     0.055 A 
ATOM     94  C   UNL     1     -15.368   5.231  14.239  1.00  0.00     0.041 A 
ATOM     95  F   UNL     1     -13.073   5.596  13.948  1.00  0.00    -0.206 F 
ATOM     96  C   UNL     1     -16.558   4.633  13.835  1.00  0.00     0.022 A 
BRANCH  93  97
ATOM     97  S   UNL     1     -18.093   3.062  12.114  1.00  0.00     0.124 S 
ATOM     98  O   UNL     1     -18.054   3.511  10.726  1.00  0.00    -0.237 OA
ATOM     99  O   UNL     1     -17.930   1.628  12.324  1.00  0.00    -0.237 OA
ATOM    100  O   UNL     1     -19.116   3.698  12.942  1.00  0.00    -0.744 OA
ENDBRANCH  93  97
ENDBRANCH  67  90
ENDBRANCH  41  42
ENDBRANCH  33  36
ENDBRANCH  31  32
ENDBRANCH   1  31
TORSDOF 16
