REMARK SMILES O=C(NCCCNC(=O)c1ccc(N2C(=O)[C@@H]3N=NC(c4ccccc4)=C3[C@H]2c2cccc(Br)c2)cc1)c1ccc(-c2c3nc(c(-c4cc(S(=O)(=O)[O-])ccc4F)c4ccc([nH]4)c(-c4cc(S(=O)(=O)[O-])ccc4F)c4nc(c(-c5cc(S(=O)(=O)[O-])ccc5F)c5ccc2[nH]5)C=C4)C=C3)cc1
REMARK SMILES IDX 4 1 3 2 1 3 2 4 38 6 39 7 100 8 40 9 99 10 41 11 42 12 43 13
REMARK SMILES IDX 93 14 44 15 98 16 92 17 94 18 45 19 97 20 91 21 90 22 46 24
REMARK SMILES IDX 78 25 58 26 77 27 59 28 62 29 76 30 95 31 60 32 61 33 75 35
REMARK SMILES IDX 96 36 63 37 47 38 48 39 56 40 49 41 55 42 57 43 54 44 50 45
REMARK SMILES IDX 51 46 52 47 53 48 79 49 80 50 88 51 81 52 87 53 89 54 86 55
REMARK SMILES IDX 82 56 83 57 84 58 85 59 64 60 65 61 73 62 66 63 72 64 74 65
REMARK SMILES IDX 71 66 67 67 68 68 69 69 70 70 5 71 6 72 7 73 8 74 9 76 10 77
REMARK SMILES IDX 11 78 37 79 12 80 36 81 13 82 14 83 15 84 28 85 17 86 16 87
REMARK SMILES IDX 27 88 18 89 20 90 19 91 29 92 30 93 35 94 31 95 33 96 32 97
REMARK SMILES IDX 34 98 21 99 22 100 26 101 23 102 25 103 24 104
REMARK H PARENT 3 5 94 23 62 34 7 75
REMARK Flexibility Score: inf
ROOT
ATOM      1  C   UNL     1       4.755  -0.880   0.661  1.00  0.00     0.118 C 
ENDROOT
BRANCH   1   2
ATOM      2  N   UNL     1       3.355  -1.031   0.321  1.00  0.00    -0.352 N 
ATOM      3  O   UNL     1       1.335  -0.679  -0.492  1.00  0.00    -0.269 OA
ATOM      4  C   UNL     1       2.343  -0.167   0.004  1.00  0.00     0.251 C 
ATOM      5  H   UNL     1       3.065  -1.972   0.317  1.00  0.00     0.163 HD
BRANCH   4   6
ATOM      6  C   UNL     1       2.335   1.293   0.295  1.00  0.00     0.039 A 
ATOM      7  C   UNL     1       3.452   2.098   0.525  1.00  0.00     0.014 A 
ATOM      8  C   UNL     1       1.057   1.883   0.360  1.00  0.00     0.014 A 
ATOM      9  C   UNL     1       3.288   3.434   0.904  1.00  0.00     0.010 A 
ATOM     10  C   UNL     1       0.890   3.211   0.735  1.00  0.00     0.010 A 
ATOM     11  C   UNL     1       2.007   3.982   1.043  1.00  0.00    -0.014 A 
BRANCH  11  12
ATOM     12  C   UNL     1       1.855   5.416   1.308  1.00  0.00     0.031 A 
ATOM     13  C   UNL     1       2.295   6.287   0.177  1.00  0.00     0.074 A 
ATOM     14  C   UNL     1       1.205   5.930   2.376  1.00  0.00     0.049 A 
ATOM     15  N   UNL     1       3.251   7.156   0.166  1.00  0.00    -0.248 NA
ATOM     16  C   UNL     1       1.683   6.069  -1.145  1.00  0.00     0.031 C 
ATOM     17  C   UNL     1       0.482   5.200   3.420  1.00  0.00     0.029 A 
ATOM     18  N   UNL     1       0.961   7.236   2.704  1.00  0.00    -0.354 N 
ATOM     19  C   UNL     1       3.219   7.755  -1.093  1.00  0.00     0.074 A 
ATOM     20  C   UNL     1       2.368   6.926  -1.903  1.00  0.00     0.031 C 
ATOM     21  C   UNL     1      -0.295   6.061   4.118  1.00  0.00     0.029 A 
ATOM     22  C   UNL     1      -0.041   7.418   3.660  1.00  0.00     0.049 A 
ATOM     23  H   UNL     1       1.452   7.987   2.298  1.00  0.00     0.167 HD
ATOM     24  C   UNL     1       3.718   9.006  -1.300  1.00  0.00     0.034 A 
ATOM     25  C   UNL     1      -0.657   8.585   4.017  1.00  0.00     0.034 A 
ATOM     26  C   UNL     1       4.588   9.401  -0.218  1.00  0.00     0.049 A 
ATOM     27  C   UNL     1       0.246   9.689   3.613  1.00  0.00     0.074 A 
ATOM     28  C   UNL     1       5.757   8.900   0.322  1.00  0.00     0.029 A 
ATOM     29  N   UNL     1       4.093  10.273   0.725  1.00  0.00    -0.354 N 
ATOM     30  N   UNL     1       1.415   9.892   4.156  1.00  0.00    -0.248 NA
ATOM     31  C   UNL     1       0.074  10.258   2.284  1.00  0.00     0.031 C 
ATOM     32  C   UNL     1       5.614   9.083   1.729  1.00  0.00     0.029 A 
ATOM     33  C   UNL     1       4.415   9.761   1.957  1.00  0.00     0.049 A 
ATOM     34  H   UNL     1       3.599  11.106   0.549  1.00  0.00     0.167 HD
ATOM     35  C   UNL     1       2.251  10.199   3.095  1.00  0.00     0.074 A 
ATOM     36  C   UNL     1       1.353  10.499   1.980  1.00  0.00     0.031 C 
ATOM     37  C   UNL     1       3.585   9.907   3.136  1.00  0.00     0.034 A 
BRANCH  24  38
ATOM     38  C   UNL     1       3.154  10.022  -2.271  1.00  0.00     0.023 A 
ATOM     39  C   UNL     1       3.795  11.277  -2.335  1.00  0.00     0.031 A 
ATOM     40  C   UNL     1       1.882   9.953  -2.883  1.00  0.00     0.131 A 
ATOM     41  C   UNL     1       3.136  12.401  -2.862  1.00  0.00     0.055 A 
ATOM     42  C   UNL     1       1.261  11.060  -3.470  1.00  0.00     0.041 A 
ATOM     43  F   UNL     1       1.127   8.849  -2.864  1.00  0.00    -0.206 F 
ATOM     44  C   UNL     1       1.870  12.301  -3.430  1.00  0.00     0.022 A 
BRANCH  41  45
ATOM     45  S   UNL     1       3.886  14.031  -2.610  1.00  0.00     0.124 S 
ATOM     46  O   UNL     1       4.053  14.056  -1.161  1.00  0.00    -0.237 OA
ATOM     47  O   UNL     1       5.109  13.924  -3.399  1.00  0.00    -0.237 OA
ATOM     48  O   UNL     1       2.882  14.951  -3.139  1.00  0.00    -0.744 OA
ENDBRANCH  41  45
ENDBRANCH  24  38
BRANCH  25  49
ATOM     49  C   UNL     1      -2.099   8.800   4.359  1.00  0.00     0.023 A 
ATOM     50  C   UNL     1      -2.589   9.948   5.031  1.00  0.00     0.031 A 
ATOM     51  C   UNL     1      -3.072   7.954   3.781  1.00  0.00     0.131 A 
ATOM     52  C   UNL     1      -3.986  10.198   5.103  1.00  0.00     0.055 A 
ATOM     53  C   UNL     1      -4.444   8.207   3.853  1.00  0.00     0.041 A 
ATOM     54  F   UNL     1      -2.717   6.890   3.044  1.00  0.00    -0.206 F 
ATOM     55  C   UNL     1      -4.907   9.335   4.507  1.00  0.00     0.022 A 
BRANCH  52  56
ATOM     56  S   UNL     1      -4.640  11.705   5.906  1.00  0.00     0.124 S 
ATOM     57  O   UNL     1      -4.317  11.477   7.309  1.00  0.00    -0.237 OA
ATOM     58  O   UNL     1      -3.903  12.768   5.233  1.00  0.00    -0.237 OA
ATOM     59  O   UNL     1      -6.070  11.666   5.595  1.00  0.00    -0.744 OA
ENDBRANCH  52  56
ENDBRANCH  25  49
BRANCH  37  60
ATOM     60  C   UNL     1       4.203   9.511   4.462  1.00  0.00     0.023 A 
ATOM     61  C   UNL     1       3.787   8.421   5.261  1.00  0.00     0.031 A 
ATOM     62  C   UNL     1       5.355  10.211   4.862  1.00  0.00     0.131 A 
ATOM     63  C   UNL     1       4.515   8.079   6.419  1.00  0.00     0.055 A 
ATOM     64  C   UNL     1       6.086   9.854   5.993  1.00  0.00     0.041 A 
ATOM     65  F   UNL     1       5.814  11.241   4.132  1.00  0.00    -0.206 F 
ATOM     66  C   UNL     1       5.665   8.789   6.779  1.00  0.00     0.022 A 
BRANCH  63  67
ATOM     67  S   UNL     1       3.972   6.710   7.493  1.00  0.00     0.124 S 
ATOM     68  O   UNL     1       2.551   6.972   7.688  1.00  0.00    -0.237 OA
ATOM     69  O   UNL     1       4.302   5.531   6.697  1.00  0.00    -0.237 OA
ATOM     70  O   UNL     1       4.791   6.877   8.696  1.00  0.00    -0.744 OA
ENDBRANCH  63  67
ENDBRANCH  37  60
ENDBRANCH  11  12
ENDBRANCH   4   6
ENDBRANCH   1   2
BRANCH   1  71
ATOM     71  C   UNL     1       5.065  -0.599   2.130  1.00  0.00     0.042 C 
BRANCH  71  72
ATOM     72  C   UNL     1       4.551  -1.634   3.135  1.00  0.00     0.118 C 
BRANCH  72  73
ATOM     73  N   UNL     1       5.117  -2.962   2.940  1.00  0.00    -0.352 N 
ATOM     74  C   UNL     1       5.791  -3.782   3.809  1.00  0.00     0.251 C 
ATOM     75  H   UNL     1       4.995  -3.332   2.036  1.00  0.00     0.163 HD
ATOM     76  O   UNL     1       6.279  -4.829   3.384  1.00  0.00    -0.269 OA
BRANCH  74  77
ATOM     77  C   UNL     1       5.979  -3.434   5.240  1.00  0.00     0.039 A 
ATOM     78  C   UNL     1       7.264  -3.567   5.766  1.00  0.00     0.016 A 
ATOM     79  C   UNL     1       4.927  -3.060   6.089  1.00  0.00     0.016 A 
ATOM     80  C   UNL     1       7.504  -3.256   7.108  1.00  0.00     0.027 A 
ATOM     81  C   UNL     1       5.169  -2.761   7.448  1.00  0.00     0.027 A 
ATOM     82  C   UNL     1       6.466  -2.834   7.961  1.00  0.00     0.045 A 
BRANCH  82  83
ATOM     83  N   UNL     1       6.776  -2.417   9.298  1.00  0.00    -0.299 N 
ATOM     84  C   UNL     1       7.979  -1.643   9.443  1.00  0.00     0.259 C 
ATOM     85  C   UNL     1       6.630  -3.366  10.429  1.00  0.00     0.152 C 
ATOM     86  C   UNL     1       8.659  -2.078  10.702  1.00  0.00     0.248 C 
ATOM     87  O   UNL     1       8.433  -0.832   8.640  1.00  0.00    -0.271 OA
ATOM     88  C   UNL     1       8.066  -3.432  10.776  1.00  0.00     0.021 C 
ATOM     89  N   UNL     1      10.095  -2.383  10.599  1.00  0.00    -0.170 NA
ATOM     90  C   UNL     1       9.075  -4.283  10.920  1.00  0.00     0.097 C 
ATOM     91  N   UNL     1      10.280  -3.611  10.858  1.00  0.00    -0.154 NA
BRANCH  85  92
ATOM     92  C   UNL     1       5.828  -2.878  11.659  1.00  0.00    -0.020 A 
ATOM     93  C   UNL     1       6.412  -2.882  12.957  1.00  0.00     0.006 A 
ATOM     94  C   UNL     1       4.478  -2.507  11.581  1.00  0.00     0.022 A 
ATOM     95  C   UNL     1       5.712  -2.508  14.105  1.00  0.00     0.002 A 
ATOM     96  C   UNL     1       3.767  -2.163  12.747  1.00  0.00     0.018 A 
ATOM     97  C   UNL     1       4.379  -2.155  14.002  1.00  0.00     0.016 A 
ATOM     98  Br  UNL     1       1.925  -1.740  12.646  1.00  0.00    -0.051 Br
ENDBRANCH  85  92
BRANCH  90  99
ATOM     99  C   UNL     1       9.087  -5.742  10.954  1.00  0.00     0.002 A 
ATOM    100  C   UNL     1       8.953  -6.423  12.172  1.00  0.00     0.010 A 
ATOM    101  C   UNL     1       9.481  -6.447   9.812  1.00  0.00     0.010 A 
ATOM    102  C   UNL     1       9.306  -7.772  12.261  1.00  0.00     0.001 A 
ATOM    103  C   UNL     1       9.832  -7.795   9.903  1.00  0.00     0.001 A 
ATOM    104  C   UNL     1       9.772  -8.448  11.133  1.00  0.00     0.000 A 
ENDBRANCH  90  99
ENDBRANCH  82  83
ENDBRANCH  74  77
ENDBRANCH  72  73
ENDBRANCH  71  72
ENDBRANCH   1  71
TORSDOF 16
