REMARK SMILES NS(=O)(=O)c1ccc(-n2ccnc2-c2ccc(O)c(C(=O)NCCCNC(=O)c3ccc(-c4c5nc(c(-c6cc(S(=O)(=O)[O-])ccc6F)c6ccc([nH]6)c(-c6cc(S(=O)(=O)[O-])ccc6F)c6nc(c(-c7cc(S(=O)(=O)[O-])ccc7F)c7ccc4[nH]7)C=C6)C=C5)cc3)c2)cc1
REMARK SMILES IDX 23 1 22 2 20 3 21 4 19 6 14 7 15 8 92 9 16 10 17 11 13 12
REMARK SMILES IDX 9 13 10 14 11 15 12 16 8 17 5 18 6 19 94 20 7 21 93 22 2 23
REMARK SMILES IDX 3 24 4 25 1 26 18 29 24 31 25 32 26 33 27 34 28 36 29 37
REMARK SMILES IDX 30 38 91 39 31 40 90 41 32 42 33 43 34 44 84 45 35 46 89 47
REMARK SMILES IDX 83 48 85 49 36 50 88 51 82 52 81 53 37 55 69 56 49 57 68 58
REMARK SMILES IDX 50 59 53 60 67 61 86 62 51 63 52 64 66 66 87 67 54 68 38 69
REMARK SMILES IDX 39 70 47 71 40 72 46 73 48 74 45 75 41 76 42 77 43 78 44 79
REMARK SMILES IDX 70 80 71 81 79 82 72 83 78 84 80 85 77 86 73 87 74 88 75 89
REMARK SMILES IDX 76 90 55 91 56 92 64 93 57 94 63 95 65 96 62 97 58 98 59 99
REMARK SMILES IDX 60 100 61 101
REMARK H PARENT 22 5 1 27 1 28 18 30 26 35 85 54 53 65
REMARK Flexibility Score: inf
ROOT
ATOM      1  C   UNL     1       0.063  -2.187  -4.154  1.00  0.00     0.118 C 
ENDROOT
BRANCH   1   2
ATOM      2  N   UNL     1      -1.301  -2.340  -4.635  1.00  0.00    -0.352 N 
ATOM      3  C   UNL     1      -2.182  -3.396  -4.651  1.00  0.00     0.255 C 
ATOM      4  O   UNL     1      -3.348  -3.152  -4.975  1.00  0.00    -0.269 OA
ATOM      5  H   UNL     1      -1.670  -1.518  -5.031  1.00  0.00     0.163 HD
BRANCH   3   6
ATOM      6  C   UNL     1      -1.851  -4.806  -4.280  1.00  0.00     0.082 A 
ATOM      7  C   UNL     1      -0.253  -6.579  -3.708  1.00  0.00     0.019 A 
ATOM      8  C   UNL     1      -1.294  -7.488  -3.543  1.00  0.00     0.016 A 
ATOM      9  C   UNL     1      -0.547  -5.274  -4.142  1.00  0.00     0.029 A 
ATOM     10  C   UNL     1      -2.611  -7.067  -3.739  1.00  0.00     0.048 A 
ATOM     11  C   UNL     1      -2.885  -5.738  -4.084  1.00  0.00     0.128 A 
BRANCH   7  12
ATOM     12  C   UNL     1       1.149  -6.942  -3.464  1.00  0.00     0.144 A 
ATOM     13  N   UNL     1       2.056  -6.153  -2.747  1.00  0.00    -0.300 N 
ATOM     14  C   UNL     1       3.311  -6.584  -3.113  1.00  0.00     0.113 A 
ATOM     15  C   UNL     1       3.110  -7.715  -3.865  1.00  0.00     0.132 A 
ATOM     16  N   UNL     1       1.775  -7.948  -4.050  1.00  0.00    -0.236 NA
BRANCH  13  17
ATOM     17  C   UNL     1       1.771  -5.076  -1.861  1.00  0.00     0.047 A 
ATOM     18  C   UNL     1       1.119  -2.906  -0.230  1.00  0.00     0.082 A 
ATOM     19  C   UNL     1       0.335  -4.062  -0.191  1.00  0.00     0.024 A 
ATOM     20  C   UNL     1       2.238  -2.833  -1.067  1.00  0.00     0.024 A 
ATOM     21  C   UNL     1       0.658  -5.146  -1.010  1.00  0.00     0.028 A 
ATOM     22  C   UNL     1       2.579  -3.929  -1.867  1.00  0.00     0.028 A 
BRANCH  18  23
ATOM     23  S   UNL     1       0.643  -1.529   0.777  1.00  0.00     0.238 S 
ATOM     24  O   UNL     1       1.377  -1.597   2.007  1.00  0.00    -0.207 OA
ATOM     25  O   UNL     1      -0.804  -1.413   0.728  1.00  0.00    -0.207 OA
BRANCH  23  26
ATOM     26  N   UNL     1       1.218  -0.191  -0.057  1.00  0.00    -0.225 NA
ATOM     27  H   UNL     1       0.985   0.658   0.459  1.00  0.00     0.137 HD
ATOM     28  H   UNL     1       0.789  -0.156  -0.981  1.00  0.00     0.137 HD
ENDBRANCH  23  26
ENDBRANCH  18  23
ENDBRANCH  13  17
ENDBRANCH   7  12
BRANCH  11  29
ATOM     29  O   UNL     1      -4.214  -5.430  -4.224  1.00  0.00    -0.507 OA
ATOM     30  H   UNL     1      -4.865  -6.089  -4.082  1.00  0.00     0.293 HD
ENDBRANCH  11  29
ENDBRANCH   3   6
ENDBRANCH   1   2
BRANCH   1  31
ATOM     31  C   UNL     1       1.115  -2.429  -5.247  1.00  0.00     0.042 C 
BRANCH  31  32
ATOM     32  C   UNL     1       1.464  -1.168  -6.023  1.00  0.00     0.118 C 
BRANCH  32  33
ATOM     33  N   UNL     1       2.201  -0.211  -5.200  1.00  0.00    -0.352 N 
ATOM     34  C   UNL     1       2.489   1.113  -5.458  1.00  0.00     0.251 C 
ATOM     35  H   UNL     1       2.540  -0.559  -4.343  1.00  0.00     0.163 HD
ATOM     36  O   UNL     1       3.393   1.669  -4.843  1.00  0.00    -0.269 OA
BRANCH  34  37
ATOM     37  C   UNL     1       1.723   1.829  -6.495  1.00  0.00     0.039 A 
ATOM     38  C   UNL     1       2.378   2.655  -7.410  1.00  0.00     0.014 A 
ATOM     39  C   UNL     1       0.348   1.621  -6.585  1.00  0.00     0.014 A 
ATOM     40  C   UNL     1       1.657   3.171  -8.485  1.00  0.00     0.010 A 
ATOM     41  C   UNL     1      -0.333   2.027  -7.713  1.00  0.00     0.010 A 
ATOM     42  C   UNL     1       0.308   2.814  -8.665  1.00  0.00    -0.014 A 
BRANCH  42  43
ATOM     43  C   UNL     1      -0.359   3.115  -9.937  1.00  0.00     0.031 A 
ATOM     44  C   UNL     1       0.435   2.757 -11.143  1.00  0.00     0.074 A 
ATOM     45  C   UNL     1      -1.649   3.493 -10.079  1.00  0.00     0.049 A 
ATOM     46  N   UNL     1       1.016   3.567 -11.965  1.00  0.00    -0.248 NA
ATOM     47  C   UNL     1       0.761   1.341 -11.380  1.00  0.00     0.031 C 
ATOM     48  C   UNL     1      -2.669   3.626  -9.035  1.00  0.00     0.029 A 
ATOM     49  N   UNL     1      -2.356   3.739 -11.222  1.00  0.00    -0.354 N 
ATOM     50  C   UNL     1       1.541   2.770 -12.976  1.00  0.00     0.074 A 
ATOM     51  C   UNL     1       1.554   1.431 -12.451  1.00  0.00     0.031 C 
ATOM     52  C   UNL     1      -3.893   3.695  -9.601  1.00  0.00     0.029 A 
ATOM     53  C   UNL     1      -3.737   3.789 -11.042  1.00  0.00     0.049 A 
ATOM     54  H   UNL     1      -1.927   3.871 -12.098  1.00  0.00     0.167 HD
ATOM     55  C   UNL     1       1.656   3.244 -14.248  1.00  0.00     0.034 A 
ATOM     56  C   UNL     1      -4.699   3.898 -11.995  1.00  0.00     0.034 A 
ATOM     57  C   UNL     1       1.564   4.690 -14.275  1.00  0.00     0.049 A 
ATOM     58  C   UNL     1      -4.065   4.535 -13.172  1.00  0.00     0.074 A 
ATOM     59  C   UNL     1       2.221   5.714 -13.616  1.00  0.00     0.029 A 
ATOM     60  N   UNL     1       0.413   5.262 -14.772  1.00  0.00    -0.354 N 
ATOM     61  N   UNL     1      -3.607   5.757 -13.164  1.00  0.00    -0.248 NA
ATOM     62  C   UNL     1      -3.524   3.680 -14.216  1.00  0.00     0.031 C 
ATOM     63  C   UNL     1       1.201   6.662 -13.302  1.00  0.00     0.029 A 
ATOM     64  C   UNL     1       0.006   6.216 -13.871  1.00  0.00     0.049 A 
ATOM     65  H   UNL     1      -0.035   5.030 -15.617  1.00  0.00     0.167 HD
ATOM     66  C   UNL     1      -2.421   5.695 -13.876  1.00  0.00     0.074 A 
ATOM     67  C   UNL     1      -2.482   4.425 -14.597  1.00  0.00     0.031 C 
ATOM     68  C   UNL     1      -1.382   6.539 -13.597  1.00  0.00     0.034 A 
BRANCH  55  69
ATOM     69  C   UNL     1       1.451   2.406 -15.495  1.00  0.00     0.023 A 
ATOM     70  C   UNL     1       1.611   3.051 -16.736  1.00  0.00     0.031 A 
ATOM     71  C   UNL     1       0.825   1.139 -15.542  1.00  0.00     0.131 A 
ATOM     72  C   UNL     1       1.059   2.508 -17.910  1.00  0.00     0.055 A 
ATOM     73  C   UNL     1       0.347   0.568 -16.725  1.00  0.00     0.041 A 
ATOM     74  F   UNL     1       0.550   0.422 -14.447  1.00  0.00    -0.206 F 
ATOM     75  C   UNL     1       0.429   1.268 -17.914  1.00  0.00     0.022 A 
BRANCH  72  76
ATOM     76  S   UNL     1       1.005   3.550 -19.390  1.00  0.00     0.124 S 
ATOM     77  O   UNL     1       0.298   4.724 -18.888  1.00  0.00    -0.237 OA
ATOM     78  O   UNL     1       2.423   3.728 -19.683  1.00  0.00    -0.237 OA
ATOM     79  O   UNL     1       0.265   2.736 -20.350  1.00  0.00    -0.744 OA
ENDBRANCH  72  76
ENDBRANCH  55  69
BRANCH  56  80
ATOM     80  C   UNL     1      -6.041   3.254 -12.020  1.00  0.00     0.023 A 
ATOM     81  C   UNL     1      -7.074   3.673 -12.886  1.00  0.00     0.031 A 
ATOM     82  C   UNL     1      -6.242   2.028 -11.346  1.00  0.00     0.131 A 
ATOM     83  C   UNL     1      -8.232   2.877 -13.055  1.00  0.00     0.055 A 
ATOM     84  C   UNL     1      -7.388   1.249 -11.512  1.00  0.00     0.041 A 
ATOM     85  F   UNL     1      -5.285   1.498 -10.566  1.00  0.00    -0.206 F 
ATOM     86  C   UNL     1      -8.385   1.665 -12.378  1.00  0.00     0.022 A 
BRANCH  83  87
ATOM     87  S   UNL     1      -9.519   3.357 -14.253  1.00  0.00     0.124 S 
ATOM     88  O   UNL     1     -10.131   4.511 -13.605  1.00  0.00    -0.237 OA
ATOM     89  O   UNL     1      -8.743   3.625 -15.459  1.00  0.00    -0.237 OA
ATOM     90  O   UNL     1     -10.374   2.171 -14.330  1.00  0.00    -0.744 OA
ENDBRANCH  83  87
ENDBRANCH  56  80
BRANCH  68  91
ATOM     91  C   UNL     1      -1.651   7.785 -12.775  1.00  0.00     0.023 A 
ATOM     92  C   UNL     1      -2.237   7.811 -11.488  1.00  0.00     0.031 A 
ATOM     93  C   UNL     1      -1.186   9.006 -13.300  1.00  0.00     0.131 A 
ATOM     94  C   UNL     1      -2.349   9.031 -10.788  1.00  0.00     0.055 A 
ATOM     95  C   UNL     1      -1.278  10.205 -12.596  1.00  0.00     0.041 A 
ATOM     96  F   UNL     1      -0.599   9.048 -14.508  1.00  0.00    -0.206 F 
ATOM     97  C   UNL     1      -1.868  10.223 -11.339  1.00  0.00     0.022 A 
BRANCH  94  98
ATOM     98  S   UNL     1      -3.147   9.101  -9.151  1.00  0.00     0.124 S 
ATOM     99  O   UNL     1      -4.364   8.316  -9.326  1.00  0.00    -0.237 OA
ATOM    100  O   UNL     1      -2.131   8.518  -8.279  1.00  0.00    -0.237 OA
ATOM    101  O   UNL     1      -3.373  10.533  -8.944  1.00  0.00    -0.744 OA
ENDBRANCH  94  98
ENDBRANCH  68  91
ENDBRANCH  42  43
ENDBRANCH  34  37
ENDBRANCH  32  33
ENDBRANCH  31  32
ENDBRANCH   1  31
TORSDOF 18
