REMARK SMILES CC(C)(C)c1ccc(N2C(=O)/C(=C\c3ccc(OCC(=O)NCCCNC(=O)c4ccc(-c5c6nc(c(-c7cc(S(=O)(=O)[O-])ccc7F)c7ccc([nH]7)c(-c7cc(S(=O)(=O)[O-])ccc7F)c7nc(c(-c8cc(S(=O)(=O)[O-])ccc8F)c8ccc5[nH]8)C=C7)C=C6)cc4)c(Br)c3)C(=O)[NH+]=C2O)cc1
REMARK SMILES IDX 23 1 22 2 20 3 21 4 19 6 18 7 17 8 14 9 15 10 94 11 16 12
REMARK SMILES IDX 92 13 93 14 13 15 9 16 10 17 98 18 11 19 12 20 97 21 95 22
REMARK SMILES IDX 96 24 8 25 5 26 6 27 101 28 7 29 100 30 2 31 1 32 3 33 4 34
REMARK SMILES IDX 99 35 24 37 25 38 26 39 27 40 28 42 29 43 30 44 91 45 31 46
REMARK SMILES IDX 90 47 32 48 33 49 34 50 84 51 35 52 89 53 83 54 85 55 36 56
REMARK SMILES IDX 88 57 82 58 81 59 37 61 69 62 49 63 68 64 50 65 53 66 67 67
REMARK SMILES IDX 86 68 51 69 52 70 66 72 87 73 54 74 38 75 39 76 47 77 40 78
REMARK SMILES IDX 46 79 48 80 45 81 41 82 42 83 43 84 44 85 70 86 71 87 79 88
REMARK SMILES IDX 72 89 78 90 80 91 77 92 73 93 74 94 75 95 76 96 55 97 56 98
REMARK SMILES IDX 64 99 57 100 63 101 65 102 62 103 58 104 59 105 60 106
REMARK SMILES IDX 61 107
REMARK H PARENT 22 5 97 23 99 36 26 41 85 60 53 71
REMARK Flexibility Score: inf
ROOT
ATOM      1  C   UNL     1       8.204  -2.110  -0.361  1.00  0.00     0.117 C 
ENDROOT
BRANCH   1   2
ATOM      2  N   UNL     1       7.443  -3.075   0.408  1.00  0.00    -0.353 N 
ATOM      3  C   UNL     1       7.699  -4.396   0.626  1.00  0.00     0.257 C 
ATOM      4  O   UNL     1       6.959  -5.011   1.397  1.00  0.00    -0.271 OA
ATOM      5  H   UNL     1       6.625  -2.727   0.832  1.00  0.00     0.163 HD
BRANCH   3   6
ATOM      6  C   UNL     1       8.936  -5.052  -0.009  1.00  0.00     0.329 C 
BRANCH   6   7
ATOM      7  O   UNL     1       9.051  -5.186  -1.412  1.00  0.00    -0.483 OA
BRANCH   7   8
ATOM      8  C   UNL     1       8.035  -5.743  -2.137  1.00  0.00     0.134 A 
ATOM      9  C   UNL     1       6.028  -6.565  -3.948  1.00  0.00    -0.023 A 
ATOM     10  C   UNL     1       6.926  -5.568  -4.316  1.00  0.00     0.012 A 
ATOM     11  C   UNL     1       6.179  -7.196  -2.708  1.00  0.00     0.027 A 
ATOM     12  C   UNL     1       7.916  -5.165  -3.415  1.00  0.00     0.048 A 
ATOM     13  C   UNL     1       7.189  -6.808  -1.812  1.00  0.00     0.060 A 
ATOM     14  Br  UNL     1       7.350  -7.917  -0.279  1.00  0.00    -0.047 Br
BRANCH   9  15
ATOM     15  C   UNL     1       4.887  -6.920  -4.795  1.00  0.00     0.032 C 
ATOM     16  N   UNL     1       1.920  -5.224  -3.436  1.00  0.00    -0.124 N 
ATOM     17  C   UNL     1       3.278  -5.386  -3.655  1.00  0.00     0.357 C 
ATOM     18  C   UNL     1       1.018  -5.949  -4.175  1.00  0.00     0.462 C 
ATOM     19  O   UNL     1       4.151  -4.740  -3.077  1.00  0.00    -0.240 OA
ATOM     20  C   UNL     1       3.631  -6.444  -4.638  1.00  0.00     0.155 C 
ATOM     21  N   UNL     1       1.277  -6.792  -5.103  1.00  0.00    -0.172 N 
ATOM     22  C   UNL     1       2.565  -7.069  -5.457  1.00  0.00     0.349 C 
ATOM     23  H   UNL     1       0.536  -7.247  -5.567  1.00  0.00     0.319 HD
ATOM     24  O   UNL     1       2.832  -7.841  -6.372  1.00  0.00    -0.240 OA
BRANCH  16  25
ATOM     25  C   UNL     1       1.499  -4.262  -2.465  1.00  0.00     0.140 A 
ATOM     26  C   UNL     1       0.727  -2.323  -0.527  1.00  0.00    -0.042 A 
ATOM     27  C   UNL     1       0.222  -3.636  -0.495  1.00  0.00     0.008 A 
ATOM     28  C   UNL     1       1.633  -2.016  -1.549  1.00  0.00     0.008 A 
ATOM     29  C   UNL     1       0.585  -4.587  -1.460  1.00  0.00     0.053 A 
ATOM     30  C   UNL     1       2.026  -2.968  -2.491  1.00  0.00     0.053 A 
BRANCH  26  31
ATOM     31  C   UNL     1       0.293  -1.281   0.518  1.00  0.00    -0.013 C 
ATOM     32  C   UNL     1       0.808   0.148   0.223  1.00  0.00     0.016 C 
ATOM     33  C   UNL     1       0.838  -1.691   1.901  1.00  0.00     0.016 C 
ATOM     34  C   UNL     1      -1.247  -1.201   0.575  1.00  0.00     0.016 C 
ENDBRANCH  26  31
ENDBRANCH  16  25
BRANCH  18  35
ATOM     35  O   UNL     1      -0.287  -5.723  -3.946  1.00  0.00    -0.446 OA
ATOM     36  H   UNL     1      -0.548  -5.117  -3.281  1.00  0.00     0.301 HD
ENDBRANCH  18  35
ENDBRANCH   9  15
ENDBRANCH   7   8
ENDBRANCH   6   7
ENDBRANCH   3   6
ENDBRANCH   1   2
BRANCH   1  37
ATOM     37  C   UNL     1       7.434  -1.582  -1.565  1.00  0.00     0.042 C 
BRANCH  37  38
ATOM     38  C   UNL     1       6.117  -0.887  -1.231  1.00  0.00     0.118 C 
BRANCH  38  39
ATOM     39  N   UNL     1       6.285   0.290  -0.387  1.00  0.00    -0.352 N 
ATOM     40  C   UNL     1       5.947   1.606  -0.604  1.00  0.00     0.251 C 
ATOM     41  H   UNL     1       6.712   0.115   0.482  1.00  0.00     0.163 HD
ATOM     42  O   UNL     1       6.331   2.459   0.192  1.00  0.00    -0.269 OA
BRANCH  40  43
ATOM     43  C   UNL     1       5.150   2.004  -1.788  1.00  0.00     0.039 A 
ATOM     44  C   UNL     1       5.478   3.179  -2.469  1.00  0.00     0.014 A 
ATOM     45  C   UNL     1       4.064   1.240  -2.217  1.00  0.00     0.014 A 
ATOM     46  C   UNL     1       4.772   3.536  -3.623  1.00  0.00     0.010 A 
ATOM     47  C   UNL     1       3.412   1.550  -3.409  1.00  0.00     0.010 A 
ATOM     48  C   UNL     1       3.763   2.700  -4.131  1.00  0.00    -0.014 A 
BRANCH  48  49
ATOM     49  C   UNL     1       3.080   3.002  -5.419  1.00  0.00     0.031 A 
ATOM     50  C   UNL     1       1.598   3.263  -5.455  1.00  0.00     0.074 A 
ATOM     51  C   UNL     1       3.786   2.974  -6.568  1.00  0.00     0.049 A 
ATOM     52  N   UNL     1       0.817   3.466  -6.487  1.00  0.00    -0.248 NA
ATOM     53  C   UNL     1       0.897   3.267  -4.163  1.00  0.00     0.031 C 
ATOM     54  C   UNL     1       5.220   2.691  -6.671  1.00  0.00     0.029 A 
ATOM     55  N   UNL     1       3.397   3.175  -7.870  1.00  0.00    -0.354 N 
ATOM     56  C   UNL     1      -0.466   3.613  -5.971  1.00  0.00     0.074 A 
ATOM     57  C   UNL     1      -0.365   3.410  -4.540  1.00  0.00     0.031 C 
ATOM     58  C   UNL     1       5.592   2.764  -7.958  1.00  0.00     0.029 A 
ATOM     59  C   UNL     1       4.420   3.046  -8.781  1.00  0.00     0.049 A 
ATOM     60  H   UNL     1       2.471   3.390  -8.127  1.00  0.00     0.167 HD
ATOM     61  C   UNL     1      -1.617   3.913  -6.624  1.00  0.00     0.034 A 
ATOM     62  C   UNL     1       4.416   3.130 -10.127  1.00  0.00     0.034 A 
ATOM     63  C   UNL     1      -1.701   4.119  -8.051  1.00  0.00     0.049 A 
ATOM     64  C   UNL     1       3.118   3.429 -10.835  1.00  0.00     0.074 A 
ATOM     65  C   UNL     1      -2.804   4.477  -8.806  1.00  0.00     0.029 A 
ATOM     66  N   UNL     1      -0.644   3.976  -8.941  1.00  0.00    -0.354 N 
ATOM     67  N   UNL     1       1.923   3.617 -10.325  1.00  0.00    -0.248 NA
ATOM     68  C   UNL     1       3.172   3.539 -12.298  1.00  0.00     0.031 C 
ATOM     69  C   UNL     1      -2.434   4.478 -10.155  1.00  0.00     0.029 A 
ATOM     70  C   UNL     1      -1.078   4.204 -10.239  1.00  0.00     0.049 A 
ATOM     71  H   UNL     1       0.279   3.745  -8.688  1.00  0.00     0.167 HD
ATOM     72  C   UNL     1       1.091   3.900 -11.405  1.00  0.00     0.074 A 
ATOM     73  C   UNL     1       1.924   3.873 -12.589  1.00  0.00     0.031 C 
ATOM     74  C   UNL     1      -0.241   4.164 -11.416  1.00  0.00     0.034 A 
BRANCH  61  75
ATOM     75  C   UNL     1      -2.880   4.011  -5.801  1.00  0.00     0.023 A 
ATOM     76  C   UNL     1      -3.027   4.973  -4.786  1.00  0.00     0.031 A 
ATOM     77  C   UNL     1      -3.946   3.119  -6.018  1.00  0.00     0.131 A 
ATOM     78  C   UNL     1      -4.174   4.971  -3.977  1.00  0.00     0.055 A 
ATOM     79  C   UNL     1      -5.122   3.178  -5.266  1.00  0.00     0.041 A 
ATOM     80  F   UNL     1      -3.859   2.165  -6.958  1.00  0.00    -0.206 F 
ATOM     81  C   UNL     1      -5.234   4.098  -4.227  1.00  0.00     0.022 A 
BRANCH  78  82
ATOM     82  S   UNL     1      -4.192   6.024  -2.500  1.00  0.00     0.124 S 
ATOM     83  O   UNL     1      -3.023   5.532  -1.774  1.00  0.00    -0.237 OA
ATOM     84  O   UNL     1      -4.077   7.363  -3.065  1.00  0.00    -0.237 OA
ATOM     85  O   UNL     1      -5.478   5.717  -1.876  1.00  0.00    -0.744 OA
ENDBRANCH  78  82
ENDBRANCH  61  75
BRANCH  62  86
ATOM     86  C   UNL     1       5.673   2.919 -10.902  1.00  0.00     0.023 A 
ATOM     87  C   UNL     1       6.231   3.953 -11.671  1.00  0.00     0.031 A 
ATOM     88  C   UNL     1       6.310   1.666 -10.924  1.00  0.00     0.131 A 
ATOM     89  C   UNL     1       7.358   3.703 -12.468  1.00  0.00     0.055 A 
ATOM     90  C   UNL     1       7.466   1.438 -11.674  1.00  0.00     0.041 A 
ATOM     91  F   UNL     1       5.822   0.643 -10.204  1.00  0.00    -0.206 F 
ATOM     92  C   UNL     1       7.988   2.457 -12.464  1.00  0.00     0.022 A 
BRANCH  89  93
ATOM     93  S   UNL     1       7.937   5.009 -13.587  1.00  0.00     0.124 S 
ATOM     94  O   UNL     1       6.750   5.251 -14.399  1.00  0.00    -0.237 OA
ATOM     95  O   UNL     1       8.302   6.068 -12.652  1.00  0.00    -0.237 OA
ATOM     96  O   UNL     1       9.057   4.384 -14.287  1.00  0.00    -0.744 OA
ENDBRANCH  89  93
ENDBRANCH  62  86
BRANCH  74  97
ATOM     97  C   UNL     1      -0.866   4.494 -12.751  1.00  0.00     0.023 A 
ATOM     98  C   UNL     1      -0.957   3.544 -13.783  1.00  0.00     0.031 A 
ATOM     99  C   UNL     1      -1.366   5.785 -12.996  1.00  0.00     0.131 A 
ATOM    100  C   UNL     1      -1.482   3.915 -15.031  1.00  0.00     0.055 A 
ATOM    101  C   UNL     1      -1.945   6.131 -14.218  1.00  0.00     0.041 A 
ATOM    102  F   UNL     1      -1.302   6.734 -12.049  1.00  0.00    -0.206 F 
ATOM    103  C   UNL     1      -1.993   5.197 -15.248  1.00  0.00     0.022 A 
BRANCH 100 104
ATOM    104  S   UNL     1      -1.401   2.727 -16.399  1.00  0.00     0.124 S 
ATOM    105  O   UNL     1       0.033   2.469 -16.492  1.00  0.00    -0.237 OA
ATOM    106  O   UNL     1      -2.216   1.623 -15.904  1.00  0.00    -0.237 OA
ATOM    107  O   UNL     1      -1.972   3.462 -17.526  1.00  0.00    -0.744 OA
ENDBRANCH 100 104
ENDBRANCH  74  97
ENDBRANCH  48  49
ENDBRANCH  40  43
ENDBRANCH  38  39
ENDBRANCH  37  38
ENDBRANCH   1  37
TORSDOF 19
