REMARK SMILES CC(C)(C)[C@H](CCC(=O)NCCCNC(=O)c1ccc(-c2c3nc(c(-c4cc(S(=O)(=O)[O-])ccc4F)c4ccc([nH]4)c(-c4cc(S(=O)(=O)[O-])ccc4F)c4nc(c(-c5cc(S(=O)(=O)[O-])ccc5F)c5ccc2[nH]5)C=C4)C=C3)cc1)CC[NH+]1CCOCC1
REMARK SMILES IDX 11 1 10 2 8 3 9 4 7 6 6 7 5 8 2 9 1 10 3 11 4 12 80 13 81 14
REMARK SMILES IDX 82 15 83 16 87 17 84 19 86 20 85 21 12 22 13 23 14 24 15 25
REMARK SMILES IDX 16 27 17 28 18 29 79 30 19 31 78 32 20 33 21 34 22 35 72 36
REMARK SMILES IDX 23 37 77 38 71 39 73 40 24 41 76 42 70 43 69 44 25 46 57 47
REMARK SMILES IDX 37 48 56 49 38 50 41 51 55 52 74 53 39 54 40 55 54 57 75 58
REMARK SMILES IDX 42 59 26 60 27 61 35 62 28 63 34 64 36 65 33 66 29 67 30 68
REMARK SMILES IDX 31 69 32 70 58 71 59 72 67 73 60 74 66 75 68 76 65 77 61 78
REMARK SMILES IDX 62 79 63 80 64 81 43 82 44 83 52 84 45 85 51 86 53 87 50 88
REMARK SMILES IDX 46 89 47 90 48 91 49 92
REMARK H PARENT 10 5 82 18 14 26 73 45 41 56
REMARK Flexibility Score: inf
ROOT
ATOM      1  C   UNL     1      -1.069   3.799   0.102  1.00  0.00     0.117 C 
ENDROOT
BRANCH   1   2
ATOM      2  N   UNL     1      -1.772   2.644  -0.454  1.00  0.00    -0.356 N 
ATOM      3  C   UNL     1      -1.636   1.286  -0.393  1.00  0.00     0.220 C 
ATOM      4  O   UNL     1      -2.627   0.639  -0.759  1.00  0.00    -0.275 OA
ATOM      5  H   UNL     1      -2.537   2.913  -1.012  1.00  0.00     0.163 HD
BRANCH   3   6
ATOM      6  C   UNL     1      -0.388   0.513   0.063  1.00  0.00     0.100 C 
BRANCH   6   7
ATOM      7  C   UNL     1       0.337  -0.368  -1.018  1.00  0.00     0.014 C 
BRANCH   7   8
ATOM      8  C   UNL     1       1.375   0.184  -2.099  1.00  0.00     0.000 C 
BRANCH   8   9
ATOM      9  C   UNL     1       1.369   1.732  -2.303  1.00  0.00    -0.035 C 
ATOM     10  C   UNL     1       1.822   2.399  -0.988  1.00  0.00     0.011 C 
ATOM     11  C   UNL     1      -0.014   2.039  -2.927  1.00  0.00     0.011 C 
ATOM     12  C   UNL     1       2.348   2.338  -3.332  1.00  0.00     0.011 C 
ENDBRANCH   8   9
BRANCH   8  13
ATOM     13  C   UNL     1       2.808  -0.404  -1.911  1.00  0.00     0.065 C 
BRANCH  13  14
ATOM     14  C   UNL     1       3.146  -1.626  -2.802  1.00  0.00     0.262 C 
BRANCH  14  15
ATOM     15  N   UNL     1       2.830  -1.490  -4.231  1.00  0.00    -0.331 N 
ATOM     16  C   UNL     1       3.017  -2.754  -4.973  1.00  0.00     0.291 C 
ATOM     17  C   UNL     1       3.572  -0.436  -4.948  1.00  0.00     0.291 C 
ATOM     18  H   UNL     1       1.847  -1.218  -4.211  1.00  0.00     0.348 HD
ATOM     19  C   UNL     1       4.488  -3.067  -5.300  1.00  0.00     0.221 C 
ATOM     20  C   UNL     1       5.016  -0.777  -5.333  1.00  0.00     0.221 C 
ATOM     21  O   UNL     1       5.098  -2.011  -6.048  1.00  0.00    -0.370 OA
ENDBRANCH  14  15
ENDBRANCH  13  14
ENDBRANCH   8  13
ENDBRANCH   7   8
ENDBRANCH   6   7
ENDBRANCH   3   6
ENDBRANCH   1   2
BRANCH   1  22
ATOM     22  C   UNL     1      -0.433   4.808  -0.887  1.00  0.00     0.042 C 
BRANCH  22  23
ATOM     23  C   UNL     1      -1.336   5.503  -1.924  1.00  0.00     0.118 C 
BRANCH  23  24
ATOM     24  N   UNL     1      -0.732   6.790  -2.282  1.00  0.00    -0.352 N 
ATOM     25  C   UNL     1      -0.248   7.338  -3.443  1.00  0.00     0.251 C 
ATOM     26  H   UNL     1      -0.655   7.400  -1.513  1.00  0.00     0.163 HD
ATOM     27  O   UNL     1       0.552   8.268  -3.316  1.00  0.00    -0.269 OA
BRANCH  25  28
ATOM     28  C   UNL     1      -0.667   6.936  -4.815  1.00  0.00     0.039 A 
ATOM     29  C   UNL     1       0.143   7.348  -5.891  1.00  0.00     0.014 A 
ATOM     30  C   UNL     1      -1.899   6.347  -5.098  1.00  0.00     0.014 A 
ATOM     31  C   UNL     1      -0.285   7.204  -7.219  1.00  0.00     0.010 A 
ATOM     32  C   UNL     1      -2.303   6.154  -6.430  1.00  0.00     0.010 A 
ATOM     33  C   UNL     1      -1.522   6.614  -7.505  1.00  0.00    -0.014 A 
BRANCH  33  34
ATOM     34  C   UNL     1      -2.049   6.557  -8.903  1.00  0.00     0.031 A 
ATOM     35  C   UNL     1      -3.290   7.337  -9.270  1.00  0.00     0.074 A 
ATOM     36  C   UNL     1      -1.445   5.794  -9.837  1.00  0.00     0.049 A 
ATOM     37  N   UNL     1      -3.979   7.338 -10.384  1.00  0.00    -0.248 NA
ATOM     38  C   UNL     1      -3.844   8.210  -8.226  1.00  0.00     0.031 C 
ATOM     39  C   UNL     1      -0.243   4.989  -9.619  1.00  0.00     0.029 A 
ATOM     40  N   UNL     1      -1.765   5.561 -11.154  1.00  0.00    -0.354 N 
ATOM     41  C   UNL     1      -5.067   8.180 -10.162  1.00  0.00     0.074 A 
ATOM     42  C   UNL     1      -4.966   8.632  -8.790  1.00  0.00     0.031 C 
ATOM     43  C   UNL     1       0.077   4.359 -10.762  1.00  0.00     0.029 A 
ATOM     44  C   UNL     1      -0.916   4.678 -11.783  1.00  0.00     0.049 A 
ATOM     45  H   UNL     1      -2.530   5.986 -11.605  1.00  0.00     0.167 HD
ATOM     46  C   UNL     1      -6.048   8.556 -11.023  1.00  0.00     0.034 A 
ATOM     47  C   UNL     1      -0.943   4.170 -13.032  1.00  0.00     0.034 A 
ATOM     48  C   UNL     1      -6.116   8.126 -12.400  1.00  0.00     0.049 A 
ATOM     49  C   UNL     1      -2.043   4.598 -13.973  1.00  0.00     0.074 A 
ATOM     50  C   UNL     1      -7.033   8.484 -13.374  1.00  0.00     0.029 A 
ATOM     51  N   UNL     1      -5.227   7.243 -13.002  1.00  0.00    -0.354 N 
ATOM     52  N   UNL     1      -3.052   5.409 -13.752  1.00  0.00    -0.248 NA
ATOM     53  C   UNL     1      -2.000   4.050 -15.336  1.00  0.00     0.031 C 
ATOM     54  C   UNL     1      -6.734   7.775 -14.544  1.00  0.00     0.029 A 
ATOM     55  C   UNL     1      -5.588   7.029 -14.324  1.00  0.00     0.049 A 
ATOM     56  H   UNL     1      -4.454   6.830 -12.554  1.00  0.00     0.167 HD
ATOM     57  C   UNL     1      -3.745   5.490 -14.957  1.00  0.00     0.074 A 
ATOM     58  C   UNL     1      -3.031   4.659 -15.904  1.00  0.00     0.031 C 
ATOM     59  C   UNL     1      -4.869   6.191 -15.255  1.00  0.00     0.034 A 
BRANCH  46  60
ATOM     60  C   UNL     1      -7.143   9.452 -10.486  1.00  0.00     0.023 A 
ATOM     61  C   UNL     1      -6.873  10.743  -9.996  1.00  0.00     0.031 A 
ATOM     62  C   UNL     1      -8.474   8.997 -10.429  1.00  0.00     0.131 A 
ATOM     63  C   UNL     1      -7.894  11.493  -9.391  1.00  0.00     0.055 A 
ATOM     64  C   UNL     1      -9.503   9.785  -9.907  1.00  0.00     0.041 A 
ATOM     65  F   UNL     1      -8.796   7.770 -10.866  1.00  0.00    -0.206 F 
ATOM     66  C   UNL     1      -9.213  11.034  -9.366  1.00  0.00     0.022 A 
BRANCH  63  67
ATOM     67  S   UNL     1      -7.442  13.006  -8.499  1.00  0.00     0.124 S 
ATOM     68  O   UNL     1      -6.515  12.489  -7.495  1.00  0.00    -0.237 OA
ATOM     69  O   UNL     1      -6.855  13.829  -9.548  1.00  0.00    -0.237 OA
ATOM     70  O   UNL     1      -8.718  13.486  -7.968  1.00  0.00    -0.744 OA
ENDBRANCH  63  67
ENDBRANCH  46  60
BRANCH  47  71
ATOM     71  C   UNL     1       0.093   3.190 -13.472  1.00  0.00     0.023 A 
ATOM     72  C   UNL     1       1.006   3.510 -14.490  1.00  0.00     0.031 A 
ATOM     73  C   UNL     1       0.163   1.905 -12.905  1.00  0.00     0.131 A 
ATOM     74  C   UNL     1       1.924   2.546 -14.938  1.00  0.00     0.055 A 
ATOM     75  C   UNL     1       1.110   0.966 -13.319  1.00  0.00     0.041 A 
ATOM     76  F   UNL     1      -0.685   1.548 -11.928  1.00  0.00    -0.206 F 
ATOM     77  C   UNL     1       1.990   1.280 -14.350  1.00  0.00     0.022 A 
BRANCH  74  78
ATOM     78  S   UNL     1       2.982   2.945 -16.356  1.00  0.00     0.124 S 
ATOM     79  O   UNL     1       1.997   3.259 -17.384  1.00  0.00    -0.237 OA
ATOM     80  O   UNL     1       3.760   4.069 -15.846  1.00  0.00    -0.237 OA
ATOM     81  O   UNL     1       3.740   1.714 -16.573  1.00  0.00    -0.744 OA
ENDBRANCH  74  78
ENDBRANCH  47  71
BRANCH  59  82
ATOM     82  C   UNL     1      -5.362   6.121 -16.680  1.00  0.00     0.023 A 
ATOM     83  C   UNL     1      -5.883   4.935 -17.226  1.00  0.00     0.031 A 
ATOM     84  C   UNL     1      -5.298   7.257 -17.505  1.00  0.00     0.131 A 
ATOM     85  C   UNL     1      -6.268   4.897 -18.575  1.00  0.00     0.055 A 
ATOM     86  C   UNL     1      -5.735   7.229 -18.830  1.00  0.00     0.041 A 
ATOM     87  F   UNL     1      -4.808   8.416 -17.035  1.00  0.00    -0.206 F 
ATOM     88  C   UNL     1      -6.212   6.041 -19.376  1.00  0.00     0.022 A 
BRANCH  85  89
ATOM     89  S   UNL     1      -6.763   3.308 -19.297  1.00  0.00     0.124 S 
ATOM     90  O   UNL     1      -5.571   2.493 -19.082  1.00  0.00    -0.237 OA
ATOM     91  O   UNL     1      -7.931   2.953 -18.498  1.00  0.00    -0.237 OA
ATOM     92  O   UNL     1      -7.045   3.638 -20.692  1.00  0.00    -0.744 OA
ENDBRANCH  85  89
ENDBRANCH  59  82
ENDBRANCH  33  34
ENDBRANCH  25  28
ENDBRANCH  23  24
ENDBRANCH  22  23
ENDBRANCH   1  22
TORSDOF 19
