REMARK SMILES CN(Cc1ccoc1)C(=O)N[C@@H]1CCCCC[C@H]1C(=O)NCCCNC(=O)c1ccc(-c2c3nc(c(-c4cc(S(=O)(=O)[O-])ccc4F)c4ccc([nH]4)c(-c4cc(S(=O)(=O)[O-])ccc4F)c4nc(c(-c5cc(S(=O)(=O)[O-])ccc5F)c5ccc2[nH]5)C=C4)C=C3)cc1
REMARK SMILES IDX 22 1 21 2 19 3 20 4 18 6 12 7 11 8 9 9 10 10 2 12 1 13 3 14
REMARK SMILES IDX 4 15 5 16 8 17 6 18 7 19 13 20 14 21 17 23 16 24 15 25 23 27
REMARK SMILES IDX 24 28 25 29 26 30 27 32 28 33 29 34 90 35 30 36 89 37 31 38
REMARK SMILES IDX 32 39 33 40 83 41 34 42 88 43 82 44 84 45 35 46 87 47 81 48
REMARK SMILES IDX 80 49 36 51 68 52 48 53 67 54 49 55 52 56 66 57 85 58 50 59
REMARK SMILES IDX 51 60 65 62 86 63 53 64 37 65 38 66 46 67 39 68 45 69 47 70
REMARK SMILES IDX 44 71 40 72 41 73 42 74 43 75 69 76 70 77 78 78 71 79 77 80
REMARK SMILES IDX 79 81 76 82 72 83 73 84 74 85 75 86 54 87 55 88 63 89 56 90
REMARK SMILES IDX 62 91 64 92 61 93 57 94 58 95 59 96 60 97
REMARK H PARENT 21 5 11 11 25 31 84 50 52 61
REMARK Flexibility Score: 100.00
ROOT
ATOM      1  C   UNL     1      -2.828  -2.950  -5.789  1.00  0.00     0.117 C 
ENDROOT
BRANCH   1   2
ATOM      2  N   UNL     1      -1.657  -2.221  -6.360  1.00  0.00    -0.356 N 
ATOM      3  C   UNL     1      -0.468  -1.640  -6.070  1.00  0.00     0.225 C 
ATOM      4  O   UNL     1       0.085  -1.204  -7.100  1.00  0.00    -0.275 OA
ATOM      5  H   UNL     1      -1.809  -2.125  -7.328  1.00  0.00     0.163 HD
BRANCH   3   6
ATOM      6  C   UNL     1       0.302  -1.371  -4.732  1.00  0.00     0.101 C 
BRANCH   6   7
ATOM      7  C   UNL     1       0.001  -0.006  -4.059  1.00  0.00     0.096 C 
BRANCH   7   8
ATOM      8  N   UNL     1       1.105   0.562  -3.215  1.00  0.00    -0.334 N 
ATOM      9  C   UNL     1       1.498   0.944  -1.987  1.00  0.00     0.317 C 
ATOM     10  O   UNL     1       2.569   1.569  -2.005  1.00  0.00    -0.249 OA
ATOM     11  H   UNL     1       1.866   0.723  -3.818  1.00  0.00     0.165 HD
BRANCH   9  12
ATOM     12  N   UNL     1       0.867   0.700  -0.802  1.00  0.00    -0.323 N 
ATOM     13  C   UNL     1       1.509   1.141   0.432  1.00  0.00     0.149 C 
BRANCH  12  14
ATOM     14  C   UNL     1      -0.272  -0.149  -0.570  1.00  0.00     0.160 C 
BRANCH  14  15
ATOM     15  C   UNL     1      -1.581   0.547  -0.355  1.00  0.00     0.010 A 
ATOM     16  C   UNL     1      -1.959   1.905  -0.600  1.00  0.00     0.047 A 
ATOM     17  C   UNL     1      -2.768  -0.083  -0.011  1.00  0.00     0.200 A 
ATOM     18  C   UNL     1      -3.333   1.955  -0.525  1.00  0.00     0.195 A 
ATOM     19  O   UNL     1      -3.827   0.753  -0.142  1.00  0.00    -0.472 OA
ENDBRANCH  14  15
ENDBRANCH  12  14
ENDBRANCH   9  12
ENDBRANCH   7   8
BRANCH   7  20
ATOM     20  C   UNL     1      -1.382   0.157  -3.505  1.00  0.00     0.026 C 
BRANCH  20  21
ATOM     21  C   UNL     1      -2.132  -1.107  -3.134  1.00  0.00     0.002 CG0
ATOM     22  G   UNL     1      -1.661  -2.401  -2.462  1.00  0.00     0.000 G0
ENDBRANCH  20  21
ENDBRANCH   7  20
ENDBRANCH   6   7
BRANCH   6  23
ATOM     23  C   UNL     1       0.606  -2.497  -3.758  1.00  0.00     0.015 C 
BRANCH  23  24
ATOM     24  C   UNL     1      -0.543  -3.218  -3.101  1.00  0.00     0.001 C 
BRANCH  24  25
ATOM     25  C   UNL     1      -1.661  -2.401  -2.462  1.00  0.00     0.000 CG0
ATOM     26  G   UNL     1      -2.132  -1.107  -3.134  1.00  0.00     0.000 G0
ENDBRANCH  24  25
ENDBRANCH  23  24
ENDBRANCH   6  23
ENDBRANCH   3   6
ENDBRANCH   1   2
BRANCH   1  27
ATOM     27  C   UNL     1      -4.013  -2.036  -5.415  1.00  0.00     0.042 C 
BRANCH  27  28
ATOM     28  C   UNL     1      -5.413  -2.485  -5.780  1.00  0.00     0.118 C 
BRANCH  28  29
ATOM     29  N   UNL     1      -5.945  -3.477  -4.850  1.00  0.00    -0.352 N 
ATOM     30  C   UNL     1      -7.004  -3.435  -3.964  1.00  0.00     0.251 C 
ATOM     31  H   UNL     1      -5.459  -4.333  -4.855  1.00  0.00     0.163 HD
ATOM     32  O   UNL     1      -7.103  -4.353  -3.151  1.00  0.00    -0.269 OA
BRANCH  30  33
ATOM     33  C   UNL     1      -8.004  -2.327  -3.945  1.00  0.00     0.039 A 
ATOM     34  C   UNL     1      -8.729  -2.078  -2.769  1.00  0.00     0.014 A 
ATOM     35  C   UNL     1      -8.293  -1.560  -5.071  1.00  0.00     0.014 A 
ATOM     36  C   UNL     1      -9.685  -1.051  -2.723  1.00  0.00     0.010 A 
ATOM     37  C   UNL     1      -9.131  -0.450  -4.984  1.00  0.00     0.010 A 
ATOM     38  C   UNL     1      -9.873  -0.202  -3.823  1.00  0.00    -0.014 A 
BRANCH  38  39
ATOM     39  C   UNL     1     -10.879   0.900  -3.832  1.00  0.00     0.031 A 
ATOM     40  C   UNL     1     -11.954   0.920  -4.897  1.00  0.00     0.074 A 
ATOM     41  C   UNL     1     -10.786   1.917  -2.950  1.00  0.00     0.049 A 
ATOM     42  N   UNL     1     -12.828   1.852  -5.181  1.00  0.00    -0.248 NA
ATOM     43  C   UNL     1     -12.023  -0.247  -5.794  1.00  0.00     0.031 C 
ATOM     44  C   UNL     1      -9.769   2.040  -1.903  1.00  0.00     0.029 A 
ATOM     45  N   UNL     1     -11.546   3.052  -2.800  1.00  0.00    -0.354 N 
ATOM     46  C   UNL     1     -13.514   1.403  -6.307  1.00  0.00     0.074 A 
ATOM     47  C   UNL     1     -12.915   0.145  -6.691  1.00  0.00     0.031 C 
ATOM     48  C   UNL     1      -9.985   3.167  -1.206  1.00  0.00     0.029 A 
ATOM     49  C   UNL     1     -11.117   3.881  -1.787  1.00  0.00     0.049 A 
ATOM     50  H   UNL     1     -12.327   3.254  -3.366  1.00  0.00     0.167 HD
ATOM     51  C   UNL     1     -14.565   1.973  -6.946  1.00  0.00     0.034 A 
ATOM     52  C   UNL     1     -11.571   5.086  -1.385  1.00  0.00     0.034 A 
ATOM     53  C   UNL     1     -15.189   3.198  -6.515  1.00  0.00     0.049 A 
ATOM     54  C   UNL     1     -12.755   5.689  -2.104  1.00  0.00     0.074 A 
ATOM     55  C   UNL     1     -16.311   3.820  -7.033  1.00  0.00     0.029 A 
ATOM     56  N   UNL     1     -14.747   3.987  -5.462  1.00  0.00    -0.354 N 
ATOM     57  N   UNL     1     -13.427   5.218  -3.130  1.00  0.00    -0.248 NA
ATOM     58  C   UNL     1     -13.251   6.978  -1.603  1.00  0.00     0.031 C 
ATOM     59  C   UNL     1     -16.505   5.019  -6.341  1.00  0.00     0.029 A 
ATOM     60  C   UNL     1     -15.557   5.104  -5.335  1.00  0.00     0.049 A 
ATOM     61  H   UNL     1     -13.973   3.782  -4.889  1.00  0.00     0.167 HD
ATOM     62  C   UNL     1     -14.447   6.137  -3.369  1.00  0.00     0.074 A 
ATOM     63  C   UNL     1     -14.312   7.175  -2.370  1.00  0.00     0.031 C 
ATOM     64  C   UNL     1     -15.409   6.126  -4.327  1.00  0.00     0.034 A 
BRANCH  51  65
ATOM     65  C   UNL     1     -15.100   1.290  -8.184  1.00  0.00     0.023 A 
ATOM     66  C   UNL     1     -15.678   0.009  -8.139  1.00  0.00     0.031 A 
ATOM     67  C   UNL     1     -15.043   1.940  -9.430  1.00  0.00     0.131 A 
ATOM     68  C   UNL     1     -16.120  -0.604  -9.322  1.00  0.00     0.055 A 
ATOM     69  C   UNL     1     -15.557   1.358 -10.591  1.00  0.00     0.041 A 
ATOM     70  F   UNL     1     -14.483   3.155  -9.542  1.00  0.00    -0.206 F 
ATOM     71  C   UNL     1     -16.090   0.073 -10.543  1.00  0.00     0.022 A 
BRANCH  68  72
ATOM     72  S   UNL     1     -16.629  -2.343  -9.260  1.00  0.00     0.124 S 
ATOM     73  O   UNL     1     -15.399  -2.994  -8.814  1.00  0.00    -0.237 OA
ATOM     74  O   UNL     1     -17.724  -2.320  -8.300  1.00  0.00    -0.237 OA
ATOM     75  O   UNL     1     -17.014  -2.637 -10.641  1.00  0.00    -0.744 OA
ENDBRANCH  68  72
ENDBRANCH  51  65
BRANCH  52  76
ATOM     76  C   UNL     1     -10.910   5.820  -0.264  1.00  0.00     0.023 A 
ATOM     77  C   UNL     1     -11.616   6.141   0.907  1.00  0.00     0.031 A 
ATOM     78  C   UNL     1      -9.585   6.277  -0.375  1.00  0.00     0.131 A 
ATOM     79  C   UNL     1     -11.021   6.952   1.887  1.00  0.00     0.055 A 
ATOM     80  C   UNL     1      -8.973   7.026   0.634  1.00  0.00     0.041 A 
ATOM     81  F   UNL     1      -8.859   6.000  -1.470  1.00  0.00    -0.206 F 
ATOM     82  C   UNL     1      -9.699   7.384   1.765  1.00  0.00     0.022 A 
BRANCH  79  83
ATOM     83  S   UNL     1     -12.045   7.543   3.264  1.00  0.00     0.124 S 
ATOM     84  O   UNL     1     -13.152   8.180   2.557  1.00  0.00    -0.237 OA
ATOM     85  O   UNL     1     -12.359   6.301   3.961  1.00  0.00    -0.237 OA
ATOM     86  O   UNL     1     -11.156   8.454   3.981  1.00  0.00    -0.744 OA
ENDBRANCH  79  83
ENDBRANCH  52  76
BRANCH  64  87
ATOM     87  C   UNL     1     -16.424   7.241  -4.296  1.00  0.00     0.023 A 
ATOM     88  C   UNL     1     -16.068   8.576  -4.551  1.00  0.00     0.031 A 
ATOM     89  C   UNL     1     -17.771   6.959  -4.003  1.00  0.00     0.131 A 
ATOM     90  C   UNL     1     -17.034   9.587  -4.450  1.00  0.00     0.055 A 
ATOM     91  C   UNL     1     -18.741   7.961  -3.971  1.00  0.00     0.041 A 
ATOM     92  F   UNL     1     -18.167   5.701  -3.751  1.00  0.00    -0.206 F 
ATOM     93  C   UNL     1     -18.372   9.286  -4.181  1.00  0.00     0.022 A 
BRANCH  90  94
ATOM     94  S   UNL     1     -16.500  11.315  -4.578  1.00  0.00     0.124 S 
ATOM     95  O   UNL     1     -15.523  11.412  -3.499  1.00  0.00    -0.237 OA
ATOM     96  O   UNL     1     -15.961  11.376  -5.933  1.00  0.00    -0.237 OA
ATOM     97  O   UNL     1     -17.733  12.072  -4.368  1.00  0.00    -0.744 OA
ENDBRANCH  90  94
ENDBRANCH  64  87
ENDBRANCH  38  39
ENDBRANCH  30  33
ENDBRANCH  28  29
ENDBRANCH  27  28
ENDBRANCH   1  27
TORSDOF 17
