REMARK SMILES Cc1cccc2nc([C@@H]3CCCC[C@@H]3C(=O)NCCCNC(=O)c3ccc(-c4c5nc(c(-c6cc(S(=O)(=O)[O-])ccc6F)c6ccc([nH]6)c(-c6cc(S(=O)(=O)[O-])ccc6F)c6nc(c(-c7cc(S(=O)(=O)[O-])ccc7F)c7ccc4[nH]7)C=C6)C=C5)cc3)oc12
REMARK SMILES IDX 20 1 19 2 18 3 17 4 15 5 16 6 14 8 9 9 10 10 11 11 13 12
REMARK SMILES IDX 12 13 8 14 1 15 2 16 3 17 88 18 4 19 6 20 87 21 5 22 7 23
REMARK SMILES IDX 21 24 22 25 23 27 24 28 25 29 86 30 26 31 85 32 27 33 28 34
REMARK SMILES IDX 29 35 79 36 30 37 84 38 78 39 80 40 31 41 83 42 77 43 76 44
REMARK SMILES IDX 32 46 64 47 44 48 63 49 45 50 48 51 62 52 81 53 46 54 47 55
REMARK SMILES IDX 61 57 82 58 49 59 33 60 34 61 42 62 35 63 41 64 43 65 40 66
REMARK SMILES IDX 36 67 37 68 38 69 39 70 65 71 66 72 74 73 67 74 73 75 75 76
REMARK SMILES IDX 72 77 68 78 69 79 70 80 71 81 50 82 51 83 59 84 52 85 58 86
REMARK SMILES IDX 60 87 57 88 53 89 54 90 55 91 56 92
REMARK H PARENT 17 7 21 26 80 45 48 56
REMARK Flexibility Score: inf
ROOT
ATOM      1  C   UNL     1      -3.081   6.045  -4.771  1.00  0.00     0.118 C 
ENDROOT
BRANCH   1   2
ATOM      2  C   UNL     1      -1.945   6.234  -3.787  1.00  0.00     0.042 C 
BRANCH   2   3
ATOM      3  C   UNL     1      -0.819   5.240  -4.051  1.00  0.00     0.117 C 
BRANCH   3   4
ATOM      4  N   UNL     1       0.390   5.836  -4.591  1.00  0.00    -0.356 N 
ATOM      5  C   UNL     1       1.690   5.778  -4.211  1.00  0.00     0.223 C 
ATOM      6  O   UNL     1       2.513   5.896  -5.132  1.00  0.00    -0.275 OA
ATOM      7  H   UNL     1       0.236   6.391  -5.390  1.00  0.00     0.163 HD
BRANCH   5   8
ATOM      8  C   UNL     1       2.239   5.794  -2.771  1.00  0.00     0.091 C 
ATOM      9  C   UNL     1       1.558   5.104  -1.578  1.00  0.00     0.088 C 
ATOM     10  C   UNL     1       0.400   5.918  -0.964  1.00  0.00     0.014 C 
ATOM     11  C   UNL     1       0.672   7.423  -0.830  1.00  0.00     0.001 C 
ATOM     12  C   UNL     1       2.594   7.248  -2.425  1.00  0.00     0.014 C 
ATOM     13  C   UNL     1       1.355   8.042  -2.042  1.00  0.00     0.001 C 
BRANCH   9  14
ATOM     14  C   UNL     1       1.225   3.675  -1.906  1.00  0.00     0.199 A 
ATOM     15  C   UNL     1       0.776  -0.009   0.452  1.00  0.00     0.048 C 
ATOM     16  C   UNL     1       0.510   0.338  -0.975  1.00  0.00    -0.006 A 
ATOM     17  C   UNL     1       0.055  -0.632  -1.895  1.00  0.00     0.007 A 
ATOM     18  C   UNL     1       0.751   1.599  -1.526  1.00  0.00     0.157 A 
ATOM     19  C   UNL     1      -0.138  -0.346  -3.253  1.00  0.00     0.003 A 
ATOM     20  C   UNL     1       0.624   1.889  -2.874  1.00  0.00     0.110 A 
ATOM     21  O   UNL     1       1.136   2.757  -0.886  1.00  0.00    -0.440 OA
ATOM     22  C   UNL     1       0.160   0.918  -3.765  1.00  0.00     0.032 A 
ATOM     23  N   UNL     1       1.004   3.173  -3.103  1.00  0.00    -0.213 NA
ENDBRANCH   9  14
ENDBRANCH   5   8
ENDBRANCH   3   4
ENDBRANCH   2   3
ENDBRANCH   1   2
BRANCH   1  24
ATOM     24  N   UNL     1      -3.736   4.741  -4.621  1.00  0.00    -0.352 N 
ATOM     25  C   UNL     1      -4.679   4.176  -5.459  1.00  0.00     0.251 C 
ATOM     26  H   UNL     1      -3.476   4.209  -3.835  1.00  0.00     0.163 HD
ATOM     27  O   UNL     1      -5.333   3.205  -5.127  1.00  0.00    -0.269 OA
BRANCH  25  28
ATOM     28  C   UNL     1      -4.876   4.824  -6.765  1.00  0.00     0.039 A 
ATOM     29  C   UNL     1      -6.126   5.340  -7.105  1.00  0.00     0.014 A 
ATOM     30  C   UNL     1      -3.749   5.058  -7.551  1.00  0.00     0.014 A 
ATOM     31  C   UNL     1      -6.218   6.188  -8.203  1.00  0.00     0.010 A 
ATOM     32  C   UNL     1      -3.822   5.993  -8.559  1.00  0.00     0.010 A 
ATOM     33  C   UNL     1      -5.058   6.539  -8.910  1.00  0.00    -0.014 A 
BRANCH  33  34
ATOM     34  C   UNL     1      -5.143   7.507  -9.999  1.00  0.00     0.031 A 
ATOM     35  C   UNL     1      -5.736   8.845  -9.696  1.00  0.00     0.074 A 
ATOM     36  C   UNL     1      -4.565   7.309 -11.199  1.00  0.00     0.049 A 
ATOM     37  N   UNL     1      -6.859   9.335 -10.112  1.00  0.00    -0.248 NA
ATOM     38  C   UNL     1      -5.013   9.725  -8.769  1.00  0.00     0.031 C 
ATOM     39  C   UNL     1      -3.638   6.252 -11.618  1.00  0.00     0.029 A 
ATOM     40  N   UNL     1      -4.626   8.113 -12.291  1.00  0.00    -0.354 N 
ATOM     41  C   UNL     1      -6.922  10.648  -9.639  1.00  0.00     0.074 A 
ATOM     42  C   UNL     1      -5.820  10.787  -8.716  1.00  0.00     0.031 C 
ATOM     43  C   UNL     1      -3.049   6.609 -12.779  1.00  0.00     0.029 A 
ATOM     44  C   UNL     1      -3.701   7.808 -13.270  1.00  0.00     0.049 A 
ATOM     45  H   UNL     1      -5.274   8.849 -12.378  1.00  0.00     0.167 HD
ATOM     46  C   UNL     1      -7.780  11.578 -10.157  1.00  0.00     0.034 A 
ATOM     47  C   UNL     1      -3.451   8.524 -14.389  1.00  0.00     0.034 A 
ATOM     48  C   UNL     1      -8.747  10.976 -11.033  1.00  0.00     0.049 A 
ATOM     49  C   UNL     1      -4.642   9.366 -14.661  1.00  0.00     0.074 A 
ATOM     50  C   UNL     1      -9.756  10.046 -10.886  1.00  0.00     0.029 A 
ATOM     51  N   UNL     1      -8.530  11.077 -12.386  1.00  0.00    -0.354 N 
ATOM     52  N   UNL     1      -5.809   8.896 -15.011  1.00  0.00    -0.248 NA
ATOM     53  C   UNL     1      -4.651  10.725 -14.142  1.00  0.00     0.031 C 
ATOM     54  C   UNL     1      -9.737   9.292 -12.094  1.00  0.00     0.029 A 
ATOM     55  C   UNL     1      -8.744   9.832 -12.916  1.00  0.00     0.049 A 
ATOM     56  H   UNL     1      -8.271  11.889 -12.880  1.00  0.00     0.167 HD
ATOM     57  C   UNL     1      -6.729   9.713 -14.369  1.00  0.00     0.074 A 
ATOM     58  C   UNL     1      -5.963  10.885 -13.953  1.00  0.00     0.031 C 
ATOM     59  C   UNL     1      -7.959   9.252 -13.990  1.00  0.00     0.034 A 
BRANCH  46  60
ATOM     60  C   UNL     1      -7.591  13.076 -10.104  1.00  0.00     0.023 A 
ATOM     61  C   UNL     1      -6.350  13.674  -9.828  1.00  0.00     0.031 A 
ATOM     62  C   UNL     1      -8.610  13.950 -10.545  1.00  0.00     0.131 A 
ATOM     63  C   UNL     1      -6.156  15.057  -9.959  1.00  0.00     0.055 A 
ATOM     64  C   UNL     1      -8.398  15.322 -10.740  1.00  0.00     0.041 A 
ATOM     65  F   UNL     1      -9.833  13.488 -10.851  1.00  0.00    -0.206 F 
ATOM     66  C   UNL     1      -7.165  15.884 -10.443  1.00  0.00     0.022 A 
BRANCH  63  67
ATOM     67  S   UNL     1      -4.570  15.805  -9.499  1.00  0.00     0.124 S 
ATOM     68  O   UNL     1      -4.104  16.327 -10.780  1.00  0.00    -0.237 OA
ATOM     69  O   UNL     1      -4.985  16.806  -8.519  1.00  0.00    -0.237 OA
ATOM     70  O   UNL     1      -3.813  14.683  -8.953  1.00  0.00    -0.744 OA
ENDBRANCH  63  67
ENDBRANCH  46  60
BRANCH  47  71
ATOM     71  C   UNL     1      -2.106   8.812 -14.930  1.00  0.00     0.023 A 
ATOM     72  C   UNL     1      -0.981   8.790 -14.082  1.00  0.00     0.031 A 
ATOM     73  C   UNL     1      -1.944   9.371 -16.204  1.00  0.00     0.131 A 
ATOM     74  C   UNL     1       0.234   9.354 -14.491  1.00  0.00     0.055 A 
ATOM     75  C   UNL     1      -0.727   9.927 -16.616  1.00  0.00     0.041 A 
ATOM     76  F   UNL     1      -2.981   9.444 -17.052  1.00  0.00    -0.206 F 
ATOM     77  C   UNL     1       0.366   9.931 -15.753  1.00  0.00     0.022 A 
BRANCH  74  78
ATOM     78  S   UNL     1       1.647   9.370 -13.353  1.00  0.00     0.124 S 
ATOM     79  O   UNL     1       2.784   9.200 -14.254  1.00  0.00    -0.237 OA
ATOM     80  O   UNL     1       1.521  10.688 -12.741  1.00  0.00    -0.237 OA
ATOM     81  O   UNL     1       1.381   8.232 -12.477  1.00  0.00    -0.744 OA
ENDBRANCH  74  78
ENDBRANCH  47  71
BRANCH  59  82
ATOM     82  C   UNL     1      -8.430   7.903 -14.486  1.00  0.00     0.023 A 
ATOM     83  C   UNL     1      -9.721   7.824 -15.039  1.00  0.00     0.031 A 
ATOM     84  C   UNL     1      -7.769   6.691 -14.208  1.00  0.00     0.131 A 
ATOM     85  C   UNL     1     -10.321   6.578 -15.263  1.00  0.00     0.055 A 
ATOM     86  C   UNL     1      -8.346   5.449 -14.491  1.00  0.00     0.041 A 
ATOM     87  F   UNL     1      -6.591   6.668 -13.574  1.00  0.00    -0.206 F 
ATOM     88  C   UNL     1      -9.635   5.388 -15.008  1.00  0.00     0.022 A 
BRANCH  85  89
ATOM     89  S   UNL     1     -12.058   6.468 -15.763  1.00  0.00     0.124 S 
ATOM     90  O   UNL     1     -11.971   5.752 -17.033  1.00  0.00    -0.237 OA
ATOM     91  O   UNL     1     -12.650   5.714 -14.659  1.00  0.00    -0.237 OA
ATOM     92  O   UNL     1     -12.488   7.860 -15.861  1.00  0.00    -0.744 OA
ENDBRANCH  85  89
ENDBRANCH  59  82
ENDBRANCH  33  34
ENDBRANCH  25  28
ENDBRANCH   1  24
TORSDOF 14
