REMARK SMILES CC[C@]1(C(=O)NCCCNC(=O)c2ccc(-c3c4nc(c(-c5cc(S(=O)(=O)[O-])ccc5F)c5ccc([nH]5)c(-c5cc(S(=O)(=O)[O-])ccc5F)c5nc(c(-c6cc(S(=O)(=O)[O-])ccc6F)c6ccc3[nH]6)C=C5)C=C4)cc2)CC[N@@H+](Cc2ccc(CC(C)C)cc2)C1
REMARK SMILES IDX 7 1 6 2 4 3 5 4 3 6 76 7 90 8 77 9 78 10 2 12 1 13 79 14
REMARK SMILES IDX 80 15 81 16 89 17 82 18 88 19 83 20 84 21 85 22 86 23 87 24
REMARK SMILES IDX 8 25 9 26 10 27 11 28 12 30 13 31 14 32 75 33 15 34 74 35
REMARK SMILES IDX 16 36 17 37 18 38 68 39 19 40 73 41 67 42 69 43 20 44 72 45
REMARK SMILES IDX 66 46 65 47 21 49 53 50 33 51 52 52 34 53 37 54 51 55 70 56
REMARK SMILES IDX 35 57 36 58 50 60 71 61 38 62 22 63 23 64 31 65 24 66 30 67
REMARK SMILES IDX 32 68 29 69 25 70 26 71 27 72 28 73 54 74 55 75 63 76 56 77
REMARK SMILES IDX 62 78 64 79 61 80 57 81 58 82 59 83 60 84 39 85 40 86 48 87
REMARK SMILES IDX 41 88 47 89 49 90 46 91 42 92 43 93 44 94 45 95
REMARK H PARENT 6 5 78 11 10 29 69 48 37 59
REMARK Flexibility Score: inf
ROOT
ATOM      1  C   UNL     1       2.118  -2.506   5.293  1.00  0.00     0.117 C 
ENDROOT
BRANCH   1   2
ATOM      2  N   UNL     1       0.878  -2.352   4.513  1.00  0.00    -0.355 N 
ATOM      3  C   UNL     1       0.458  -1.881   3.301  1.00  0.00     0.232 C 
ATOM      4  O   UNL     1      -0.705  -2.243   3.040  1.00  0.00    -0.274 OA
ATOM      5  H   UNL     1       0.112  -2.697   5.026  1.00  0.00     0.163 HD
BRANCH   3   6
ATOM      6  C   UNL     1       1.168  -0.931   2.258  1.00  0.00     0.103 C 
ATOM      7  C   UNL     1       0.324   0.371   2.107  1.00  0.00     0.084 C 
ATOM      8  C   UNL     1       2.575  -0.389   2.580  1.00  0.00     0.279 C 
ATOM      9  C   UNL     1       1.322   1.518   1.964  1.00  0.00     0.263 C 
ATOM     10  N   UNL     1       2.544   1.085   2.634  1.00  0.00    -0.330 N 
ATOM     11  H   UNL     1       3.363   1.431   2.135  1.00  0.00     0.348 HD
BRANCH   6  12
ATOM     12  C   UNL     1       1.113  -1.690   0.882  1.00  0.00     0.020 C 
ATOM     13  C   UNL     1       1.454  -0.905  -0.388  1.00  0.00     0.005 C 
ENDBRANCH   6  12
BRANCH  10  14
ATOM     14  C   UNL     1       2.812   1.729   3.946  1.00  0.00     0.299 C 
BRANCH  14  15
ATOM     15  C   UNL     1       1.637   1.899   4.890  1.00  0.00     0.006 A 
ATOM     16  C   UNL     1       1.281   3.089   5.520  1.00  0.00     0.010 A 
ATOM     17  C   UNL     1       0.837   0.802   5.153  1.00  0.00     0.010 A 
ATOM     18  C   UNL     1       0.089   3.163   6.269  1.00  0.00     0.004 A 
ATOM     19  C   UNL     1      -0.361   0.853   5.832  1.00  0.00     0.004 A 
ATOM     20  C   UNL     1      -0.764   2.055   6.377  1.00  0.00    -0.048 A 
BRANCH  20  21
ATOM     21  C   UNL     1      -2.089   2.077   7.085  1.00  0.00     0.038 C 
BRANCH  21  22
ATOM     22  C   UNL     1      -1.985   1.456   8.484  1.00  0.00    -0.013 C 
ATOM     23  C   UNL     1      -1.321   2.452   9.431  1.00  0.00     0.008 C 
ATOM     24  C   UNL     1      -3.366   1.030   8.980  1.00  0.00     0.008 C 
ENDBRANCH  21  22
ENDBRANCH  20  21
ENDBRANCH  14  15
ENDBRANCH  10  14
ENDBRANCH   3   6
ENDBRANCH   1   2
BRANCH   1  25
ATOM     25  C   UNL     1       2.303  -1.698   6.618  1.00  0.00     0.042 C 
BRANCH  25  26
ATOM     26  C   UNL     1       1.245  -1.816   7.755  1.00  0.00     0.118 C 
BRANCH  26  27
ATOM     27  N   UNL     1       1.872  -2.318   8.985  1.00  0.00    -0.352 N 
ATOM     28  C   UNL     1       2.087  -1.782  10.236  1.00  0.00     0.251 C 
ATOM     29  H   UNL     1       2.212  -3.238   8.896  1.00  0.00     0.163 HD
ATOM     30  O   UNL     1       3.055  -2.226  10.861  1.00  0.00    -0.269 OA
BRANCH  28  31
ATOM     31  C   UNL     1       1.219  -0.775  10.919  1.00  0.00     0.039 A 
ATOM     32  C   UNL     1       1.810   0.098  11.849  1.00  0.00     0.014 A 
ATOM     33  C   UNL     1      -0.171  -0.812  10.866  1.00  0.00     0.014 A 
ATOM     34  C   UNL     1       1.033   0.947  12.671  1.00  0.00     0.010 A 
ATOM     35  C   UNL     1      -0.942   0.055  11.682  1.00  0.00     0.010 A 
ATOM     36  C   UNL     1      -0.368   0.977  12.582  1.00  0.00    -0.014 A 
BRANCH  36  37
ATOM     37  C   UNL     1      -1.185   2.000  13.359  1.00  0.00     0.031 A 
ATOM     38  C   UNL     1      -2.392   1.627  14.210  1.00  0.00     0.074 A 
ATOM     39  C   UNL     1      -0.922   3.326  13.242  1.00  0.00     0.049 A 
ATOM     40  N   UNL     1      -3.182   2.401  14.925  1.00  0.00    -0.248 NA
ATOM     41  C   UNL     1      -2.796   0.218  14.217  1.00  0.00     0.031 C 
ATOM     42  C   UNL     1       0.091   3.917  12.365  1.00  0.00     0.029 A 
ATOM     43  N   UNL     1      -1.500   4.427  13.846  1.00  0.00    -0.354 N 
ATOM     44  C   UNL     1      -4.190   1.581  15.431  1.00  0.00     0.074 A 
ATOM     45  C   UNL     1      -3.946   0.264  14.876  1.00  0.00     0.031 C 
ATOM     46  C   UNL     1       0.083   5.253  12.506  1.00  0.00     0.029 A 
ATOM     47  C   UNL     1      -0.943   5.632  13.472  1.00  0.00     0.049 A 
ATOM     48  H   UNL     1      -2.245   4.357  14.487  1.00  0.00     0.167 HD
ATOM     49  C   UNL     1      -5.200   1.869  16.299  1.00  0.00     0.034 A 
ATOM     50  C   UNL     1      -1.198   6.902  13.854  1.00  0.00     0.034 A 
ATOM     51  C   UNL     1      -5.426   3.162  16.912  1.00  0.00     0.049 A 
ATOM     52  C   UNL     1      -2.244   7.192  14.901  1.00  0.00     0.074 A 
ATOM     53  C   UNL     1      -6.317   3.493  17.923  1.00  0.00     0.029 A 
ATOM     54  N   UNL     1      -4.775   4.338  16.572  1.00  0.00    -0.354 N 
ATOM     55  N   UNL     1      -3.080   6.369  15.484  1.00  0.00    -0.248 NA
ATOM     56  C   UNL     1      -2.353   8.585  15.361  1.00  0.00     0.031 C 
ATOM     57  C   UNL     1      -6.250   4.873  18.148  1.00  0.00     0.029 A 
ATOM     58  C   UNL     1      -5.265   5.396  17.330  1.00  0.00     0.049 A 
ATOM     59  H   UNL     1      -4.069   4.414  15.890  1.00  0.00     0.167 HD
ATOM     60  C   UNL     1      -3.793   7.141  16.401  1.00  0.00     0.074 A 
ATOM     61  C   UNL     1      -3.274   8.488  16.308  1.00  0.00     0.031 C 
ATOM     62  C   UNL     1      -4.784   6.756  17.245  1.00  0.00     0.034 A 
BRANCH  49  63
ATOM     63  C   UNL     1      -6.153   0.746  16.666  1.00  0.00     0.023 A 
ATOM     64  C   UNL     1      -5.700  -0.429  17.290  1.00  0.00     0.031 A 
ATOM     65  C   UNL     1      -7.530   0.848  16.391  1.00  0.00     0.131 A 
ATOM     66  C   UNL     1      -6.587  -1.491  17.521  1.00  0.00     0.055 A 
ATOM     67  C   UNL     1      -8.426  -0.175  16.714  1.00  0.00     0.041 A 
ATOM     68  F   UNL     1      -8.031   1.942  15.796  1.00  0.00    -0.206 F 
ATOM     69  C   UNL     1      -7.953  -1.363  17.264  1.00  0.00     0.022 A 
BRANCH  66  70
ATOM     70  S   UNL     1      -5.897  -3.096  18.006  1.00  0.00     0.124 S 
ATOM     71  O   UNL     1      -4.986  -3.371  16.897  1.00  0.00    -0.237 OA
ATOM     72  O   UNL     1      -5.267  -2.793  19.289  1.00  0.00    -0.237 OA
ATOM     73  O   UNL     1      -7.066  -3.967  18.074  1.00  0.00    -0.744 OA
ENDBRANCH  66  70
ENDBRANCH  49  63
BRANCH  50  74
ATOM     74  C   UNL     1      -0.418   8.031  13.268  1.00  0.00     0.023 A 
ATOM     75  C   UNL     1       0.511   8.745  14.043  1.00  0.00     0.031 A 
ATOM     76  C   UNL     1      -0.627   8.441  11.940  1.00  0.00     0.131 A 
ATOM     77  C   UNL     1       1.162   9.863  13.500  1.00  0.00     0.055 A 
ATOM     78  C   UNL     1       0.058   9.526  11.390  1.00  0.00     0.041 A 
ATOM     79  F   UNL     1      -1.497   7.784  11.157  1.00  0.00    -0.206 F 
ATOM     80  C   UNL     1       0.950  10.252  12.175  1.00  0.00     0.022 A 
BRANCH  77  81
ATOM     81  S   UNL     1       2.243  10.845  14.575  1.00  0.00     0.124 S 
ATOM     82  O   UNL     1       1.314  11.288  15.608  1.00  0.00    -0.237 OA
ATOM     83  O   UNL     1       3.238   9.860  14.986  1.00  0.00    -0.237 OA
ATOM     84  O   UNL     1       2.741  11.895  13.689  1.00  0.00    -0.744 OA
ENDBRANCH  77  81
ENDBRANCH  50  74
BRANCH  62  85
ATOM     85  C   UNL     1      -5.350   7.807  18.175  1.00  0.00     0.023 A 
ATOM     86  C   UNL     1      -6.034   8.939  17.693  1.00  0.00     0.031 A 
ATOM     87  C   UNL     1      -5.159   7.702  19.565  1.00  0.00     0.131 A 
ATOM     88  C   UNL     1      -6.435   9.951  18.582  1.00  0.00     0.055 A 
ATOM     89  C   UNL     1      -5.616   8.681  20.451  1.00  0.00     0.041 A 
ATOM     90  F   UNL     1      -4.511   6.649  20.089  1.00  0.00    -0.206 F 
ATOM     91  C   UNL     1      -6.242   9.823  19.959  1.00  0.00     0.022 A 
BRANCH  88  92
ATOM     92  S   UNL     1      -7.103  11.497  17.903  1.00  0.00     0.124 S 
ATOM     93  O   UNL     1      -6.046  11.910  16.986  1.00  0.00    -0.237 OA
ATOM     94  O   UNL     1      -8.348  11.052  17.284  1.00  0.00    -0.237 OA
ATOM     95  O   UNL     1      -7.267  12.347  19.082  1.00  0.00    -0.744 OA
ENDBRANCH  88  92
ENDBRANCH  62  85
ENDBRANCH  36  37
ENDBRANCH  28  31
ENDBRANCH  26  27
ENDBRANCH  25  26
ENDBRANCH   1  25
TORSDOF 18
