REMARK SMILES CCOc1ccc(NC(=O)[C@@H]2[C@@H](C(=O)NCCCNC(=O)c3ccc(-c4c5nc(c(-c6cc(S(=O)(=O)[O-])ccc6F)c6ccc([nH]6)c(-c6cc(S(=O)(=O)[O-])ccc6F)c6nc(c(-c7cc(S(=O)(=O)[O-])ccc7F)c7ccc4[nH]7)C=C6)C=C5)cc3)[C@H]3C=C[C@@H]2C3)cc1
REMARK SMILES IDX 16 1 15 2 13 3 14 4 12 6 11 7 88 8 85 9 87 10 89 11 86 12
REMARK SMILES IDX 9 13 8 14 10 16 7 17 4 18 5 19 91 20 6 21 90 22 3 23 2 24
REMARK SMILES IDX 1 25 17 26 18 27 19 28 20 29 21 31 22 32 23 33 84 34 24 35
REMARK SMILES IDX 83 36 25 37 26 38 27 39 77 40 28 41 82 42 76 43 78 44 29 45
REMARK SMILES IDX 81 46 75 47 74 48 30 50 62 51 42 52 61 53 43 54 46 55 60 56
REMARK SMILES IDX 79 57 44 58 45 59 59 61 80 62 47 63 31 64 32 65 40 66 33 67
REMARK SMILES IDX 39 68 41 69 38 70 34 71 35 72 36 73 37 74 63 75 64 76 72 77
REMARK SMILES IDX 65 78 71 79 73 80 70 81 66 82 67 83 68 84 69 85 48 86 49 87
REMARK SMILES IDX 57 88 50 89 56 90 58 91 55 92 51 93 52 94 53 95 54 96
REMARK H PARENT 15 5 8 15 19 30 78 49 46 60
REMARK Flexibility Score: inf
ROOT
ATOM      1  C   UNL     1       2.912  -2.858   4.224  1.00  0.00     0.117 C 
ENDROOT
BRANCH   1   2
ATOM      2  N   UNL     1       2.774  -3.942   3.259  1.00  0.00    -0.356 N 
ATOM      3  C   UNL     1       3.585  -4.989   2.917  1.00  0.00     0.224 C 
ATOM      4  O   UNL     1       3.109  -5.842   2.163  1.00  0.00    -0.275 OA
ATOM      5  H   UNL     1       1.930  -3.915   2.753  1.00  0.00     0.163 HD
BRANCH   3   6
ATOM      6  C   UNL     1       5.008  -5.099   3.452  1.00  0.00     0.098 C 
ATOM      7  C   UNL     1       6.066  -5.539   2.371  1.00  0.00     0.099 C 
ATOM      8  C   UNL     1       6.804  -6.717   3.075  1.00  0.00     0.025 C 
ATOM      9  C   UNL     1       5.149  -6.241   4.503  1.00  0.00     0.025 C 
ATOM     10  C   UNL     1       5.851  -7.890   3.042  1.00  0.00    -0.027 C 
ATOM     11  C   UNL     1       6.676  -6.368   4.561  1.00  0.00     0.017 C 
ATOM     12  C   UNL     1       4.852  -7.599   3.890  1.00  0.00    -0.027 C 
BRANCH   7  13
ATOM     13  C   UNL     1       7.028  -4.418   2.000  1.00  0.00     0.228 C 
ATOM     14  N   UNL     1       6.643  -3.379   1.196  1.00  0.00    -0.326 N 
ATOM     15  H   UNL     1       7.327  -2.680   1.080  1.00  0.00     0.169 HD
ATOM     16  O   UNL     1       8.161  -4.364   2.492  1.00  0.00    -0.274 OA
BRANCH  14  17
ATOM     17  C   UNL     1       5.445  -3.134   0.506  1.00  0.00     0.041 A 
ATOM     18  C   UNL     1       2.837  -2.542  -0.261  1.00  0.00     0.119 A 
ATOM     19  C   UNL     1       3.299  -3.843  -0.361  1.00  0.00     0.048 A 
ATOM     20  C   UNL     1       3.717  -1.509   0.053  1.00  0.00     0.048 A 
ATOM     21  C   UNL     1       4.620  -4.128  -0.016  1.00  0.00     0.030 A 
ATOM     22  C   UNL     1       5.032  -1.803   0.415  1.00  0.00     0.030 A 
BRANCH  18  23
ATOM     23  O   UNL     1       1.489  -2.332  -0.204  1.00  0.00    -0.494 OA
BRANCH  23  24
ATOM     24  C   UNL     1       0.907  -1.948  -1.449  1.00  0.00     0.226 C 
ATOM     25  C   UNL     1       1.175  -0.488  -1.741  1.00  0.00     0.049 C 
ENDBRANCH  23  24
ENDBRANCH  18  23
ENDBRANCH  14  17
ENDBRANCH   7  13
ENDBRANCH   3   6
ENDBRANCH   1   2
BRANCH   1  26
ATOM     26  C   UNL     1       2.979  -1.456   3.599  1.00  0.00     0.042 C 
BRANCH  26  27
ATOM     27  C   UNL     1       1.721  -0.976   2.854  1.00  0.00     0.118 C 
BRANCH  27  28
ATOM     28  N   UNL     1       0.696  -0.431   3.734  1.00  0.00    -0.352 N 
ATOM     29  C   UNL     1       0.004   0.759   3.662  1.00  0.00     0.251 C 
ATOM     30  H   UNL     1       0.460  -1.003   4.500  1.00  0.00     0.163 HD
ATOM     31  O   UNL     1      -0.776   1.050   4.571  1.00  0.00    -0.269 OA
BRANCH  29  32
ATOM     32  C   UNL     1       0.189   1.710   2.537  1.00  0.00     0.039 A 
ATOM     33  C   UNL     1       0.513   3.042   2.811  1.00  0.00     0.014 A 
ATOM     34  C   UNL     1      -0.041   1.335   1.216  1.00  0.00     0.014 A 
ATOM     35  C   UNL     1       0.685   3.967   1.763  1.00  0.00     0.010 A 
ATOM     36  C   UNL     1       0.180   2.255   0.173  1.00  0.00     0.010 A 
ATOM     37  C   UNL     1       0.576   3.580   0.415  1.00  0.00    -0.014 A 
BRANCH  37  38
ATOM     38  C   UNL     1       0.916   4.520  -0.718  1.00  0.00     0.031 A 
ATOM     39  C   UNL     1      -0.030   4.761  -1.882  1.00  0.00     0.074 A 
ATOM     40  C   UNL     1       2.131   5.116  -0.768  1.00  0.00     0.049 A 
ATOM     41  N   UNL     1       0.148   5.482  -2.966  1.00  0.00    -0.248 NA
ATOM     42  C   UNL     1      -1.321   4.062  -1.848  1.00  0.00     0.031 C 
ATOM     43  C   UNL     1       3.205   4.933   0.210  1.00  0.00     0.029 A 
ATOM     44  N   UNL     1       2.673   6.000  -1.677  1.00  0.00    -0.354 N 
ATOM     45  C   UNL     1      -0.982   5.285  -3.758  1.00  0.00     0.074 A 
ATOM     46  C   UNL     1      -1.804   4.322  -3.054  1.00  0.00     0.031 C 
ATOM     47  C   UNL     1       4.237   5.729  -0.107  1.00  0.00     0.029 A 
ATOM     48  C   UNL     1       3.938   6.438  -1.347  1.00  0.00     0.049 A 
ATOM     49  H   UNL     1       2.199   6.293  -2.489  1.00  0.00     0.167 HD
ATOM     50  C   UNL     1      -1.326   5.867  -4.939  1.00  0.00     0.034 A 
ATOM     51  C   UNL     1       4.774   7.307  -1.957  1.00  0.00     0.034 A 
ATOM     52  C   UNL     1      -0.544   6.881  -5.611  1.00  0.00     0.049 A 
ATOM     53  C   UNL     1       4.361   7.968  -3.249  1.00  0.00     0.074 A 
ATOM     54  C   UNL     1      -0.878   7.618  -6.737  1.00  0.00     0.029 A 
ATOM     55  N   UNL     1       0.722   7.302  -5.231  1.00  0.00    -0.354 N 
ATOM     56  N   UNL     1       3.250   7.828  -3.932  1.00  0.00    -0.248 NA
ATOM     57  C   UNL     1       5.317   8.912  -3.849  1.00  0.00     0.031 C 
ATOM     58  C   UNL     1       0.212   8.425  -7.081  1.00  0.00     0.029 A 
ATOM     59  C   UNL     1       1.194   8.259  -6.121  1.00  0.00     0.049 A 
ATOM     60  H   UNL     1       1.214   6.971  -4.445  1.00  0.00     0.167 HD
ATOM     61  C   UNL     1       3.360   8.697  -5.016  1.00  0.00     0.074 A 
ATOM     62  C   UNL     1       4.639   9.359  -4.896  1.00  0.00     0.031 C 
ATOM     63  C   UNL     1       2.470   8.927  -6.014  1.00  0.00     0.034 A 
BRANCH  50  64
ATOM     64  C   UNL     1      -2.618   5.421  -5.597  1.00  0.00     0.023 A 
ATOM     65  C   UNL     1      -3.862   5.560  -4.958  1.00  0.00     0.031 A 
ATOM     66  C   UNL     1      -2.607   4.843  -6.880  1.00  0.00     0.131 A 
ATOM     67  C   UNL     1      -5.019   5.032  -5.549  1.00  0.00     0.055 A 
ATOM     68  C   UNL     1      -3.779   4.413  -7.509  1.00  0.00     0.041 A 
ATOM     69  F   UNL     1      -1.453   4.675  -7.546  1.00  0.00    -0.206 F 
ATOM     70  C   UNL     1      -4.993   4.486  -6.833  1.00  0.00     0.022 A 
BRANCH  67  71
ATOM     71  S   UNL     1      -6.520   4.905  -4.538  1.00  0.00     0.124 S 
ATOM     72  O   UNL     1      -6.041   4.118  -3.403  1.00  0.00    -0.237 OA
ATOM     73  O   UNL     1      -6.828   6.305  -4.258  1.00  0.00    -0.237 OA
ATOM     74  O   UNL     1      -7.465   4.218  -5.410  1.00  0.00    -0.744 OA
ENDBRANCH  67  71
ENDBRANCH  50  64
BRANCH  51  75
ATOM     75  C   UNL     1       6.099   7.634  -1.349  1.00  0.00     0.023 A 
ATOM     76  C   UNL     1       6.375   8.934  -0.893  1.00  0.00     0.031 A 
ATOM     77  C   UNL     1       7.121   6.674  -1.261  1.00  0.00     0.131 A 
ATOM     78  C   UNL     1       7.655   9.251  -0.414  1.00  0.00     0.055 A 
ATOM     79  C   UNL     1       8.376   6.980  -0.730  1.00  0.00     0.041 A 
ATOM     80  F   UNL     1       6.910   5.416  -1.679  1.00  0.00    -0.206 F 
ATOM     81  C   UNL     1       8.653   8.280  -0.315  1.00  0.00     0.022 A 
BRANCH  78  82
ATOM     82  S   UNL     1       8.025  10.979  -0.004  1.00  0.00     0.124 S 
ATOM     83  O   UNL     1       7.787  11.643  -1.281  1.00  0.00    -0.237 OA
ATOM     84  O   UNL     1       7.059  11.254   1.053  1.00  0.00    -0.237 OA
ATOM     85  O   UNL     1       9.421  10.935   0.426  1.00  0.00    -0.744 OA
ENDBRANCH  78  82
ENDBRANCH  51  75
BRANCH  63  86
ATOM     86  C   UNL     1       2.816   9.992  -7.031  1.00  0.00     0.023 A 
ATOM     87  C   UNL     1       3.885   9.848  -7.933  1.00  0.00     0.031 A 
ATOM     88  C   UNL     1       2.053  11.172  -7.098  1.00  0.00     0.131 A 
ATOM     89  C   UNL     1       4.189  10.885  -8.831  1.00  0.00     0.055 A 
ATOM     90  C   UNL     1       2.323  12.174  -8.032  1.00  0.00     0.041 A 
ATOM     91  F   UNL     1       1.023  11.369  -6.259  1.00  0.00    -0.206 F 
ATOM     92  C   UNL     1       3.403  12.039  -8.898  1.00  0.00     0.022 A 
BRANCH  89  93
ATOM     93  S   UNL     1       5.675  10.743  -9.862  1.00  0.00     0.124 S 
ATOM     94  O   UNL     1       6.730  10.621  -8.861  1.00  0.00    -0.237 OA
ATOM     95  O   UNL     1       5.399   9.545 -10.647  1.00  0.00    -0.237 OA
ATOM     96  O   UNL     1       5.686  11.992 -10.624  1.00  0.00    -0.744 OA
ENDBRANCH  89  93
ENDBRANCH  63  86
ENDBRANCH  37  38
ENDBRANCH  29  32
ENDBRANCH  27  28
ENDBRANCH  26  27
ENDBRANCH   1  26
TORSDOF 17
