REMARK SMILES [NH3+]CCOCC(=O)N[C@]1(C(=O)NCCCNC(=O)c2ccc(-c3c4nc(c(-c5cc(S(=O)(=O)[O-])ccc5F)c5ccc([nH]5)c(-c5cc(S(=O)(=O)[O-])ccc5F)c5nc(c(-c6cc(S(=O)(=O)[O-])ccc6F)c6ccc3[nH]6)C=C5)C=C4)cc2)CCOC1
REMARK SMILES IDX 10 1 11 2 12 3 9 5 82 6 85 7 83 8 84 9 8 10 6 11 7 12 5 14
REMARK SMILES IDX 4 15 3 16 2 17 1 18 13 22 14 23 15 24 16 25 17 26 18 28
REMARK SMILES IDX 19 29 20 30 81 31 21 32 80 33 22 34 23 35 24 36 74 37 25 38
REMARK SMILES IDX 79 39 73 40 75 41 26 42 78 43 72 44 71 45 27 47 59 48 39 49
REMARK SMILES IDX 58 50 40 51 43 52 57 53 76 54 41 55 42 56 56 58 77 59 44 60
REMARK SMILES IDX 28 61 29 62 37 63 30 64 36 65 38 66 35 67 31 68 32 69 33 70
REMARK SMILES IDX 34 71 60 72 61 73 69 74 62 75 68 76 70 77 67 78 63 79 64 80
REMARK SMILES IDX 65 81 66 82 45 83 46 84 54 85 47 86 53 87 55 88 52 89 48 90
REMARK SMILES IDX 49 91 50 92 51 93
REMARK H PARENT 12 4 8 13 1 19 1 20 1 21 16 27 75 46 43 57
REMARK Flexibility Score: inf
ROOT
ATOM      1  C   UNL     1       2.301   4.499   1.878  1.00  0.00     0.248 C 
ATOM      2  O   UNL     1       2.775   3.531   2.492  1.00  0.00    -0.272 OA
ATOM      3  N   UNL     1       1.462   5.275   2.603  1.00  0.00    -0.354 N 
ATOM      4  H   UNL     1       1.174   4.861   3.449  1.00  0.00     0.163 HD
ENDROOT
BRANCH   1   5
ATOM      5  C   UNL     1       2.817   4.857   0.458  1.00  0.00     0.144 C 
ATOM      6  C   UNL     1       1.905   5.512  -0.573  1.00  0.00     0.069 C 
ATOM      7  C   UNL     1       3.896   5.939   0.712  1.00  0.00     0.198 C 
ATOM      8  C   UNL     1       2.711   6.673  -1.118  1.00  0.00     0.163 C 
ATOM      9  O   UNL     1       3.589   7.091  -0.083  1.00  0.00    -0.378 OA
BRANCH   5  10
ATOM     10  N   UNL     1       3.414   3.623  -0.116  1.00  0.00    -0.338 N 
ATOM     11  C   UNL     1       2.809   2.461  -0.505  1.00  0.00     0.246 C 
ATOM     12  O   UNL     1       3.527   1.530  -0.882  1.00  0.00    -0.272 OA
ATOM     13  H   UNL     1       4.391   3.646  -0.233  1.00  0.00     0.164 HD
BRANCH  11  14
ATOM     14  C   UNL     1       1.274   2.302  -0.482  1.00  0.00     0.260 C 
BRANCH  14  15
ATOM     15  O   UNL     1       0.607   2.248   0.761  1.00  0.00    -0.366 OA
BRANCH  15  16
ATOM     16  C   UNL     1       1.058   1.214   1.642  1.00  0.00     0.222 C 
BRANCH  16  17
ATOM     17  C   UNL     1       0.479  -0.177   1.333  1.00  0.00     0.287 C 
BRANCH  17  18
ATOM     18  N   UNL     1       1.093  -0.863   0.192  1.00  0.00    -0.356 N 
ATOM     19  H   UNL     1       0.649  -1.772   0.063  1.00  0.00     0.344 HD
ATOM     20  H   UNL     1       2.089  -0.993   0.369  1.00  0.00     0.344 HD
ATOM     21  H   UNL     1       0.967  -0.300  -0.650  1.00  0.00     0.344 HD
ENDBRANCH  17  18
ENDBRANCH  16  17
ENDBRANCH  15  16
ENDBRANCH  14  15
ENDBRANCH  11  14
ENDBRANCH   5  10
ENDBRANCH   1   5
BRANCH   3  22
ATOM     22  C   UNL     1       0.904   6.594   2.382  1.00  0.00     0.117 C 
BRANCH  22  23
ATOM     23  C   UNL     1      -0.618   6.556   2.349  1.00  0.00     0.042 C 
BRANCH  23  24
ATOM     24  C   UNL     1      -1.246   6.032   3.640  1.00  0.00     0.118 C 
BRANCH  24  25
ATOM     25  N   UNL     1      -0.865   6.816   4.808  1.00  0.00    -0.352 N 
ATOM     26  C   UNL     1      -1.632   7.595   5.643  1.00  0.00     0.251 C 
ATOM     27  H   UNL     1       0.092   6.782   5.036  1.00  0.00     0.163 HD
ATOM     28  O   UNL     1      -1.084   8.348   6.437  1.00  0.00    -0.269 OA
BRANCH  26  29
ATOM     29  C   UNL     1      -3.106   7.536   5.555  1.00  0.00     0.039 A 
ATOM     30  C   UNL     1      -3.838   8.724   5.602  1.00  0.00     0.014 A 
ATOM     31  C   UNL     1      -3.764   6.311   5.421  1.00  0.00     0.014 A 
ATOM     32  C   UNL     1      -5.224   8.688   5.433  1.00  0.00     0.010 A 
ATOM     33  C   UNL     1      -5.128   6.285   5.156  1.00  0.00     0.010 A 
ATOM     34  C   UNL     1      -5.875   7.473   5.163  1.00  0.00    -0.014 A 
BRANCH  34  35
ATOM     35  C   UNL     1      -7.335   7.420   4.888  1.00  0.00     0.031 A 
ATOM     36  C   UNL     1      -8.241   6.620   5.782  1.00  0.00     0.074 A 
ATOM     37  C   UNL     1      -7.830   8.030   3.793  1.00  0.00     0.049 A 
ATOM     38  N   UNL     1      -9.520   6.373   5.660  1.00  0.00    -0.248 NA
ATOM     39  C   UNL     1      -7.614   5.979   6.947  1.00  0.00     0.031 C 
ATOM     40  C   UNL     1      -7.042   8.790   2.820  1.00  0.00     0.029 A 
ATOM     41  N   UNL     1      -9.111   8.096   3.305  1.00  0.00    -0.354 N 
ATOM     42  C   UNL     1      -9.848   5.539   6.725  1.00  0.00     0.074 A 
ATOM     43  C   UNL     1      -8.614   5.258   7.427  1.00  0.00     0.031 C 
ATOM     44  C   UNL     1      -7.859   9.264   1.867  1.00  0.00     0.029 A 
ATOM     45  C   UNL     1      -9.218   8.802   2.129  1.00  0.00     0.049 A 
ATOM     46  H   UNL     1      -9.881   7.678   3.754  1.00  0.00     0.167 HD
ATOM     47  C   UNL     1     -11.067   5.079   7.101  1.00  0.00     0.034 A 
ATOM     48  C   UNL     1     -10.285   9.037   1.340  1.00  0.00     0.034 A 
ATOM     49  C   UNL     1     -12.286   5.371   6.384  1.00  0.00     0.049 A 
ATOM     50  C   UNL     1     -11.628   8.494   1.755  1.00  0.00     0.074 A 
ATOM     51  C   UNL     1     -13.582   5.000   6.696  1.00  0.00     0.029 A 
ATOM     52  N   UNL     1     -12.357   6.098   5.201  1.00  0.00    -0.354 N 
ATOM     53  N   UNL     1     -11.934   7.754   2.797  1.00  0.00    -0.248 NA
ATOM     54  C   UNL     1     -12.771   8.830   0.898  1.00  0.00     0.031 C 
ATOM     55  C   UNL     1     -14.423   5.435   5.666  1.00  0.00     0.029 A 
ATOM     56  C   UNL     1     -13.669   6.156   4.753  1.00  0.00     0.049 A 
ATOM     57  H   UNL     1     -11.588   6.512   4.746  1.00  0.00     0.167 HD
ATOM     58  C   UNL     1     -13.310   7.556   2.732  1.00  0.00     0.074 A 
ATOM     59  C   UNL     1     -13.774   8.270   1.558  1.00  0.00     0.031 C 
ATOM     60  C   UNL     1     -14.117   6.854   3.569  1.00  0.00     0.034 A 
BRANCH  47  61
ATOM     61  C   UNL     1     -11.121   4.192   8.326  1.00  0.00     0.023 A 
ATOM     62  C   UNL     1     -10.672   4.644   9.581  1.00  0.00     0.031 A 
ATOM     63  C   UNL     1     -11.562   2.861   8.232  1.00  0.00     0.131 A 
ATOM     64  C   UNL     1     -10.570   3.748  10.655  1.00  0.00     0.055 A 
ATOM     65  C   UNL     1     -11.555   2.002   9.333  1.00  0.00     0.041 A 
ATOM     66  F   UNL     1     -11.985   2.361   7.060  1.00  0.00    -0.206 F 
ATOM     67  C   UNL     1     -11.035   2.437  10.549  1.00  0.00     0.022 A 
BRANCH  64  68
ATOM     68  S   UNL     1      -9.643   4.269  12.126  1.00  0.00     0.124 S 
ATOM     69  O   UNL     1      -8.346   4.617  11.547  1.00  0.00    -0.237 OA
ATOM     70  O   UNL     1     -10.440   5.385  12.622  1.00  0.00    -0.237 OA
ATOM     71  O   UNL     1      -9.640   3.077  12.970  1.00  0.00    -0.744 OA
ENDBRANCH  64  68
ENDBRANCH  47  61
BRANCH  48  72
ATOM     72  C   UNL     1     -10.122   9.807   0.074  1.00  0.00     0.023 A 
ATOM     73  C   UNL     1     -10.714  11.068  -0.094  1.00  0.00     0.031 A 
ATOM     74  C   UNL     1      -9.369   9.283  -0.993  1.00  0.00     0.131 A 
ATOM     75  C   UNL     1     -10.571  11.750  -1.313  1.00  0.00     0.055 A 
ATOM     76  C   UNL     1      -9.188   9.987  -2.184  1.00  0.00     0.041 A 
ATOM     77  F   UNL     1      -8.774   8.085  -0.881  1.00  0.00    -0.206 F 
ATOM     78  C   UNL     1      -9.800  11.225  -2.353  1.00  0.00     0.022 A 
BRANCH  75  79
ATOM     79  S   UNL     1     -11.461  13.313  -1.546  1.00  0.00     0.124 S 
ATOM     80  O   UNL     1     -12.847  12.895  -1.372  1.00  0.00    -0.237 OA
ATOM     81  O   UNL     1     -10.901  14.142  -0.484  1.00  0.00    -0.237 OA
ATOM     82  O   UNL     1     -11.094  13.714  -2.903  1.00  0.00    -0.744 OA
ENDBRANCH  75  79
ENDBRANCH  48  72
BRANCH  60  83
ATOM     83  C   UNL     1     -15.596   6.859   3.261  1.00  0.00     0.023 A 
ATOM     84  C   UNL     1     -16.116   6.253   2.103  1.00  0.00     0.031 A 
ATOM     85  C   UNL     1     -16.498   7.486   4.139  1.00  0.00     0.131 A 
ATOM     86  C   UNL     1     -17.489   6.337   1.827  1.00  0.00     0.055 A 
ATOM     87  C   UNL     1     -17.871   7.508   3.892  1.00  0.00     0.041 A 
ATOM     88  F   UNL     1     -16.058   8.085   5.258  1.00  0.00    -0.206 F 
ATOM     89  C   UNL     1     -18.372   6.944   2.724  1.00  0.00     0.022 A 
BRANCH  86  90
ATOM     90  S   UNL     1     -18.095   5.731   0.228  1.00  0.00     0.124 S 
ATOM     91  O   UNL     1     -17.316   6.530  -0.713  1.00  0.00    -0.237 OA
ATOM     92  O   UNL     1     -17.763   4.311   0.286  1.00  0.00    -0.237 OA
ATOM     93  O   UNL     1     -19.524   6.035   0.265  1.00  0.00    -0.744 OA
ENDBRANCH  86  90
ENDBRANCH  60  83
ENDBRANCH  34  35
ENDBRANCH  26  29
ENDBRANCH  24  25
ENDBRANCH  23  24
ENDBRANCH  22  23
ENDBRANCH   3  22
TORSDOF 19
