REMARK SMILES Cc1ccc(-c2ccc(/C=C(\C#N)C3N=c4ccccc4=N3)o2)cc1C(=O)NCCCNC(=O)c1ccc(-c2c3nc(c(-c4cc(S(=O)(=O)[O-])ccc4F)c4ccc([nH]4)c(-c4cc(S(=O)(=O)[O-])ccc4F)c4nc(c(-c5cc(S(=O)(=O)[O-])ccc5F)c5ccc2[nH]5)C=C4)C=C3)cc1
REMARK SMILES IDX 30 1 29 2 28 3 26 4 27 5 25 7 1 8 2 9 3 10 4 11 24 12 5 13
REMARK SMILES IDX 6 14 7 15 23 16 8 17 9 18 10 19 11 20 12 21 13 22 14 23
REMARK SMILES IDX 15 24 22 25 16 26 21 27 17 28 20 29 18 30 19 31 31 32 32 33
REMARK SMILES IDX 33 34 34 36 35 37 36 38 97 39 37 40 96 41 38 42 39 43 40 44
REMARK SMILES IDX 90 45 41 46 95 47 89 48 91 49 42 50 94 51 88 52 87 53 43 55
REMARK SMILES IDX 75 56 55 57 74 58 56 59 59 60 73 61 92 62 57 63 58 64 72 66
REMARK SMILES IDX 93 67 60 68 44 69 45 70 53 71 46 72 52 73 54 74 51 75 47 76
REMARK SMILES IDX 48 77 49 78 50 79 76 80 77 81 85 82 78 83 84 84 86 85 83 86
REMARK SMILES IDX 79 87 80 88 81 89 82 90 61 91 62 92 70 93 63 94 69 95 71 96
REMARK SMILES IDX 68 97 64 98 65 99 66 100 67 101
REMARK H PARENT 28 6 32 35 91 54 59 65
REMARK Flexibility Score: inf
ROOT
ATOM      1  C   UNL     1       4.044   0.958  -1.298  1.00  0.00     0.042 C 
ENDROOT
BRANCH   1   2
ATOM      2  C   UNL     1       3.418   1.629  -0.077  1.00  0.00     0.118 C 
BRANCH   2   3
ATOM      3  N   UNL     1       2.225   2.372  -0.436  1.00  0.00    -0.352 N 
ATOM      4  C   UNL     1       0.886   2.118  -0.455  1.00  0.00     0.251 C 
ATOM      5  O   UNL     1       0.198   3.119  -0.706  1.00  0.00    -0.269 OA
ATOM      6  H   UNL     1       2.434   3.285  -0.742  1.00  0.00     0.163 HD
BRANCH   4   7
ATOM      7  C   UNL     1       0.160   0.813  -0.205  1.00  0.00     0.043 A 
ATOM      8  C   UNL     1       1.927  -1.040  -0.632  1.00  0.00     0.045 C 
ATOM      9  C   UNL     1       0.596  -0.531  -0.203  1.00  0.00    -0.038 A 
ATOM     10  C   UNL     1      -0.305  -1.573   0.112  1.00  0.00     0.005 A 
ATOM     11  C   UNL     1      -1.659  -1.338   0.242  1.00  0.00     0.012 A 
ATOM     12  C   UNL     1      -1.236   1.009  -0.067  1.00  0.00     0.026 A 
ATOM     13  C   UNL     1      -2.138  -0.048   0.080  1.00  0.00     0.018 A 
BRANCH  13  14
ATOM     14  C   UNL     1      -3.559   0.164  -0.048  1.00  0.00     0.134 A 
ATOM     15  C   UNL     1      -4.355   0.778  -0.983  1.00  0.00     0.051 A 
ATOM     16  O   UNL     1      -4.320  -0.435   0.893  1.00  0.00    -0.457 OA
ATOM     17  C   UNL     1      -5.687   0.512  -0.583  1.00  0.00     0.051 A 
ATOM     18  C   UNL     1      -5.639  -0.222   0.598  1.00  0.00     0.128 A 
BRANCH  18  19
ATOM     19  C   UNL     1      -6.711  -0.702   1.394  1.00  0.00     0.066 C 
ATOM     20  C   UNL     1      -6.566  -1.418   2.528  1.00  0.00     0.080 C 
BRANCH  20  21
ATOM     21  C   UNL     1      -5.297  -1.815   3.071  1.00  0.00     0.099 C 
ATOM     22  N   UNL     1      -4.322  -2.198   3.559  1.00  0.00    -0.193 NA
ENDBRANCH  20  21
BRANCH  20  23
ATOM     23  C   UNL     1      -7.789  -1.868   3.286  1.00  0.00     0.263 C 
ATOM     24  N   UNL     1      -7.928  -3.347   3.197  1.00  0.00    -0.251 NA
ATOM     25  N   UNL     1      -7.731  -1.429   4.706  1.00  0.00    -0.251 NA
ATOM     26  C   UNL     1      -7.900  -3.703   4.434  1.00  0.00     0.086 A 
ATOM     27  C   UNL     1      -7.782  -2.545   5.347  1.00  0.00     0.086 A 
ATOM     28  C   UNL     1      -7.986  -5.055   4.991  1.00  0.00     0.030 A 
ATOM     29  C   UNL     1      -7.760  -2.770   6.794  1.00  0.00     0.030 A 
ATOM     30  C   UNL     1      -7.970  -5.173   6.326  1.00  0.00     0.002 A 
ATOM     31  C   UNL     1      -7.859  -4.037   7.222  1.00  0.00     0.002 A 
ENDBRANCH  20  23
ENDBRANCH  18  19
ENDBRANCH  13  14
ENDBRANCH   4   7
ENDBRANCH   2   3
ENDBRANCH   1   2
BRANCH   1  32
ATOM     32  C   UNL     1       5.377   1.527  -1.716  1.00  0.00     0.118 C 
BRANCH  32  33
ATOM     33  N   UNL     1       6.545   0.795  -1.222  1.00  0.00    -0.352 N 
ATOM     34  C   UNL     1       7.891   0.966  -1.525  1.00  0.00     0.251 C 
ATOM     35  H   UNL     1       6.348   0.076  -0.579  1.00  0.00     0.163 HD
ATOM     36  O   UNL     1       8.753   0.261  -1.007  1.00  0.00    -0.269 OA
BRANCH  34  37
ATOM     37  C   UNL     1       8.319   2.131  -2.355  1.00  0.00     0.039 A 
ATOM     38  C   UNL     1       9.217   2.999  -1.720  1.00  0.00     0.014 A 
ATOM     39  C   UNL     1       7.430   2.623  -3.292  1.00  0.00     0.014 A 
ATOM     40  C   UNL     1       8.889   4.343  -1.646  1.00  0.00     0.010 A 
ATOM     41  C   UNL     1       6.978   3.897  -3.070  1.00  0.00     0.010 A 
ATOM     42  C   UNL     1       7.663   4.720  -2.173  1.00  0.00    -0.014 A 
BRANCH  42  43
ATOM     43  C   UNL     1       7.087   6.035  -2.028  1.00  0.00     0.031 A 
ATOM     44  C   UNL     1       7.497   6.956  -3.095  1.00  0.00     0.074 A 
ATOM     45  C   UNL     1       6.195   6.285  -1.043  1.00  0.00     0.049 A 
ATOM     46  N   UNL     1       7.641   8.219  -2.960  1.00  0.00    -0.248 NA
ATOM     47  C   UNL     1       7.939   6.476  -4.411  1.00  0.00     0.031 C 
ATOM     48  C   UNL     1       5.336   7.448  -0.853  1.00  0.00     0.029 A 
ATOM     49  N   UNL     1       6.025   5.552   0.136  1.00  0.00    -0.354 N 
ATOM     50  C   UNL     1       7.810   8.733  -4.229  1.00  0.00     0.074 A 
ATOM     51  C   UNL     1       8.189   7.619  -5.046  1.00  0.00     0.031 C 
ATOM     52  C   UNL     1       4.957   7.506   0.439  1.00  0.00     0.029 A 
ATOM     53  C   UNL     1       5.666   6.460   1.158  1.00  0.00     0.049 A 
ATOM     54  H   UNL     1       6.136   4.579   0.236  1.00  0.00     0.167 HD
ATOM     55  C   UNL     1       7.393  10.006  -4.459  1.00  0.00     0.034 A 
ATOM     56  C   UNL     1       6.534   6.678   2.196  1.00  0.00     0.034 A 
ATOM     57  C   UNL     1       6.925  10.589  -3.192  1.00  0.00     0.049 A 
ATOM     58  C   UNL     1       7.256   8.015   2.052  1.00  0.00     0.074 A 
ATOM     59  C   UNL     1       5.671  10.722  -2.619  1.00  0.00     0.029 A 
ATOM     60  N   UNL     1       7.830  10.699  -2.146  1.00  0.00    -0.354 N 
ATOM     61  N   UNL     1       7.152   8.819   1.025  1.00  0.00    -0.248 NA
ATOM     62  C   UNL     1       8.196   8.511   3.048  1.00  0.00     0.031 C 
ATOM     63  C   UNL     1       5.846  10.846  -1.203  1.00  0.00     0.029 A 
ATOM     64  C   UNL     1       7.201  10.835  -0.922  1.00  0.00     0.049 A 
ATOM     65  H   UNL     1       8.808  10.683  -2.262  1.00  0.00     0.167 HD
ATOM     66  C   UNL     1       7.968   9.911   1.187  1.00  0.00     0.074 A 
ATOM     67  C   UNL     1       8.641   9.632   2.455  1.00  0.00     0.031 C 
ATOM     68  C   UNL     1       8.027  10.944   0.278  1.00  0.00     0.034 A 
BRANCH  55  69
ATOM     69  C   UNL     1       7.114  10.607  -5.821  1.00  0.00     0.023 A 
ATOM     70  C   UNL     1       6.308  11.759  -5.871  1.00  0.00     0.031 A 
ATOM     71  C   UNL     1       7.535  10.124  -7.081  1.00  0.00     0.131 A 
ATOM     72  C   UNL     1       5.912  12.337  -7.091  1.00  0.00     0.055 A 
ATOM     73  C   UNL     1       7.122  10.684  -8.300  1.00  0.00     0.041 A 
ATOM     74  F   UNL     1       8.395   9.112  -7.220  1.00  0.00    -0.206 F 
ATOM     75  C   UNL     1       6.302  11.797  -8.311  1.00  0.00     0.022 A 
BRANCH  72  76
ATOM     76  S   UNL     1       4.869  13.815  -7.053  1.00  0.00     0.124 S 
ATOM     77  O   UNL     1       3.661  13.319  -6.402  1.00  0.00    -0.237 OA
ATOM     78  O   UNL     1       5.685  14.747  -6.282  1.00  0.00    -0.237 OA
ATOM     79  O   UNL     1       4.714  14.156  -8.466  1.00  0.00    -0.744 OA
ENDBRANCH  72  76
ENDBRANCH  55  69
BRANCH  56  80
ATOM     80  C   UNL     1       7.166   5.389   2.654  1.00  0.00     0.023 A 
ATOM     81  C   UNL     1       6.296   4.389   3.159  1.00  0.00     0.031 A 
ATOM     82  C   UNL     1       8.336   4.971   2.008  1.00  0.00     0.131 A 
ATOM     83  C   UNL     1       6.439   3.064   2.711  1.00  0.00     0.055 A 
ATOM     84  C   UNL     1       8.470   3.651   1.583  1.00  0.00     0.041 A 
ATOM     85  F   UNL     1       9.257   5.860   1.606  1.00  0.00    -0.206 F 
ATOM     86  C   UNL     1       7.470   2.721   1.841  1.00  0.00     0.022 A 
BRANCH  83  87
ATOM     87  S   UNL     1       5.169   1.824   3.091  1.00  0.00     0.124 S 
ATOM     88  O   UNL     1       5.540   1.406   4.437  1.00  0.00    -0.237 OA
ATOM     89  O   UNL     1       3.932   2.588   2.974  1.00  0.00    -0.237 OA
ATOM     90  O   UNL     1       5.358   0.815   2.046  1.00  0.00    -0.744 OA
ENDBRANCH  83  87
ENDBRANCH  56  80
BRANCH  68  91
ATOM     91  C   UNL     1       8.917  12.171   0.421  1.00  0.00     0.023 A 
ATOM     92  C   UNL     1       9.438  12.560   1.654  1.00  0.00     0.031 A 
ATOM     93  C   UNL     1       9.259  13.023  -0.662  1.00  0.00     0.131 A 
ATOM     94  C   UNL     1      10.400  13.574   1.758  1.00  0.00     0.055 A 
ATOM     95  C   UNL     1      10.153  14.090  -0.548  1.00  0.00     0.041 A 
ATOM     96  F   UNL     1       8.749  12.880  -1.891  1.00  0.00    -0.206 F 
ATOM     97  C   UNL     1      10.767  14.347   0.663  1.00  0.00     0.022 A 
BRANCH  94  98
ATOM     98  S   UNL     1      11.202  13.793   3.360  1.00  0.00     0.124 S 
ATOM     99  O   UNL     1      10.065  13.935   4.263  1.00  0.00    -0.237 OA
ATOM    100  O   UNL     1      11.955  12.548   3.485  1.00  0.00    -0.237 OA
ATOM    101  O   UNL     1      12.010  14.996   3.177  1.00  0.00    -0.744 OA
ENDBRANCH  94  98
ENDBRANCH  68  91
ENDBRANCH  42  43
ENDBRANCH  34  37
ENDBRANCH  32  33
ENDBRANCH   1  32
TORSDOF 17
