REMARK SMILES CCN(Cc1cccc(C)n1)C(=O)[C@@H]([NH3+])CC(=O)NCCCNC(=O)c1ccc(-c2c3nc(c(-c4cc(S(=O)(=O)[O-])ccc4F)c4ccc([nH]4)c(-c4cc(S(=O)(=O)[O-])ccc4F)c4nc(c(-c5cc(S(=O)(=O)[O-])ccc5F)c5ccc2[nH]5)C=C4)C=C3)cc1
REMARK SMILES IDX 20 1 19 2 17 3 18 4 16 6 14 7 12 8 13 9 3 10 2 11 1 12 4 13
REMARK SMILES IDX 5 14 6 15 11 16 7 17 9 18 8 19 10 20 15 21 21 25 22 26 23 27
REMARK SMILES IDX 24 28 25 30 26 31 27 32 88 33 28 34 87 35 29 36 30 37 31 38
REMARK SMILES IDX 81 39 32 40 86 41 80 42 82 43 33 44 85 45 79 46 78 47 34 49
REMARK SMILES IDX 66 50 46 51 65 52 47 53 50 54 64 55 83 56 48 57 49 58 63 60
REMARK SMILES IDX 84 61 51 62 35 63 36 64 44 65 37 66 43 67 45 68 42 69 38 70
REMARK SMILES IDX 39 71 40 72 41 73 67 74 68 75 76 76 69 77 75 78 77 79 74 80
REMARK SMILES IDX 70 81 71 82 72 83 73 84 52 85 53 86 61 87 54 88 60 89 62 90
REMARK SMILES IDX 59 91 55 92 56 93 57 94 58 95
REMARK H PARENT 19 5 15 22 15 23 15 24 23 29 82 48 50 59
REMARK Flexibility Score: inf
ROOT
ATOM      1  C   UNL     1       2.279  -1.888   3.984  1.00  0.00     0.117 C 
ENDROOT
BRANCH   1   2
ATOM      2  N   UNL     1       3.217  -1.369   4.955  1.00  0.00    -0.356 N 
ATOM      3  C   UNL     1       3.335  -0.099   5.430  1.00  0.00     0.226 C 
ATOM      4  O   UNL     1       4.253   0.151   6.213  1.00  0.00    -0.275 OA
ATOM      5  H   UNL     1       3.856  -2.022   5.321  1.00  0.00     0.163 HD
BRANCH   3   6
ATOM      6  C   UNL     1       2.337   0.972   5.026  1.00  0.00     0.175 C 
BRANCH   6   7
ATOM      7  C   UNL     1       2.710   1.650   3.707  1.00  0.00     0.280 C 
BRANCH   7   8
ATOM      8  C   UNL     1       2.132   1.006   2.412  1.00  0.00     0.281 C 
ATOM      9  O   UNL     1       2.963   0.655   1.564  1.00  0.00    -0.268 OA
BRANCH   8  10
ATOM     10  N   UNL     1       0.767   0.844   2.180  1.00  0.00    -0.332 N 
BRANCH  10  11
ATOM     11  C   UNL     1       0.310   0.146   0.960  1.00  0.00     0.116 C 
ATOM     12  C   UNL     1       0.898   0.583  -0.374  1.00  0.00     0.027 C 
ENDBRANCH  10  11
BRANCH  10  13
ATOM     13  C   UNL     1      -0.300   1.345   3.069  1.00  0.00     0.175 C 
BRANCH  13  14
ATOM     14  C   UNL     1      -1.129   0.328   3.854  1.00  0.00     0.060 A 
ATOM     15  C   UNL     1      -1.152  -1.041   3.595  1.00  0.00     0.026 A 
ATOM     16  N   UNL     1      -1.904   0.856   4.840  1.00  0.00    -0.256 NA
ATOM     17  C   UNL     1      -1.945  -1.883   4.371  1.00  0.00     0.004 A 
ATOM     18  C   UNL     1      -2.693   0.030   5.574  1.00  0.00     0.038 A 
ATOM     19  C   UNL     1      -2.729  -1.343   5.378  1.00  0.00     0.023 A 
ATOM     20  C   UNL     1      -3.554   0.675   6.617  1.00  0.00     0.067 C 
ENDBRANCH  13  14
ENDBRANCH  10  13
ENDBRANCH   8  10
ENDBRANCH   7   8
BRANCH   7  21
ATOM     21  N   UNL     1       2.379   3.098   3.704  1.00  0.00    -0.347 N 
ATOM     22  H   UNL     1       1.366   3.215   3.739  1.00  0.00     0.345 HD
ATOM     23  H   UNL     1       2.742   3.528   2.853  1.00  0.00     0.345 HD
ATOM     24  H   UNL     1       2.801   3.545   4.518  1.00  0.00     0.345 HD
ENDBRANCH   7  21
ENDBRANCH   6   7
ENDBRANCH   3   6
ENDBRANCH   1   2
BRANCH   1  25
ATOM     25  C   UNL     1       2.943  -2.125   2.637  1.00  0.00     0.042 C 
BRANCH  25  26
ATOM     26  C   UNL     1       3.219  -3.583   2.341  1.00  0.00     0.118 C 
BRANCH  26  27
ATOM     27  N   UNL     1       1.990  -4.350   2.163  1.00  0.00    -0.352 N 
ATOM     28  C   UNL     1       1.528  -5.074   1.087  1.00  0.00     0.251 C 
ATOM     29  H   UNL     1       1.390  -4.349   2.944  1.00  0.00     0.163 HD
ATOM     30  O   UNL     1       0.367  -5.469   1.104  1.00  0.00    -0.269 OA
BRANCH  28  31
ATOM     31  C   UNL     1       2.398  -5.343  -0.085  1.00  0.00     0.039 A 
ATOM     32  C   UNL     1       1.819  -5.431  -1.355  1.00  0.00     0.014 A 
ATOM     33  C   UNL     1       3.774  -5.518   0.053  1.00  0.00     0.014 A 
ATOM     34  C   UNL     1       2.630  -5.610  -2.480  1.00  0.00     0.010 A 
ATOM     35  C   UNL     1       4.589  -5.562  -1.072  1.00  0.00     0.010 A 
ATOM     36  C   UNL     1       4.028  -5.626  -2.353  1.00  0.00    -0.014 A 
BRANCH  36  37
ATOM     37  C   UNL     1       4.926  -5.737  -3.533  1.00  0.00     0.031 A 
ATOM     38  C   UNL     1       5.895  -6.887  -3.634  1.00  0.00     0.074 A 
ATOM     39  C   UNL     1       4.924  -4.770  -4.472  1.00  0.00     0.049 A 
ATOM     40  N   UNL     1       6.829  -7.112  -4.523  1.00  0.00    -0.248 NA
ATOM     41  C   UNL     1       5.832  -7.895  -2.564  1.00  0.00     0.031 C 
ATOM     42  C   UNL     1       4.062  -3.586  -4.466  1.00  0.00     0.029 A 
ATOM     43  N   UNL     1       5.673  -4.627  -5.612  1.00  0.00    -0.354 N 
ATOM     44  C   UNL     1       7.472  -8.274  -4.109  1.00  0.00     0.074 A 
ATOM     45  C   UNL     1       6.880  -8.650  -2.844  1.00  0.00     0.031 C 
ATOM     46  C   UNL     1       4.297  -2.866  -5.574  1.00  0.00     0.029 A 
ATOM     47  C   UNL     1       5.365  -3.500  -6.339  1.00  0.00     0.049 A 
ATOM     48  H   UNL     1       6.366  -5.270  -5.886  1.00  0.00     0.167 HD
ATOM     49  C   UNL     1       8.441  -8.983  -4.741  1.00  0.00     0.034 A 
ATOM     50  C   UNL     1       5.889  -3.029  -7.487  1.00  0.00     0.034 A 
ATOM     51  C   UNL     1       9.014  -8.595  -6.007  1.00  0.00     0.049 A 
ATOM     52  C   UNL     1       7.003  -3.801  -8.146  1.00  0.00     0.074 A 
ATOM     53  C   UNL     1       9.967  -9.254  -6.763  1.00  0.00     0.029 A 
ATOM     54  N   UNL     1       8.691  -7.435  -6.702  1.00  0.00    -0.354 N 
ATOM     55  N   UNL     1       7.571  -4.923  -7.768  1.00  0.00    -0.248 NA
ATOM     56  C   UNL     1       7.543  -3.243  -9.392  1.00  0.00     0.031 C 
ATOM     57  C   UNL     1      10.274  -8.458  -7.872  1.00  0.00     0.029 A 
ATOM     58  C   UNL     1       9.451  -7.343  -7.858  1.00  0.00     0.049 A 
ATOM     59  H   UNL     1       8.020  -6.774  -6.414  1.00  0.00     0.167 HD
ATOM     60  C   UNL     1       8.509  -5.224  -8.751  1.00  0.00     0.074 A 
ATOM     61  C   UNL     1       8.421  -4.171  -9.742  1.00  0.00     0.031 C 
ATOM     62  C   UNL     1       9.361  -6.279  -8.832  1.00  0.00     0.034 A 
BRANCH  49  63
ATOM     63  C   UNL     1       8.946 -10.230  -4.048  1.00  0.00     0.023 A 
ATOM     64  C   UNL     1       8.083 -11.295  -3.727  1.00  0.00     0.031 A 
ATOM     65  C   UNL     1      10.289 -10.335  -3.643  1.00  0.00     0.131 A 
ATOM     66  C   UNL     1       8.540 -12.355  -2.930  1.00  0.00     0.055 A 
ATOM     67  C   UNL     1      10.762 -11.445  -2.939  1.00  0.00     0.041 A 
ATOM     68  F   UNL     1      11.160  -9.347  -3.900  1.00  0.00    -0.206 F 
ATOM     69  C   UNL     1       9.881 -12.452  -2.558  1.00  0.00     0.022 A 
BRANCH  66  70
ATOM     70  S   UNL     1       7.314 -13.493  -2.226  1.00  0.00     0.124 S 
ATOM     71  O   UNL     1       6.443 -12.573  -1.498  1.00  0.00    -0.237 OA
ATOM     72  O   UNL     1       6.739 -14.112  -3.414  1.00  0.00    -0.237 OA
ATOM     73  O   UNL     1       8.114 -14.379  -1.383  1.00  0.00    -0.744 OA
ENDBRANCH  66  70
ENDBRANCH  49  63
BRANCH  50  74
ATOM     74  C   UNL     1       5.365  -1.774  -8.099  1.00  0.00     0.023 A 
ATOM     75  C   UNL     1       4.730  -1.802  -9.352  1.00  0.00     0.031 A 
ATOM     76  C   UNL     1       5.516  -0.529  -7.464  1.00  0.00     0.131 A 
ATOM     77  C   UNL     1       4.310  -0.605  -9.951  1.00  0.00     0.055 A 
ATOM     78  C   UNL     1       5.046   0.653  -8.039  1.00  0.00     0.041 A 
ATOM     79  F   UNL     1       6.112  -0.446  -6.264  1.00  0.00    -0.206 F 
ATOM     80  C   UNL     1       4.450   0.621  -9.296  1.00  0.00     0.022 A 
BRANCH  77  81
ATOM     81  S   UNL     1       3.650  -0.665 -11.639  1.00  0.00     0.124 S 
ATOM     82  O   UNL     1       4.770  -1.241 -12.374  1.00  0.00    -0.237 OA
ATOM     83  O   UNL     1       2.480  -1.521 -11.477  1.00  0.00    -0.237 OA
ATOM     84  O   UNL     1       3.359   0.735 -11.940  1.00  0.00    -0.744 OA
ENDBRANCH  77  81
ENDBRANCH  50  74
BRANCH  62  85
ATOM     85  C   UNL     1      10.228  -6.367 -10.065  1.00  0.00     0.023 A 
ATOM     86  C   UNL     1      11.230  -5.420 -10.338  1.00  0.00     0.031 A 
ATOM     87  C   UNL     1      10.039  -7.413 -10.987  1.00  0.00     0.131 A 
ATOM     88  C   UNL     1      11.965  -5.503 -11.531  1.00  0.00     0.055 A 
ATOM     89  C   UNL     1      10.818  -7.529 -12.138  1.00  0.00     0.041 A 
ATOM     90  F   UNL     1       9.093  -8.344 -10.780  1.00  0.00    -0.206 F 
ATOM     91  C   UNL     1      11.778  -6.563 -12.423  1.00  0.00     0.022 A 
BRANCH  88  92
ATOM     92  S   UNL     1      13.099  -4.152 -11.952  1.00  0.00     0.124 S 
ATOM     93  O   UNL     1      12.204  -3.000 -11.971  1.00  0.00    -0.237 OA
ATOM     94  O   UNL     1      14.059  -4.196 -10.853  1.00  0.00    -0.237 OA
ATOM     95  O   UNL     1      13.632  -4.545 -13.255  1.00  0.00    -0.744 OA
ENDBRANCH  88  92
ENDBRANCH  62  85
ENDBRANCH  36  37
ENDBRANCH  28  31
ENDBRANCH  26  27
ENDBRANCH  25  26
ENDBRANCH   1  25
TORSDOF 20
