REMARK SMILES Cc1c(CC(=O)NCCCNC(=O)c2ccc(-c3c4nc(c(-c5cc(S(=O)(=O)[O-])ccc5F)c5ccc([nH]5)c(-c5cc(S(=O)(=O)[O-])ccc5F)c5nc(c(-c6cc(S(=O)(=O)[O-])ccc6F)c6ccc3[nH]6)C=C5)C=C4)cc2)cc(-c2ccc(S(C)(=O)=O)cc2)n1-c1ccccc1
REMARK SMILES IDX 9 1 8 2 7 3 5 4 6 5 4 7 3 8 1 9 2 10 89 11 77 12 78 13 90 14
REMARK SMILES IDX 91 15 95 16 92 17 94 18 93 19 79 20 80 21 88 22 81 23 87 24
REMARK SMILES IDX 82 25 83 26 84 27 85 28 86 29 10 30 11 31 12 32 13 34 14 35
REMARK SMILES IDX 15 36 76 37 16 38 75 39 17 40 18 41 19 42 69 43 20 44 74 45
REMARK SMILES IDX 68 46 70 47 21 48 73 49 67 50 66 51 22 53 54 54 34 55 53 56
REMARK SMILES IDX 35 57 38 58 52 59 71 60 36 61 37 62 51 64 72 65 39 66 23 67
REMARK SMILES IDX 24 68 32 69 25 70 31 71 33 72 30 73 26 74 27 75 28 76 29 77
REMARK SMILES IDX 55 78 56 79 64 80 57 81 63 82 65 83 62 84 58 85 59 86 60 87
REMARK SMILES IDX 61 88 40 89 41 90 49 91 42 92 48 93 50 94 47 95 43 96 44 97
REMARK SMILES IDX 45 98 46 99
REMARK H PARENT 7 6 11 33 70 52 38 63
REMARK Flexibility Score: inf
ROOT
ATOM      1  C   UNL     1       0.164   2.199  -3.907  1.00  0.00     0.042 C 
ENDROOT
BRANCH   1   2
ATOM      2  C   UNL     1      -1.308   1.780  -3.758  1.00  0.00     0.117 C 
BRANCH   2   3
ATOM      3  N   UNL     1      -1.489   0.425  -3.268  1.00  0.00    -0.356 N 
ATOM      4  C   UNL     1      -1.742  -0.054  -2.018  1.00  0.00     0.224 C 
ATOM      5  O   UNL     1      -1.833  -1.278  -1.882  1.00  0.00    -0.275 OA
ATOM      6  H   UNL     1      -1.417  -0.270  -3.962  1.00  0.00     0.163 HD
BRANCH   4   7
ATOM      7  C   UNL     1      -1.983   0.873  -0.840  1.00  0.00     0.137 C 
BRANCH   7   8
ATOM      8  C   UNL     1      -0.805   1.711  -0.451  1.00  0.00    -0.017 A 
ATOM      9  C   UNL     1       0.963  -0.117   0.034  1.00  0.00     0.065 C 
ATOM     10  C   UNL     1       0.480   1.292  -0.126  1.00  0.00     0.024 A 
ATOM     11  N   UNL     1       1.258   2.420   0.125  1.00  0.00    -0.314 N 
ATOM     12  C   UNL     1      -0.828   3.120  -0.291  1.00  0.00     0.033 A 
ATOM     13  C   UNL     1       0.445   3.552   0.031  1.00  0.00     0.053 A 
BRANCH  11  14
ATOM     14  C   UNL     1       2.648   2.436   0.414  1.00  0.00     0.046 A 
ATOM     15  C   UNL     1       3.120   3.148   1.524  1.00  0.00     0.026 A 
ATOM     16  C   UNL     1       3.543   1.798  -0.453  1.00  0.00     0.026 A 
ATOM     17  C   UNL     1       4.491   3.214   1.769  1.00  0.00     0.002 A 
ATOM     18  C   UNL     1       4.914   1.882  -0.207  1.00  0.00     0.002 A 
ATOM     19  C   UNL     1       5.386   2.587   0.902  1.00  0.00     0.000 A 
ENDBRANCH  11  14
BRANCH  13  20
ATOM     20  C   UNL     1       0.906   4.942   0.125  1.00  0.00    -0.001 A 
ATOM     21  C   UNL     1       1.922   5.418  -0.719  1.00  0.00     0.011 A 
ATOM     22  C   UNL     1       0.317   5.817   1.046  1.00  0.00     0.011 A 
ATOM     23  C   UNL     1       2.372   6.736  -0.619  1.00  0.00     0.021 A 
ATOM     24  C   UNL     1       0.762   7.138   1.153  1.00  0.00     0.021 A 
ATOM     25  C   UNL     1       1.797   7.585   0.328  1.00  0.00     0.067 A 
BRANCH  25  26
ATOM     26  S   UNL     1       2.367   9.262   0.457  1.00  0.00     0.175 S 
ATOM     27  C   UNL     1       4.058   9.113   0.972  1.00  0.00     0.163 C 
ATOM     28  O   UNL     1       2.349   9.821  -0.890  1.00  0.00    -0.224 OA
ATOM     29  O   UNL     1       1.639   9.899   1.531  1.00  0.00    -0.224 OA
ENDBRANCH  25  26
ENDBRANCH  13  20
ENDBRANCH   7   8
ENDBRANCH   4   7
ENDBRANCH   2   3
ENDBRANCH   1   2
BRANCH   1  30
ATOM     30  C   UNL     1       1.127   1.184  -4.558  1.00  0.00     0.118 C 
BRANCH  30  31
ATOM     31  N   UNL     1       1.304   1.345  -5.981  1.00  0.00    -0.352 N 
ATOM     32  C   UNL     1       2.382   0.984  -6.769  1.00  0.00     0.251 C 
ATOM     33  H   UNL     1       0.554   1.769  -6.456  1.00  0.00     0.163 HD
ATOM     34  O   UNL     1       2.348   1.393  -7.932  1.00  0.00    -0.269 OA
BRANCH  32  35
ATOM     35  C   UNL     1       3.634   0.293  -6.250  1.00  0.00     0.039 A 
ATOM     36  C   UNL     1       4.801   0.980  -6.470  1.00  0.00     0.014 A 
ATOM     37  C   UNL     1       3.823  -0.995  -5.700  1.00  0.00     0.014 A 
ATOM     38  C   UNL     1       6.059   0.429  -6.082  1.00  0.00     0.010 A 
ATOM     39  C   UNL     1       5.174  -1.592  -5.395  1.00  0.00     0.010 A 
ATOM     40  C   UNL     1       6.386  -0.900  -5.582  1.00  0.00    -0.014 A 
BRANCH  40  41
ATOM     41  C   UNL     1       8.059  -1.333  -5.519  1.00  0.00     0.031 A 
ATOM     42  C   UNL     1       8.636  -0.323  -6.447  1.00  0.00     0.074 A 
ATOM     43  C   UNL     1       9.072  -2.291  -5.204  1.00  0.00     0.049 A 
ATOM     44  N   UNL     1       8.199  -0.407  -7.668  1.00  0.00    -0.248 NA
ATOM     45  C   UNL     1       9.188   0.988  -6.098  1.00  0.00     0.031 C 
ATOM     46  C   UNL     1       8.924  -3.682  -4.724  1.00  0.00     0.029 A 
ATOM     47  N   UNL     1      10.543  -2.280  -5.305  1.00  0.00    -0.354 N 
ATOM     48  C   UNL     1       8.570   0.719  -8.340  1.00  0.00     0.074 A 
ATOM     49  C   UNL     1       9.066   1.609  -7.287  1.00  0.00     0.031 C 
ATOM     50  C   UNL     1      10.125  -4.280  -4.418  1.00  0.00     0.029 A 
ATOM     51  C   UNL     1      11.280  -3.412  -4.699  1.00  0.00     0.049 A 
ATOM     52  H   UNL     1      11.018  -1.548  -5.759  1.00  0.00     0.167 HD
ATOM     53  C   UNL     1       9.032   0.471  -9.596  1.00  0.00     0.034 A 
ATOM     54  C   UNL     1      12.670  -3.696  -4.560  1.00  0.00     0.034 A 
ATOM     55  C   UNL     1      10.463   0.312  -9.537  1.00  0.00     0.049 A 
ATOM     56  C   UNL     1      13.271  -3.198  -5.791  1.00  0.00     0.074 A 
ATOM     57  C   UNL     1      11.443   0.985  -8.826  1.00  0.00     0.029 A 
ATOM     58  N   UNL     1      10.947  -0.954  -9.770  1.00  0.00    -0.354 N 
ATOM     59  N   UNL     1      13.151  -3.822  -6.920  1.00  0.00    -0.248 NA
ATOM     60  C   UNL     1      14.090  -1.996  -5.796  1.00  0.00     0.031 C 
ATOM     61  C   UNL     1      12.166  -0.045  -8.187  1.00  0.00     0.029 A 
ATOM     62  C   UNL     1      11.961  -1.231  -8.880  1.00  0.00     0.049 A 
ATOM     63  H   UNL     1      10.619  -1.567 -10.467  1.00  0.00     0.167 HD
ATOM     64  C   UNL     1      13.374  -2.824  -7.816  1.00  0.00     0.074 A 
ATOM     65  C   UNL     1      14.189  -1.841  -7.116  1.00  0.00     0.031 C 
ATOM     66  C   UNL     1      12.399  -2.602  -8.729  1.00  0.00     0.034 A 
BRANCH  53  67
ATOM     67  C   UNL     1       8.094  -0.441 -10.390  1.00  0.00     0.023 A 
ATOM     68  C   UNL     1       7.418   0.077 -11.501  1.00  0.00     0.031 A 
ATOM     69  C   UNL     1       7.747  -1.759  -9.988  1.00  0.00     0.131 A 
ATOM     70  C   UNL     1       6.388  -0.671 -12.109  1.00  0.00     0.055 A 
ATOM     71  C   UNL     1       6.668  -2.454 -10.533  1.00  0.00     0.041 A 
ATOM     72  F   UNL     1       8.458  -2.409  -9.052  1.00  0.00    -0.206 F 
ATOM     73  C   UNL     1       5.974  -1.906 -11.599  1.00  0.00     0.022 A 
BRANCH  70  74
ATOM     74  S   UNL     1       5.624  -0.030 -13.622  1.00  0.00     0.124 S 
ATOM     75  O   UNL     1       4.951   1.175 -13.147  1.00  0.00    -0.237 OA
ATOM     76  O   UNL     1       6.783   0.194 -14.482  1.00  0.00    -0.237 OA
ATOM     77  O   UNL     1       4.737  -1.110 -14.053  1.00  0.00    -0.744 OA
ENDBRANCH  70  74
ENDBRANCH  53  67
BRANCH  54  78
ATOM     78  C   UNL     1      13.847  -4.509  -3.799  1.00  0.00     0.023 A 
ATOM     79  C   UNL     1      15.160  -4.839  -4.392  1.00  0.00     0.031 A 
ATOM     80  C   UNL     1      13.868  -4.532  -2.397  1.00  0.00     0.131 A 
ATOM     81  C   UNL     1      16.344  -5.114  -3.610  1.00  0.00     0.055 A 
ATOM     82  C   UNL     1      15.042  -4.801  -1.634  1.00  0.00     0.041 A 
ATOM     83  F   UNL     1      12.776  -4.179  -1.705  1.00  0.00    -0.206 F 
ATOM     84  C   UNL     1      16.275  -5.072  -2.226  1.00  0.00     0.022 A 
BRANCH  81  85
ATOM     85  S   UNL     1      18.052  -5.364  -4.328  1.00  0.00     0.124 S 
ATOM     86  O   UNL     1      17.978  -6.701  -4.903  1.00  0.00    -0.237 OA
ATOM     87  O   UNL     1      18.183  -4.254  -5.266  1.00  0.00    -0.237 OA
ATOM     88  O   UNL     1      18.939  -5.261  -3.163  1.00  0.00    -0.744 OA
ENDBRANCH  81  85
ENDBRANCH  54  78
BRANCH  66  89
ATOM     89  C   UNL     1      11.745  -3.803  -9.401  1.00  0.00     0.023 A 
ATOM     90  C   UNL     1      11.248  -4.973  -8.772  1.00  0.00     0.031 A 
ATOM     91  C   UNL     1      11.652  -3.758 -10.804  1.00  0.00     0.131 A 
ATOM     92  C   UNL     1      10.693  -6.020  -9.541  1.00  0.00     0.055 A 
ATOM     93  C   UNL     1      11.056  -4.766 -11.557  1.00  0.00     0.041 A 
ATOM     94  F   UNL     1      12.137  -2.702 -11.478  1.00  0.00    -0.206 F 
ATOM     95  C   UNL     1      10.580  -5.908 -10.928  1.00  0.00     0.022 A 
BRANCH  92  96
ATOM     96  S   UNL     1      10.168  -7.583  -8.754  1.00  0.00     0.124 S 
ATOM     97  O   UNL     1      11.333  -7.967  -7.964  1.00  0.00    -0.237 OA
ATOM     98  O   UNL     1       8.987  -7.183  -7.995  1.00  0.00    -0.237 OA
ATOM     99  O   UNL     1       9.894  -8.464  -9.892  1.00  0.00    -0.744 OA
ENDBRANCH  92  96
ENDBRANCH  66  89
ENDBRANCH  40  41
ENDBRANCH  32  35
ENDBRANCH  30  31
ENDBRANCH   1  30
TORSDOF 17
