REMARK SMILES NS(=O)(=O)c1ccc(-n2nc(C(=O)NCCCNC(=O)c3ccc(-c4c5nc(c(-c6cc(S(=O)(=O)[O-])ccc6F)c6ccc([nH]6)c(-c6cc(S(=O)(=O)[O-])ccc6F)c6nc(c(-c7cc(S(=O)(=O)[O-])ccc7F)c7ccc4[nH]7)C=C6)C=C5)cc3)c(Cl)c2-c2ccc(Cl)cc2)cc1
REMARK SMILES IDX 16 1 15 2 14 3 12 4 13 5 11 7 9 8 10 9 86 10 84 11 85 12
REMARK SMILES IDX 8 13 5 14 6 15 95 16 7 17 94 18 2 19 3 20 4 21 1 22 87 25
REMARK SMILES IDX 88 26 93 27 89 28 92 29 90 30 91 31 17 32 18 33 19 34 20 36
REMARK SMILES IDX 21 37 22 38 83 39 23 40 82 41 24 42 25 43 26 44 76 45 27 46
REMARK SMILES IDX 81 47 75 48 77 49 28 50 80 51 74 52 73 53 29 55 61 56 41 57
REMARK SMILES IDX 60 58 42 59 45 60 59 61 78 62 43 63 44 64 58 66 79 67 46 68
REMARK SMILES IDX 30 69 31 70 39 71 32 72 38 73 40 74 37 75 33 76 34 77 35 78
REMARK SMILES IDX 36 79 62 80 63 81 71 82 64 83 70 84 72 85 69 86 65 87 66 88
REMARK SMILES IDX 67 89 68 90 47 91 48 92 56 93 49 94 55 95 57 96 54 97 50 98
REMARK SMILES IDX 51 99 52 100 53 101
REMARK H PARENT 14 6 1 23 1 24 18 35 77 54 45 65
REMARK Flexibility Score: inf
ROOT
ATOM      1  C   UNL     1       1.164   8.810   8.985  1.00  0.00     0.042 C 
ENDROOT
BRANCH   1   2
ATOM      2  C   UNL     1       2.184   8.909   7.842  1.00  0.00     0.118 C 
BRANCH   2   3
ATOM      3  N   UNL     1       3.236   7.901   7.950  1.00  0.00    -0.351 N 
ATOM      4  C   UNL     1       3.420   6.692   7.301  1.00  0.00     0.273 C 
ATOM      5  O   UNL     1       4.480   6.100   7.511  1.00  0.00    -0.267 OA
ATOM      6  H   UNL     1       3.940   8.120   8.602  1.00  0.00     0.163 HD
BRANCH   4   7
ATOM      7  C   UNL     1       2.426   6.191   6.337  1.00  0.00     0.169 A 
ATOM      8  N   UNL     1       1.677   5.391   4.492  1.00  0.00    -0.231 N 
ATOM      9  N   UNL     1       2.814   5.559   5.202  1.00  0.00    -0.160 NA
ATOM     10  C   UNL     1       0.590   5.975   5.102  1.00  0.00     0.094 A 
ATOM     11  C   UNL     1       1.016   6.173   6.397  1.00  0.00     0.100 A 
ATOM     12  Cl  UNL     1      -0.036   6.314   7.718  1.00  0.00    -0.079 Cl
BRANCH   8  13
ATOM     13  C   UNL     1       1.620   4.543   3.367  1.00  0.00     0.065 A 
ATOM     14  C   UNL     1       1.060   2.808   1.281  1.00  0.00     0.082 A 
ATOM     15  C   UNL     1       1.541   2.293   2.491  1.00  0.00     0.024 A 
ATOM     16  C   UNL     1       0.899   4.186   1.099  1.00  0.00     0.024 A 
ATOM     17  C   UNL     1       1.845   3.169   3.538  1.00  0.00     0.030 A 
ATOM     18  C   UNL     1       1.157   5.058   2.154  1.00  0.00     0.030 A 
BRANCH  14  19
ATOM     19  S   UNL     1       0.617   1.752  -0.066  1.00  0.00     0.238 S 
ATOM     20  O   UNL     1       1.273   2.250  -1.267  1.00  0.00    -0.207 OA
ATOM     21  O   UNL     1      -0.791   1.501  -0.004  1.00  0.00    -0.207 OA
BRANCH  19  22
ATOM     22  N   UNL     1       1.370   0.288   0.260  1.00  0.00    -0.225 NA
ATOM     23  H   UNL     1       1.156  -0.377  -0.484  1.00  0.00     0.137 HD
ATOM     24  H   UNL     1       1.032  -0.077   1.150  1.00  0.00     0.137 HD
ENDBRANCH  19  22
ENDBRANCH  14  19
ENDBRANCH   8  13
BRANCH  10  25
ATOM     25  C   UNL     1      -0.776   6.080   4.616  1.00  0.00     0.002 A 
ATOM     26  C   UNL     1      -1.237   7.335   4.191  1.00  0.00     0.012 A 
ATOM     27  C   UNL     1      -1.683   5.039   4.833  1.00  0.00     0.012 A 
ATOM     28  C   UNL     1      -2.604   7.561   4.037  1.00  0.00     0.021 A 
ATOM     29  C   UNL     1      -3.050   5.269   4.684  1.00  0.00     0.021 A 
ATOM     30  C   UNL     1      -3.505   6.533   4.306  1.00  0.00     0.041 A 
ATOM     31  Cl  UNL     1      -5.196   6.840   4.224  1.00  0.00    -0.084 Cl
ENDBRANCH  10  25
ENDBRANCH   4   7
ENDBRANCH   2   3
ENDBRANCH   1   2
BRANCH   1  32
ATOM     32  C   UNL     1       1.476   9.684  10.174  1.00  0.00     0.118 C 
BRANCH  32  33
ATOM     33  N   UNL     1       1.103  11.093  10.000  1.00  0.00    -0.352 N 
ATOM     34  C   UNL     1       1.115  12.106  10.960  1.00  0.00     0.251 C 
ATOM     35  H   UNL     1       0.809  11.355   9.098  1.00  0.00     0.163 HD
ATOM     36  O   UNL     1       0.444  13.120  10.801  1.00  0.00    -0.269 OA
BRANCH  34  37
ATOM     37  C   UNL     1       1.948  11.926  12.168  1.00  0.00     0.039 A 
ATOM     38  C   UNL     1       1.642  12.410  13.445  1.00  0.00     0.014 A 
ATOM     39  C   UNL     1       3.061  11.135  12.000  1.00  0.00     0.014 A 
ATOM     40  C   UNL     1       2.493  12.062  14.502  1.00  0.00     0.010 A 
ATOM     41  C   UNL     1       3.461  10.412  13.068  1.00  0.00     0.010 A 
ATOM     42  C   UNL     1       3.446  11.067  14.275  1.00  0.00    -0.014 A 
BRANCH  42  43
ATOM     43  C   UNL     1       4.407  10.544  15.232  1.00  0.00     0.031 A 
ATOM     44  C   UNL     1       3.779   9.724  16.289  1.00  0.00     0.074 A 
ATOM     45  C   UNL     1       5.729  10.454  14.938  1.00  0.00     0.049 A 
ATOM     46  N   UNL     1       3.467  10.090  17.487  1.00  0.00    -0.248 NA
ATOM     47  C   UNL     1       3.177   8.438  15.887  1.00  0.00     0.031 C 
ATOM     48  C   UNL     1       6.434  10.841  13.706  1.00  0.00     0.029 A 
ATOM     49  N   UNL     1       6.723   9.866  15.653  1.00  0.00    -0.354 N 
ATOM     50  C   UNL     1       2.925   8.953  18.073  1.00  0.00     0.074 A 
ATOM     51  C   UNL     1       2.458   8.158  16.975  1.00  0.00     0.031 C 
ATOM     52  C   UNL     1       7.663  10.271  13.681  1.00  0.00     0.029 A 
ATOM     53  C   UNL     1       7.896   9.597  14.946  1.00  0.00     0.049 A 
ATOM     54  H   UNL     1       6.623   9.643  16.607  1.00  0.00     0.167 HD
ATOM     55  C   UNL     1       3.244   8.595  19.351  1.00  0.00     0.034 A 
ATOM     56  C   UNL     1       8.939   8.825  15.370  1.00  0.00     0.034 A 
ATOM     57  C   UNL     1       3.967   9.676  20.007  1.00  0.00     0.049 A 
ATOM     58  C   UNL     1       8.807   8.736  16.854  1.00  0.00     0.074 A 
ATOM     59  C   UNL     1       3.721  11.024  20.203  1.00  0.00     0.029 A 
ATOM     60  N   UNL     1       5.332   9.533  20.182  1.00  0.00    -0.354 N 
ATOM     61  N   UNL     1       8.905   9.775  17.644  1.00  0.00    -0.248 NA
ATOM     62  C   UNL     1       8.031   7.626  17.394  1.00  0.00     0.031 C 
ATOM     63  C   UNL     1       4.968  11.665  19.933  1.00  0.00     0.029 A 
ATOM     64  C   UNL     1       5.932  10.678  19.716  1.00  0.00     0.049 A 
ATOM     65  H   UNL     1       5.790   8.753  20.570  1.00  0.00     0.167 HD
ATOM     66  C   UNL     1       7.875   9.632  18.565  1.00  0.00     0.074 A 
ATOM     67  C   UNL     1       7.419   8.248  18.407  1.00  0.00     0.031 C 
ATOM     68  C   UNL     1       7.265  10.717  19.135  1.00  0.00     0.034 A 
BRANCH  55  69
ATOM     69  C   UNL     1       3.317   7.165  19.870  1.00  0.00     0.023 A 
ATOM     70  C   UNL     1       3.800   7.014  21.183  1.00  0.00     0.031 A 
ATOM     71  C   UNL     1       3.219   5.966  19.128  1.00  0.00     0.131 A 
ATOM     72  C   UNL     1       4.331   5.794  21.628  1.00  0.00     0.055 A 
ATOM     73  C   UNL     1       3.691   4.736  19.599  1.00  0.00     0.041 A 
ATOM     74  F   UNL     1       2.719   5.899  17.892  1.00  0.00    -0.206 F 
ATOM     75  C   UNL     1       4.296   4.653  20.838  1.00  0.00     0.022 A 
BRANCH  72  76
ATOM     76  S   UNL     1       5.255   5.800  23.181  1.00  0.00     0.124 S 
ATOM     77  O   UNL     1       6.221   6.865  22.932  1.00  0.00    -0.237 OA
ATOM     78  O   UNL     1       4.204   6.095  24.150  1.00  0.00    -0.237 OA
ATOM     79  O   UNL     1       5.808   4.451  23.249  1.00  0.00    -0.744 OA
ENDBRANCH  72  76
ENDBRANCH  55  69
BRANCH  56  80
ATOM     80  C   UNL     1       9.783   7.896  14.549  1.00  0.00     0.023 A 
ATOM     81  C   UNL     1      11.017   7.363  14.994  1.00  0.00     0.031 A 
ATOM     82  C   UNL     1       9.252   7.325  13.369  1.00  0.00     0.131 A 
ATOM     83  C   UNL     1      11.656   6.321  14.269  1.00  0.00     0.055 A 
ATOM     84  C   UNL     1       9.885   6.300  12.659  1.00  0.00     0.041 A 
ATOM     85  F   UNL     1       8.046   7.685  12.904  1.00  0.00    -0.206 F 
ATOM     86  C   UNL     1      11.088   5.786  13.111  1.00  0.00     0.022 A 
BRANCH  83  87
ATOM     87  S   UNL     1      13.212   5.572  14.868  1.00  0.00     0.124 S 
ATOM     88  O   UNL     1      14.179   6.638  14.633  1.00  0.00    -0.237 OA
ATOM     89  O   UNL     1      12.902   5.270  16.260  1.00  0.00    -0.237 OA
ATOM     90  O   UNL     1      13.378   4.395  14.012  1.00  0.00    -0.744 OA
ENDBRANCH  83  87
ENDBRANCH  56  80
BRANCH  68  91
ATOM     91  C   UNL     1       7.897  12.090  18.989  1.00  0.00     0.023 A 
ATOM     92  C   UNL     1       8.186  12.738  17.764  1.00  0.00     0.031 A 
ATOM     93  C   UNL     1       8.067  12.835  20.171  1.00  0.00     0.131 A 
ATOM     94  C   UNL     1       8.627  14.080  17.763  1.00  0.00     0.055 A 
ATOM     95  C   UNL     1       8.481  14.166  20.163  1.00  0.00     0.041 A 
ATOM     96  F   UNL     1       7.785  12.289  21.366  1.00  0.00    -0.206 F 
ATOM     97  C   UNL     1       8.767  14.793  18.958  1.00  0.00     0.022 A 
BRANCH  94  98
ATOM     98  S   UNL     1       9.044  14.931  16.204  1.00  0.00     0.124 S 
ATOM     99  O   UNL     1       9.870  13.962  15.495  1.00  0.00    -0.237 OA
ATOM    100  O   UNL     1       7.729  15.196  15.626  1.00  0.00    -0.237 OA
ATOM    101  O   UNL     1       9.760  16.128  16.652  1.00  0.00    -0.744 OA
ENDBRANCH  94  98
ENDBRANCH  68  91
ENDBRANCH  42  43
ENDBRANCH  34  37
ENDBRANCH  32  33
ENDBRANCH   1  32
TORSDOF 17
