REMARK SMILES Cc1ccc(C)c(S(=O)(=O)N[C@H](CC2=c3ccccc3=NC2)C(=O)NCCCNC(=O)c2ccc(-c3c4nc(c(-c5cc(S(=O)(=O)[O-])ccc5F)c5ccc([nH]5)c(-c5cc(S(=O)(=O)[O-])ccc5F)c5nc(c(-c6cc(S(=O)(=O)[O-])ccc6F)c6ccc3[nH]6)C=C5)C=C4)cc2)c1
REMARK SMILES IDX 27 1 26 2 25 3 23 4 24 5 12 7 11 8 8 10 9 11 10 12 7 13 1 14
REMARK SMILES IDX 2 15 3 16 95 17 4 18 5 19 6 20 13 21 14 22 15 23 22 24 16 25
REMARK SMILES IDX 20 26 21 27 17 28 19 29 18 30 28 31 29 32 30 33 31 35 32 36
REMARK SMILES IDX 33 37 94 38 34 39 93 40 35 41 36 42 37 43 87 44 38 45 92 46
REMARK SMILES IDX 86 47 88 48 39 49 91 50 85 51 84 52 40 54 72 55 52 56 71 57
REMARK SMILES IDX 53 58 56 59 70 60 89 61 54 62 55 63 69 65 90 66 57 67 41 68
REMARK SMILES IDX 42 69 50 70 43 71 49 72 51 73 48 74 44 75 45 76 46 77 47 78
REMARK SMILES IDX 73 79 74 80 82 81 75 82 81 83 83 84 80 85 76 86 77 87 78 88
REMARK SMILES IDX 79 89 58 90 59 91 67 92 60 93 66 94 68 95 65 96 61 97 62 98
REMARK SMILES IDX 63 99 64 100
REMARK H PARENT 25 6 11 9 29 34 88 53 56 64
REMARK Flexibility Score: inf
ROOT
ATOM      1  C   UNL     1      -1.825   7.866  -1.590  1.00  0.00     0.042 C 
ENDROOT
BRANCH   1   2
ATOM      2  C   UNL     1      -1.083   6.772  -2.358  1.00  0.00     0.117 C 
BRANCH   2   3
ATOM      3  N   UNL     1       0.332   6.554  -2.073  1.00  0.00    -0.355 N 
ATOM      4  C   UNL     1       1.106   5.514  -1.629  1.00  0.00     0.238 C 
ATOM      5  O   UNL     1       2.322   5.728  -1.594  1.00  0.00    -0.273 OA
ATOM      6  H   UNL     1       0.867   7.362  -2.243  1.00  0.00     0.163 HD
BRANCH   4   7
ATOM      7  C   UNL     1       0.545   4.156  -1.178  1.00  0.00     0.163 C 
BRANCH   7   8
ATOM      8  N   UNL     1      -0.451   3.708  -2.210  1.00  0.00    -0.198 NA
ATOM      9  H   UNL     1      -1.241   3.313  -1.700  1.00  0.00     0.142 HD
BRANCH   8  10
ATOM     10  S   UNL     1      -0.027   2.581  -3.382  1.00  0.00     0.241 S 
ATOM     11  O   UNL     1       1.389   2.666  -3.616  1.00  0.00    -0.207 OA
ATOM     12  O   UNL     1      -0.995   2.807  -4.442  1.00  0.00    -0.207 OA
BRANCH  10  13
ATOM     13  C   UNL     1      -0.420   1.011  -2.667  1.00  0.00     0.085 A 
ATOM     14  C   UNL     1      -1.689  -0.207   0.703  1.00  0.00     0.044 C 
ATOM     15  C   UNL     1      -1.175  -0.215  -0.706  1.00  0.00    -0.050 A 
ATOM     16  C   UNL     1      -0.829  -1.405  -1.345  1.00  0.00     0.004 A 
ATOM     17  C   UNL     1      -1.003   0.985  -1.393  1.00  0.00     0.025 A 
ATOM     18  C   UNL     1      -0.320  -1.390  -2.648  1.00  0.00     0.005 A 
ATOM     19  C   UNL     1      -0.104  -0.183  -3.333  1.00  0.00    -0.031 A 
ATOM     20  C   UNL     1       0.440  -0.253  -4.733  1.00  0.00     0.046 C 
ENDBRANCH  10  13
ENDBRANCH   8  10
ENDBRANCH   7   8
BRANCH   7  21
ATOM     21  C   UNL     1      -0.083   4.080   0.259  1.00  0.00     0.063 C 
BRANCH  21  22
ATOM     22  C   UNL     1       0.177   5.126   1.320  1.00  0.00    -0.037 C 
ATOM     23  C   UNL     1       0.611   5.045   2.583  1.00  0.00     0.001 A 
ATOM     24  C   UNL     1      -0.247   6.529   1.054  1.00  0.00     0.174 C 
ATOM     25  C   UNL     1       1.044   4.019   3.479  1.00  0.00     0.010 A 
ATOM     26  C   UNL     1       0.488   6.441   3.068  1.00  0.00     0.065 A 
ATOM     27  N   UNL     1      -0.053   7.316   2.276  1.00  0.00    -0.280 NA
ATOM     28  C   UNL     1       1.403   4.358   4.732  1.00  0.00     0.001 A 
ATOM     29  C   UNL     1       0.959   6.748   4.428  1.00  0.00     0.028 A 
ATOM     30  C   UNL     1       1.394   5.737   5.192  1.00  0.00     0.002 A 
ENDBRANCH  21  22
ENDBRANCH   7  21
ENDBRANCH   4   7
ENDBRANCH   2   3
ENDBRANCH   1   2
BRANCH   1  31
ATOM     31  C   UNL     1      -1.017   9.011  -1.012  1.00  0.00     0.118 C 
BRANCH  31  32
ATOM     32  N   UNL     1      -1.338  10.302  -1.594  1.00  0.00    -0.352 N 
ATOM     33  C   UNL     1      -0.873  11.544  -1.211  1.00  0.00     0.251 C 
ATOM     34  H   UNL     1      -1.964  10.290  -2.354  1.00  0.00     0.163 HD
ATOM     35  O   UNL     1      -1.336  12.555  -1.732  1.00  0.00    -0.269 OA
BRANCH  33  36
ATOM     36  C   UNL     1       0.312  11.619  -0.327  1.00  0.00     0.039 A 
ATOM     37  C   UNL     1       1.393  12.365  -0.803  1.00  0.00     0.014 A 
ATOM     38  C   UNL     1       0.464  10.783   0.779  1.00  0.00     0.014 A 
ATOM     39  C   UNL     1       2.668  12.072  -0.343  1.00  0.00     0.010 A 
ATOM     40  C   UNL     1       1.737  10.433   1.183  1.00  0.00     0.010 A 
ATOM     41  C   UNL     1       2.840  11.021   0.564  1.00  0.00    -0.014 A 
BRANCH  41  42
ATOM     42  C   UNL     1       4.173  10.706   1.058  1.00  0.00     0.031 A 
ATOM     43  C   UNL     1       4.490  11.508   2.261  1.00  0.00     0.074 A 
ATOM     44  C   UNL     1       4.964   9.703   0.631  1.00  0.00     0.049 A 
ATOM     45  N   UNL     1       5.002  12.697   2.286  1.00  0.00    -0.248 NA
ATOM     46  C   UNL     1       3.881  11.089   3.537  1.00  0.00     0.031 C 
ATOM     47  C   UNL     1       4.637   8.598  -0.269  1.00  0.00     0.029 A 
ATOM     48  N   UNL     1       6.249   9.426   0.997  1.00  0.00    -0.354 N 
ATOM     49  C   UNL     1       5.005  13.043   3.632  1.00  0.00     0.074 A 
ATOM     50  C   UNL     1       4.001  12.215   4.241  1.00  0.00     0.031 C 
ATOM     51  C   UNL     1       5.614   7.659  -0.201  1.00  0.00     0.029 A 
ATOM     52  C   UNL     1       6.702   8.166   0.620  1.00  0.00     0.049 A 
ATOM     53  H   UNL     1       6.811  10.067   1.489  1.00  0.00     0.167 HD
ATOM     54  C   UNL     1       6.084  13.650   4.207  1.00  0.00     0.034 A 
ATOM     55  C   UNL     1       7.869   7.588   1.009  1.00  0.00     0.034 A 
ATOM     56  C   UNL     1       7.053  13.991   3.197  1.00  0.00     0.049 A 
ATOM     57  C   UNL     1       8.766   8.667   1.489  1.00  0.00     0.074 A 
ATOM     58  C   UNL     1       7.167  14.927   2.195  1.00  0.00     0.029 A 
ATOM     59  N   UNL     1       7.921  12.965   2.909  1.00  0.00    -0.354 N 
ATOM     60  N   UNL     1       9.272   9.587   0.716  1.00  0.00    -0.248 NA
ATOM     61  C   UNL     1       8.806   8.962   2.917  1.00  0.00     0.031 C 
ATOM     62  C   UNL     1       7.988  14.329   1.196  1.00  0.00     0.029 A 
ATOM     63  C   UNL     1       8.408  13.072   1.636  1.00  0.00     0.049 A 
ATOM     64  H   UNL     1       8.161  12.247   3.538  1.00  0.00     0.167 HD
ATOM     65  C   UNL     1       9.256  10.728   1.495  1.00  0.00     0.074 A 
ATOM     66  C   UNL     1       9.136  10.255   2.870  1.00  0.00     0.031 C 
ATOM     67  C   UNL     1       9.008  11.947   0.937  1.00  0.00     0.034 A 
BRANCH  54  68
ATOM     68  C   UNL     1       6.501  13.483   5.658  1.00  0.00     0.023 A 
ATOM     69  C   UNL     1       5.915  12.558   6.542  1.00  0.00     0.031 A 
ATOM     70  C   UNL     1       7.662  14.121   6.139  1.00  0.00     0.131 A 
ATOM     71  C   UNL     1       6.438  12.300   7.814  1.00  0.00     0.055 A 
ATOM     72  C   UNL     1       8.228  13.819   7.387  1.00  0.00     0.041 A 
ATOM     73  F   UNL     1       8.313  15.027   5.392  1.00  0.00    -0.206 F 
ATOM     74  C   UNL     1       7.616  12.903   8.233  1.00  0.00     0.022 A 
BRANCH  71  75
ATOM     75  S   UNL     1       5.582  11.154   8.932  1.00  0.00     0.124 S 
ATOM     76  O   UNL     1       6.622  10.173   9.218  1.00  0.00    -0.237 OA
ATOM     77  O   UNL     1       5.220  12.037  10.037  1.00  0.00    -0.237 OA
ATOM     78  O   UNL     1       4.456  10.671   8.135  1.00  0.00    -0.744 OA
ENDBRANCH  71  75
ENDBRANCH  54  68
BRANCH  55  79
ATOM     79  C   UNL     1       8.086   6.184   1.446  1.00  0.00     0.023 A 
ATOM     80  C   UNL     1       7.034   5.493   2.072  1.00  0.00     0.031 A 
ATOM     81  C   UNL     1       9.385   5.659   1.599  1.00  0.00     0.131 A 
ATOM     82  C   UNL     1       7.298   4.378   2.881  1.00  0.00     0.055 A 
ATOM     83  C   UNL     1       9.643   4.527   2.384  1.00  0.00     0.041 A 
ATOM     84  F   UNL     1      10.443   6.288   1.062  1.00  0.00    -0.206 F 
ATOM     85  C   UNL     1       8.597   3.893   3.049  1.00  0.00     0.022 A 
BRANCH  82  86
ATOM     86  S   UNL     1       5.967   3.611   3.847  1.00  0.00     0.124 S 
ATOM     87  O   UNL     1       6.116   2.196   3.516  1.00  0.00    -0.237 OA
ATOM     88  O   UNL     1       6.337   3.976   5.210  1.00  0.00    -0.237 OA
ATOM     89  O   UNL     1       4.756   4.239   3.329  1.00  0.00    -0.744 OA
ENDBRANCH  82  86
ENDBRANCH  55  79
BRANCH  67  90
ATOM     90  C   UNL     1       9.218  12.116  -0.544  1.00  0.00     0.023 A 
ATOM     91  C   UNL     1      10.091  13.147  -0.924  1.00  0.00     0.031 A 
ATOM     92  C   UNL     1       8.471  11.483  -1.552  1.00  0.00     0.131 A 
ATOM     93  C   UNL     1      10.137  13.582  -2.249  1.00  0.00     0.055 A 
ATOM     94  C   UNL     1       8.582  11.865  -2.895  1.00  0.00     0.041 A 
ATOM     95  F   UNL     1       7.559  10.544  -1.266  1.00  0.00    -0.206 F 
ATOM     96  C   UNL     1       9.400  12.937  -3.244  1.00  0.00     0.022 A 
BRANCH  93  97
ATOM     97  S   UNL     1      11.015  15.110  -2.662  1.00  0.00     0.124 S 
ATOM     98  O   UNL     1      12.045  14.637  -3.581  1.00  0.00    -0.237 OA
ATOM     99  O   UNL     1       9.957  15.918  -3.265  1.00  0.00    -0.237 OA
ATOM    100  O   UNL     1      11.503  15.597  -1.375  1.00  0.00    -0.744 OA
ENDBRANCH  93  97
ENDBRANCH  67  90
ENDBRANCH  41  42
ENDBRANCH  33  36
ENDBRANCH  31  32
ENDBRANCH   1  31
TORSDOF 18
