REMARK SMILES CC[C@@H](C)[C@@H](C(=O)NCCCNC(=O)c1ccc(-c2c3nc(c(-c4cc(S(=O)(=O)[O-])ccc4F)c4ccc([nH]4)c(-c4cc(S(=O)(=O)[O-])ccc4F)c4nc(c(-c5cc(S(=O)(=O)[O-])ccc5F)c5ccc2[nH]5)C=C4)C=C3)cc1)N1C(=O)/C(=C/c2ccc(O)cc2)SC1=S
REMARK SMILES IDX 10 1 9 2 8 3 6 4 7 5 5 7 3 8 4 9 2 10 1 11 78 12 79 13 91 14
REMARK SMILES IDX 80 15 81 16 90 17 92 18 82 19 83 20 84 21 89 22 85 23 88 24
REMARK SMILES IDX 86 25 87 26 11 28 12 29 13 30 14 32 15 33 16 34 77 35 17 36
REMARK SMILES IDX 76 37 18 38 19 39 20 40 70 41 21 42 75 43 69 44 71 45 22 46
REMARK SMILES IDX 74 47 68 48 67 49 23 51 55 52 35 53 54 54 36 55 39 56 53 57
REMARK SMILES IDX 72 58 37 59 38 60 52 62 73 63 40 64 24 65 25 66 33 67 26 68
REMARK SMILES IDX 32 69 34 70 31 71 27 72 28 73 29 74 30 75 56 76 57 77 65 78
REMARK SMILES IDX 58 79 64 80 66 81 63 82 59 83 60 84 61 85 62 86 41 87 42 88
REMARK SMILES IDX 50 89 43 90 49 91 51 92 48 93 44 94 45 95 46 96 47 97
REMARK H PARENT 8 6 87 27 12 31 71 50 39 61
REMARK Flexibility Score: inf
ROOT
ATOM      1  C   UNL     1       0.116   1.409   2.873  1.00  0.00     0.042 C 
ENDROOT
BRANCH   1   2
ATOM      2  C   UNL     1      -0.212   2.735   2.169  1.00  0.00     0.117 C 
BRANCH   2   3
ATOM      3  N   UNL     1       0.988   3.470   1.778  1.00  0.00    -0.354 N 
ATOM      4  C   UNL     1       1.526   3.812   0.568  1.00  0.00     0.243 C 
ATOM      5  O   UNL     1       2.585   4.448   0.606  1.00  0.00    -0.273 OA
ATOM      6  H   UNL     1       1.520   3.785   2.545  1.00  0.00     0.163 HD
BRANCH   4   7
ATOM      7  C   UNL     1       0.840   3.474  -0.787  1.00  0.00     0.184 C 
BRANCH   7   8
ATOM      8  C   UNL     1       1.014   2.021  -1.345  1.00  0.00     0.018 C 
ATOM      9  C   UNL     1       0.111   1.798  -2.565  1.00  0.00     0.010 C 
BRANCH   8  10
ATOM     10  C   UNL     1       0.810   0.915  -0.311  1.00  0.00     0.002 C 
ATOM     11  C   UNL     1       1.224  -0.483  -0.746  1.00  0.00     0.004 C 
ENDBRANCH   8  10
ENDBRANCH   7   8
BRANCH   7  12
ATOM     12  N   UNL     1       1.281   4.547  -1.752  1.00  0.00    -0.280 N 
ATOM     13  C   UNL     1       0.614   5.768  -1.701  1.00  0.00     0.266 C 
ATOM     14  C   UNL     1       2.394   4.542  -2.579  1.00  0.00     0.149 C 
ATOM     15  O   UNL     1      -0.295   6.062  -0.930  1.00  0.00    -0.268 OA
ATOM     16  C   UNL     1       1.139   6.710  -2.731  1.00  0.00     0.081 C 
ATOM     17  S   UNL     1       2.318   5.910  -3.683  1.00  0.00    -0.054 SA
ATOM     18  S   UNL     1       3.701   3.514  -2.698  1.00  0.00    -0.052 S 
ATOM     19  C   UNL     1       0.733   7.980  -2.894  1.00  0.00     0.029 C 
BRANCH  19  20
ATOM     20  C   UNL     1       1.132   8.793  -4.053  1.00  0.00    -0.024 A 
ATOM     21  C   UNL     1       2.179   9.719  -3.998  1.00  0.00     0.012 A 
ATOM     22  C   UNL     1       0.496   8.550  -5.280  1.00  0.00     0.012 A 
ATOM     23  C   UNL     1       2.594  10.375  -5.164  1.00  0.00     0.047 A 
ATOM     24  C   UNL     1       0.916   9.195  -6.444  1.00  0.00     0.047 A 
ATOM     25  C   UNL     1       1.970  10.098  -6.376  1.00  0.00     0.115 A 
BRANCH  25  26
ATOM     26  O   UNL     1       2.431  10.726  -7.496  1.00  0.00    -0.508 OA
ATOM     27  H   UNL     1       3.142  11.332  -7.434  1.00  0.00     0.293 HD
ENDBRANCH  25  26
ENDBRANCH  19  20
ENDBRANCH   7  12
ENDBRANCH   4   7
ENDBRANCH   2   3
ENDBRANCH   1   2
BRANCH   1  28
ATOM     28  C   UNL     1       0.731   1.558   4.260  1.00  0.00     0.118 C 
BRANCH  28  29
ATOM     29  N   UNL     1      -0.284   1.558   5.296  1.00  0.00    -0.352 N 
ATOM     30  C   UNL     1      -0.596   0.593   6.224  1.00  0.00     0.251 C 
ATOM     31  H   UNL     1      -0.834   2.374   5.341  1.00  0.00     0.163 HD
ATOM     32  O   UNL     1      -1.673   0.674   6.812  1.00  0.00    -0.269 OA
BRANCH  30  33
ATOM     33  C   UNL     1       0.320  -0.543   6.511  1.00  0.00     0.039 A 
ATOM     34  C   UNL     1      -0.236  -1.785   6.835  1.00  0.00     0.014 A 
ATOM     35  C   UNL     1       1.710  -0.394   6.530  1.00  0.00     0.014 A 
ATOM     36  C   UNL     1       0.593  -2.873   7.132  1.00  0.00     0.010 A 
ATOM     37  C   UNL     1       2.537  -1.502   6.732  1.00  0.00     0.010 A 
ATOM     38  C   UNL     1       1.990  -2.752   7.054  1.00  0.00    -0.014 A 
BRANCH  38  39
ATOM     39  C   UNL     1       2.877  -3.919   7.324  1.00  0.00     0.031 A 
ATOM     40  C   UNL     1       3.863  -3.887   8.463  1.00  0.00     0.074 A 
ATOM     41  C   UNL     1       2.825  -4.998   6.517  1.00  0.00     0.049 A 
ATOM     42  N   UNL     1       4.732  -4.794   8.836  1.00  0.00    -0.248 NA
ATOM     43  C   UNL     1       3.898  -2.659   9.269  1.00  0.00     0.031 C 
ATOM     44  C   UNL     1       1.952  -5.134   5.350  1.00  0.00     0.029 A 
ATOM     45  N   UNL     1       3.521  -6.182   6.548  1.00  0.00    -0.354 N 
ATOM     46  C   UNL     1       5.426  -4.240   9.908  1.00  0.00     0.074 A 
ATOM     47  C   UNL     1       4.922  -2.893  10.075  1.00  0.00     0.031 C 
ATOM     48  C   UNL     1       2.142  -6.341   4.796  1.00  0.00     0.029 A 
ATOM     49  C   UNL     1       3.185  -7.047   5.533  1.00  0.00     0.049 A 
ATOM     50  H   UNL     1       4.196  -6.391   7.233  1.00  0.00     0.167 HD
ATOM     51  C   UNL     1       6.376  -4.808  10.694  1.00  0.00     0.034 A 
ATOM     52  C   UNL     1       3.668  -8.265   5.217  1.00  0.00     0.034 A 
ATOM     53  C   UNL     1       6.865  -6.155  10.511  1.00  0.00     0.049 A 
ATOM     54  C   UNL     1       4.739  -8.873   6.085  1.00  0.00     0.074 A 
ATOM     55  C   UNL     1       7.770  -6.857  11.289  1.00  0.00     0.029 A 
ATOM     56  N   UNL     1       6.508  -6.999   9.466  1.00  0.00    -0.354 N 
ATOM     57  N   UNL     1       5.331  -8.366   7.142  1.00  0.00    -0.248 NA
ATOM     58  C   UNL     1       5.195 -10.220   5.726  1.00  0.00     0.031 C 
ATOM     59  C   UNL     1       8.027  -8.084  10.666  1.00  0.00     0.029 A 
ATOM     60  C   UNL     1       7.211  -8.193   9.551  1.00  0.00     0.049 A 
ATOM     61  H   UNL     1       5.851  -6.782   8.765  1.00  0.00     0.167 HD
ATOM     62  C   UNL     1       6.219  -9.343   7.585  1.00  0.00     0.074 A 
ATOM     63  C   UNL     1       6.066 -10.475   6.692  1.00  0.00     0.031 C 
ATOM     64  C   UNL     1       7.077  -9.308   8.638  1.00  0.00     0.034 A 
BRANCH  51  65
ATOM     65  C   UNL     1       6.971  -3.952  11.793  1.00  0.00     0.023 A 
ATOM     66  C   UNL     1       6.178  -3.395  12.813  1.00  0.00     0.031 A 
ATOM     67  C   UNL     1       8.343  -3.642  11.792  1.00  0.00     0.131 A 
ATOM     68  C   UNL     1       6.737  -2.478  13.717  1.00  0.00     0.055 A 
ATOM     69  C   UNL     1       8.913  -2.807  12.757  1.00  0.00     0.041 A 
ATOM     70  F   UNL     1       9.154  -4.125  10.837  1.00  0.00    -0.206 F 
ATOM     71  C   UNL     1       8.105  -2.201  13.713  1.00  0.00     0.022 A 
BRANCH  68  72
ATOM     72  S   UNL     1       5.617  -1.506  14.764  1.00  0.00     0.124 S 
ATOM     73  O   UNL     1       4.735  -0.899  13.769  1.00  0.00    -0.237 OA
ATOM     74  O   UNL     1       5.015  -2.527  15.613  1.00  0.00    -0.237 OA
ATOM     75  O   UNL     1       6.509  -0.572  15.446  1.00  0.00    -0.744 OA
ENDBRANCH  68  72
ENDBRANCH  51  65
BRANCH  52  76
ATOM     76  C   UNL     1       3.155  -8.977   4.011  1.00  0.00     0.023 A 
ATOM     77  C   UNL     1       2.416 -10.166   4.120  1.00  0.00     0.031 A 
ATOM     78  C   UNL     1       3.395  -8.465   2.723  1.00  0.00     0.131 A 
ATOM     79  C   UNL     1       1.964 -10.816   2.960  1.00  0.00     0.055 A 
ATOM     80  C   UNL     1       2.900  -9.087   1.576  1.00  0.00     0.041 A 
ATOM     81  F   UNL     1       4.091  -7.328   2.563  1.00  0.00    -0.206 F 
ATOM     82  C   UNL     1       2.186 -10.275   1.691  1.00  0.00     0.022 A 
BRANCH  79  83
ATOM     83  S   UNL     1       1.119 -12.412   3.127  1.00  0.00     0.124 S 
ATOM     84  O   UNL     1       2.147 -13.228   3.764  1.00  0.00    -0.237 OA
ATOM     85  O   UNL     1      -0.030 -12.063   3.955  1.00  0.00    -0.237 OA
ATOM     86  O   UNL     1       0.800 -12.774   1.747  1.00  0.00    -0.744 OA
ENDBRANCH  79  83
ENDBRANCH  52  76
BRANCH  64  87
ATOM     87  C   UNL     1       7.900 -10.550   8.896  1.00  0.00     0.023 A 
ATOM     88  C   UNL     1       8.864 -11.004   7.978  1.00  0.00     0.031 A 
ATOM     89  C   UNL     1       7.705 -11.299  10.070  1.00  0.00     0.131 A 
ATOM     90  C   UNL     1       9.550 -12.205   8.220  1.00  0.00     0.055 A 
ATOM     91  C   UNL     1       8.442 -12.453  10.339  1.00  0.00     0.041 A 
ATOM     92  F   UNL     1       6.794 -10.919  10.980  1.00  0.00    -0.206 F 
ATOM     93  C   UNL     1       9.360 -12.921   9.404  1.00  0.00     0.022 A 
BRANCH  90  94
ATOM     94  S   UNL     1      10.611 -12.881   6.913  1.00  0.00     0.124 S 
ATOM     95  O   UNL     1       9.675 -13.009   5.800  1.00  0.00    -0.237 OA
ATOM     96  O   UNL     1      11.632 -11.848   6.773  1.00  0.00    -0.237 OA
ATOM     97  O   UNL     1      11.082 -14.146   7.474  1.00  0.00    -0.744 OA
ENDBRANCH  90  94
ENDBRANCH  64  87
ENDBRANCH  38  39
ENDBRANCH  30  33
ENDBRANCH  28  29
ENDBRANCH   1  28
TORSDOF 18
