REMARK SMILES O=C(NCCCNC(=O)[C@@H]1[C@@H](C(=O)NCCCn2ccnc2)[C@@H]2C=C[C@H]1C2)c1ccc(-c2c3nc(c(-c4cc(S(=O)(=O)[O-])ccc4F)c4ccc([nH]4)c(-c4cc(S(=O)(=O)[O-])ccc4F)c4nc(c(-c5cc(S(=O)(=O)[O-])ccc5F)c5ccc2[nH]5)C=C4)C=C3)cc1
REMARK SMILES IDX 6 1 5 2 4 3 3 4 1 5 2 6 28 8 29 9 90 10 30 11 89 12 31 13
REMARK SMILES IDX 32 14 33 15 83 16 34 17 88 18 82 19 84 20 35 21 87 22 81 23
REMARK SMILES IDX 80 24 36 26 68 27 48 28 67 29 49 30 52 31 66 32 85 33 50 34
REMARK SMILES IDX 51 35 65 37 86 38 53 39 37 40 38 41 46 42 39 43 45 44 47 45
REMARK SMILES IDX 44 46 40 47 41 48 42 49 43 50 69 51 70 52 78 53 71 54 77 55
REMARK SMILES IDX 79 56 76 57 72 58 73 59 74 60 75 61 54 62 55 63 63 64 56 65
REMARK SMILES IDX 62 66 64 67 61 68 57 69 58 70 59 71 60 72 7 73 8 74 9 76
REMARK SMILES IDX 10 77 11 78 26 79 23 80 25 81 27 82 24 83 12 84 13 85 14 86
REMARK SMILES IDX 15 88 16 89 17 90 18 91 19 92 22 93 20 94 21 95
REMARK H PARENT 3 7 84 25 52 36 7 75 14 87
REMARK Flexibility Score: inf
ROOT
ATOM      1  C   UNL     1       4.058   2.930  -1.255  1.00  0.00     0.117 C 
ENDROOT
BRANCH   1   2
ATOM      2  C   UNL     1       4.593   1.510  -1.034  1.00  0.00     0.042 C 
BRANCH   2   3
ATOM      3  C   UNL     1       4.299   0.889   0.320  1.00  0.00     0.118 C 
BRANCH   3   4
ATOM      4  N   UNL     1       2.889   0.770   0.603  1.00  0.00    -0.352 N 
ATOM      5  O   UNL     1       0.810   0.142   0.836  1.00  0.00    -0.269 OA
ATOM      6  C   UNL     1       1.899  -0.124   0.314  1.00  0.00     0.251 C 
ATOM      7  H   UNL     1       2.556   1.525   1.141  1.00  0.00     0.163 HD
BRANCH   6   8
ATOM      8  C   UNL     1       1.996  -1.331  -0.563  1.00  0.00     0.039 A 
ATOM      9  C   UNL     1       3.137  -1.854  -1.177  1.00  0.00     0.014 A 
ATOM     10  C   UNL     1       0.770  -1.993  -0.782  1.00  0.00     0.014 A 
ATOM     11  C   UNL     1       3.037  -2.980  -2.016  1.00  0.00     0.010 A 
ATOM     12  C   UNL     1       0.667  -3.106  -1.611  1.00  0.00     0.010 A 
ATOM     13  C   UNL     1       1.797  -3.594  -2.256  1.00  0.00    -0.014 A 
BRANCH  13  14
ATOM     14  C   UNL     1       1.715  -4.852  -3.018  1.00  0.00     0.031 A 
ATOM     15  C   UNL     1       2.422  -6.006  -2.378  1.00  0.00     0.074 A 
ATOM     16  C   UNL     1       0.901  -5.061  -4.080  1.00  0.00     0.049 A 
ATOM     17  N   UNL     1       3.397  -6.711  -2.851  1.00  0.00    -0.248 NA
ATOM     18  C   UNL     1       2.071  -6.351  -0.990  1.00  0.00     0.031 C 
ATOM     19  C   UNL     1      -0.078  -4.136  -4.658  1.00  0.00     0.029 A 
ATOM     20  N   UNL     1       0.701  -6.197  -4.819  1.00  0.00    -0.354 N 
ATOM     21  C   UNL     1       3.651  -7.716  -1.916  1.00  0.00     0.074 A 
ATOM     22  C   UNL     1       2.918  -7.349  -0.735  1.00  0.00     0.031 C 
ATOM     23  C   UNL     1      -0.907  -4.809  -5.491  1.00  0.00     0.029 A 
ATOM     24  C   UNL     1      -0.443  -6.181  -5.622  1.00  0.00     0.049 A 
ATOM     25  H   UNL     1       1.316  -6.966  -4.786  1.00  0.00     0.167 HD
ATOM     26  C   UNL     1       4.295  -8.868  -2.259  1.00  0.00     0.034 A 
ATOM     27  C   UNL     1      -0.996  -7.217  -6.320  1.00  0.00     0.034 A 
ATOM     28  C   UNL     1       4.998  -8.714  -3.510  1.00  0.00     0.049 A 
ATOM     29  C   UNL     1       0.080  -8.217  -6.520  1.00  0.00     0.074 A 
ATOM     30  C   UNL     1       6.009  -7.886  -3.958  1.00  0.00     0.029 A 
ATOM     31  N   UNL     1       4.426  -9.241  -4.646  1.00  0.00    -0.354 N 
ATOM     32  N   UNL     1       1.142  -7.990  -7.243  1.00  0.00    -0.248 NA
ATOM     33  C   UNL     1       0.212  -9.277  -5.534  1.00  0.00     0.031 C 
ATOM     34  C   UNL     1       5.636  -7.551  -5.292  1.00  0.00     0.029 A 
ATOM     35  C   UNL     1       4.476  -8.261  -5.606  1.00  0.00     0.049 A 
ATOM     36  H   UNL     1       4.054 -10.146  -4.750  1.00  0.00     0.167 HD
ATOM     37  C   UNL     1       2.185  -8.549  -6.523  1.00  0.00     0.074 A 
ATOM     38  C   UNL     1       1.542  -9.401  -5.522  1.00  0.00     0.031 C 
ATOM     39  C   UNL     1       3.458  -8.063  -6.618  1.00  0.00     0.034 A 
BRANCH  26  40
ATOM     40  C   UNL     1       4.033 -10.237  -1.663  1.00  0.00     0.023 A 
ATOM     41  C   UNL     1       4.779 -11.321  -2.173  1.00  0.00     0.031 A 
ATOM     42  C   UNL     1       2.916 -10.585  -0.872  1.00  0.00     0.131 A 
ATOM     43  C   UNL     1       4.349 -12.648  -1.996  1.00  0.00     0.055 A 
ATOM     44  C   UNL     1       2.530 -11.909  -0.642  1.00  0.00     0.041 A 
ATOM     45  F   UNL     1       2.084  -9.673  -0.356  1.00  0.00    -0.206 F 
ATOM     46  C   UNL     1       3.225 -12.950  -1.234  1.00  0.00     0.022 A 
BRANCH  43  47
ATOM     47  S   UNL     1       5.173 -13.956  -2.943  1.00  0.00     0.124 S 
ATOM     48  O   UNL     1       5.082 -13.437  -4.303  1.00  0.00    -0.237 OA
ATOM     49  O   UNL     1       6.504 -13.967  -2.345  1.00  0.00    -0.237 OA
ATOM     50  O   UNL     1       4.357 -15.137  -2.670  1.00  0.00    -0.744 OA
ENDBRANCH  43  47
ENDBRANCH  26  40
BRANCH  27  51
ATOM     51  C   UNL     1      -2.450  -7.540  -6.497  1.00  0.00     0.023 A 
ATOM     52  C   UNL     1      -2.955  -8.406  -7.500  1.00  0.00     0.031 A 
ATOM     53  C   UNL     1      -3.356  -7.176  -5.476  1.00  0.00     0.131 A 
ATOM     54  C   UNL     1      -4.302  -8.855  -7.452  1.00  0.00     0.055 A 
ATOM     55  C   UNL     1      -4.678  -7.625  -5.431  1.00  0.00     0.041 A 
ATOM     56  F   UNL     1      -2.957  -6.434  -4.430  1.00  0.00    -0.206 F 
ATOM     57  C   UNL     1      -5.156  -8.473  -6.415  1.00  0.00     0.022 A 
BRANCH  54  58
ATOM     58  S   UNL     1      -4.964 -10.010  -8.706  1.00  0.00     0.124 S 
ATOM     59  O   UNL     1      -4.933  -9.209  -9.919  1.00  0.00    -0.237 OA
ATOM     60  O   UNL     1      -4.019 -11.124  -8.636  1.00  0.00    -0.237 OA
ATOM     61  O   UNL     1      -6.306 -10.324  -8.211  1.00  0.00    -0.744 OA
ENDBRANCH  54  58
ENDBRANCH  27  51
BRANCH  39  62
ATOM     62  C   UNL     1       3.794  -7.094  -7.732  1.00  0.00     0.023 A 
ATOM     63  C   UNL     1       3.205  -5.821  -7.915  1.00  0.00     0.031 A 
ATOM     64  C   UNL     1       4.888  -7.432  -8.549  1.00  0.00     0.131 A 
ATOM     65  C   UNL     1       3.725  -4.942  -8.889  1.00  0.00     0.055 A 
ATOM     66  C   UNL     1       5.411  -6.553  -9.493  1.00  0.00     0.041 A 
ATOM     67  F   UNL     1       5.504  -8.618  -8.403  1.00  0.00    -0.206 F 
ATOM     68  C   UNL     1       4.830  -5.303  -9.667  1.00  0.00     0.022 A 
BRANCH  65  69
ATOM     69  S   UNL     1       2.981  -3.298  -9.161  1.00  0.00     0.124 S 
ATOM     70  O   UNL     1       1.567  -3.594  -9.357  1.00  0.00    -0.237 OA
ATOM     71  O   UNL     1       3.324  -2.583  -7.934  1.00  0.00    -0.237 OA
ATOM     72  O   UNL     1       3.669  -2.805 -10.357  1.00  0.00    -0.744 OA
ENDBRANCH  65  69
ENDBRANCH  39  62
ENDBRANCH  13  14
ENDBRANCH   6   8
ENDBRANCH   3   4
ENDBRANCH   2   3
ENDBRANCH   1   2
BRANCH   1  73
ATOM     73  N   UNL     1       5.040   3.954  -0.931  1.00  0.00    -0.356 N 
ATOM     74  C   UNL     1       5.952   4.646  -1.653  1.00  0.00     0.224 C 
ATOM     75  H   UNL     1       5.042   4.196   0.023  1.00  0.00     0.163 HD
ATOM     76  O   UNL     1       6.619   5.463  -0.998  1.00  0.00    -0.275 OA
BRANCH  74  77
ATOM     77  C   UNL     1       6.231   4.535  -3.155  1.00  0.00     0.098 C 
ATOM     78  C   UNL     1       5.058   4.818  -4.120  1.00  0.00     0.098 C 
ATOM     79  C   UNL     1       6.847   3.214  -3.709  1.00  0.00     0.025 C 
ATOM     80  C   UNL     1       5.208   3.693  -5.174  1.00  0.00     0.025 C 
ATOM     81  C   UNL     1       5.891   2.061  -3.708  1.00  0.00    -0.027 C 
ATOM     82  C   UNL     1       6.719   3.438  -5.216  1.00  0.00     0.017 C 
ATOM     83  C   UNL     1       4.875   2.363  -4.532  1.00  0.00    -0.027 C 
BRANCH  78  84
ATOM     84  C   UNL     1       4.958   6.225  -4.721  1.00  0.00     0.224 C 
ATOM     85  O   UNL     1       3.883   6.835  -4.621  1.00  0.00    -0.275 OA
ATOM     86  N   UNL     1       5.915   6.901  -5.400  1.00  0.00    -0.356 N 
ATOM     87  H   UNL     1       5.581   7.751  -5.767  1.00  0.00     0.163 HD
BRANCH  86  88
ATOM     88  C   UNL     1       7.314   6.678  -5.717  1.00  0.00     0.117 C 
BRANCH  88  89
ATOM     89  C   UNL     1       7.510   6.098  -7.128  1.00  0.00     0.043 C 
BRANCH  89  90
ATOM     90  C   UNL     1       7.941   7.129  -8.167  1.00  0.00     0.125 C 
BRANCH  90  91
ATOM     91  N   UNL     1       9.227   7.713  -7.834  1.00  0.00    -0.337 N 
ATOM     92  C   UNL     1      10.432   7.068  -7.842  1.00  0.00     0.107 A 
ATOM     93  C   UNL     1       9.424   8.954  -7.299  1.00  0.00     0.199 A 
ATOM     94  C   UNL     1      11.303   7.944  -7.238  1.00  0.00     0.130 A 
ATOM     95  N   UNL     1      10.669   9.117  -6.915  1.00  0.00    -0.245 NA
ENDBRANCH  90  91
ENDBRANCH  89  90
ENDBRANCH  88  89
ENDBRANCH  86  88
ENDBRANCH  78  84
ENDBRANCH  74  77
ENDBRANCH   1  73
TORSDOF 18
