REMARK SMILES COc1ccc(C2=NN(C(=O)CCC(=O)NCCCNC(=O)c3ccc(-c4c5nc(c(-c6cc(S(=O)(=O)[O-])ccc6F)c6ccc([nH]6)c(-c6cc(S(=O)(=O)[O-])ccc6F)c6nc(c(-c7cc(S(=O)(=O)[O-])ccc7F)c7ccc4[nH]7)C=C6)C=C5)cc3)[C@H](c3ccc(Cl)cc3Cl)C2)cc1
REMARK SMILES IDX 17 1 16 2 14 3 15 4 13 6 12 7 10 8 11 9 9 10 7 11 8 12 95 13
REMARK SMILES IDX 86 14 6 15 3 16 4 17 97 18 5 19 96 20 2 21 1 22 87 23 88 24
REMARK SMILES IDX 93 25 89 26 92 27 94 28 90 29 91 30 18 31 19 32 20 33 21 34
REMARK SMILES IDX 22 36 23 37 24 38 85 39 25 40 84 41 26 42 27 43 28 44 78 45
REMARK SMILES IDX 29 46 83 47 77 48 79 49 30 50 82 51 76 52 75 53 31 55 63 56
REMARK SMILES IDX 43 57 62 58 44 59 47 60 61 61 80 62 45 63 46 64 60 66 81 67
REMARK SMILES IDX 48 68 32 69 33 70 41 71 34 72 40 73 42 74 39 75 35 76 36 77
REMARK SMILES IDX 37 78 38 79 64 80 65 81 73 82 66 83 72 84 74 85 71 86 67 87
REMARK SMILES IDX 68 88 69 89 70 90 49 91 50 92 58 93 51 94 57 95 59 96 56 97
REMARK SMILES IDX 52 98 53 99 54 100 55 101
REMARK H PARENT 16 5 20 35 79 54 47 65
REMARK Flexibility Score: inf
ROOT
ATOM      1  C   UNL     1       4.144   7.692   2.389  1.00  0.00     0.117 C 
ENDROOT
BRANCH   1   2
ATOM      2  N   UNL     1       5.243   8.764   2.746  1.00  0.00    -0.356 N 
ATOM      3  C   UNL     1       5.522   9.590   3.800  1.00  0.00     0.220 C 
ATOM      4  O   UNL     1       6.575  10.233   3.703  1.00  0.00    -0.275 OA
ATOM      5  H   UNL     1       5.901   8.865   2.020  1.00  0.00     0.163 HD
BRANCH   3   6
ATOM      6  C   UNL     1       4.687   9.734   5.069  1.00  0.00     0.110 C 
BRANCH   6   7
ATOM      7  C   UNL     1       3.211  10.069   4.948  1.00  0.00     0.112 C 
BRANCH   7   8
ATOM      8  C   UNL     1       2.534   8.794   4.625  1.00  0.00     0.243 C 
ATOM      9  O   UNL     1       2.017   8.083   5.478  1.00  0.00    -0.273 OA
BRANCH   8  10
ATOM     10  N   UNL     1       2.723   8.457   3.310  1.00  0.00    -0.225 N 
ATOM     11  C   UNL     1       3.094   6.252   1.417  1.00  0.00     0.071 C 
ATOM     12  N   UNL     1       2.759   6.563   2.955  1.00  0.00    -0.174 NA
ATOM     13  C   UNL     1       3.634   7.866   0.421  1.00  0.00     0.091 C 
ATOM     14  C   UNL     1       3.243   9.376   1.636  1.00  0.00     0.149 C 
BRANCH  11  15
ATOM     15  C   UNL     1       2.403   5.201   0.589  1.00  0.00    -0.002 A 
ATOM     16  C   UNL     1       0.378   2.380  -0.389  1.00  0.00     0.118 A 
ATOM     17  C   UNL     1      -0.385   4.252  -0.317  1.00  0.00     0.047 A 
ATOM     18  C   UNL     1       2.103   2.172   0.089  1.00  0.00     0.047 A 
ATOM     19  C   UNL     1       0.731   5.595   0.097  1.00  0.00     0.014 A 
ATOM     20  C   UNL     1       3.038   3.571   0.577  1.00  0.00     0.014 A 
BRANCH  16  21
ATOM     21  O   UNL     1      -0.161   1.200  -0.931  1.00  0.00    -0.497 OA
ATOM     22  C   UNL     1       0.367  -0.026  -0.451  1.00  0.00     0.278 C 
ENDBRANCH  16  21
ENDBRANCH  11  15
BRANCH  14  23
ATOM     23  C   UNL     1       2.447  10.520   0.894  1.00  0.00    -0.004 A 
ATOM     24  C   UNL     1       1.774  10.242  -0.322  1.00  0.00     0.009 A 
ATOM     25  C   UNL     1       2.694  11.892   1.153  1.00  0.00     0.047 A 
ATOM     26  C   UNL     1       1.413  11.246  -1.233  1.00  0.00     0.021 A 
ATOM     27  C   UNL     1       2.284  12.900   0.262  1.00  0.00     0.041 A 
ATOM     28  Cl  UNL     1       3.684  12.467   2.448  1.00  0.00    -0.084 Cl
ATOM     29  C   UNL     1       1.672  12.572  -0.937  1.00  0.00     0.042 A 
ATOM     30  Cl  UNL     1       1.305  13.800  -2.081  1.00  0.00    -0.084 Cl
ENDBRANCH  14  23
ENDBRANCH   8  10
ENDBRANCH   7   8
ENDBRANCH   6   7
ENDBRANCH   3   6
ENDBRANCH   1   2
BRANCH   1  31
ATOM     31  C   UNL     1       2.007   7.810   1.755  1.00  0.00     0.042 C 
BRANCH  31  32
ATOM     32  C   UNL     1       0.611   6.812   2.521  1.00  0.00     0.118 C 
BRANCH  32  33
ATOM     33  N   UNL     1       0.769   5.357   2.976  1.00  0.00    -0.352 N 
ATOM     34  C   UNL     1       1.118   4.108   2.457  1.00  0.00     0.251 C 
ATOM     35  H   UNL     1       0.558   5.278   3.934  1.00  0.00     0.163 HD
ATOM     36  O   UNL     1       1.559   3.253   3.230  1.00  0.00    -0.269 OA
BRANCH  34  37
ATOM     37  C   UNL     1       0.789   3.638   1.012  1.00  0.00     0.039 A 
ATOM     38  C   UNL     1      -0.828   2.923   1.319  1.00  0.00     0.014 A 
ATOM     39  C   UNL     1       1.353   3.902  -0.919  1.00  0.00     0.014 A 
ATOM     40  C   UNL     1      -1.881   2.592  -0.025  1.00  0.00     0.010 A 
ATOM     41  C   UNL     1       0.112   3.565  -2.212  1.00  0.00     0.010 A 
ATOM     42  C   UNL     1      -1.515   2.992  -1.722  1.00  0.00    -0.014 A 
BRANCH  42  43
ATOM     43  C   UNL     1      -2.785   3.349  -2.526  1.00  0.00     0.031 A 
ATOM     44  C   UNL     1      -2.820   3.208  -4.025  1.00  0.00     0.074 A 
ATOM     45  C   UNL     1      -3.875   3.934  -1.940  1.00  0.00     0.049 A 
ATOM     46  N   UNL     1      -3.765   3.555  -4.868  1.00  0.00    -0.248 NA
ATOM     47  C   UNL     1      -1.610   2.694  -4.668  1.00  0.00     0.031 C 
ATOM     48  C   UNL     1      -4.015   4.362  -0.539  1.00  0.00     0.029 A 
ATOM     49  N   UNL     1      -5.114   4.286  -2.458  1.00  0.00    -0.354 N 
ATOM     50  C   UNL     1      -3.241   3.339  -6.137  1.00  0.00     0.074 A 
ATOM     51  C   UNL     1      -1.856   2.956  -5.942  1.00  0.00     0.031 C 
ATOM     52  C   UNL     1      -5.256   4.789  -0.288  1.00  0.00     0.029 A 
ATOM     53  C   UNL     1      -6.009   4.780  -1.522  1.00  0.00     0.049 A 
ATOM     54  H   UNL     1      -5.338   4.193  -3.412  1.00  0.00     0.167 HD
ATOM     55  C   UNL     1      -3.858   3.378  -7.347  1.00  0.00     0.034 A 
ATOM     56  C   UNL     1      -7.290   5.197  -1.602  1.00  0.00     0.034 A 
ATOM     57  C   UNL     1      -5.255   3.683  -7.544  1.00  0.00     0.049 A 
ATOM     58  C   UNL     1      -7.980   5.170  -2.934  1.00  0.00     0.074 A 
ATOM     59  C   UNL     1      -5.991   3.632  -8.717  1.00  0.00     0.029 A 
ATOM     60  N   UNL     1      -6.133   4.085  -6.547  1.00  0.00    -0.354 N 
ATOM     61  N   UNL     1      -7.489   4.834  -4.101  1.00  0.00    -0.248 NA
ATOM     62  C   UNL     1      -9.395   5.562  -2.961  1.00  0.00     0.031 C 
ATOM     63  C   UNL     1      -7.301   4.037  -8.438  1.00  0.00     0.029 A 
ATOM     64  C   UNL     1      -7.398   4.288  -7.081  1.00  0.00     0.049 A 
ATOM     65  H   UNL     1      -5.894   4.207  -5.600  1.00  0.00     0.167 HD
ATOM     66  C   UNL     1      -8.553   4.925  -4.991  1.00  0.00     0.074 A 
ATOM     67  C   UNL     1      -9.709   5.340  -4.228  1.00  0.00     0.031 C 
ATOM     68  C   UNL     1      -8.562   4.679  -6.323  1.00  0.00     0.034 A 
BRANCH  55  69
ATOM     69  C   UNL     1      -3.017   3.024  -8.552  1.00  0.00     0.023 A 
ATOM     70  C   UNL     1      -2.391   1.769  -8.646  1.00  0.00     0.031 A 
ATOM     71  C   UNL     1      -2.785   3.951  -9.582  1.00  0.00     0.131 A 
ATOM     72  C   UNL     1      -1.460   1.524  -9.661  1.00  0.00     0.055 A 
ATOM     73  C   UNL     1      -1.943   3.656 -10.657  1.00  0.00     0.041 A 
ATOM     74  F   UNL     1      -3.351   5.168  -9.550  1.00  0.00    -0.206 F 
ATOM     75  C   UNL     1      -1.252   2.446 -10.687  1.00  0.00     0.022 A 
BRANCH  72  76
ATOM     76  S   UNL     1      -0.389   0.070  -9.500  1.00  0.00     0.124 S 
ATOM     77  O   UNL     1       0.327   0.373  -8.262  1.00  0.00    -0.237 OA
ATOM     78  O   UNL     1      -1.348  -1.026  -9.430  1.00  0.00    -0.237 OA
ATOM     79  O   UNL     1       0.428   0.112 -10.710  1.00  0.00    -0.744 OA
ENDBRANCH  72  76
ENDBRANCH  55  69
BRANCH  56  80
ATOM     80  C   UNL     1      -8.036   5.666  -0.390  1.00  0.00     0.023 A 
ATOM     81  C   UNL     1      -9.154   4.957   0.081  1.00  0.00     0.031 A 
ATOM     82  C   UNL     1      -7.696   6.862   0.267  1.00  0.00     0.131 A 
ATOM     83  C   UNL     1      -9.938   5.486   1.119  1.00  0.00     0.055 A 
ATOM     84  C   UNL     1      -8.442   7.352   1.343  1.00  0.00     0.041 A 
ATOM     85  F   UNL     1      -6.628   7.574  -0.127  1.00  0.00    -0.206 F 
ATOM     86  C   UNL     1      -9.584   6.674   1.760  1.00  0.00     0.022 A 
BRANCH  83  87
ATOM     87  S   UNL     1     -11.501   4.660   1.532  1.00  0.00     0.124 S 
ATOM     88  O   UNL     1     -12.184   4.660   0.244  1.00  0.00    -0.237 OA
ATOM     89  O   UNL     1     -11.039   3.363   2.015  1.00  0.00    -0.237 OA
ATOM     90  O   UNL     1     -12.087   5.531   2.549  1.00  0.00    -0.744 OA
ENDBRANCH  83  87
ENDBRANCH  56  80
BRANCH  68  91
ATOM     91  C   UNL     1      -9.889   4.768  -7.028  1.00  0.00     0.023 A 
ATOM     92  C   UNL     1     -10.567   5.988  -7.190  1.00  0.00     0.031 A 
ATOM     93  C   UNL     1     -10.490   3.602  -7.536  1.00  0.00     0.131 A 
ATOM     94  C   UNL     1     -11.828   6.010  -7.805  1.00  0.00     0.055 A 
ATOM     95  C   UNL     1     -11.718   3.638  -8.197  1.00  0.00     0.041 A 
ATOM     96  F   UNL     1      -9.889   2.409  -7.400  1.00  0.00    -0.206 F 
ATOM     97  C   UNL     1     -12.399   4.845  -8.325  1.00  0.00     0.022 A 
BRANCH  94  98
ATOM     98  S   UNL     1     -12.747   7.572  -7.855  1.00  0.00     0.124 S 
ATOM     99  O   UNL     1     -12.898   7.881  -6.437  1.00  0.00    -0.237 OA
ATOM    100  O   UNL     1     -11.845   8.441  -8.604  1.00  0.00    -0.237 OA
ATOM    101  O   UNL     1     -13.984   7.220  -8.549  1.00  0.00    -0.744 OA
ENDBRANCH  94  98
ENDBRANCH  68  91
ENDBRANCH  42  43
ENDBRANCH  34  37
ENDBRANCH  32  33
ENDBRANCH  31  32
ENDBRANCH   1  31
TORSDOF 19
