REMARK SMILES CC[C@@H](C)[C@@H](NC(=O)Cn1ncc2ccccc2c1=O)C(=O)NCCCNC(=O)c1ccc(-c2c3nc(c(-c4cc(S(=O)(=O)[O-])ccc4F)c4ccc([nH]4)c(-c4cc(S(=O)(=O)[O-])ccc4F)c4nc(c(-c5cc(S(=O)(=O)[O-])ccc5F)c5ccc2[nH]5)C=C4)C=C3)cc1
REMARK SMILES IDX 25 1 24 2 23 3 21 4 22 5 5 7 3 8 4 9 2 10 1 11 6 12 7 13
REMARK SMILES IDX 8 15 9 16 10 17 11 18 19 19 12 20 18 21 20 22 13 23 17 24
REMARK SMILES IDX 14 25 16 26 15 27 26 28 27 29 28 30 29 32 30 33 31 34 92 35
REMARK SMILES IDX 32 36 91 37 33 38 34 39 35 40 85 41 36 42 90 43 84 44 86 45
REMARK SMILES IDX 37 46 89 47 83 48 82 49 38 51 70 52 50 53 69 54 51 55 54 56
REMARK SMILES IDX 68 57 87 58 52 59 53 60 67 62 88 63 55 64 39 65 40 66 48 67
REMARK SMILES IDX 41 68 47 69 49 70 46 71 42 72 43 73 44 74 45 75 71 76 72 77
REMARK SMILES IDX 80 78 73 79 79 80 81 81 78 82 74 83 75 84 76 85 77 86 56 87
REMARK SMILES IDX 57 88 65 89 58 90 64 91 66 92 63 93 59 94 60 95 61 96 62 97
REMARK H PARENT 23 6 6 14 27 31 86 50 54 61
REMARK Flexibility Score: inf
ROOT
ATOM      1  C   UNL     1       4.236  -1.764  -3.145  1.00  0.00     0.042 C 
ENDROOT
BRANCH   1   2
ATOM      2  C   UNL     1       2.902  -0.811  -3.352  1.00  0.00     0.117 C 
BRANCH   2   3
ATOM      3  N   UNL     1       1.734  -1.477  -3.954  1.00  0.00    -0.354 N 
ATOM      4  C   UNL     1       0.475  -1.038  -4.218  1.00  0.00     0.242 C 
ATOM      5  O   UNL     1      -0.250  -1.667  -4.986  1.00  0.00    -0.273 OA
ATOM      6  H   UNL     1       1.894  -2.414  -4.212  1.00  0.00     0.163 HD
BRANCH   4   7
ATOM      7  C   UNL     1      -0.009   0.160  -3.468  1.00  0.00     0.174 C 
BRANCH   7   8
ATOM      8  C   UNL     1       0.047  -0.309  -1.952  1.00  0.00     0.018 C 
ATOM      9  C   UNL     1      -0.696  -1.647  -1.706  1.00  0.00     0.010 C 
BRANCH   8  10
ATOM     10  C   UNL     1      -0.259   0.725  -0.867  1.00  0.00     0.002 C 
ATOM     11  C   UNL     1       0.476   0.357   0.434  1.00  0.00     0.004 C 
ENDBRANCH   8  10
ENDBRANCH   7   8
BRANCH   7  12
ATOM     12  N   UNL     1       0.879   1.270  -3.902  1.00  0.00    -0.342 N 
ATOM     13  C   UNL     1       1.391   1.634  -5.139  1.00  0.00     0.242 C 
ATOM     14  H   UNL     1       1.158   1.864  -3.168  1.00  0.00     0.164 HD
ATOM     15  O   UNL     1       1.631   2.849  -5.241  1.00  0.00    -0.273 OA
BRANCH  13  16
ATOM     16  C   UNL     1       1.705   0.697  -6.391  1.00  0.00     0.248 C 
BRANCH  16  17
ATOM     17  N   UNL     1       2.776  -0.320  -6.280  1.00  0.00    -0.220 N 
ATOM     18  N   UNL     1       2.502  -1.622  -6.772  1.00  0.00    -0.177 NA
ATOM     19  C   UNL     1       4.059   0.080  -5.881  1.00  0.00     0.275 A 
ATOM     20  C   UNL     1       3.100  -2.658  -6.258  1.00  0.00     0.142 A 
ATOM     21  C   UNL     1       4.699  -0.911  -5.004  1.00  0.00     0.050 A 
ATOM     22  O   UNL     1       4.532   1.204  -5.945  1.00  0.00    -0.267 OA
ATOM     23  C   UNL     1       3.977  -2.536  -5.103  1.00  0.00     0.007 A 
ATOM     24  C   UNL     1       5.835  -0.502  -3.651  1.00  0.00     0.014 A 
ATOM     25  C   UNL     1       4.311  -3.780  -3.839  1.00  0.00     0.010 A 
ATOM     26  C   UNL     1       6.232  -1.745  -2.393  1.00  0.00     0.001 A 
ATOM     27  C   UNL     1       5.439  -3.376  -2.477  1.00  0.00     0.001 A 
ENDBRANCH  16  17
ENDBRANCH  13  16
ENDBRANCH   7  12
ENDBRANCH   4   7
ENDBRANCH   2   3
ENDBRANCH   1   2
BRANCH   1  28
ATOM     28  C   UNL     1       5.916  -2.480  -4.352  1.00  0.00     0.118 C 
BRANCH  28  29
ATOM     29  N   UNL     1       6.821  -1.806  -5.506  1.00  0.00    -0.352 N 
ATOM     30  C   UNL     1       8.159  -2.030  -5.772  1.00  0.00     0.251 C 
ATOM     31  H   UNL     1       6.365  -1.159  -6.091  1.00  0.00     0.163 HD
ATOM     32  O   UNL     1       8.742  -1.430  -6.665  1.00  0.00    -0.269 OA
BRANCH  30  33
ATOM     33  C   UNL     1       8.853  -3.021  -4.936  1.00  0.00     0.039 A 
ATOM     34  C   UNL     1       8.271  -4.282  -4.824  1.00  0.00     0.014 A 
ATOM     35  C   UNL     1       9.888  -2.623  -4.094  1.00  0.00     0.014 A 
ATOM     36  C   UNL     1       8.529  -5.019  -3.687  1.00  0.00     0.010 A 
ATOM     37  C   UNL     1      10.307  -3.493  -3.086  1.00  0.00     0.010 A 
ATOM     38  C   UNL     1       9.601  -4.681  -2.843  1.00  0.00    -0.014 A 
BRANCH  38  39
ATOM     39  C   UNL     1       9.997  -5.656  -1.793  1.00  0.00     0.031 A 
ATOM     40  C   UNL     1      10.136  -5.269  -0.348  1.00  0.00     0.074 A 
ATOM     41  C   UNL     1      10.195  -6.934  -2.182  1.00  0.00     0.049 A 
ATOM     42  N   UNL     1      10.492  -6.019   0.663  1.00  0.00    -0.248 NA
ATOM     43  C   UNL     1       9.869  -3.868   0.017  1.00  0.00     0.031 C 
ATOM     44  C   UNL     1      10.103  -7.407  -3.569  1.00  0.00     0.029 A 
ATOM     45  N   UNL     1      10.460  -8.075  -1.473  1.00  0.00    -0.354 N 
ATOM     46  C   UNL     1      10.546  -5.178   1.769  1.00  0.00     0.074 A 
ATOM     47  C   UNL     1      10.202  -3.853   1.302  1.00  0.00     0.031 C 
ATOM     48  C   UNL     1      10.170  -8.738  -3.592  1.00  0.00     0.029 A 
ATOM     49  C   UNL     1      10.487  -9.208  -2.254  1.00  0.00     0.049 A 
ATOM     50  H   UNL     1      10.615  -8.084  -0.501  1.00  0.00     0.167 HD
ATOM     51  C   UNL     1      10.854  -5.496   3.049  1.00  0.00     0.034 A 
ATOM     52  C   UNL     1      10.778 -10.486  -1.950  1.00  0.00     0.034 A 
ATOM     53  C   UNL     1      11.159  -6.840   3.482  1.00  0.00     0.049 A 
ATOM     54  C   UNL     1      11.116 -10.802  -0.525  1.00  0.00     0.074 A 
ATOM     55  C   UNL     1      11.441  -7.280   4.764  1.00  0.00     0.029 A 
ATOM     56  N   UNL     1      11.222  -7.958   2.659  1.00  0.00    -0.354 N 
ATOM     57  N   UNL     1      11.123 -10.000   0.515  1.00  0.00    -0.248 NA
ATOM     58  C   UNL     1      11.489 -12.187  -0.226  1.00  0.00     0.031 C 
ATOM     59  C   UNL     1      11.755  -8.638   4.702  1.00  0.00     0.029 A 
ATOM     60  C   UNL     1      11.575  -9.077   3.400  1.00  0.00     0.049 A 
ATOM     61  H   UNL     1      11.042  -7.957   1.691  1.00  0.00     0.167 HD
ATOM     62  C   UNL     1      11.504 -10.785   1.595  1.00  0.00     0.074 A 
ATOM     63  C   UNL     1      11.653 -12.136   1.089  1.00  0.00     0.031 C 
ATOM     64  C   UNL     1      11.730 -10.418   2.882  1.00  0.00     0.034 A 
BRANCH  51  65
ATOM     65  C   UNL     1      10.887  -4.403   4.095  1.00  0.00     0.023 A 
ATOM     66  C   UNL     1      12.076  -4.162   4.811  1.00  0.00     0.031 A 
ATOM     67  C   UNL     1       9.727  -3.715   4.493  1.00  0.00     0.131 A 
ATOM     68  C   UNL     1      12.065  -3.306   5.920  1.00  0.00     0.055 A 
ATOM     69  C   UNL     1       9.735  -2.817   5.563  1.00  0.00     0.041 A 
ATOM     70  F   UNL     1       8.564  -3.906   3.848  1.00  0.00    -0.206 F 
ATOM     71  C   UNL     1      10.904  -2.623   6.294  1.00  0.00     0.022 A 
BRANCH  68  72
ATOM     72  S   UNL     1      13.529  -3.120   6.976  1.00  0.00     0.124 S 
ATOM     73  O   UNL     1      13.763  -1.679   6.914  1.00  0.00    -0.237 OA
ATOM     74  O   UNL     1      13.040  -3.618   8.259  1.00  0.00    -0.237 OA
ATOM     75  O   UNL     1      14.540  -3.943   6.322  1.00  0.00    -0.744 OA
ENDBRANCH  68  72
ENDBRANCH  51  65
BRANCH  52  76
ATOM     76  C   UNL     1      10.734 -11.521  -3.025  1.00  0.00     0.023 A 
ATOM     77  C   UNL     1      11.517 -11.390  -4.189  1.00  0.00     0.031 A 
ATOM     78  C   UNL     1       9.803 -12.569  -2.974  1.00  0.00     0.131 A 
ATOM     79  C   UNL     1      11.276 -12.221  -5.290  1.00  0.00     0.055 A 
ATOM     80  C   UNL     1       9.637 -13.459  -4.037  1.00  0.00     0.041 A 
ATOM     81  F   UNL     1       9.020 -12.727  -1.895  1.00  0.00    -0.206 F 
ATOM     82  C   UNL     1      10.357 -13.270  -5.212  1.00  0.00     0.022 A 
BRANCH  79  83
ATOM     83  S   UNL     1      12.009 -11.851  -6.909  1.00  0.00     0.124 S 
ATOM     84  O   UNL     1      12.774 -13.063  -7.180  1.00  0.00    -0.237 OA
ATOM     85  O   UNL     1      10.820 -11.654  -7.734  1.00  0.00    -0.237 OA
ATOM     86  O   UNL     1      12.796 -10.646  -6.663  1.00  0.00    -0.744 OA
ENDBRANCH  79  83
ENDBRANCH  52  76
BRANCH  64  87
ATOM     87  C   UNL     1      12.182 -11.489   3.846  1.00  0.00     0.023 A 
ATOM     88  C   UNL     1      11.412 -11.786   4.986  1.00  0.00     0.031 A 
ATOM     89  C   UNL     1      13.419 -12.143   3.692  1.00  0.00     0.131 A 
ATOM     90  C   UNL     1      11.901 -12.684   5.942  1.00  0.00     0.055 A 
ATOM     91  C   UNL     1      13.868 -13.090   4.612  1.00  0.00     0.041 A 
ATOM     92  F   UNL     1      14.200 -11.884   2.631  1.00  0.00    -0.206 F 
ATOM     93  C   UNL     1      13.114 -13.353   5.751  1.00  0.00     0.022 A 
BRANCH  90  94
ATOM     94  S   UNL     1      11.030 -12.942   7.511  1.00  0.00     0.124 S 
ATOM     95  O   UNL     1      10.700 -14.364   7.442  1.00  0.00    -0.237 OA
ATOM     96  O   UNL     1      12.054 -12.586   8.490  1.00  0.00    -0.237 OA
ATOM     97  O   UNL     1       9.891 -12.034   7.436  1.00  0.00    -0.744 OA
ENDBRANCH  90  94
ENDBRANCH  64  87
ENDBRANCH  38  39
ENDBRANCH  30  33
ENDBRANCH  28  29
ENDBRANCH   1  28
TORSDOF 18
