REMARK SMILES O=C(NCCCNC(=O)c1ccc(F)cc1-c1ccc(F)c(Cl)c1)c1ccc(-c2c3nc(c(-c4cc(S(=O)(=O)[O-])ccc4F)c4ccc([nH]4)c(-c4cc(S(=O)(=O)[O-])ccc4F)c4nc(c(-c5cc(S(=O)(=O)[O-])ccc5F)c5ccc2[nH]5)C=C4)C=C3)cc1
REMARK SMILES IDX 4 1 3 2 1 3 2 4 25 6 26 7 87 8 27 9 86 10 28 11 29 12 30 13
REMARK SMILES IDX 80 14 31 15 85 16 79 17 81 18 32 19 84 20 78 21 77 22 33 24
REMARK SMILES IDX 65 25 45 26 64 27 46 28 49 29 63 30 82 31 47 32 48 33 62 35
REMARK SMILES IDX 83 36 50 37 34 38 35 39 43 40 36 41 42 42 44 43 41 44 37 45
REMARK SMILES IDX 38 46 39 47 40 48 66 49 67 50 75 51 68 52 74 53 76 54 73 55
REMARK SMILES IDX 69 56 70 57 71 58 72 59 51 60 52 61 60 62 53 63 59 64 61 65
REMARK SMILES IDX 58 66 54 67 55 68 56 69 57 70 5 71 6 72 7 73 8 74 9 76 10 77
REMARK SMILES IDX 11 78 16 79 12 80 15 81 13 82 14 83 17 84 18 85 24 86 19 87
REMARK SMILES IDX 22 88 20 89 23 90 21 91
REMARK H PARENT 3 5 81 23 49 34 7 75
REMARK Flexibility Score: inf
ROOT
ATOM      1  C   UNL     1       4.634  -1.274  -0.403  1.00  0.00     0.118 C 
ENDROOT
BRANCH   1   2
ATOM      2  N   UNL     1       3.200  -1.012  -0.438  1.00  0.00    -0.352 N 
ATOM      3  O   UNL     1       1.245   0.010  -0.010  1.00  0.00    -0.269 OA
ATOM      4  C   UNL     1       2.474   0.074  -0.008  1.00  0.00     0.251 C 
ATOM      5  H   UNL     1       2.661  -1.733  -0.836  1.00  0.00     0.163 HD
BRANCH   4   6
ATOM      6  C   UNL     1       3.148   1.298   0.482  1.00  0.00     0.039 A 
ATOM      7  C   UNL     1       4.273   1.811  -0.163  1.00  0.00     0.014 A 
ATOM      8  C   UNL     1       2.631   1.961   1.601  1.00  0.00     0.014 A 
ATOM      9  C   UNL     1       4.984   2.860   0.411  1.00  0.00     0.010 A 
ATOM     10  C   UNL     1       3.291   3.082   2.119  1.00  0.00     0.010 A 
ATOM     11  C   UNL     1       4.500   3.515   1.555  1.00  0.00    -0.014 A 
BRANCH  11  12
ATOM     12  C   UNL     1       5.269   4.657   2.120  1.00  0.00     0.031 A 
ATOM     13  C   UNL     1       5.865   4.581   3.502  1.00  0.00     0.074 A 
ATOM     14  C   UNL     1       5.480   5.747   1.354  1.00  0.00     0.049 A 
ATOM     15  N   UNL     1       6.569   5.478   4.143  1.00  0.00    -0.248 NA
ATOM     16  C   UNL     1       5.641   3.343   4.267  1.00  0.00     0.031 C 
ATOM     17  C   UNL     1       4.962   5.934  -0.005  1.00  0.00     0.029 A 
ATOM     18  N   UNL     1       6.205   6.889   1.588  1.00  0.00    -0.354 N 
ATOM     19  C   UNL     1       6.860   4.925   5.385  1.00  0.00     0.074 A 
ATOM     20  C   UNL     1       6.235   3.621   5.420  1.00  0.00     0.031 C 
ATOM     21  C   UNL     1       5.433   7.086  -0.503  1.00  0.00     0.029 A 
ATOM     22  C   UNL     1       6.223   7.760   0.522  1.00  0.00     0.049 A 
ATOM     23  H   UNL     1       6.668   7.068   2.438  1.00  0.00     0.167 HD
ATOM     24  C   UNL     1       7.591   5.452   6.396  1.00  0.00     0.034 A 
ATOM     25  C   UNL     1       6.789   8.975   0.386  1.00  0.00     0.034 A 
ATOM     26  C   UNL     1       8.236   6.740   6.342  1.00  0.00     0.049 A 
ATOM     27  C   UNL     1       7.551   9.555   1.546  1.00  0.00     0.074 A 
ATOM     28  C   UNL     1       9.029   7.343   7.304  1.00  0.00     0.029 A 
ATOM     29  N   UNL     1       8.165   7.622   5.274  1.00  0.00    -0.354 N 
ATOM     30  N   UNL     1       7.798   9.018   2.717  1.00  0.00    -0.248 NA
ATOM     31  C   UNL     1       8.096  10.909   1.373  1.00  0.00     0.031 C 
ATOM     32  C   UNL     1       9.389   8.612   6.842  1.00  0.00     0.029 A 
ATOM     33  C   UNL     1       8.872   8.776   5.567  1.00  0.00     0.049 A 
ATOM     34  H   UNL     1       7.683   7.453   4.433  1.00  0.00     0.167 HD
ATOM     35  C   UNL     1       8.529   9.969   3.420  1.00  0.00     0.074 A 
ATOM     36  C   UNL     1       8.701  11.104   2.537  1.00  0.00     0.031 C 
ATOM     37  C   UNL     1       9.014   9.906   4.684  1.00  0.00     0.034 A 
BRANCH  24  38
ATOM     38  C   UNL     1       7.724   4.656   7.667  1.00  0.00     0.023 A 
ATOM     39  C   UNL     1       8.529   3.508   7.736  1.00  0.00     0.031 A 
ATOM     40  C   UNL     1       7.089   5.096   8.842  1.00  0.00     0.131 A 
ATOM     41  C   UNL     1       8.660   2.822   8.954  1.00  0.00     0.055 A 
ATOM     42  C   UNL     1       7.266   4.441  10.062  1.00  0.00     0.041 A 
ATOM     43  F   UNL     1       6.299   6.181   8.825  1.00  0.00    -0.206 F 
ATOM     44  C   UNL     1       8.054   3.295  10.121  1.00  0.00     0.022 A 
BRANCH  41  45
ATOM     45  S   UNL     1       9.605   1.275   8.986  1.00  0.00     0.124 S 
ATOM     46  O   UNL     1       8.759   0.398   8.180  1.00  0.00    -0.237 OA
ATOM     47  O   UNL     1      10.876   1.663   8.386  1.00  0.00    -0.237 OA
ATOM     48  O   UNL     1       9.665   0.940  10.408  1.00  0.00    -0.744 OA
ENDBRANCH  41  45
ENDBRANCH  24  38
BRANCH  25  49
ATOM     49  C   UNL     1       6.611   9.744  -0.876  1.00  0.00     0.023 A 
ATOM     50  C   UNL     1       7.700  10.024  -1.716  1.00  0.00     0.031 A 
ATOM     51  C   UNL     1       5.342  10.220  -1.254  1.00  0.00     0.131 A 
ATOM     52  C   UNL     1       7.502  10.780  -2.882  1.00  0.00     0.055 A 
ATOM     53  C   UNL     1       5.144  10.932  -2.437  1.00  0.00     0.041 A 
ATOM     54  F   UNL     1       4.269   9.974  -0.485  1.00  0.00    -0.206 F 
ATOM     55  C   UNL     1       6.230  11.223  -3.255  1.00  0.00     0.022 A 
BRANCH  52  56
ATOM     56  S   UNL     1       8.945  11.220  -3.888  1.00  0.00     0.124 S 
ATOM     57  O   UNL     1       9.720  12.031  -2.956  1.00  0.00    -0.237 OA
ATOM     58  O   UNL     1       9.499   9.911  -4.215  1.00  0.00    -0.237 OA
ATOM     59  O   UNL     1       8.365  11.947  -5.016  1.00  0.00    -0.744 OA
ENDBRANCH  52  56
ENDBRANCH  25  49
BRANCH  37  60
ATOM     60  C   UNL     1       9.783  11.097   5.187  1.00  0.00     0.023 A 
ATOM     61  C   UNL     1       9.129  12.290   5.534  1.00  0.00     0.031 A 
ATOM     62  C   UNL     1      11.174  11.019   5.365  1.00  0.00     0.131 A 
ATOM     63  C   UNL     1       9.873  13.373   6.022  1.00  0.00     0.055 A 
ATOM     64  C   UNL     1      11.904  12.085   5.891  1.00  0.00     0.041 A 
ATOM     65  F   UNL     1      11.841   9.897   5.051  1.00  0.00    -0.206 F 
ATOM     66  C   UNL     1      11.253  13.272   6.219  1.00  0.00     0.022 A 
BRANCH  63  67
ATOM     67  S   UNL     1       9.015  14.929   6.383  1.00  0.00     0.124 S 
ATOM     68  O   UNL     1       8.604  15.362   5.051  1.00  0.00    -0.237 OA
ATOM     69  O   UNL     1       7.941  14.501   7.274  1.00  0.00    -0.237 OA
ATOM     70  O   UNL     1      10.048  15.751   7.012  1.00  0.00    -0.744 OA
ENDBRANCH  63  67
ENDBRANCH  37  60
ENDBRANCH  11  12
ENDBRANCH   4   6
ENDBRANCH   1   2
BRANCH   1  71
ATOM     71  C   UNL     1       5.021  -2.399   0.548  1.00  0.00     0.042 C 
BRANCH  71  72
ATOM     72  C   UNL     1       4.445  -3.762   0.192  1.00  0.00     0.118 C 
BRANCH  72  73
ATOM     73  N   UNL     1       4.832  -4.217  -1.137  1.00  0.00    -0.352 N 
ATOM     74  C   UNL     1       5.596  -5.286  -1.531  1.00  0.00     0.251 C 
ATOM     75  H   UNL     1       4.487  -3.665  -1.875  1.00  0.00     0.163 HD
ATOM     76  O   UNL     1       5.817  -5.466  -2.726  1.00  0.00    -0.269 OA
BRANCH  74  77
ATOM     77  C   UNL     1       6.127  -6.241  -0.530  1.00  0.00     0.047 A 
ATOM     78  C   UNL     1       5.210  -6.877   0.327  1.00  0.00     0.017 A 
ATOM     79  C   UNL     1       7.498  -6.583  -0.499  1.00  0.00    -0.003 A 
ATOM     80  C   UNL     1       5.654  -7.797   1.273  1.00  0.00     0.040 A 
ATOM     81  C   UNL     1       7.919  -7.520   0.464  1.00  0.00     0.048 A 
ATOM     82  C   UNL     1       7.005  -8.104   1.337  1.00  0.00     0.123 A 
ATOM     83  F   UNL     1       7.434  -8.997   2.239  1.00  0.00    -0.207 F 
BRANCH  79  84
ATOM     84  C   UNL     1       8.491  -6.039  -1.439  1.00  0.00    -0.016 A 
ATOM     85  C   UNL     1       8.914  -4.701  -1.372  1.00  0.00     0.012 A 
ATOM     86  C   UNL     1       9.042  -6.869  -2.434  1.00  0.00     0.032 A 
ATOM     87  C   UNL     1       9.854  -4.204  -2.281  1.00  0.00     0.041 A 
ATOM     88  C   UNL     1       9.980  -6.370  -3.340  1.00  0.00     0.077 A 
ATOM     89  C   UNL     1      10.380  -5.040  -3.260  1.00  0.00     0.141 A 
ATOM     90  Cl  UNL     1      10.634  -7.417  -4.543  1.00  0.00    -0.081 Cl
ATOM     91  F   UNL     1      11.282  -4.544  -4.120  1.00  0.00    -0.205 F 
ENDBRANCH  79  84
ENDBRANCH  74  77
ENDBRANCH  72  73
ENDBRANCH  71  72
ENDBRANCH   1  71
TORSDOF 14
