REMARK SMILES Cc1cc(OC(F)(F)F)cc2c1O[C@H](C(F)(F)F)C(C(=O)NCCCNC(=O)c1ccc(-c3c4nc(c(-c5cc(S(=O)(=O)[O-])ccc5F)c5ccc([nH]5)c(-c5cc(S(=O)(=O)[O-])ccc5F)c5nc(c(-c6cc(S(=O)(=O)[O-])ccc6F)c6ccc3[nH]6)C=C5)C=C4)cc1)=C2
REMARK SMILES IDX 24 1 23 2 22 3 20 4 21 5 19 7 1 8 2 9 3 10 12 11 4 12 11 13
REMARK SMILES IDX 13 14 10 15 92 16 14 17 5 18 6 19 7 20 8 21 9 22 15 23 16 24
REMARK SMILES IDX 17 25 18 26 25 27 26 28 27 29 28 31 29 32 30 33 91 34 31 35
REMARK SMILES IDX 90 36 32 37 33 38 34 39 84 40 35 41 89 42 83 43 85 44 36 45
REMARK SMILES IDX 88 46 82 47 81 48 37 50 69 51 49 52 68 53 50 54 53 55 67 56
REMARK SMILES IDX 86 57 51 58 52 59 66 61 87 62 54 63 38 64 39 65 47 66 40 67
REMARK SMILES IDX 46 68 48 69 45 70 41 71 42 72 43 73 44 74 70 75 71 76 79 77
REMARK SMILES IDX 72 78 78 79 80 80 77 81 73 82 74 83 75 84 76 85 55 86 56 87
REMARK SMILES IDX 64 88 57 89 63 90 65 91 62 92 58 93 59 94 60 95 61 96
REMARK H PARENT 22 6 26 30 85 49 53 60
REMARK Flexibility Score: inf
ROOT
ATOM      1  C   UNL     1       6.856  -4.289   1.795  1.00  0.00     0.042 C 
ENDROOT
BRANCH   1   2
ATOM      2  C   UNL     1       6.249  -4.545   0.423  1.00  0.00     0.118 C 
BRANCH   2   3
ATOM      3  N   UNL     1       5.252  -5.605   0.455  1.00  0.00    -0.352 N 
ATOM      4  C   UNL     1       3.904  -5.702   0.380  1.00  0.00     0.251 C 
ATOM      5  O   UNL     1       3.455  -6.852   0.431  1.00  0.00    -0.270 OA
ATOM      6  H   UNL     1       5.671  -6.489   0.558  1.00  0.00     0.163 HD
BRANCH   4   7
ATOM      7  C   UNL     1       2.969  -4.550   0.229  1.00  0.00     0.067 C 
ATOM      8  C   UNL     1       0.675   0.055   0.061  1.00  0.00     0.048 C 
ATOM      9  C   UNL     1       0.229  -1.378  -0.018  1.00  0.00    -0.005 A 
ATOM     10  C   UNL     1      -1.131  -1.664  -0.211  1.00  0.00     0.054 A 
ATOM     11  C   UNL     1       1.127  -2.439   0.133  1.00  0.00     0.131 A 
ATOM     12  C   UNL     1      -1.585  -2.985  -0.262  1.00  0.00     0.130 A 
ATOM     13  C   UNL     1       0.691  -3.765   0.081  1.00  0.00     0.021 A 
ATOM     14  O   UNL     1       2.434  -2.127   0.379  1.00  0.00    -0.475 OA
ATOM     15  C   UNL     1      -0.666  -4.032  -0.118  1.00  0.00     0.058 A 
ATOM     16  C   UNL     1       1.656  -4.845   0.264  1.00  0.00     0.025 C 
ATOM     17  C   UNL     1       3.412  -3.133   0.010  1.00  0.00     0.314 C 
BRANCH  12  18
ATOM     18  O   UNL     1      -2.878  -3.388  -0.441  1.00  0.00    -0.406 OA
BRANCH  18  19
ATOM     19  C   UNL     1      -3.872  -2.382  -0.533  1.00  0.00     0.573 C 
ATOM     20  F   UNL     1      -3.910  -1.623   0.582  1.00  0.00    -0.132 F 
ATOM     21  F   UNL     1      -3.670  -1.594  -1.611  1.00  0.00    -0.132 F 
ATOM     22  F   UNL     1      -5.079  -2.977  -0.675  1.00  0.00    -0.132 F 
ENDBRANCH  18  19
ENDBRANCH  12  18
BRANCH  17  23
ATOM     23  C   UNL     1       3.882  -2.878  -1.435  1.00  0.00     0.429 C 
ATOM     24  F   UNL     1       4.590  -1.724  -1.511  1.00  0.00    -0.167 F 
ATOM     25  F   UNL     1       4.695  -3.857  -1.901  1.00  0.00    -0.167 F 
ATOM     26  F   UNL     1       2.856  -2.780  -2.311  1.00  0.00    -0.167 F 
ENDBRANCH  17  23
ENDBRANCH   4   7
ENDBRANCH   2   3
ENDBRANCH   1   2
BRANCH   1  27
ATOM     27  C   UNL     1       7.926  -5.317   2.142  1.00  0.00     0.118 C 
BRANCH  27  28
ATOM     28  N   UNL     1       9.081  -5.204   1.254  1.00  0.00    -0.352 N 
ATOM     29  C   UNL     1      10.301  -4.621   1.486  1.00  0.00     0.251 C 
ATOM     30  H   UNL     1       8.967  -5.602   0.360  1.00  0.00     0.163 HD
ATOM     31  O   UNL     1      11.039  -4.342   0.543  1.00  0.00    -0.269 OA
BRANCH  29  32
ATOM     32  C   UNL     1      10.720  -4.343   2.871  1.00  0.00     0.039 A 
ATOM     33  C   UNL     1      11.316  -3.119   3.183  1.00  0.00     0.014 A 
ATOM     34  C   UNL     1      10.532  -5.315   3.857  1.00  0.00     0.014 A 
ATOM     35  C   UNL     1      11.677  -2.852   4.505  1.00  0.00     0.010 A 
ATOM     36  C   UNL     1      10.817  -5.017   5.181  1.00  0.00     0.010 A 
ATOM     37  C   UNL     1      11.410  -3.792   5.513  1.00  0.00    -0.014 A 
BRANCH  37  38
ATOM     38  C   UNL     1      11.785  -3.543   6.923  1.00  0.00     0.031 A 
ATOM     39  C   UNL     1      12.845  -4.392   7.565  1.00  0.00     0.074 A 
ATOM     40  C   UNL     1      11.121  -2.616   7.638  1.00  0.00     0.049 A 
ATOM     41  N   UNL     1      13.275  -4.377   8.798  1.00  0.00    -0.248 NA
ATOM     42  C   UNL     1      13.487  -5.412   6.717  1.00  0.00     0.031 C 
ATOM     43  C   UNL     1      10.034  -1.780   7.128  1.00  0.00     0.029 A 
ATOM     44  N   UNL     1      11.250  -2.234   8.949  1.00  0.00    -0.354 N 
ATOM     45  C   UNL     1      14.227  -5.386   8.876  1.00  0.00     0.074 A 
ATOM     46  C   UNL     1      14.267  -6.036   7.587  1.00  0.00     0.031 C 
ATOM     47  C   UNL     1       9.605  -0.972   8.111  1.00  0.00     0.029 A 
ATOM     48  C   UNL     1      10.365  -1.253   9.327  1.00  0.00     0.049 A 
ATOM     49  H   UNL     1      11.914  -2.626   9.561  1.00  0.00     0.167 HD
ATOM     50  C   UNL     1      15.018  -5.717   9.922  1.00  0.00     0.034 A 
ATOM     51  C   UNL     1      10.187  -0.647  10.519  1.00  0.00     0.034 A 
ATOM     52  C   UNL     1      14.986  -5.040  11.189  1.00  0.00     0.049 A 
ATOM     53  C   UNL     1      11.093  -1.018  11.665  1.00  0.00     0.074 A 
ATOM     54  C   UNL     1      15.793  -5.253  12.291  1.00  0.00     0.029 A 
ATOM     55  N   UNL     1      14.110  -4.017  11.522  1.00  0.00    -0.354 N 
ATOM     56  N   UNL     1      12.059  -1.907  11.695  1.00  0.00    -0.248 NA
ATOM     57  C   UNL     1      10.904  -0.298  12.932  1.00  0.00     0.031 C 
ATOM     58  C   UNL     1      15.376  -4.393  13.306  1.00  0.00     0.029 A 
ATOM     59  C   UNL     1      14.346  -3.601  12.820  1.00  0.00     0.049 A 
ATOM     60  H   UNL     1      13.423  -3.644  10.924  1.00  0.00     0.167 HD
ATOM     61  C   UNL     1      12.611  -1.832  12.970  1.00  0.00     0.074 A 
ATOM     62  C   UNL     1      11.880  -0.801  13.678  1.00  0.00     0.031 C 
ATOM     63  C   UNL     1      13.628  -2.553  13.504  1.00  0.00     0.034 A 
BRANCH  50  64
ATOM     64  C   UNL     1      16.012  -6.832   9.742  1.00  0.00     0.023 A 
ATOM     65  C   UNL     1      15.900  -8.007  10.505  1.00  0.00     0.031 A 
ATOM     66  C   UNL     1      17.130  -6.684   8.901  1.00  0.00     0.131 A 
ATOM     67  C   UNL     1      16.907  -8.977  10.434  1.00  0.00     0.055 A 
ATOM     68  C   UNL     1      18.110  -7.671   8.805  1.00  0.00     0.041 A 
ATOM     69  F   UNL     1      17.276  -5.580   8.150  1.00  0.00    -0.206 F 
ATOM     70  C   UNL     1      18.006  -8.820   9.583  1.00  0.00     0.022 A 
BRANCH  67  71
ATOM     71  S   UNL     1      16.846 -10.464  11.469  1.00  0.00     0.124 S 
ATOM     72  O   UNL     1      16.998 -11.529  10.479  1.00  0.00    -0.237 OA
ATOM     73  O   UNL     1      17.990 -10.265  12.353  1.00  0.00    -0.237 OA
ATOM     74  O   UNL     1      15.534 -10.396  12.104  1.00  0.00    -0.744 OA
ENDBRANCH  67  71
ENDBRANCH  50  64
BRANCH  51  75
ATOM     75  C   UNL     1       9.157   0.422  10.642  1.00  0.00     0.023 A 
ATOM     76  C   UNL     1       7.788   0.132  10.500  1.00  0.00     0.031 A 
ATOM     77  C   UNL     1       9.538   1.766  10.797  1.00  0.00     0.131 A 
ATOM     78  C   UNL     1       6.857   1.179  10.460  1.00  0.00     0.055 A 
ATOM     79  C   UNL     1       8.601   2.799  10.817  1.00  0.00     0.041 A 
ATOM     80  F   UNL     1      10.835   2.089  10.921  1.00  0.00    -0.206 F 
ATOM     81  C   UNL     1       7.253   2.509  10.635  1.00  0.00     0.022 A 
BRANCH  78  82
ATOM     82  S   UNL     1       5.112   0.857  10.081  1.00  0.00     0.124 S 
ATOM     83  O   UNL     1       4.431   1.496  11.202  1.00  0.00    -0.237 OA
ATOM     84  O   UNL     1       4.964   1.523   8.789  1.00  0.00    -0.237 OA
ATOM     85  O   UNL     1       5.030  -0.599  10.043  1.00  0.00    -0.744 OA
ENDBRANCH  78  82
ENDBRANCH  51  75
BRANCH  63  86
ATOM     86  C   UNL     1      14.054  -2.264  14.921  1.00  0.00     0.023 A 
ATOM     87  C   UNL     1      15.347  -1.767  15.172  1.00  0.00     0.031 A 
ATOM     88  C   UNL     1      13.258  -2.643  16.014  1.00  0.00     0.131 A 
ATOM     89  C   UNL     1      15.825  -1.706  16.486  1.00  0.00     0.055 A 
ATOM     90  C   UNL     1      13.723  -2.538  17.325  1.00  0.00     0.041 A 
ATOM     91  F   UNL     1      12.024  -3.133  15.820  1.00  0.00    -0.206 F 
ATOM     92  C   UNL     1      15.017  -2.081  17.564  1.00  0.00     0.022 A 
BRANCH  89  93
ATOM     93  S   UNL     1      17.535  -1.214  16.836  1.00  0.00     0.124 S 
ATOM     94  O   UNL     1      17.346  -0.096  17.759  1.00  0.00    -0.237 OA
ATOM     95  O   UNL     1      18.087  -2.428  17.431  1.00  0.00    -0.237 OA
ATOM     96  O   UNL     1      18.073  -0.853  15.529  1.00  0.00    -0.744 OA
ENDBRANCH  89  93
ENDBRANCH  63  86
ENDBRANCH  37  38
ENDBRANCH  29  32
ENDBRANCH  27  28
ENDBRANCH   1  27
TORSDOF 16
