REMARK SMILES COc1ccc(/C=C(/Sc2nc(C)n[nH]2)C(=O)NCCCNC(=O)c2ccc(-c3c4nc(c(-c5cc(S(=O)(=O)[O-])ccc5F)c5ccc([nH]5)c(-c5cc(S(=O)(=O)[O-])ccc5F)c5nc(c(-c6cc(S(=O)(=O)[O-])ccc6F)c6ccc3[nH]6)C=C5)C=C4)cc2)cc1OC
REMARK SMILES IDX 20 1 19 2 18 3 16 4 17 5 8 7 7 8 6 9 3 10 4 11 89 12 5 13
REMARK SMILES IDX 88 14 2 15 1 16 90 17 91 18 9 19 10 20 11 21 15 22 12 23
REMARK SMILES IDX 14 24 13 26 21 27 22 28 23 29 24 31 25 32 26 33 87 34 27 35
REMARK SMILES IDX 86 36 28 37 29 38 30 39 80 40 31 41 85 42 79 43 81 44 32 45
REMARK SMILES IDX 84 46 78 47 77 48 33 50 65 51 45 52 64 53 46 54 49 55 63 56
REMARK SMILES IDX 82 57 47 58 48 59 62 61 83 62 50 63 34 64 35 65 43 66 36 67
REMARK SMILES IDX 42 68 44 69 41 70 37 71 38 72 39 73 40 74 66 75 67 76 75 77
REMARK SMILES IDX 68 78 74 79 76 80 73 81 69 82 70 83 71 84 72 85 51 86 52 87
REMARK SMILES IDX 60 88 53 89 59 90 61 91 58 92 54 93 55 94 56 95 57 96
REMARK H PARENT 18 6 15 25 22 30 81 49 49 60
REMARK Flexibility Score: inf
ROOT
ATOM      1  C   UNL     1      -1.000   3.744  10.006  1.00  0.00     0.042 C 
ENDROOT
BRANCH   1   2
ATOM      2  C   UNL     1      -1.125   2.295   9.523  1.00  0.00     0.118 C 
BRANCH   2   3
ATOM      3  N   UNL     1      -1.205   2.129   8.074  1.00  0.00    -0.352 N 
ATOM      4  C   UNL     1      -0.350   1.539   7.178  1.00  0.00     0.258 C 
ATOM      5  O   UNL     1      -0.888   0.853   6.306  1.00  0.00    -0.269 OA
ATOM      6  H   UNL     1      -2.017   2.509   7.667  1.00  0.00     0.163 HD
BRANCH   4   7
ATOM      7  C   UNL     1       1.158   1.737   7.188  1.00  0.00     0.081 C 
ATOM      8  C   UNL     1       1.887   1.716   6.045  1.00  0.00     0.029 C 
BRANCH   8   9
ATOM      9  C   UNL     1       1.544   1.535   4.606  1.00  0.00    -0.020 A 
ATOM     10  C   UNL     1       1.151   1.275   1.801  1.00  0.00     0.160 A 
ATOM     11  C   UNL     1       0.170   1.853   2.615  1.00  0.00     0.051 A 
ATOM     12  C   UNL     1       2.359   0.862   2.367  1.00  0.00     0.161 A 
ATOM     13  C   UNL     1       0.377   2.001   3.997  1.00  0.00     0.012 A 
ATOM     14  C   UNL     1       2.527   0.981   3.762  1.00  0.00     0.058 A 
BRANCH  10  15
ATOM     15  O   UNL     1       0.925   1.267   0.452  1.00  0.00    -0.493 OA
ATOM     16  C   UNL     1       0.180   0.122   0.036  1.00  0.00     0.278 C 
ENDBRANCH  10  15
BRANCH  12  17
ATOM     17  O   UNL     1       3.470   0.358   1.745  1.00  0.00    -0.493 OA
ATOM     18  C   UNL     1       3.465   0.208   0.334  1.00  0.00     0.278 C 
ENDBRANCH  12  17
ENDBRANCH   8   9
BRANCH   7  19
ATOM     19  S   UNL     1       1.876   2.079   8.737  1.00  0.00    -0.045 SA
BRANCH  19  20
ATOM     20  C   UNL     1       3.515   1.600   8.641  1.00  0.00     0.188 A 
ATOM     21  N   UNL     1       4.533   2.420   8.700  1.00  0.00    -0.206 NA
ATOM     22  N   UNL     1       3.933   0.327   8.881  1.00  0.00    -0.254 N 
ATOM     23  C   UNL     1       5.573   1.599   9.035  1.00  0.00     0.148 A 
ATOM     24  N   UNL     1       5.259   0.299   9.136  1.00  0.00    -0.158 NA
ATOM     25  H   UNL     1       3.349  -0.466   8.869  1.00  0.00     0.192 HD
ATOM     26  C   UNL     1       6.896   2.155   9.379  1.00  0.00     0.092 C 
ENDBRANCH  19  20
ENDBRANCH   7  19
ENDBRANCH   4   7
ENDBRANCH   2   3
ENDBRANCH   1   2
BRANCH   1  27
ATOM     27  C   UNL     1      -2.350   4.442  10.052  1.00  0.00     0.118 C 
BRANCH  27  28
ATOM     28  N   UNL     1      -3.272   3.826  11.017  1.00  0.00    -0.352 N 
ATOM     29  C   UNL     1      -4.584   4.161  11.314  1.00  0.00     0.251 C 
ATOM     30  H   UNL     1      -2.905   3.066  11.524  1.00  0.00     0.163 HD
ATOM     31  O   UNL     1      -5.112   3.751  12.330  1.00  0.00    -0.269 OA
BRANCH  29  32
ATOM     32  C   UNL     1      -5.312   5.031  10.371  1.00  0.00     0.039 A 
ATOM     33  C   UNL     1      -6.145   6.062  10.813  1.00  0.00     0.014 A 
ATOM     34  C   UNL     1      -5.090   4.826   9.015  1.00  0.00     0.014 A 
ATOM     35  C   UNL     1      -6.673   6.941   9.868  1.00  0.00     0.010 A 
ATOM     36  C   UNL     1      -5.438   5.797   8.120  1.00  0.00     0.010 A 
ATOM     37  C   UNL     1      -6.290   6.815   8.523  1.00  0.00    -0.014 A 
BRANCH  37  38
ATOM     38  C   UNL     1      -6.647   7.817   7.526  1.00  0.00     0.031 A 
ATOM     39  C   UNL     1      -6.242   9.199   7.897  1.00  0.00     0.074 A 
ATOM     40  C   UNL     1      -7.066   7.492   6.281  1.00  0.00     0.049 A 
ATOM     41  N   UNL     1      -7.013  10.185   8.210  1.00  0.00    -0.248 NA
ATOM     42  C   UNL     1      -4.813   9.473   8.131  1.00  0.00     0.031 C 
ATOM     43  C   UNL     1      -7.211   6.157   5.688  1.00  0.00     0.029 A 
ATOM     44  N   UNL     1      -7.343   8.305   5.226  1.00  0.00    -0.354 N 
ATOM     45  C   UNL     1      -6.172  11.274   8.411  1.00  0.00     0.074 A 
ATOM     46  C   UNL     1      -4.855  10.726   8.589  1.00  0.00     0.031 C 
ATOM     47  C   UNL     1      -7.304   6.259   4.343  1.00  0.00     0.029 A 
ATOM     48  C   UNL     1      -7.405   7.663   3.989  1.00  0.00     0.049 A 
ATOM     49  H   UNL     1      -7.490   9.273   5.328  1.00  0.00     0.167 HD
ATOM     50  C   UNL     1      -6.592  12.541   8.139  1.00  0.00     0.034 A 
ATOM     51  C   UNL     1      -7.514   8.242   2.760  1.00  0.00     0.034 A 
ATOM     52  C   UNL     1      -8.036  12.591   8.030  1.00  0.00     0.049 A 
ATOM     53  C   UNL     1      -8.073   9.599   2.991  1.00  0.00     0.074 A 
ATOM     54  C   UNL     1      -9.071  12.235   8.875  1.00  0.00     0.029 A 
ATOM     55  N   UNL     1      -8.592  12.626   6.769  1.00  0.00    -0.354 N 
ATOM     56  N   UNL     1      -9.267   9.802   3.479  1.00  0.00    -0.248 NA
ATOM     57  C   UNL     1      -7.133  10.693   3.188  1.00  0.00     0.031 C 
ATOM     58  C   UNL     1     -10.009  11.562   8.036  1.00  0.00     0.029 A 
ATOM     59  C   UNL     1      -9.560  11.649   6.716  1.00  0.00     0.049 A 
ATOM     60  H   UNL     1      -8.342  13.239   6.039  1.00  0.00     0.167 HD
ATOM     61  C   UNL     1      -9.106  10.814   4.414  1.00  0.00     0.074 A 
ATOM     62  C   UNL     1      -7.790  11.386   4.124  1.00  0.00     0.031 C 
ATOM     63  C   UNL     1      -9.910  10.904   5.517  1.00  0.00     0.034 A 
BRANCH  50  64
ATOM     64  C   UNL     1      -5.700  13.648   7.619  1.00  0.00     0.023 A 
ATOM     65  C   UNL     1      -6.275  14.919   7.435  1.00  0.00     0.031 A 
ATOM     66  C   UNL     1      -4.416  13.470   7.050  1.00  0.00     0.131 A 
ATOM     67  C   UNL     1      -5.627  15.902   6.664  1.00  0.00     0.055 A 
ATOM     68  C   UNL     1      -3.747  14.473   6.344  1.00  0.00     0.041 A 
ATOM     69  F   UNL     1      -3.775  12.296   7.054  1.00  0.00    -0.206 F 
ATOM     70  C   UNL     1      -4.363  15.690   6.123  1.00  0.00     0.022 A 
BRANCH  67  71
ATOM     71  S   UNL     1      -6.542  17.405   6.236  1.00  0.00     0.124 S 
ATOM     72  O   UNL     1      -7.746  16.853   5.625  1.00  0.00    -0.237 OA
ATOM     73  O   UNL     1      -6.711  18.035   7.541  1.00  0.00    -0.237 OA
ATOM     74  O   UNL     1      -5.640  18.101   5.320  1.00  0.00    -0.744 OA
ENDBRANCH  67  71
ENDBRANCH  50  64
BRANCH  51  75
ATOM     75  C   UNL     1      -6.854   7.820   1.488  1.00  0.00     0.023 A 
ATOM     76  C   UNL     1      -7.275   8.255   0.209  1.00  0.00     0.031 A 
ATOM     77  C   UNL     1      -5.608   7.153   1.543  1.00  0.00     0.131 A 
ATOM     78  C   UNL     1      -6.465   8.019  -0.932  1.00  0.00     0.055 A 
ATOM     79  C   UNL     1      -4.813   6.927   0.416  1.00  0.00     0.041 A 
ATOM     80  F   UNL     1      -5.077   6.772   2.715  1.00  0.00    -0.206 F 
ATOM     81  C   UNL     1      -5.234   7.368  -0.827  1.00  0.00     0.022 A 
BRANCH  78  82
ATOM     82  S   UNL     1      -6.960   8.633  -2.580  1.00  0.00     0.124 S 
ATOM     83  O   UNL     1      -8.129   7.814  -2.880  1.00  0.00    -0.237 OA
ATOM     84  O   UNL     1      -7.206  10.048  -2.328  1.00  0.00    -0.237 OA
ATOM     85  O   UNL     1      -5.790   8.357  -3.415  1.00  0.00    -0.744 OA
ENDBRANCH  78  82
ENDBRANCH  51  75
BRANCH  63  86
ATOM     86  C   UNL     1     -11.154  10.028   5.587  1.00  0.00     0.023 A 
ATOM     87  C   UNL     1     -11.171   8.614   5.496  1.00  0.00     0.031 A 
ATOM     88  C   UNL     1     -12.370  10.668   5.884  1.00  0.00     0.131 A 
ATOM     89  C   UNL     1     -12.377   7.905   5.692  1.00  0.00     0.055 A 
ATOM     90  C   UNL     1     -13.553   9.963   6.103  1.00  0.00     0.041 A 
ATOM     91  F   UNL     1     -12.423  12.005   6.006  1.00  0.00    -0.206 F 
ATOM     92  C   UNL     1     -13.563   8.578   6.001  1.00  0.00     0.022 A 
BRANCH  89  93
ATOM     93  S   UNL     1     -12.440   6.088   5.525  1.00  0.00     0.124 S 
ATOM     94  O   UNL     1     -11.731   5.834   4.276  1.00  0.00    -0.237 OA
ATOM     95  O   UNL     1     -11.775   5.633   6.742  1.00  0.00    -0.237 OA
ATOM     96  O   UNL     1     -13.876   5.801   5.476  1.00  0.00    -0.744 OA
ENDBRANCH  89  93
ENDBRANCH  63  86
ENDBRANCH  37  38
ENDBRANCH  29  32
ENDBRANCH  27  28
ENDBRANCH   1  27
TORSDOF 18
