REMARK SMILES O=C(NCCCNC(=O)c1ncccc1-c1cc(Cl)cc(Cl)c1)c1ccc(-c2c3nc(c(-c4cc(S(=O)(=O)[O-])ccc4F)c4ccc([nH]4)c(-c4cc(S(=O)(=O)[O-])ccc4F)c4nc(c(-c5cc(S(=O)(=O)[O-])ccc5F)c5ccc2[nH]5)C=C4)C=C3)cc1
REMARK SMILES IDX 4 1 3 2 1 3 2 4 24 6 25 7 86 8 26 9 85 10 27 11 28 12 29 13
REMARK SMILES IDX 79 14 30 15 84 16 78 17 80 18 31 19 83 20 77 21 76 22 32 24
REMARK SMILES IDX 64 25 44 26 63 27 45 28 48 29 62 30 81 31 46 32 47 33 61 35
REMARK SMILES IDX 82 36 49 37 33 38 34 39 42 40 35 41 41 42 43 43 40 44 36 45
REMARK SMILES IDX 37 46 38 47 39 48 65 49 66 50 74 51 67 52 73 53 75 54 72 55
REMARK SMILES IDX 68 56 69 57 70 58 71 59 50 60 51 61 59 62 52 63 58 64 60 65
REMARK SMILES IDX 57 66 53 67 54 68 55 69 56 70 5 71 6 72 7 73 8 74 9 76 10 77
REMARK SMILES IDX 11 78 15 79 12 80 14 81 13 82 16 83 17 84 23 85 18 86 21 87
REMARK SMILES IDX 19 88 20 89 22 90
REMARK H PARENT 3 5 80 23 48 34 7 75
REMARK Flexibility Score: inf
ROOT
ATOM      1  C   UNL     1       4.798  -0.823  -0.923  1.00  0.00     0.118 C 
ENDROOT
BRANCH   1   2
ATOM      2  N   UNL     1       3.347  -0.662  -0.850  1.00  0.00    -0.352 N 
ATOM      3  O   UNL     1       1.341   0.045  -0.115  1.00  0.00    -0.269 OA
ATOM      4  C   UNL     1       2.563   0.185  -0.100  1.00  0.00     0.251 C 
ATOM      5  H   UNL     1       2.842  -1.266  -1.442  1.00  0.00     0.163 HD
BRANCH   4   6
ATOM      6  C   UNL     1       3.176   1.232   0.748  1.00  0.00     0.039 A 
ATOM      7  C   UNL     1       4.273   1.961   0.300  1.00  0.00     0.014 A 
ATOM      8  C   UNL     1       2.651   1.488   2.019  1.00  0.00     0.014 A 
ATOM      9  C   UNL     1       4.990   2.745   1.192  1.00  0.00     0.010 A 
ATOM     10  C   UNL     1       3.297   2.392   2.872  1.00  0.00     0.010 A 
ATOM     11  C   UNL     1       4.512   2.980   2.491  1.00  0.00    -0.014 A 
BRANCH  11  12
ATOM     12  C   UNL     1       5.311   3.844   3.404  1.00  0.00     0.031 A 
ATOM     13  C   UNL     1       5.854   3.309   4.705  1.00  0.00     0.074 A 
ATOM     14  C   UNL     1       5.615   5.099   3.013  1.00  0.00     0.049 A 
ATOM     15  N   UNL     1       6.616   3.905   5.590  1.00  0.00    -0.248 NA
ATOM     16  C   UNL     1       5.482   1.935   5.071  1.00  0.00     0.031 C 
ATOM     17  C   UNL     1       5.142   5.732   1.778  1.00  0.00     0.029 A 
ATOM     18  N   UNL     1       6.424   6.051   3.580  1.00  0.00    -0.354 N 
ATOM     19  C   UNL     1       6.784   2.995   6.630  1.00  0.00     0.074 A 
ATOM     20  C   UNL     1       6.019   1.818   6.277  1.00  0.00     0.031 C 
ATOM     21  C   UNL     1       5.735   6.926   1.639  1.00  0.00     0.029 A 
ATOM     22  C   UNL     1       6.563   7.183   2.810  1.00  0.00     0.049 A 
ATOM     23  H   UNL     1       6.862   5.935   4.454  1.00  0.00     0.167 HD
ATOM     24  C   UNL     1       7.513   3.128   7.767  1.00  0.00     0.034 A 
ATOM     25  C   UNL     1       7.270   8.309   3.022  1.00  0.00     0.034 A 
ATOM     26  C   UNL     1       8.294   4.299   8.090  1.00  0.00     0.049 A 
ATOM     27  C   UNL     1       8.074   8.428   4.287  1.00  0.00     0.074 A 
ATOM     28  C   UNL     1       9.091   4.528   9.199  1.00  0.00     0.029 A 
ATOM     29  N   UNL     1       8.379   5.442   7.303  1.00  0.00    -0.354 N 
ATOM     30  N   UNL     1       8.218   7.557   5.258  1.00  0.00    -0.248 NA
ATOM     31  C   UNL     1       8.810   9.682   4.482  1.00  0.00     0.031 C 
ATOM     32  C   UNL     1       9.609   5.826   9.111  1.00  0.00     0.029 A 
ATOM     33  C   UNL     1       9.194   6.384   7.913  1.00  0.00     0.049 A 
ATOM     34  H   UNL     1       7.926   5.565   6.438  1.00  0.00     0.167 HD
ATOM     35  C   UNL     1       9.078   8.153   6.174  1.00  0.00     0.074 A 
ATOM     36  C   UNL     1       9.437   9.445   5.625  1.00  0.00     0.031 C 
ATOM     37  C   UNL     1       9.530   7.676   7.361  1.00  0.00     0.034 A 
BRANCH  24  38
ATOM     38  C   UNL     1       7.453   1.996   8.768  1.00  0.00     0.023 A 
ATOM     39  C   UNL     1       7.944   0.711   8.475  1.00  0.00     0.031 A 
ATOM     40  C   UNL     1       6.863   2.200  10.029  1.00  0.00     0.131 A 
ATOM     41  C   UNL     1       7.770  -0.334   9.398  1.00  0.00     0.055 A 
ATOM     42  C   UNL     1       6.765   1.176  10.974  1.00  0.00     0.041 A 
ATOM     43  F   UNL     1       6.358   3.399  10.361  1.00  0.00    -0.206 F 
ATOM     44  C   UNL     1       7.205  -0.104  10.655  1.00  0.00     0.022 A 
BRANCH  41  45
ATOM     45  S   UNL     1       8.159  -2.028   8.876  1.00  0.00     0.124 S 
ATOM     46  O   UNL     1       7.304  -2.181   7.700  1.00  0.00    -0.237 OA
ATOM     47  O   UNL     1       9.592  -1.958   8.617  1.00  0.00    -0.237 OA
ATOM     48  O   UNL     1       7.771  -2.841  10.027  1.00  0.00    -0.744 OA
ENDBRANCH  41  45
ENDBRANCH  24  38
BRANCH  25  49
ATOM     49  C   UNL     1       7.230   9.418   2.028  1.00  0.00     0.023 A 
ATOM     50  C   UNL     1       8.383   9.807   1.328  1.00  0.00     0.031 A 
ATOM     51  C   UNL     1       6.037  10.119   1.776  1.00  0.00     0.131 A 
ATOM     52  C   UNL     1       8.327  10.889   0.437  1.00  0.00     0.055 A 
ATOM     53  C   UNL     1       5.974  11.160   0.850  1.00  0.00     0.041 A 
ATOM     54  F   UNL     1       4.905   9.783   2.415  1.00  0.00    -0.206 F 
ATOM     55  C   UNL     1       7.127  11.559   0.182  1.00  0.00     0.022 A 
BRANCH  52  56
ATOM     56  S   UNL     1       9.865  11.459  -0.337  1.00  0.00     0.124 S 
ATOM     57  O   UNL     1      10.685  11.774   0.826  1.00  0.00    -0.237 OA
ATOM     58  O   UNL     1      10.267  10.287  -1.108  1.00  0.00    -0.237 OA
ATOM     59  O   UNL     1       9.439  12.609  -1.132  1.00  0.00    -0.744 OA
ENDBRANCH  52  56
ENDBRANCH  25  49
BRANCH  37  60
ATOM     60  C   UNL     1      10.497   8.553   8.116  1.00  0.00     0.023 A 
ATOM     61  C   UNL     1      10.100   9.784   8.668  1.00  0.00     0.031 A 
ATOM     62  C   UNL     1      11.843   8.171   8.245  1.00  0.00     0.131 A 
ATOM     63  C   UNL     1      11.054  10.621   9.266  1.00  0.00     0.055 A 
ATOM     64  C   UNL     1      12.776   8.982   8.893  1.00  0.00     0.041 A 
ATOM     65  F   UNL     1      12.275   7.007   7.734  1.00  0.00    -0.206 F 
ATOM     66  C   UNL     1      12.387  10.221   9.394  1.00  0.00     0.022 A 
BRANCH  63  67
ATOM     67  S   UNL     1      10.552  12.287   9.778  1.00  0.00     0.124 S 
ATOM     68  O   UNL     1      10.028  12.843   8.534  1.00  0.00    -0.237 OA
ATOM     69  O   UNL     1       9.566  12.009  10.817  1.00  0.00    -0.237 OA
ATOM     70  O   UNL     1      11.797  12.890  10.250  1.00  0.00    -0.744 OA
ENDBRANCH  63  67
ENDBRANCH  37  60
ENDBRANCH  11  12
ENDBRANCH   4   6
ENDBRANCH   1   2
BRANCH   1  71
ATOM     71  C   UNL     1       5.311  -2.064  -0.208  1.00  0.00     0.042 C 
BRANCH  71  72
ATOM     72  C   UNL     1       4.839  -3.363  -0.829  1.00  0.00     0.118 C 
BRANCH  72  73
ATOM     73  N   UNL     1       5.266  -3.539  -2.208  1.00  0.00    -0.351 N 
ATOM     74  C   UNL     1       5.800  -4.663  -2.798  1.00  0.00     0.270 C 
ATOM     75  H   UNL     1       5.161  -2.755  -2.794  1.00  0.00     0.163 HD
ATOM     76  O   UNL     1       6.029  -4.675  -4.005  1.00  0.00    -0.267 OA
BRANCH  74  77
ATOM     77  C   UNL     1       6.066  -5.872  -1.968  1.00  0.00     0.135 A 
ATOM     78  N   UNL     1       7.389  -6.106  -1.746  1.00  0.00    -0.250 NA
ATOM     79  C   UNL     1       5.012  -6.633  -1.432  1.00  0.00     0.013 A 
ATOM     80  C   UNL     1       7.695  -7.131  -0.930  1.00  0.00     0.112 A 
ATOM     81  C   UNL     1       5.394  -7.687  -0.589  1.00  0.00     0.013 A 
ATOM     82  C   UNL     1       6.743  -7.937  -0.331  1.00  0.00     0.021 A 
BRANCH  79  83
ATOM     83  C   UNL     1       3.587  -6.318  -1.653  1.00  0.00    -0.013 A 
ATOM     84  C   UNL     1       2.748  -6.027  -0.561  1.00  0.00     0.029 A 
ATOM     85  C   UNL     1       3.050  -6.201  -2.946  1.00  0.00     0.029 A 
ATOM     86  C   UNL     1       1.442  -5.576  -0.764  1.00  0.00     0.043 A 
ATOM     87  C   UNL     1       1.739  -5.758  -3.136  1.00  0.00     0.043 A 
ATOM     88  Cl  UNL     1       0.470  -5.152   0.590  1.00  0.00    -0.084 Cl
ATOM     89  C   UNL     1       0.933  -5.432  -2.050  1.00  0.00     0.041 A 
ATOM     90  Cl  UNL     1       1.120  -5.587  -4.733  1.00  0.00    -0.084 Cl
ENDBRANCH  79  83
ENDBRANCH  74  77
ENDBRANCH  72  73
ENDBRANCH  71  72
ENDBRANCH   1  71
TORSDOF 14
