REMARK SMILES O=C(CN1C(=O)/C(=C2\SC(N3CCN(c4ccccc4F)CC3)=[NH+]C2=O)c2ccccc21)NCCCNC(=O)c1ccc(-c2c3nc(c(-c4cc(S(=O)(=O)[O-])ccc4F)c4ccc([nH]4)c(-c4cc(S(=O)(=O)[O-])ccc4F)c4nc(c(-c5cc(S(=O)(=O)[O-])ccc5F)c5ccc2[nH]5)C=C4)C=C3)cc1
REMARK SMILES IDX 35 1 34 2 33 3 1 4 2 5 3 7 4 8 5 9 32 10 6 11 7 12 27 13
REMARK SMILES IDX 31 14 8 15 28 16 30 17 9 18 25 19 29 20 10 21 24 22 26 23
REMARK SMILES IDX 11 24 12 26 23 27 13 28 22 29 14 30 15 31 16 32 20 33 17 34
REMARK SMILES IDX 19 35 21 36 18 37 36 38 37 39 38 40 39 42 40 43 41 44 102 45
REMARK SMILES IDX 42 46 101 47 43 48 44 49 45 50 95 51 46 52 100 53 94 54
REMARK SMILES IDX 96 55 47 56 99 57 93 58 92 59 48 61 80 62 60 63 79 64 61 65
REMARK SMILES IDX 64 66 78 67 97 68 62 69 63 70 77 72 98 73 65 74 49 75 50 76
REMARK SMILES IDX 58 77 51 78 57 79 59 80 56 81 52 82 53 83 54 84 55 85 81 86
REMARK SMILES IDX 82 87 90 88 83 89 89 90 91 91 88 92 84 93 85 94 86 95 87 96
REMARK SMILES IDX 66 97 67 98 75 99 68 100 74 101 76 102 73 103 69 104 70 105
REMARK SMILES IDX 71 106 72 107
REMARK H PARENT 33 6 24 25 37 41 96 60 64 71
REMARK Flexibility Score: inf
ROOT
ATOM      1  C   UNL     1       2.415   2.792  -1.995  1.00  0.00     0.042 C 
ENDROOT
BRANCH   1   2
ATOM      2  C   UNL     1       2.151   1.294  -2.061  1.00  0.00     0.117 C 
BRANCH   2   3
ATOM      3  N   UNL     1       2.877   0.567  -1.040  1.00  0.00    -0.354 N 
ATOM      4  O   UNL     1       1.067   0.035   0.282  1.00  0.00    -0.273 OA
ATOM      5  C   UNL     1       2.275  -0.001   0.063  1.00  0.00     0.240 C 
ATOM      6  H   UNL     1       3.852   0.473  -1.139  1.00  0.00     0.163 HD
BRANCH   5   7
ATOM      7  C   UNL     1       3.256  -0.640   1.044  1.00  0.00     0.225 C 
BRANCH   7   8
ATOM      8  N   UNL     1       3.911  -1.786   0.450  1.00  0.00    -0.298 N 
ATOM      9  C   UNL     1       5.041  -1.682  -0.343  1.00  0.00     0.260 C 
ATOM     10  C   UNL     1       3.478  -3.112   0.549  1.00  0.00     0.053 A 
ATOM     11  O   UNL     1       5.549  -0.634  -0.700  1.00  0.00    -0.269 OA
ATOM     12  C   UNL     1       5.396  -3.101  -0.746  1.00  0.00     0.071 C 
ATOM     13  C   UNL     1       4.346  -3.963  -0.159  1.00  0.00     0.012 A 
ATOM     14  C   UNL     1       2.383  -3.583   1.259  1.00  0.00     0.027 A 
ATOM     15  C   UNL     1       6.488  -3.373  -1.484  1.00  0.00     0.122 C 
ATOM     16  C   UNL     1       4.135  -5.331  -0.098  1.00  0.00     0.011 A 
ATOM     17  C   UNL     1       2.168  -4.958   1.293  1.00  0.00     0.002 A 
ATOM     18  S   UNL     1       7.784  -2.262  -1.786  1.00  0.00     0.007 SA
ATOM     19  C   UNL     1       6.869  -4.668  -2.137  1.00  0.00     0.347 C 
ATOM     20  C   UNL     1       3.041  -5.826   0.625  1.00  0.00     0.001 A 
ATOM     21  C   UNL     1       8.765  -3.537  -2.459  1.00  0.00     0.319 C 
ATOM     22  N   UNL     1       8.165  -4.670  -2.605  1.00  0.00    -0.200 N 
ATOM     23  O   UNL     1       6.107  -5.609  -2.294  1.00  0.00    -0.240 OA
ATOM     24  N   UNL     1      10.064  -3.280  -2.797  1.00  0.00    -0.252 N 
ATOM     25  H   UNL     1       8.591  -5.458  -3.011  1.00  0.00     0.316 HD
ATOM     26  C   UNL     1      10.941  -2.364  -2.046  1.00  0.00     0.258 C 
ATOM     27  C   UNL     1      10.635  -3.792  -4.055  1.00  0.00     0.258 C 
ATOM     28  C   UNL     1      12.328  -3.005  -1.808  1.00  0.00     0.162 C 
ATOM     29  C   UNL     1      12.050  -4.370  -3.861  1.00  0.00     0.162 C 
ATOM     30  N   UNL     1      12.881  -3.432  -3.096  1.00  0.00    -0.361 N 
BRANCH  30  31
ATOM     31  C   UNL     1      14.221  -3.274  -3.383  1.00  0.00     0.073 A 
ATOM     32  C   UNL     1      14.598  -2.776  -4.639  1.00  0.00     0.029 A 
ATOM     33  C   UNL     1      15.249  -3.532  -2.462  1.00  0.00     0.146 A 
ATOM     34  C   UNL     1      15.937  -2.526  -4.954  1.00  0.00     0.002 A 
ATOM     35  C   UNL     1      16.591  -3.308  -2.774  1.00  0.00     0.041 A 
ATOM     36  F   UNL     1      14.958  -4.027  -1.247  1.00  0.00    -0.205 F 
ATOM     37  C   UNL     1      16.936  -2.795  -4.022  1.00  0.00     0.003 A 
ENDBRANCH  30  31
ENDBRANCH   7   8
ENDBRANCH   5   7
ENDBRANCH   2   3
ENDBRANCH   1   2
BRANCH   1  38
ATOM     38  C   UNL     1       3.880   3.184  -2.157  1.00  0.00     0.118 C 
BRANCH  38  39
ATOM     39  N   UNL     1       4.440   2.852  -3.462  1.00  0.00    -0.352 N 
ATOM     40  C   UNL     1       5.132   3.646  -4.351  1.00  0.00     0.251 C 
ATOM     41  H   UNL     1       4.303   1.921  -3.752  1.00  0.00     0.163 HD
ATOM     42  O   UNL     1       5.434   3.205  -5.456  1.00  0.00    -0.269 OA
BRANCH  40  43
ATOM     43  C   UNL     1       5.465   5.042  -3.987  1.00  0.00     0.039 A 
ATOM     44  C   UNL     1       5.954   5.350  -2.718  1.00  0.00     0.014 A 
ATOM     45  C   UNL     1       5.237   6.064  -4.914  1.00  0.00     0.014 A 
ATOM     46  C   UNL     1       6.006   6.677  -2.305  1.00  0.00     0.010 A 
ATOM     47  C   UNL     1       5.394   7.399  -4.528  1.00  0.00     0.010 A 
ATOM     48  C   UNL     1       5.714   7.721  -3.200  1.00  0.00    -0.014 A 
BRANCH  48  49
ATOM     49  C   UNL     1       5.737   9.130  -2.716  1.00  0.00     0.031 A 
ATOM     50  C   UNL     1       4.490   9.976  -2.736  1.00  0.00     0.074 A 
ATOM     51  C   UNL     1       6.878   9.631  -2.202  1.00  0.00     0.049 A 
ATOM     52  N   UNL     1       4.325  11.208  -2.322  1.00  0.00    -0.248 NA
ATOM     53  C   UNL     1       3.270   9.370  -3.294  1.00  0.00     0.031 C 
ATOM     54  C   UNL     1       8.145   8.904  -2.124  1.00  0.00     0.029 A 
ATOM     55  N   UNL     1       7.157  10.847  -1.629  1.00  0.00    -0.354 N 
ATOM     56  C   UNL     1       2.997  11.528  -2.584  1.00  0.00     0.074 A 
ATOM     57  C   UNL     1       2.409  10.377  -3.230  1.00  0.00     0.031 C 
ATOM     58  C   UNL     1       9.048   9.663  -1.489  1.00  0.00     0.029 A 
ATOM     59  C   UNL     1       8.455  10.963  -1.188  1.00  0.00     0.049 A 
ATOM     60  H   UNL     1       6.492  11.568  -1.544  1.00  0.00     0.167 HD
ATOM     61  C   UNL     1       2.328  12.670  -2.293  1.00  0.00     0.034 A 
ATOM     62  C   UNL     1       9.108  11.999  -0.620  1.00  0.00     0.034 A 
ATOM     63  C   UNL     1       2.923  13.800  -1.624  1.00  0.00     0.049 A 
ATOM     64  C   UNL     1       8.351  13.271  -0.341  1.00  0.00     0.074 A 
ATOM     65  C   UNL     1       2.314  14.986  -1.252  1.00  0.00     0.029 A 
ATOM     66  N   UNL     1       4.249  13.892  -1.225  1.00  0.00    -0.354 N 
ATOM     67  N   UNL     1       7.082  13.535  -0.545  1.00  0.00    -0.248 NA
ATOM     68  C   UNL     1       9.105  14.385   0.248  1.00  0.00     0.031 C 
ATOM     69  C   UNL     1       3.285  15.823  -0.705  1.00  0.00     0.029 A 
ATOM     70  C   UNL     1       4.483  15.129  -0.644  1.00  0.00     0.049 A 
ATOM     71  H   UNL     1       4.924  13.184  -1.337  1.00  0.00     0.167 HD
ATOM     72  C   UNL     1       6.881  14.835  -0.090  1.00  0.00     0.074 A 
ATOM     73  C   UNL     1       8.153  15.292   0.428  1.00  0.00     0.031 C 
ATOM     74  C   UNL     1       5.747  15.580  -0.109  1.00  0.00     0.034 A 
BRANCH  61  75
ATOM     75  C   UNL     1       0.868  12.782  -2.671  1.00  0.00     0.023 A 
ATOM     76  C   UNL     1       0.448  13.796  -3.555  1.00  0.00     0.031 A 
ATOM     77  C   UNL     1      -0.118  12.000  -2.045  1.00  0.00     0.131 A 
ATOM     78  C   UNL     1      -0.919  14.033  -3.748  1.00  0.00     0.055 A 
ATOM     79  C   UNL     1      -1.479  12.206  -2.280  1.00  0.00     0.041 A 
ATOM     80  F   UNL     1       0.226  11.023  -1.190  1.00  0.00    -0.206 F 
ATOM     81  C   UNL     1      -1.884  13.238  -3.123  1.00  0.00     0.022 A 
BRANCH  78  82
ATOM     82  S   UNL     1      -1.498  15.433  -4.745  1.00  0.00     0.124 S 
ATOM     83  O   UNL     1      -2.296  14.762  -5.769  1.00  0.00    -0.237 OA
ATOM     84  O   UNL     1      -2.259  16.208  -3.769  1.00  0.00    -0.237 OA
ATOM     85  O   UNL     1      -0.269  16.054  -5.226  1.00  0.00    -0.744 OA
ENDBRANCH  78  82
ENDBRANCH  61  75
BRANCH  62  86
ATOM     86  C   UNL     1      10.546  11.834  -0.253  1.00  0.00     0.023 A 
ATOM     87  C   UNL     1      11.507  11.517  -1.232  1.00  0.00     0.031 A 
ATOM     88  C   UNL     1      10.961  11.870   1.089  1.00  0.00     0.131 A 
ATOM     89  C   UNL     1      12.806  11.163  -0.847  1.00  0.00     0.055 A 
ATOM     90  C   UNL     1      12.280  11.600   1.460  1.00  0.00     0.041 A 
ATOM     91  F   UNL     1      10.081  12.154   2.062  1.00  0.00    -0.206 F 
ATOM     92  C   UNL     1      13.205  11.223   0.491  1.00  0.00     0.022 A 
BRANCH  89  93
ATOM     93  S   UNL     1      13.972  10.465  -2.050  1.00  0.00     0.124 S 
ATOM     94  O   UNL     1      15.082  11.409  -1.984  1.00  0.00    -0.237 OA
ATOM     95  O   UNL     1      14.231   9.144  -1.480  1.00  0.00    -0.237 OA
ATOM     96  O   UNL     1      13.218  10.462  -3.299  1.00  0.00    -0.744 OA
ENDBRANCH  89  93
ENDBRANCH  62  86
BRANCH  74  97
ATOM     97  C   UNL     1       5.786  16.983   0.452  1.00  0.00     0.023 A 
ATOM     98  C   UNL     1       4.951  17.330   1.532  1.00  0.00     0.031 A 
ATOM     99  C   UNL     1       6.510  18.008  -0.182  1.00  0.00     0.131 A 
ATOM    100  C   UNL     1       4.816  18.672   1.908  1.00  0.00     0.055 A 
ATOM    101  C   UNL     1       6.418  19.337   0.236  1.00  0.00     0.041 A 
ATOM    102  F   UNL     1       7.311  17.733  -1.224  1.00  0.00    -0.206 F 
ATOM    103  C   UNL     1       5.554  19.676   1.273  1.00  0.00     0.022 A 
BRANCH 100 104
ATOM    104  S   UNL     1       3.603  19.177   3.160  1.00  0.00     0.124 S 
ATOM    105  O   UNL     1       4.453  19.806   4.168  1.00  0.00    -0.237 OA
ATOM    106  O   UNL     1       2.748  20.092   2.407  1.00  0.00    -0.237 OA
ATOM    107  O   UNL     1       2.977  17.925   3.569  1.00  0.00    -0.744 OA
ENDBRANCH 100 104
ENDBRANCH  74  97
ENDBRANCH  48  49
ENDBRANCH  40  43
ENDBRANCH  38  39
ENDBRANCH   1  38
TORSDOF 15
