REMARK SMILES C[C@@H](NC(=O)[C@@H]1CC[C@@H]2CCCC[C@@H]2[NH2+]1)C(=O)NCCCNC(=O)c1ccc(-c2c3nc(c(-c4cc(S(=O)(=O)[O-])ccc4F)c4ccc([nH]4)c(-c4cc(S(=O)(=O)[O-])ccc4F)c4nc(c(-c5cc(S(=O)(=O)[O-])ccc5F)c5ccc2[nH]5)C=C4)C=C3)cc1
REMARK SMILES IDX 20 1 19 2 18 3 16 4 17 5 2 7 1 8 3 9 4 10 5 12 6 13 7 14
REMARK SMILES IDX 15 15 8 16 14 17 9 20 13 21 10 22 12 23 11 24 21 25 22 26
REMARK SMILES IDX 23 27 24 29 25 30 26 31 87 32 27 33 86 34 28 35 29 36 30 37
REMARK SMILES IDX 80 38 31 39 85 40 79 41 81 42 32 43 84 44 78 45 77 46 33 48
REMARK SMILES IDX 65 49 45 50 64 51 46 52 49 53 63 54 82 55 47 56 48 57 62 59
REMARK SMILES IDX 83 60 50 61 34 62 35 63 43 64 36 65 42 66 44 67 41 68 37 69
REMARK SMILES IDX 38 70 39 71 40 72 66 73 67 74 75 75 68 76 74 77 76 78 73 79
REMARK SMILES IDX 69 80 70 81 71 82 72 83 51 84 52 85 60 86 53 87 59 88 61 89
REMARK SMILES IDX 58 90 54 91 55 92 56 93 57 94
REMARK H PARENT 18 6 3 11 15 18 15 19 22 28 81 47 49 58
REMARK Flexibility Score: inf
ROOT
ATOM      1  C   UNL     1      -1.597   1.930   2.242  1.00  0.00     0.042 C 
ENDROOT
BRANCH   1   2
ATOM      2  C   UNL     1      -0.648   1.147   1.302  1.00  0.00     0.117 C 
BRANCH   2   3
ATOM      3  N   UNL     1      -1.267   0.475   0.176  1.00  0.00    -0.354 N 
ATOM      4  C   UNL     1      -0.899  -0.627  -0.535  1.00  0.00     0.242 C 
ATOM      5  O   UNL     1      -1.630  -0.937  -1.484  1.00  0.00    -0.273 OA
ATOM      6  H   UNL     1      -2.105   0.890  -0.129  1.00  0.00     0.163 HD
BRANCH   4   7
ATOM      7  C   UNL     1       0.401  -1.430  -0.283  1.00  0.00     0.168 C 
ATOM      8  C   UNL     1       1.592  -0.503  -0.560  1.00  0.00     0.041 C 
BRANCH   7   9
ATOM      9  N   UNL     1       0.639  -2.166   0.972  1.00  0.00    -0.339 N 
ATOM     10  C   UNL     1       0.167  -3.425   1.260  1.00  0.00     0.278 C 
ATOM     11  H   UNL     1       1.182  -1.720   1.662  1.00  0.00     0.164 HD
ATOM     12  O   UNL     1       0.993  -4.346   1.256  1.00  0.00    -0.268 OA
BRANCH  10  13
ATOM     13  C   UNL     1      -1.278  -3.671   1.791  1.00  0.00     0.272 C 
ATOM     14  C   UNL     1      -2.175  -2.459   1.892  1.00  0.00     0.076 C 
ATOM     15  N   UNL     1      -1.233  -4.369   3.118  1.00  0.00    -0.333 N 
ATOM     16  C   UNL     1      -1.632  -1.552   2.974  1.00  0.00     0.016 C 
ATOM     17  C   UNL     1      -0.970  -3.529   4.314  1.00  0.00     0.186 C 
ATOM     18  H   UNL     1      -0.498  -5.074   3.069  1.00  0.00     0.347 HD
ATOM     19  H   UNL     1      -2.174  -4.737   3.255  1.00  0.00     0.347 HD
ATOM     20  C   UNL     1      -1.778  -2.218   4.325  1.00  0.00     0.048 C 
ATOM     21  C   UNL     1       0.542  -3.330   4.545  1.00  0.00     0.065 C 
ATOM     22  C   UNL     1      -1.359  -1.254   5.443  1.00  0.00     0.010 C 
ATOM     23  C   UNL     1       0.912  -2.281   5.594  1.00  0.00     0.006 C 
ATOM     24  C   UNL     1       0.137  -0.981   5.446  1.00  0.00     0.001 C 
ENDBRANCH  10  13
ENDBRANCH   7   9
ENDBRANCH   4   7
ENDBRANCH   2   3
ENDBRANCH   1   2
BRANCH   1  25
ATOM     25  C   UNL     1      -3.124   1.785   2.089  1.00  0.00     0.118 C 
BRANCH  25  26
ATOM     26  N   UNL     1      -3.787   0.941   3.088  1.00  0.00    -0.352 N 
ATOM     27  C   UNL     1      -4.271   1.220   4.347  1.00  0.00     0.251 C 
ATOM     28  H   UNL     1      -3.908   0.005   2.808  1.00  0.00     0.163 HD
ATOM     29  O   UNL     1      -4.520   0.321   5.133  1.00  0.00    -0.269 OA
BRANCH  27  30
ATOM     30  C   UNL     1      -4.526   2.622   4.712  1.00  0.00     0.039 A 
ATOM     31  C   UNL     1      -4.184   3.111   5.975  1.00  0.00     0.014 A 
ATOM     32  C   UNL     1      -5.155   3.440   3.778  1.00  0.00     0.014 A 
ATOM     33  C   UNL     1      -4.393   4.462   6.260  1.00  0.00     0.010 A 
ATOM     34  C   UNL     1      -5.255   4.794   4.016  1.00  0.00     0.010 A 
ATOM     35  C   UNL     1      -4.886   5.318   5.263  1.00  0.00    -0.014 A 
BRANCH  35  36
ATOM     36  C   UNL     1      -5.075   6.773   5.460  1.00  0.00     0.031 A 
ATOM     37  C   UNL     1      -6.450   7.352   5.262  1.00  0.00     0.074 A 
ATOM     38  C   UNL     1      -3.999   7.563   5.626  1.00  0.00     0.049 A 
ATOM     39  N   UNL     1      -6.811   8.593   5.081  1.00  0.00    -0.248 NA
ATOM     40  C   UNL     1      -7.556   6.383   5.179  1.00  0.00     0.031 C 
ATOM     41  C   UNL     1      -2.617   7.097   5.771  1.00  0.00     0.029 A 
ATOM     42  N   UNL     1      -3.893   8.928   5.665  1.00  0.00    -0.354 N 
ATOM     43  C   UNL     1      -8.176   8.550   4.811  1.00  0.00     0.074 A 
ATOM     44  C   UNL     1      -8.557   7.154   4.787  1.00  0.00     0.031 C 
ATOM     45  C   UNL     1      -1.805   8.159   5.895  1.00  0.00     0.029 A 
ATOM     46  C   UNL     1      -2.598   9.377   5.783  1.00  0.00     0.049 A 
ATOM     47  H   UNL     1      -4.670   9.531   5.612  1.00  0.00     0.167 HD
ATOM     48  C   UNL     1      -9.030   9.585   4.620  1.00  0.00     0.034 A 
ATOM     49  C   UNL     1      -2.112  10.632   5.779  1.00  0.00     0.034 A 
ATOM     50  C   UNL     1      -8.615  10.964   4.698  1.00  0.00     0.049 A 
ATOM     51  C   UNL     1      -3.086  11.771   5.622  1.00  0.00     0.074 A 
ATOM     52  C   UNL     1      -9.385  12.108   4.597  1.00  0.00     0.029 A 
ATOM     53  N   UNL     1      -7.306  11.383   4.911  1.00  0.00    -0.354 N 
ATOM     54  N   UNL     1      -4.380  11.724   5.401  1.00  0.00    -0.248 NA
ATOM     55  C   UNL     1      -2.539  13.128   5.727  1.00  0.00     0.031 C 
ATOM     56  C   UNL     1      -8.536  13.216   4.702  1.00  0.00     0.029 A 
ATOM     57  C   UNL     1      -7.245  12.766   4.936  1.00  0.00     0.049 A 
ATOM     58  H   UNL     1      -6.534  10.783   5.027  1.00  0.00     0.167 HD
ATOM     59  C   UNL     1      -4.809  13.047   5.376  1.00  0.00     0.074 A 
ATOM     60  C   UNL     1      -3.635  13.865   5.613  1.00  0.00     0.031 C 
ATOM     61  C   UNL     1      -6.056  13.547   5.178  1.00  0.00     0.034 A 
BRANCH  48  62
ATOM     62  C   UNL     1     -10.469   9.253   4.298  1.00  0.00     0.023 A 
ATOM     63  C   UNL     1     -11.271   8.508   5.181  1.00  0.00     0.031 A 
ATOM     64  C   UNL     1     -11.035   9.638   3.069  1.00  0.00     0.131 A 
ATOM     65  C   UNL     1     -12.549   8.086   4.785  1.00  0.00     0.055 A 
ATOM     66  C   UNL     1     -12.344   9.295   2.720  1.00  0.00     0.041 A 
ATOM     67  F   UNL     1     -10.317  10.333   2.173  1.00  0.00    -0.206 F 
ATOM     68  C   UNL     1     -13.102   8.497   3.572  1.00  0.00     0.022 A 
BRANCH  65  69
ATOM     69  S   UNL     1     -13.407   6.859   5.809  1.00  0.00     0.124 S 
ATOM     70  O   UNL     1     -12.477   5.733   5.757  1.00  0.00    -0.237 OA
ATOM     71  O   UNL     1     -13.516   7.539   7.093  1.00  0.00    -0.237 OA
ATOM     72  O   UNL     1     -14.670   6.648   5.104  1.00  0.00    -0.744 OA
ENDBRANCH  65  69
ENDBRANCH  48  62
BRANCH  49  73
ATOM     73  C   UNL     1      -0.651  10.877   5.942  1.00  0.00     0.023 A 
ATOM     74  C   UNL     1      -0.158  11.510   7.093  1.00  0.00     0.031 A 
ATOM     75  C   UNL     1       0.272  10.492   4.955  1.00  0.00     0.131 A 
ATOM     76  C   UNL     1       1.214  11.779   7.212  1.00  0.00     0.055 A 
ATOM     77  C   UNL     1       1.643  10.719   5.099  1.00  0.00     0.041 A 
ATOM     78  F   UNL     1      -0.144   9.867   3.841  1.00  0.00    -0.206 F 
ATOM     79  C   UNL     1       2.120  11.378   6.228  1.00  0.00     0.022 A 
BRANCH  76  80
ATOM     80  S   UNL     1       1.789  12.729   8.646  1.00  0.00     0.124 S 
ATOM     81  O   UNL     1       0.997  13.948   8.532  1.00  0.00    -0.237 OA
ATOM     82  O   UNL     1       1.446  11.841   9.752  1.00  0.00    -0.237 OA
ATOM     83  O   UNL     1       3.220  12.887   8.397  1.00  0.00    -0.744 OA
ENDBRANCH  76  80
ENDBRANCH  49  73
BRANCH  61  84
ATOM     84  C   UNL     1      -6.208  15.042   5.272  1.00  0.00     0.023 A 
ATOM     85  C   UNL     1      -5.664  15.901   4.304  1.00  0.00     0.031 A 
ATOM     86  C   UNL     1      -6.909  15.609   6.351  1.00  0.00     0.131 A 
ATOM     87  C   UNL     1      -5.785  17.289   4.460  1.00  0.00     0.055 A 
ATOM     88  C   UNL     1      -7.075  16.988   6.471  1.00  0.00     0.041 A 
ATOM     89  F   UNL     1      -7.447  14.829   7.302  1.00  0.00    -0.206 F 
ATOM     90  C   UNL     1      -6.502  17.837   5.529  1.00  0.00     0.022 A 
BRANCH  87  91
ATOM     91  S   UNL     1      -4.923  18.372   3.291  1.00  0.00     0.124 S 
ATOM     92  O   UNL     1      -3.533  17.970   3.474  1.00  0.00    -0.237 OA
ATOM     93  O   UNL     1      -5.531  18.002   2.016  1.00  0.00    -0.237 OA
ATOM     94  O   UNL     1      -5.249  19.716   3.764  1.00  0.00    -0.744 OA
ENDBRANCH  87  91
ENDBRANCH  61  84
ENDBRANCH  35  36
ENDBRANCH  27  30
ENDBRANCH  25  26
ENDBRANCH   1  25
TORSDOF 15
