REMARK SMILES O=C(NCCCNC(=O)C1(C/C=C/c2ccccc2)Cc2ccccc2C1)c1ccc(-c2c3nc(c(-c4cc(S(=O)(=O)[O-])ccc4F)c4ccc([nH]4)c(-c4cc(S(=O)(=O)[O-])ccc4F)c4nc(c(-c5cc(S(=O)(=O)[O-])ccc5F)c5ccc2[nH]5)C=C4)C=C3)cc1
REMARK SMILES IDX 5 1 4 2 3 3 1 4 2 5 28 7 29 8 90 9 30 10 89 11 31 12 32 13
REMARK SMILES IDX 33 14 83 15 34 16 88 17 82 18 84 19 35 20 87 21 81 22 80 23
REMARK SMILES IDX 36 25 68 26 48 27 67 28 49 29 52 30 66 31 85 32 50 33 51 34
REMARK SMILES IDX 65 36 86 37 53 38 37 39 38 40 46 41 39 42 45 43 47 44 44 45
REMARK SMILES IDX 40 46 41 47 42 48 43 49 69 50 70 51 78 52 71 53 77 54 79 55
REMARK SMILES IDX 76 56 72 57 73 58 74 59 75 60 54 61 55 62 63 63 56 64 62 65
REMARK SMILES IDX 64 66 61 67 57 68 58 69 59 70 60 71 6 72 7 73 8 74 9 76
REMARK SMILES IDX 10 77 20 78 27 79 21 80 26 81 22 82 25 83 23 84 24 85 11 86
REMARK SMILES IDX 12 87 13 88 14 89 15 90 19 91 16 92 18 93 17 94
REMARK H PARENT 3 6 84 24 52 35 7 75
REMARK Flexibility Score: inf
ROOT
ATOM      1  C   UNL     1       5.255   2.547  -0.375  1.00  0.00     0.042 C 
ENDROOT
BRANCH   1   2
ATOM      2  C   UNL     1       4.682   1.377   0.408  1.00  0.00     0.118 C 
BRANCH   2   3
ATOM      3  N   UNL     1       3.253   1.146   0.300  1.00  0.00    -0.352 N 
ATOM      4  O   UNL     1       1.313   0.020   0.417  1.00  0.00    -0.269 OA
ATOM      5  C   UNL     1       2.542  -0.023   0.472  1.00  0.00     0.251 C 
ATOM      6  H   UNL     1       2.714   1.937   0.071  1.00  0.00     0.163 HD
BRANCH   5   7
ATOM      7  C   UNL     1       3.228  -1.328   0.672  1.00  0.00     0.039 A 
ATOM      8  C   UNL     1       4.430  -1.448   1.370  1.00  0.00     0.014 A 
ATOM      9  C   UNL     1       2.641  -2.480   0.130  1.00  0.00     0.014 A 
ATOM     10  C   UNL     1       5.127  -2.650   1.369  1.00  0.00     0.010 A 
ATOM     11  C   UNL     1       3.293  -3.716   0.212  1.00  0.00     0.010 A 
ATOM     12  C   UNL     1       4.558  -3.800   0.807  1.00  0.00    -0.014 A 
BRANCH  12  13
ATOM     13  C   UNL     1       5.263  -5.091   0.982  1.00  0.00     0.031 A 
ATOM     14  C   UNL     1       5.898  -5.802  -0.176  1.00  0.00     0.074 A 
ATOM     15  C   UNL     1       5.371  -5.574   2.234  1.00  0.00     0.049 A 
ATOM     16  N   UNL     1       6.621  -6.892  -0.171  1.00  0.00    -0.248 NA
ATOM     17  C   UNL     1       5.694  -5.220  -1.510  1.00  0.00     0.031 C 
ATOM     18  C   UNL     1       4.784  -4.949   3.424  1.00  0.00     0.029 A 
ATOM     19  N   UNL     1       6.024  -6.672   2.726  1.00  0.00    -0.354 N 
ATOM     20  C   UNL     1       6.963  -7.132  -1.497  1.00  0.00     0.074 A 
ATOM     21  C   UNL     1       6.338  -6.087  -2.283  1.00  0.00     0.031 C 
ATOM     22  C   UNL     1       5.142  -5.646   4.510  1.00  0.00     0.029 A 
ATOM     23  C   UNL     1       5.926  -6.801   4.091  1.00  0.00     0.049 A 
ATOM     24  H   UNL     1       6.516  -7.308   2.157  1.00  0.00     0.167 HD
ATOM     25  C   UNL     1       7.730  -8.131  -2.001  1.00  0.00     0.034 A 
ATOM     26  C   UNL     1       6.399  -7.753   4.915  1.00  0.00     0.034 A 
ATOM     27  C   UNL     1       8.328  -9.169  -1.191  1.00  0.00     0.049 A 
ATOM     28  C   UNL     1       7.208  -8.870   4.323  1.00  0.00     0.074 A 
ATOM     29  C   UNL     1       9.148 -10.211  -1.590  1.00  0.00     0.029 A 
ATOM     30  N   UNL     1       8.159  -9.306   0.182  1.00  0.00    -0.354 N 
ATOM     31  N   UNL     1       7.546  -9.067   3.068  1.00  0.00    -0.248 NA
ATOM     32  C   UNL     1       7.705  -9.888   5.253  1.00  0.00     0.031 C 
ATOM     33  C   UNL     1       9.415 -11.014  -0.474  1.00  0.00     0.029 A 
ATOM     34  C   UNL     1       8.825 -10.435   0.638  1.00  0.00     0.049 A 
ATOM     35  H   UNL     1       7.640  -8.691   0.750  1.00  0.00     0.167 HD
ATOM     36  C   UNL     1       8.306 -10.230   3.061  1.00  0.00     0.074 A 
ATOM     37  C   UNL     1       8.399 -10.671   4.440  1.00  0.00     0.031 C 
ATOM     38  C   UNL     1       8.876 -10.877   2.012  1.00  0.00     0.034 A 
BRANCH  25  39
ATOM     39  C   UNL     1       7.928  -8.177  -3.498  1.00  0.00     0.023 A 
ATOM     40  C   UNL     1       8.637  -7.177  -4.186  1.00  0.00     0.031 A 
ATOM     41  C   UNL     1       7.402  -9.244  -4.249  1.00  0.00     0.131 A 
ATOM     42  C   UNL     1       8.758  -7.238  -5.584  1.00  0.00     0.055 A 
ATOM     43  C   UNL     1       7.582  -9.333  -5.631  1.00  0.00     0.041 A 
ATOM     44  F   UNL     1       6.699 -10.219  -3.651  1.00  0.00    -0.206 F 
ATOM     45  C   UNL     1       8.255  -8.321  -6.309  1.00  0.00     0.022 A 
BRANCH  42  46
ATOM     46  S   UNL     1       9.486  -5.824  -6.457  1.00  0.00     0.124 S 
ATOM     47  O   UNL     1       8.611  -4.732  -6.037  1.00  0.00    -0.237 OA
ATOM     48  O   UNL     1      10.845  -5.792  -5.928  1.00  0.00    -0.237 OA
ATOM     49  O   UNL     1       9.374  -6.195  -7.866  1.00  0.00    -0.744 OA
ENDBRANCH  42  46
ENDBRANCH  25  39
BRANCH  26  50
ATOM     50  C   UNL     1       6.089  -7.698   6.370  1.00  0.00     0.023 A 
ATOM     51  C   UNL     1       7.100  -7.518   7.325  1.00  0.00     0.031 A 
ATOM     52  C   UNL     1       4.763  -7.826   6.825  1.00  0.00     0.131 A 
ATOM     53  C   UNL     1       6.773  -7.499   8.690  1.00  0.00     0.055 A 
ATOM     54  C   UNL     1       4.438  -7.755   8.179  1.00  0.00     0.041 A 
ATOM     55  F   UNL     1       3.758  -7.992   5.950  1.00  0.00    -0.206 F 
ATOM     56  C   UNL     1       5.448  -7.602   9.122  1.00  0.00     0.022 A 
BRANCH  53  57
ATOM     57  S   UNL     1       8.118  -7.404   9.902  1.00  0.00     0.124 S 
ATOM     58  O   UNL     1       8.930  -8.560   9.539  1.00  0.00    -0.237 OA
ATOM     59  O   UNL     1       8.695  -6.097   9.611  1.00  0.00    -0.237 OA
ATOM     60  O   UNL     1       7.426  -7.506  11.185  1.00  0.00    -0.744 OA
ENDBRANCH  53  57
ENDBRANCH  26  50
BRANCH  38  61
ATOM     61  C   UNL     1       9.659 -12.121   2.343  1.00  0.00     0.023 A 
ATOM     62  C   UNL     1       9.025 -13.278   2.829  1.00  0.00     0.031 A 
ATOM     63  C   UNL     1      11.059 -12.134   2.216  1.00  0.00     0.131 A 
ATOM     64  C   UNL     1       9.796 -14.377   3.236  1.00  0.00     0.055 A 
ATOM     65  C   UNL     1      11.816 -13.254   2.565  1.00  0.00     0.041 A 
ATOM     66  F   UNL     1      11.714 -11.055   1.760  1.00  0.00    -0.206 F 
ATOM     67  C   UNL     1      11.186 -14.377   3.093  1.00  0.00     0.022 A 
BRANCH  64  68
ATOM     68  S   UNL     1       8.964 -15.765   4.055  1.00  0.00     0.124 S 
ATOM     69  O   UNL     1       8.348 -15.113   5.205  1.00  0.00    -0.237 OA
ATOM     70  O   UNL     1       8.047 -16.234   3.021  1.00  0.00    -0.237 OA
ATOM     71  O   UNL     1      10.058 -16.680   4.373  1.00  0.00    -0.744 OA
ENDBRANCH  64  68
ENDBRANCH  38  61
ENDBRANCH  12  13
ENDBRANCH   5   7
ENDBRANCH   2   3
ENDBRANCH   1   2
BRANCH   1  72
ATOM     72  C   UNL     1       4.446   3.828  -0.286  1.00  0.00     0.117 C 
BRANCH  72  73
ATOM     73  N   UNL     1       5.301   4.987  -0.190  1.00  0.00    -0.356 N 
ATOM     74  C   UNL     1       6.022   5.732  -1.044  1.00  0.00     0.227 C 
ATOM     75  H   UNL     1       5.374   5.314   0.736  1.00  0.00     0.163 HD
ATOM     76  O   UNL     1       6.704   6.587  -0.456  1.00  0.00    -0.274 OA
BRANCH  74  77
ATOM     77  C   UNL     1       6.141   5.571  -2.577  1.00  0.00     0.061 C 
ATOM     78  C   UNL     1       6.341   7.053  -3.112  1.00  0.00     0.053 C 
ATOM     79  C   UNL     1       7.505   4.882  -2.897  1.00  0.00     0.053 C 
ATOM     80  C   UNL     1       7.379   6.896  -4.175  1.00  0.00    -0.044 A 
ATOM     81  C   UNL     1       8.021   5.663  -4.070  1.00  0.00    -0.044 A 
ATOM     82  C   UNL     1       7.753   7.829  -5.127  1.00  0.00     0.004 A 
ATOM     83  C   UNL     1       9.044   5.325  -4.941  1.00  0.00     0.004 A 
ATOM     84  C   UNL     1       8.780   7.497  -6.010  1.00  0.00     0.000 A 
ATOM     85  C   UNL     1       9.416   6.249  -5.921  1.00  0.00     0.000 A 
BRANCH  77  86
ATOM     86  C   UNL     1       4.934   4.996  -3.395  1.00  0.00     0.045 C 
BRANCH  86  87
ATOM     87  C   UNL     1       4.781   3.503  -3.578  1.00  0.00    -0.025 C 
ATOM     88  C   UNL     1       3.601   2.860  -3.493  1.00  0.00     0.004 C 
BRANCH  88  89
ATOM     89  C   UNL     1       3.392   1.396  -3.488  1.00  0.00    -0.026 A 
ATOM     90  C   UNL     1       2.077   0.918  -3.374  1.00  0.00     0.008 A 
ATOM     91  C   UNL     1       4.436   0.459  -3.473  1.00  0.00     0.008 A 
ATOM     92  C   UNL     1       1.815  -0.448  -3.234  1.00  0.00     0.001 A 
ATOM     93  C   UNL     1       4.175  -0.908  -3.329  1.00  0.00     0.001 A 
ATOM     94  C   UNL     1       2.865  -1.360  -3.210  1.00  0.00     0.000 A 
ENDBRANCH  88  89
ENDBRANCH  86  87
ENDBRANCH  77  86
ENDBRANCH  74  77
ENDBRANCH  72  73
ENDBRANCH   1  72
TORSDOF 16
