REMARK SMILES CS(=O)(=O)CC[C@H](NC(=O)Cc1ccn[nH]1)C(=O)NCCCNC(=O)c1ccc(-c2c3nc(c(-c4cc(S(=O)(=O)[O-])ccc4F)c4ccc([nH]4)c(-c4cc(S(=O)(=O)[O-])ccc4F)c4nc(c(-c5cc(S(=O)(=O)[O-])ccc5F)c5ccc2[nH]5)C=C4)C=C3)cc1
REMARK SMILES IDX 21 1 20 2 19 3 17 4 18 5 7 7 6 8 5 9 2 10 1 11 3 12 4 13
REMARK SMILES IDX 8 14 9 15 10 17 11 18 12 19 13 20 16 21 14 22 15 23 22 25
REMARK SMILES IDX 23 26 24 27 25 29 26 30 27 31 88 32 28 33 87 34 29 35 30 36
REMARK SMILES IDX 31 37 81 38 32 39 86 40 80 41 82 42 33 43 85 44 79 45 78 46
REMARK SMILES IDX 34 48 66 49 46 50 65 51 47 52 50 53 64 54 83 55 48 56 49 57
REMARK SMILES IDX 63 59 84 60 51 61 35 62 36 63 44 64 37 65 43 66 45 67 42 68
REMARK SMILES IDX 38 69 39 70 40 71 41 72 67 73 68 74 76 75 69 76 75 77 77 78
REMARK SMILES IDX 74 79 70 80 71 81 72 82 73 83 52 84 53 85 61 86 54 87 60 88
REMARK SMILES IDX 62 89 59 90 55 91 56 92 57 93 58 94
REMARK H PARENT 19 6 8 16 16 24 23 28 82 47 50 58
REMARK Flexibility Score: inf
ROOT
ATOM      1  C   UNL     1       0.970  -3.615   5.688  1.00  0.00     0.042 C 
ENDROOT
BRANCH   1   2
ATOM      2  C   UNL     1       1.579  -3.673   4.297  1.00  0.00     0.117 C 
BRANCH   2   3
ATOM      3  N   UNL     1       0.586  -4.047   3.297  1.00  0.00    -0.354 N 
ATOM      4  C   UNL     1       0.158  -3.392   2.181  1.00  0.00     0.242 C 
ATOM      5  O   UNL     1      -0.634  -3.970   1.434  1.00  0.00    -0.273 OA
ATOM      6  H   UNL     1       0.153  -4.917   3.454  1.00  0.00     0.163 HD
BRANCH   4   7
ATOM      7  C   UNL     1       0.805  -2.065   1.755  1.00  0.00     0.172 C 
BRANCH   7   8
ATOM      8  C   UNL     1       2.247  -2.333   1.298  1.00  0.00     0.051 C 
BRANCH   8   9
ATOM      9  C   UNL     1       2.520  -3.572   0.446  1.00  0.00     0.139 C 
BRANCH   9  10
ATOM     10  S   UNL     1       2.192  -3.369  -1.297  1.00  0.00     0.147 S 
ATOM     11  C   UNL     1       0.435  -3.535  -1.465  1.00  0.00     0.158 C 
ATOM     12  O   UNL     1       2.793  -4.503  -1.977  1.00  0.00    -0.229 OA
ATOM     13  O   UNL     1       2.542  -2.015  -1.680  1.00  0.00    -0.229 OA
ENDBRANCH   9  10
ENDBRANCH   8   9
ENDBRANCH   7   8
BRANCH   7  14
ATOM     14  N   UNL     1       0.660  -1.113   2.867  1.00  0.00    -0.344 N 
ATOM     15  C   UNL     1       1.006   0.196   3.013  1.00  0.00     0.226 C 
ATOM     16  H   UNL     1       0.228  -1.498   3.663  1.00  0.00     0.164 HD
ATOM     17  O   UNL     1       0.657   0.764   4.050  1.00  0.00    -0.275 OA
BRANCH  15  18
ATOM     18  C   UNL     1       1.802   0.924   1.949  1.00  0.00     0.155 C 
BRANCH  18  19
ATOM     19  C   UNL     1       3.254   0.582   2.014  1.00  0.00     0.044 A 
ATOM     20  C   UNL     1       4.042  -0.017   2.976  1.00  0.00     0.045 A 
ATOM     21  N   UNL     1       4.081   0.774   0.936  1.00  0.00    -0.282 N 
ATOM     22  C   UNL     1       5.269  -0.262   2.334  1.00  0.00     0.135 A 
ATOM     23  N   UNL     1       5.294   0.221   1.092  1.00  0.00    -0.184 NA
ATOM     24  H   UNL     1       3.811   1.268   0.129  1.00  0.00     0.190 HD
ENDBRANCH  18  19
ENDBRANCH  15  18
ENDBRANCH   7  14
ENDBRANCH   4   7
ENDBRANCH   2   3
ENDBRANCH   1   2
BRANCH   1  25
ATOM     25  C   UNL     1       0.486  -4.968   6.187  1.00  0.00     0.118 C 
BRANCH  25  26
ATOM     26  N   UNL     1       1.572  -5.923   6.354  1.00  0.00    -0.352 N 
ATOM     27  C   UNL     1       1.945  -6.623   7.477  1.00  0.00     0.251 C 
ATOM     28  H   UNL     1       2.115  -6.092   5.551  1.00  0.00     0.163 HD
ATOM     29  O   UNL     1       3.010  -7.232   7.486  1.00  0.00    -0.269 OA
BRANCH  27  30
ATOM     30  C   UNL     1       1.071  -6.605   8.669  1.00  0.00     0.039 A 
ATOM     31  C   UNL     1       1.643  -6.418   9.928  1.00  0.00     0.014 A 
ATOM     32  C   UNL     1      -0.314  -6.742   8.536  1.00  0.00     0.014 A 
ATOM     33  C   UNL     1       0.816  -6.295  11.046  1.00  0.00     0.010 A 
ATOM     34  C   UNL     1      -1.137  -6.519   9.633  1.00  0.00     0.010 A 
ATOM     35  C   UNL     1      -0.582  -6.300  10.902  1.00  0.00    -0.014 A 
BRANCH  35  36
ATOM     36  C   UNL     1      -1.479  -6.091  12.068  1.00  0.00     0.031 A 
ATOM     37  C   UNL     1      -2.449  -7.169  12.473  1.00  0.00     0.074 A 
ATOM     38  C   UNL     1      -1.461  -4.912  12.722  1.00  0.00     0.049 A 
ATOM     39  N   UNL     1      -3.359  -7.154  13.412  1.00  0.00    -0.248 NA
ATOM     40  C   UNL     1      -2.412  -8.417  11.695  1.00  0.00     0.031 C 
ATOM     41  C   UNL     1      -0.596  -3.776  12.393  1.00  0.00     0.029 A 
ATOM     42  N   UNL     1      -2.192  -4.469  13.796  1.00  0.00    -0.354 N 
ATOM     43  C   UNL     1      -4.009  -8.381  13.331  1.00  0.00     0.074 A 
ATOM     44  C   UNL     1      -3.436  -9.084  12.204  1.00  0.00     0.031 C 
ATOM     45  C   UNL     1      -0.823  -2.783  13.267  1.00  0.00     0.029 A 
ATOM     46  C   UNL     1      -1.885  -3.184  14.183  1.00  0.00     0.049 A 
ATOM     47  H   UNL     1      -2.874  -5.018  14.246  1.00  0.00     0.167 HD
ATOM     48  C   UNL     1      -4.974  -8.884  14.138  1.00  0.00     0.034 A 
ATOM     49  C   UNL     1      -2.410  -2.412  15.156  1.00  0.00     0.034 A 
ATOM     50  C   UNL     1      -5.525  -8.171  15.265  1.00  0.00     0.049 A 
ATOM     51  C   UNL     1      -3.506  -2.983  16.021  1.00  0.00     0.074 A 
ATOM     52  C   UNL     1      -6.465  -8.606  16.182  1.00  0.00     0.029 A 
ATOM     53  N   UNL     1      -5.194  -6.870  15.623  1.00  0.00    -0.354 N 
ATOM     54  N   UNL     1      -4.071  -4.168  15.966  1.00  0.00    -0.248 NA
ATOM     55  C   UNL     1      -4.028  -2.117  17.085  1.00  0.00     0.031 C 
ATOM     56  C   UNL     1      -6.762  -7.544  17.042  1.00  0.00     0.029 A 
ATOM     57  C   UNL     1      -5.939  -6.475  16.723  1.00  0.00     0.049 A 
ATOM     58  H   UNL     1      -4.527  -6.311  15.163  1.00  0.00     0.167 HD
ATOM     59  C   UNL     1      -4.990  -4.199  17.012  1.00  0.00     0.074 A 
ATOM     60  C   UNL     1      -4.889  -2.922  17.688  1.00  0.00     0.031 C 
ATOM     61  C   UNL     1      -5.837  -5.194  17.383  1.00  0.00     0.034 A 
BRANCH  48  62
ATOM     62  C   UNL     1      -5.510 -10.259  13.811  1.00  0.00     0.023 A 
ATOM     63  C   UNL     1      -4.684 -11.398  13.821  1.00  0.00     0.031 A 
ATOM     64  C   UNL     1      -6.861 -10.433  13.461  1.00  0.00     0.131 A 
ATOM     65  C   UNL     1      -5.195 -12.639  13.413  1.00  0.00     0.055 A 
ATOM     66  C   UNL     1      -7.385 -11.687  13.143  1.00  0.00     0.041 A 
ATOM     67  F   UNL     1      -7.694  -9.382  13.409  1.00  0.00    -0.206 F 
ATOM     68  C   UNL     1      -6.547 -12.798  13.102  1.00  0.00     0.022 A 
BRANCH  65  69
ATOM     69  S   UNL     1      -4.034 -14.006  13.145  1.00  0.00     0.124 S 
ATOM     70  O   UNL     1      -3.136 -13.437  12.142  1.00  0.00    -0.237 OA
ATOM     71  O   UNL     1      -3.466 -14.203  14.473  1.00  0.00    -0.237 OA
ATOM     72  O   UNL     1      -4.887 -15.091  12.662  1.00  0.00    -0.744 OA
ENDBRANCH  65  69
ENDBRANCH  48  62
BRANCH  49  73
ATOM     73  C   UNL     1      -1.923  -1.017  15.362  1.00  0.00     0.023 A 
ATOM     74  C   UNL     1      -1.308  -0.634  16.565  1.00  0.00     0.031 A 
ATOM     75  C   UNL     1      -2.110  -0.030  14.377  1.00  0.00     0.131 A 
ATOM     76  C   UNL     1      -0.952   0.708  16.773  1.00  0.00     0.055 A 
ATOM     77  C   UNL     1      -1.697   1.290  14.565  1.00  0.00     0.041 A 
ATOM     78  F   UNL     1      -2.691  -0.341  13.207  1.00  0.00    -0.206 F 
ATOM     79  C   UNL     1      -1.127   1.669  15.776  1.00  0.00     0.022 A 
BRANCH  76  80
ATOM     80  S   UNL     1      -0.347   1.201  18.411  1.00  0.00     0.124 S 
ATOM     81  O   UNL     1      -1.452   0.792  19.270  1.00  0.00    -0.237 OA
ATOM     82  O   UNL     1       0.880   0.420  18.528  1.00  0.00    -0.237 OA
ATOM     83  O   UNL     1      -0.155   2.644  18.283  1.00  0.00    -0.744 OA
ENDBRANCH  76  80
ENDBRANCH  49  73
BRANCH  61  84
ATOM     84  C   UNL     1      -6.685  -4.953  18.609  1.00  0.00     0.023 A 
ATOM     85  C   UNL     1      -7.677  -3.958  18.643  1.00  0.00     0.031 A 
ATOM     86  C   UNL     1      -6.489  -5.729  19.765  1.00  0.00     0.131 A 
ATOM     87  C   UNL     1      -8.392  -3.724  19.827  1.00  0.00     0.055 A 
ATOM     88  C   UNL     1      -7.252  -5.539  20.918  1.00  0.00     0.041 A 
ATOM     89  F   UNL     1      -5.553  -6.691  19.793  1.00  0.00    -0.206 F 
ATOM     90  C   UNL     1      -8.200  -4.522  20.958  1.00  0.00     0.022 A 
BRANCH  87  91
ATOM     91  S   UNL     1      -9.502  -2.292  19.905  1.00  0.00     0.124 S 
ATOM     92  O   UNL     1      -8.596  -1.189  19.602  1.00  0.00    -0.237 OA
ATOM     93  O   UNL     1     -10.490  -2.607  18.878  1.00  0.00    -0.237 OA
ATOM     94  O   UNL     1     -10.005  -2.322  21.277  1.00  0.00    -0.744 OA
ENDBRANCH  87  91
ENDBRANCH  61  84
ENDBRANCH  35  36
ENDBRANCH  27  30
ENDBRANCH  25  26
ENDBRANCH   1  25
TORSDOF 19
