REMARK SMILES Cc1ccccc1C(=O)Nc1cc(NC(=O)c2ccccc2C)cc(C(=O)NCCCNC(=O)c2ccc(-c3c4nc(c(-c5cc(S(=O)(=O)[O-])ccc5F)c5ccc([nH]5)c(-c5cc(S(=O)(=O)[O-])ccc5F)c5nc(c(-c6cc(S(=O)(=O)[O-])ccc6F)c6ccc3[nH]6)C=C5)C=C4)cc2)c1
REMARK SMILES IDX 30 1 29 2 28 3 26 4 27 5 25 7 11 8 12 9 98 10 13 11 24 12
REMARK SMILES IDX 10 13 8 14 9 15 7 17 1 18 2 19 3 20 4 21 6 22 5 23 14 24
REMARK SMILES IDX 15 25 16 27 17 28 18 29 22 30 19 31 21 32 23 33 20 34 31 35
REMARK SMILES IDX 32 36 33 37 34 39 35 40 36 41 97 42 37 43 96 44 38 45 39 46
REMARK SMILES IDX 40 47 90 48 41 49 95 50 89 51 91 52 42 53 94 54 88 55 87 56
REMARK SMILES IDX 43 58 75 59 55 60 74 61 56 62 59 63 73 64 92 65 57 66 58 67
REMARK SMILES IDX 72 69 93 70 60 71 44 72 45 73 53 74 46 75 52 76 54 77 51 78
REMARK SMILES IDX 47 79 48 80 49 81 50 82 76 83 77 84 85 85 78 86 84 87 86 88
REMARK SMILES IDX 83 89 79 90 80 91 81 92 82 93 61 94 62 95 70 96 63 97 69 98
REMARK SMILES IDX 71 99 68 100 64 101 65 102 66 103 67 104
REMARK H PARENT 28 6 10 16 14 26 32 38 91 57 59 68
REMARK Flexibility Score: inf
ROOT
ATOM      1  C   UNL     1       6.915  -3.313   0.155  1.00  0.00     0.042 C 
ENDROOT
BRANCH   1   2
ATOM      2  C   UNL     1       6.300  -2.853   1.478  1.00  0.00     0.118 C 
BRANCH   2   3
ATOM      3  N   UNL     1       6.688  -1.485   1.806  1.00  0.00    -0.352 N 
ATOM      4  C   UNL     1       6.155  -0.263   1.486  1.00  0.00     0.251 C 
ATOM      5  O   UNL     1       6.658   0.746   1.982  1.00  0.00    -0.269 OA
ATOM      6  H   UNL     1       7.494  -1.428   2.369  1.00  0.00     0.163 HD
BRANCH   4   7
ATOM      7  C   UNL     1       4.972  -0.081   0.595  1.00  0.00     0.043 A 
ATOM      8  C   UNL     1       3.036   1.280   0.051  1.00  0.00     0.044 A 
ATOM      9  C   UNL     1       2.667   0.383  -0.956  1.00  0.00     0.052 A 
ATOM     10  C   UNL     1       4.229   1.094   0.756  1.00  0.00     0.040 A 
ATOM     11  C   UNL     1       3.431  -0.759  -1.172  1.00  0.00     0.044 A 
ATOM     12  C   UNL     1       4.551  -0.993  -0.371  1.00  0.00     0.040 A 
BRANCH   8  13
ATOM     13  N   UNL     1       2.211   2.327   0.487  1.00  0.00    -0.322 N 
ATOM     14  C   UNL     1       0.838   2.381   0.595  1.00  0.00     0.255 C 
ATOM     15  O   UNL     1       0.294   3.452   0.870  1.00  0.00    -0.269 OA
ATOM     16  H   UNL     1       2.684   3.148   0.756  1.00  0.00     0.170 HD
BRANCH  14  17
ATOM     17  C   UNL     1      -0.018   1.172   0.436  1.00  0.00     0.043 A 
ATOM     18  C   UNL     1       1.273  -0.340   2.090  1.00  0.00     0.045 C 
ATOM     19  C   UNL     1       0.196  -0.069   1.074  1.00  0.00    -0.038 A 
ATOM     20  C   UNL     1      -0.657  -1.142   0.758  1.00  0.00     0.004 A 
ATOM     21  C   UNL     1      -1.752  -0.969  -0.088  1.00  0.00     0.000 A 
ATOM     22  C   UNL     1      -1.149   1.343  -0.383  1.00  0.00     0.014 A 
ATOM     23  C   UNL     1      -2.015   0.281  -0.637  1.00  0.00     0.001 A 
ENDBRANCH  14  17
ENDBRANCH   8  13
BRANCH  11  24
ATOM     24  N   UNL     1       3.123  -1.759  -2.110  1.00  0.00    -0.322 N 
ATOM     25  C   UNL     1       2.416  -1.716  -3.285  1.00  0.00     0.255 C 
ATOM     26  H   UNL     1       3.478  -2.649  -1.884  1.00  0.00     0.170 HD
ATOM     27  O   UNL     1       2.049  -2.759  -3.825  1.00  0.00    -0.269 OA
BRANCH  25  28
ATOM     28  C   UNL     1       2.162  -0.435  -3.979  1.00  0.00     0.043 A 
ATOM     29  C   UNL     1       0.833  -0.195  -4.361  1.00  0.00     0.014 A 
ATOM     30  C   UNL     1       3.180   0.475  -4.327  1.00  0.00    -0.038 A 
ATOM     31  C   UNL     1       0.496   0.980  -5.028  1.00  0.00     0.001 A 
ATOM     32  C   UNL     1       2.813   1.668  -4.970  1.00  0.00     0.004 A 
ATOM     33  C   UNL     1       4.639   0.249  -4.041  1.00  0.00     0.045 C 
ATOM     34  C   UNL     1       1.483   1.917  -5.317  1.00  0.00     0.000 A 
ENDBRANCH  25  28
ENDBRANCH  11  24
ENDBRANCH   4   7
ENDBRANCH   2   3
ENDBRANCH   1   2
BRANCH   1  35
ATOM     35  C   UNL     1       8.242  -4.033   0.318  1.00  0.00     0.118 C 
BRANCH  35  36
ATOM     36  N   UNL     1       8.167  -5.458   0.011  1.00  0.00    -0.352 N 
ATOM     37  C   UNL     1       9.206  -6.378  -0.047  1.00  0.00     0.251 C 
ATOM     38  H   UNL     1       7.268  -5.811  -0.179  1.00  0.00     0.163 HD
ATOM     39  O   UNL     1       9.035  -7.535  -0.347  1.00  0.00    -0.269 OA
BRANCH  37  40
ATOM     40  C   UNL     1      10.533  -5.910   0.420  1.00  0.00     0.039 A 
ATOM     41  C   UNL     1      11.008  -6.481   1.605  1.00  0.00     0.014 A 
ATOM     42  C   UNL     1      11.090  -4.742  -0.095  1.00  0.00     0.014 A 
ATOM     43  C   UNL     1      11.879  -5.749   2.403  1.00  0.00     0.010 A 
ATOM     44  C   UNL     1      11.884  -3.977   0.739  1.00  0.00     0.010 A 
ATOM     45  C   UNL     1      12.213  -4.451   2.016  1.00  0.00    -0.014 A 
BRANCH  45  46
ATOM     46  C   UNL     1      12.773  -3.478   2.949  1.00  0.00     0.031 A 
ATOM     47  C   UNL     1      14.190  -3.076   2.851  1.00  0.00     0.074 A 
ATOM     48  C   UNL     1      11.995  -2.947   3.919  1.00  0.00     0.049 A 
ATOM     49  N   UNL     1      14.864  -2.561   3.822  1.00  0.00    -0.248 NA
ATOM     50  C   UNL     1      15.000  -3.328   1.663  1.00  0.00     0.031 C 
ATOM     51  C   UNL     1      12.303  -1.809   4.781  1.00  0.00     0.029 A 
ATOM     52  N   UNL     1      10.868  -3.527   4.500  1.00  0.00    -0.354 N 
ATOM     53  C   UNL     1      16.068  -2.136   3.317  1.00  0.00     0.074 A 
ATOM     54  C   UNL     1      16.161  -2.775   2.029  1.00  0.00     0.031 C 
ATOM     55  C   UNL     1      11.579  -1.908   5.906  1.00  0.00     0.029 A 
ATOM     56  C   UNL     1      10.882  -3.180   5.863  1.00  0.00     0.049 A 
ATOM     57  H   UNL     1      10.190  -4.076   4.042  1.00  0.00     0.167 HD
ATOM     58  C   UNL     1      16.762  -1.177   3.992  1.00  0.00     0.034 A 
ATOM     59  C   UNL     1      10.915  -4.133   6.839  1.00  0.00     0.034 A 
ATOM     60  C   UNL     1      16.247  -1.022   5.359  1.00  0.00     0.049 A 
ATOM     61  C   UNL     1      12.126  -4.037   7.738  1.00  0.00     0.074 A 
ATOM     62  C   UNL     1      15.506  -0.042   5.997  1.00  0.00     0.029 A 
ATOM     63  N   UNL     1      16.278  -2.113   6.227  1.00  0.00    -0.354 N 
ATOM     64  N   UNL     1      13.185  -3.325   7.464  1.00  0.00    -0.248 NA
ATOM     65  C   UNL     1      12.250  -4.750   9.005  1.00  0.00     0.031 C 
ATOM     66  C   UNL     1      15.014  -0.589   7.215  1.00  0.00     0.029 A 
ATOM     67  C   UNL     1      15.495  -1.882   7.342  1.00  0.00     0.049 A 
ATOM     68  H   UNL     1      16.790  -2.939   6.067  1.00  0.00     0.167 HD
ATOM     69  C   UNL     1      14.123  -3.490   8.452  1.00  0.00     0.074 A 
ATOM     70  C   UNL     1      13.473  -4.368   9.411  1.00  0.00     0.031 C 
ATOM     71  C   UNL     1      15.357  -2.902   8.379  1.00  0.00     0.034 A 
BRANCH  58  72
ATOM     72  C   UNL     1      17.753  -0.203   3.365  1.00  0.00     0.023 A 
ATOM     73  C   UNL     1      18.227   0.880   4.143  1.00  0.00     0.031 A 
ATOM     74  C   UNL     1      18.167  -0.176   2.013  1.00  0.00     0.131 A 
ATOM     75  C   UNL     1      19.012   1.911   3.582  1.00  0.00     0.055 A 
ATOM     76  C   UNL     1      18.980   0.826   1.467  1.00  0.00     0.041 A 
ATOM     77  F   UNL     1      17.783  -1.084   1.113  1.00  0.00    -0.206 F 
ATOM     78  C   UNL     1      19.399   1.884   2.247  1.00  0.00     0.022 A 
BRANCH  75  79
ATOM     79  S   UNL     1      19.472   3.342   4.598  1.00  0.00     0.124 S 
ATOM     80  O   UNL     1      18.170   3.906   4.940  1.00  0.00    -0.237 OA
ATOM     81  O   UNL     1      20.219   2.724   5.687  1.00  0.00    -0.237 OA
ATOM     82  O   UNL     1      20.274   4.160   3.688  1.00  0.00    -0.744 OA
ENDBRANCH  75  79
ENDBRANCH  58  72
BRANCH  59  83
ATOM     83  C   UNL     1      10.192  -5.381   6.463  1.00  0.00     0.023 A 
ATOM     84  C   UNL     1       8.827  -5.246   6.127  1.00  0.00     0.031 A 
ATOM     85  C   UNL     1      10.861  -6.535   6.040  1.00  0.00     0.131 A 
ATOM     86  C   UNL     1       8.225  -6.145   5.238  1.00  0.00     0.055 A 
ATOM     87  C   UNL     1      10.230  -7.475   5.212  1.00  0.00     0.041 A 
ATOM     88  F   UNL     1      12.164  -6.708   6.305  1.00  0.00    -0.206 F 
ATOM     89  C   UNL     1       8.925  -7.256   4.766  1.00  0.00     0.022 A 
BRANCH  86  90
ATOM     90  S   UNL     1       6.634  -5.698   4.478  1.00  0.00     0.124 S 
ATOM     91  O   UNL     1       5.685  -6.485   5.254  1.00  0.00    -0.237 OA
ATOM     92  O   UNL     1       6.566  -4.251   4.673  1.00  0.00    -0.237 OA
ATOM     93  O   UNL     1       6.801  -6.097   3.081  1.00  0.00    -0.744 OA
ENDBRANCH  86  90
ENDBRANCH  59  83
BRANCH  71  94
ATOM     94  C   UNL     1      16.525  -3.172   9.312  1.00  0.00     0.023 A 
ATOM     95  C   UNL     1      16.611  -4.291  10.155  1.00  0.00     0.031 A 
ATOM     96  C   UNL     1      17.657  -2.318   9.322  1.00  0.00     0.131 A 
ATOM     97  C   UNL     1      17.713  -4.482  11.012  1.00  0.00     0.055 A 
ATOM     98  C   UNL     1      18.786  -2.551  10.115  1.00  0.00     0.041 A 
ATOM     99  F   UNL     1      17.720  -1.220   8.555  1.00  0.00    -0.206 F 
ATOM    100  C   UNL     1      18.813  -3.631  10.982  1.00  0.00     0.022 A 
BRANCH  97 101
ATOM    101  S   UNL     1      17.646  -5.839  12.213  1.00  0.00     0.124 S 
ATOM    102  O   UNL     1      16.498  -5.459  13.031  1.00  0.00    -0.237 OA
ATOM    103  O   UNL     1      17.455  -7.006  11.358  1.00  0.00    -0.237 OA
ATOM    104  O   UNL     1      18.940  -5.768  12.889  1.00  0.00    -0.744 OA
ENDBRANCH  97 101
ENDBRANCH  71  94
ENDBRANCH  45  46
ENDBRANCH  37  40
ENDBRANCH  35  36
ENDBRANCH   1  35
TORSDOF 17
