REMARK SMILES [NH3+][C@@H](CC(=O)NCCCNC(=O)c1ccc(-c2c3nc(c(-c4cc(S(=O)(=O)[O-])ccc4F)c4ccc([nH]4)c(-c4cc(S(=O)(=O)[O-])ccc4F)c4nc(c(-c5cc(S(=O)(=O)[O-])ccc5F)c5ccc2[nH]5)C=C4)C=C3)cc1)c1ccc(C(F)(F)F)cc1F
REMARK SMILES IDX 8 1 7 2 6 3 4 4 5 5 3 7 2 8 1 9 76 13 77 14 85 15 78 16
REMARK SMILES IDX 84 17 86 18 79 19 80 20 81 21 82 22 83 23 9 24 10 25 11 26
REMARK SMILES IDX 12 28 13 29 14 30 75 31 15 32 74 33 16 34 17 35 18 36 68 37
REMARK SMILES IDX 19 38 73 39 67 40 69 41 20 42 72 43 66 44 65 45 21 47 53 48
REMARK SMILES IDX 33 49 52 50 34 51 37 52 51 53 70 54 35 55 36 56 50 58 71 59
REMARK SMILES IDX 38 60 22 61 23 62 31 63 24 64 30 65 32 66 29 67 25 68 26 69
REMARK SMILES IDX 27 70 28 71 54 72 55 73 63 74 56 75 62 76 64 77 61 78 57 79
REMARK SMILES IDX 58 80 59 81 60 82 39 83 40 84 48 85 41 86 47 87 49 88 46 89
REMARK SMILES IDX 42 90 43 91 44 92 45 93
REMARK H PARENT 6 6 1 10 1 11 1 12 10 27 69 46 37 57
REMARK Flexibility Score: inf
ROOT
ATOM      1  C   UNL     1       1.220   2.272  -0.972  1.00  0.00     0.042 C 
ENDROOT
BRANCH   1   2
ATOM      2  C   UNL     1       2.007   2.236   0.335  1.00  0.00     0.117 C 
BRANCH   2   3
ATOM      3  N   UNL     1       1.155   2.455   1.488  1.00  0.00    -0.356 N 
ATOM      4  C   UNL     1       0.706   1.582   2.430  1.00  0.00     0.226 C 
ATOM      5  O   UNL     1      -0.004   2.032   3.332  1.00  0.00    -0.275 OA
ATOM      6  H   UNL     1       0.852   3.384   1.608  1.00  0.00     0.163 HD
BRANCH   4   7
ATOM      7  C   UNL     1       1.089   0.119   2.399  1.00  0.00     0.170 C 
BRANCH   7   8
ATOM      8  C   UNL     1       0.305  -0.865   1.502  1.00  0.00     0.224 C 
BRANCH   8   9
ATOM      9  N   UNL     1       0.820  -0.995   0.138  1.00  0.00    -0.351 N 
ATOM     10  H   UNL     1       1.839  -1.043   0.162  1.00  0.00     0.345 HD
ATOM     11  H   UNL     1       0.530  -0.188  -0.413  1.00  0.00     0.345 HD
ATOM     12  H   UNL     1       0.450  -1.846  -0.285  1.00  0.00     0.345 HD
ENDBRANCH   8   9
BRANCH   8  13
ATOM     13  C   UNL     1      -1.210  -0.792   1.492  1.00  0.00     0.045 A 
ATOM     14  C   UNL     1      -1.925   0.393   1.262  1.00  0.00     0.013 A 
ATOM     15  C   UNL     1      -1.955  -1.970   1.645  1.00  0.00     0.132 A 
ATOM     16  C   UNL     1      -3.326   0.404   1.260  1.00  0.00     0.014 A 
ATOM     17  C   UNL     1      -3.349  -1.974   1.618  1.00  0.00     0.052 A 
ATOM     18  F   UNL     1      -1.330  -3.143   1.826  1.00  0.00    -0.206 F 
ATOM     19  C   UNL     1      -4.054  -0.779   1.440  1.00  0.00     0.058 A 
BRANCH  19  20
ATOM     20  C   UNL     1      -5.560  -0.749   1.468  1.00  0.00     0.416 C 
ATOM     21  F   UNL     1      -6.041  -0.154   2.596  1.00  0.00    -0.166 F 
ATOM     22  F   UNL     1      -6.096  -0.059   0.424  1.00  0.00    -0.166 F 
ATOM     23  F   UNL     1      -6.129  -1.986   1.432  1.00  0.00    -0.166 F 
ENDBRANCH  19  20
ENDBRANCH   8  13
ENDBRANCH   7   8
ENDBRANCH   4   7
ENDBRANCH   2   3
ENDBRANCH   1   2
BRANCH   1  24
ATOM     24  C   UNL     1       0.658   3.641  -1.339  1.00  0.00     0.118 C 
BRANCH  24  25
ATOM     25  N   UNL     1       1.696   4.601  -1.672  1.00  0.00    -0.352 N 
ATOM     26  C   UNL     1       1.992   5.215  -2.865  1.00  0.00     0.251 C 
ATOM     27  H   UNL     1       2.283   4.853  -0.923  1.00  0.00     0.163 HD
ATOM     28  O   UNL     1       3.053   5.834  -2.959  1.00  0.00    -0.269 OA
BRANCH  26  29
ATOM     29  C   UNL     1       1.080   5.127  -4.030  1.00  0.00     0.039 A 
ATOM     30  C   UNL     1       1.634   5.012  -5.309  1.00  0.00     0.014 A 
ATOM     31  C   UNL     1      -0.308   5.205  -3.886  1.00  0.00     0.014 A 
ATOM     32  C   UNL     1       0.801   4.916  -6.428  1.00  0.00     0.010 A 
ATOM     33  C   UNL     1      -1.138   5.025  -4.993  1.00  0.00     0.010 A 
ATOM     34  C   UNL     1      -0.594   4.887  -6.279  1.00  0.00    -0.014 A 
BRANCH  34  35
ATOM     35  C   UNL     1      -1.496   4.734  -7.454  1.00  0.00     0.031 A 
ATOM     36  C   UNL     1      -2.462   5.833  -7.814  1.00  0.00     0.074 A 
ATOM     37  C   UNL     1      -1.485   3.588  -8.164  1.00  0.00     0.049 A 
ATOM     38  N   UNL     1      -3.381   5.857  -8.746  1.00  0.00    -0.248 NA
ATOM     39  C   UNL     1      -2.404   7.054  -6.997  1.00  0.00     0.031 C 
ATOM     40  C   UNL     1      -0.619   2.438  -7.897  1.00  0.00     0.029 A 
ATOM     41  N   UNL     1      -2.228   3.196  -9.249  1.00  0.00    -0.354 N 
ATOM     42  C   UNL     1      -4.020   7.087  -8.619  1.00  0.00     0.074 A 
ATOM     43  C   UNL     1      -3.423   7.749  -7.478  1.00  0.00     0.031 C 
ATOM     44  C   UNL     1      -0.861   1.483  -8.809  1.00  0.00     0.029 A 
ATOM     45  C   UNL     1      -1.932   1.929  -9.695  1.00  0.00     0.049 A 
ATOM     46  H   UNL     1      -2.910   3.769  -9.670  1.00  0.00     0.167 HD
ATOM     47  C   UNL     1      -4.994   7.625  -9.395  1.00  0.00     0.034 A 
ATOM     48  C   UNL     1      -2.470   1.201 -10.694  1.00  0.00     0.034 A 
ATOM     49  C   UNL     1      -5.570   6.957 -10.538  1.00  0.00     0.049 A 
ATOM     50  C   UNL     1      -3.577   1.805 -11.522  1.00  0.00     0.074 A 
ATOM     51  C   UNL     1      -6.527   7.428 -11.421  1.00  0.00     0.029 A 
ATOM     52  N   UNL     1      -5.250   5.671 -10.953  1.00  0.00    -0.354 N 
ATOM     53  N   UNL     1      -4.140   2.986 -11.414  1.00  0.00    -0.248 NA
ATOM     54  C   UNL     1      -4.113   0.980 -12.613  1.00  0.00     0.031 C 
ATOM     55  C   UNL     1      -6.832   6.406 -12.326  1.00  0.00     0.029 A 
ATOM     56  C   UNL     1      -6.011   5.322 -12.059  1.00  0.00     0.049 A 
ATOM     57  H   UNL     1      -4.580   5.090 -10.525  1.00  0.00     0.167 HD
ATOM     58  C   UNL     1      -5.074   3.056 -12.445  1.00  0.00     0.074 A 
ATOM     59  C   UNL     1      -4.987   1.805 -13.169  1.00  0.00     0.031 C 
ATOM     60  C   UNL     1      -5.922   4.066 -12.767  1.00  0.00     0.034 A 
BRANCH  47  61
ATOM     61  C   UNL     1      -5.511   8.993  -9.011  1.00  0.00     0.023 A 
ATOM     62  C   UNL     1      -4.674  10.123  -9.004  1.00  0.00     0.031 A 
ATOM     63  C   UNL     1      -6.849   9.166  -8.615  1.00  0.00     0.131 A 
ATOM     64  C   UNL     1      -5.157  11.351  -8.529  1.00  0.00     0.055 A 
ATOM     65  C   UNL     1      -7.348  10.412  -8.226  1.00  0.00     0.041 A 
ATOM     66  F   UNL     1      -7.693   8.123  -8.581  1.00  0.00    -0.206 F 
ATOM     67  C   UNL     1      -6.496  11.511  -8.165  1.00  0.00     0.022 A 
BRANCH  64  68
ATOM     68  S   UNL     1      -3.971  12.694  -8.245  1.00  0.00     0.124 S 
ATOM     69  O   UNL     1      -3.050  12.077  -7.294  1.00  0.00    -0.237 OA
ATOM     70  O   UNL     1      -3.443  12.937  -9.582  1.00  0.00    -0.237 OA
ATOM     71  O   UNL     1      -4.795  13.768  -7.694  1.00  0.00    -0.744 OA
ENDBRANCH  64  68
ENDBRANCH  47  61
BRANCH  48  72
ATOM     72  C   UNL     1      -1.984  -0.181 -10.970  1.00  0.00     0.023 A 
ATOM     73  C   UNL     1      -1.351  -0.495 -12.184  1.00  0.00     0.031 A 
ATOM     74  C   UNL     1      -2.182  -1.220 -10.043  1.00  0.00     0.131 A 
ATOM     75  C   UNL     1      -0.982  -1.820 -12.458  1.00  0.00     0.055 A 
ATOM     76  C   UNL     1      -1.764  -2.527 -10.298  1.00  0.00     0.041 A 
ATOM     77  F   UNL     1      -2.778  -0.973  -8.865  1.00  0.00    -0.206 F 
ATOM     78  C   UNL     1      -1.172  -2.836 -11.519  1.00  0.00     0.022 A 
BRANCH  75  79
ATOM     79  S   UNL     1      -0.323  -2.215 -14.102  1.00  0.00     0.124 S 
ATOM     80  O   UNL     1      -1.410  -1.778 -14.970  1.00  0.00    -0.237 OA
ATOM     81  O   UNL     1       0.893  -1.410 -14.141  1.00  0.00    -0.237 OA
ATOM     82  O   UNL     1      -0.110  -3.659 -14.045  1.00  0.00    -0.744 OA
ENDBRANCH  75  79
ENDBRANCH  48  72
BRANCH  60  83
ATOM     83  C   UNL     1      -6.788   3.871 -13.989  1.00  0.00     0.023 A 
ATOM     84  C   UNL     1      -7.806   2.902 -14.030  1.00  0.00     0.031 A 
ATOM     85  C   UNL     1      -6.579   4.660 -15.134  1.00  0.00     0.131 A 
ATOM     86  C   UNL     1      -8.539   2.709 -15.210  1.00  0.00     0.055 A 
ATOM     87  C   UNL     1      -7.353   4.505 -16.285  1.00  0.00     0.041 A 
ATOM     88  F   UNL     1      -5.619   5.598 -15.152  1.00  0.00    -0.206 F 
ATOM     89  C   UNL     1      -8.331   3.516 -16.332  1.00  0.00     0.022 A 
BRANCH  86  90
ATOM     90  S   UNL     1      -9.711   1.327 -15.293  1.00  0.00     0.124 S 
ATOM     91  O   UNL     1      -8.847   0.181 -15.031  1.00  0.00    -0.237 OA
ATOM     92  O   UNL     1     -10.663   1.661 -14.238  1.00  0.00    -0.237 OA
ATOM     93  O   UNL     1     -10.241   1.407 -16.653  1.00  0.00    -0.744 OA
ENDBRANCH  86  90
ENDBRANCH  60  83
ENDBRANCH  34  35
ENDBRANCH  26  29
ENDBRANCH  24  25
ENDBRANCH   1  24
TORSDOF 17
