REMARK SMILES O=C(NCCCNC(=O)[C@H]1CCCCN1c1cc(-c2ccccc2)nc(-c2cccc(Cl)c2)n1)c1ccc(-c2c3nc(c(-c4cc(S(=O)(=O)[O-])ccc4F)c4ccc([nH]4)c(-c4cc(S(=O)(=O)[O-])ccc4F)c4nc(c(-c5cc(S(=O)(=O)[O-])ccc5F)c5ccc2[nH]5)C=C4)C=C3)cc1
REMARK SMILES IDX 4 1 3 2 1 3 2 4 35 6 36 7 97 8 37 9 96 10 38 11 39 12 40 13
REMARK SMILES IDX 90 14 41 15 95 16 89 17 91 18 42 19 94 20 88 21 87 22 43 24
REMARK SMILES IDX 75 25 55 26 74 27 56 28 59 29 73 30 92 31 57 32 58 33 72 35
REMARK SMILES IDX 93 36 60 37 44 38 45 39 53 40 46 41 52 42 54 43 51 44 47 45
REMARK SMILES IDX 48 46 49 47 50 48 76 49 77 50 85 51 78 52 84 53 86 54 83 55
REMARK SMILES IDX 79 56 80 57 81 58 82 59 61 60 62 61 70 62 63 63 69 64 71 65
REMARK SMILES IDX 68 66 64 67 65 68 66 69 67 70 5 71 6 72 7 73 8 74 9 76 10 77
REMARK SMILES IDX 11 78 15 79 12 80 14 81 13 82 16 83 17 84 34 85 18 86 26 87
REMARK SMILES IDX 25 88 19 89 20 90 24 91 21 92 23 93 22 94 27 95 28 96 33 97
REMARK SMILES IDX 29 98 31 99 30 100 32 101
REMARK H PARENT 3 5 91 23 59 34 7 75
REMARK Flexibility Score: inf
ROOT
ATOM      1  C   UNL     1       9.753  -7.864   2.810  1.00  0.00     0.118 C 
ENDROOT
BRANCH   1   2
ATOM      2  N   UNL     1      10.074  -8.749   3.920  1.00  0.00    -0.352 N 
ATOM      3  O   UNL     1      10.674 -10.649   4.965  1.00  0.00    -0.269 OA
ATOM      4  C   UNL     1      10.610 -10.018   3.917  1.00  0.00     0.251 C 
ATOM      5  H   UNL     1       9.878  -8.383   4.812  1.00  0.00     0.163 HD
BRANCH   4   6
ATOM      6  C   UNL     1      11.074 -10.631   2.651  1.00  0.00     0.039 A 
ATOM      7  C   UNL     1      11.839  -9.908   1.734  1.00  0.00     0.014 A 
ATOM      8  C   UNL     1      10.742 -11.962   2.382  1.00  0.00     0.014 A 
ATOM      9  C   UNL     1      12.117 -10.447   0.482  1.00  0.00     0.010 A 
ATOM     10  C   UNL     1      11.111 -12.538   1.163  1.00  0.00     0.010 A 
ATOM     11  C   UNL     1      11.767 -11.773   0.185  1.00  0.00    -0.014 A 
BRANCH  11  12
ATOM     12  C   UNL     1      12.118 -12.356  -1.137  1.00  0.00     0.031 A 
ATOM     13  C   UNL     1      11.045 -12.829  -2.079  1.00  0.00     0.074 A 
ATOM     14  C   UNL     1      13.415 -12.460  -1.485  1.00  0.00     0.049 A 
ATOM     15  N   UNL     1      11.164 -13.440  -3.230  1.00  0.00    -0.248 NA
ATOM     16  C   UNL     1       9.655 -12.598  -1.662  1.00  0.00     0.031 C 
ATOM     17  C   UNL     1      14.546 -12.026  -0.660  1.00  0.00     0.029 A 
ATOM     18  N   UNL     1      14.005 -12.961  -2.617  1.00  0.00    -0.354 N 
ATOM     19  C   UNL     1       9.866 -13.691  -3.666  1.00  0.00     0.074 A 
ATOM     20  C   UNL     1       8.979 -13.194  -2.634  1.00  0.00     0.031 C 
ATOM     21  C   UNL     1      15.688 -12.258  -1.322  1.00  0.00     0.029 A 
ATOM     22  C   UNL     1      15.379 -12.926  -2.580  1.00  0.00     0.049 A 
ATOM     23  H   UNL     1      13.494 -13.312  -3.382  1.00  0.00     0.167 HD
ATOM     24  C   UNL     1       9.457 -14.275  -4.822  1.00  0.00     0.034 A 
ATOM     25  C   UNL     1      16.294 -13.412  -3.441  1.00  0.00     0.034 A 
ATOM     26  C   UNL     1      10.361 -14.760  -5.839  1.00  0.00     0.049 A 
ATOM     27  C   UNL     1      15.822 -14.102  -4.689  1.00  0.00     0.074 A 
ATOM     28  C   UNL     1      10.058 -15.344  -7.058  1.00  0.00     0.029 A 
ATOM     29  N   UNL     1      11.748 -14.729  -5.753  1.00  0.00    -0.354 N 
ATOM     30  N   UNL     1      14.593 -14.336  -5.087  1.00  0.00    -0.248 NA
ATOM     31  C   UNL     1      16.858 -14.592  -5.606  1.00  0.00     0.031 C 
ATOM     32  C   UNL     1      11.255 -15.725  -7.675  1.00  0.00     0.029 A 
ATOM     33  C   UNL     1      12.312 -15.309  -6.880  1.00  0.00     0.049 A 
ATOM     34  H   UNL     1      12.258 -14.349  -5.001  1.00  0.00     0.167 HD
ATOM     35  C   UNL     1      14.708 -14.979  -6.314  1.00  0.00     0.074 A 
ATOM     36  C   UNL     1      16.127 -15.091  -6.592  1.00  0.00     0.031 C 
ATOM     37  C   UNL     1      13.729 -15.427  -7.140  1.00  0.00     0.034 A 
BRANCH  24  38
ATOM     38  C   UNL     1       7.969 -14.468  -5.012  1.00  0.00     0.023 A 
ATOM     39  C   UNL     1       7.081 -13.379  -5.076  1.00  0.00     0.031 A 
ATOM     40  C   UNL     1       7.423 -15.762  -5.083  1.00  0.00     0.131 A 
ATOM     41  C   UNL     1       5.696 -13.605  -5.115  1.00  0.00     0.055 A 
ATOM     42  C   UNL     1       6.050 -15.979  -5.212  1.00  0.00     0.041 A 
ATOM     43  F   UNL     1       8.216 -16.843  -5.008  1.00  0.00    -0.206 F 
ATOM     44  C   UNL     1       5.175 -14.898  -5.209  1.00  0.00     0.022 A 
BRANCH  41  45
ATOM     45  S   UNL     1       4.582 -12.194  -4.866  1.00  0.00     0.124 S 
ATOM     46  O   UNL     1       5.059 -11.662  -3.590  1.00  0.00    -0.237 OA
ATOM     47  O   UNL     1       4.848 -11.372  -6.040  1.00  0.00    -0.237 OA
ATOM     48  O   UNL     1       3.256 -12.808  -4.818  1.00  0.00    -0.744 OA
ENDBRANCH  41  45
ENDBRANCH  24  38
BRANCH  25  49
ATOM     49  C   UNL     1      17.742 -13.298  -3.116  1.00  0.00     0.023 A 
ATOM     50  C   UNL     1      18.596 -12.483  -3.873  1.00  0.00     0.031 A 
ATOM     51  C   UNL     1      18.289 -13.999  -2.025  1.00  0.00     0.131 A 
ATOM     52  C   UNL     1      19.958 -12.405  -3.542  1.00  0.00     0.055 A 
ATOM     53  C   UNL     1      19.633 -13.882  -1.671  1.00  0.00     0.041 A 
ATOM     54  F   UNL     1      17.510 -14.785  -1.264  1.00  0.00    -0.206 F 
ATOM     55  C   UNL     1      20.478 -13.086  -2.438  1.00  0.00     0.022 A 
BRANCH  52  56
ATOM     56  S   UNL     1      21.055 -11.429  -4.605  1.00  0.00     0.124 S 
ATOM     57  O   UNL     1      20.910 -12.110  -5.886  1.00  0.00    -0.237 OA
ATOM     58  O   UNL     1      20.463 -10.099  -4.514  1.00  0.00    -0.237 OA
ATOM     59  O   UNL     1      22.362 -11.571  -3.966  1.00  0.00    -0.744 OA
ENDBRANCH  52  56
ENDBRANCH  25  49
BRANCH  37  60
ATOM     60  C   UNL     1      14.164 -16.032  -8.451  1.00  0.00     0.023 A 
ATOM     61  C   UNL     1      14.829 -17.269  -8.515  1.00  0.00     0.031 A 
ATOM     62  C   UNL     1      13.909 -15.351  -9.655  1.00  0.00     0.131 A 
ATOM     63  C   UNL     1      15.255 -17.767  -9.757  1.00  0.00     0.055 A 
ATOM     64  C   UNL     1      14.288 -15.877 -10.890  1.00  0.00     0.041 A 
ATOM     65  F   UNL     1      13.280 -14.165  -9.648  1.00  0.00    -0.206 F 
ATOM     66  C   UNL     1      14.974 -17.086 -10.945  1.00  0.00     0.022 A 
BRANCH  63  67
ATOM     67  S   UNL     1      16.246 -19.285  -9.796  1.00  0.00     0.124 S 
ATOM     68  O   UNL     1      17.412 -18.906  -9.003  1.00  0.00    -0.237 OA
ATOM     69  O   UNL     1      15.350 -20.261  -9.185  1.00  0.00    -0.237 OA
ATOM     70  O   UNL     1      16.506 -19.489 -11.220  1.00  0.00    -0.744 OA
ENDBRANCH  63  67
ENDBRANCH  37  60
ENDBRANCH  11  12
ENDBRANCH   4   6
ENDBRANCH   1   2
BRANCH   1  71
ATOM     71  C   UNL     1       8.257  -7.690   2.581  1.00  0.00     0.042 C 
BRANCH  71  72
ATOM     72  C   UNL     1       7.507  -6.976   3.697  1.00  0.00     0.117 C 
BRANCH  72  73
ATOM     73  N   UNL     1       8.093  -5.695   4.034  1.00  0.00    -0.354 N 
ATOM     74  C   UNL     1       7.522  -4.489   4.291  1.00  0.00     0.242 C 
ATOM     75  H   UNL     1       9.076  -5.699   4.085  1.00  0.00     0.163 HD
ATOM     76  O   UNL     1       8.321  -3.564   4.487  1.00  0.00    -0.273 OA
BRANCH  74  77
ATOM     77  C   UNL     1       5.974  -4.291   4.309  1.00  0.00     0.173 C 
ATOM     78  C   UNL     1       5.227  -5.227   5.271  1.00  0.00     0.035 C 
ATOM     79  N   UNL     1       5.675  -2.905   4.720  1.00  0.00    -0.344 N 
ATOM     80  C   UNL     1       5.568  -4.927   6.729  1.00  0.00     0.004 C 
ATOM     81  C   UNL     1       5.957  -2.504   6.093  1.00  0.00     0.119 C 
ATOM     82  C   UNL     1       5.271  -3.467   7.063  1.00  0.00     0.022 C 
BRANCH  79  83
ATOM     83  C   UNL     1       4.936  -2.093   3.894  1.00  0.00     0.133 A 
ATOM     84  C   UNL     1       5.375  -0.817   3.606  1.00  0.00     0.076 A 
ATOM     85  N   UNL     1       3.788  -2.566   3.389  1.00  0.00    -0.211 NA
ATOM     86  C   UNL     1       4.591  -0.043   2.775  1.00  0.00     0.076 A 
ATOM     87  C   UNL     1       3.076  -1.739   2.604  1.00  0.00     0.162 A 
ATOM     88  N   UNL     1       3.424  -0.484   2.273  1.00  0.00    -0.228 NA
BRANCH  86  89
ATOM     89  C   UNL     1       4.979   1.321   2.399  1.00  0.00     0.000 A 
ATOM     90  C   UNL     1       4.163   2.416   2.729  1.00  0.00     0.010 A 
ATOM     91  C   UNL     1       6.177   1.570   1.708  1.00  0.00     0.010 A 
ATOM     92  C   UNL     1       4.540   3.719   2.395  1.00  0.00     0.001 A 
ATOM     93  C   UNL     1       6.549   2.872   1.363  1.00  0.00     0.001 A 
ATOM     94  C   UNL     1       5.733   3.946   1.712  1.00  0.00     0.000 A 
ENDBRANCH  86  89
BRANCH  87  95
ATOM     95  C   UNL     1       1.792  -2.232   2.099  1.00  0.00     0.021 A 
ATOM     96  C   UNL     1       0.862  -2.841   2.962  1.00  0.00     0.012 A 
ATOM     97  C   UNL     1       1.452  -2.104   0.742  1.00  0.00     0.032 A 
ATOM     98  C   UNL     1      -0.369  -3.303   2.489  1.00  0.00     0.002 A 
ATOM     99  C   UNL     1       0.229  -2.581   0.270  1.00  0.00     0.041 A 
ATOM    100  C   UNL     1      -0.683  -3.176   1.138  1.00  0.00     0.020 A 
ATOM    101  Cl  UNL     1      -0.159  -2.432  -1.401  1.00  0.00    -0.084 Cl
ENDBRANCH  87  95
ENDBRANCH  79  83
ENDBRANCH  74  77
ENDBRANCH  72  73
ENDBRANCH  71  72
ENDBRANCH   1  71
TORSDOF 16
