REMARK SMILES C[C@H]1[C@H](C(=O)NCCCNC(=O)c2ccc(-c3c4nc(c(-c5cc(S(=O)(=O)[O-])ccc5F)c5ccc([nH]5)c(-c5cc(S(=O)(=O)[O-])ccc5F)c5nc(c(-c6cc(S(=O)(=O)[O-])ccc6F)c6ccc3[nH]6)C=C5)C=C4)cc2)CCN1C(=O)CC[NH2+]C1CC1
REMARK SMILES IDX 7 1 6 2 4 3 5 4 3 6 1 7 2 8 78 9 76 10 77 11 79 12 80 13
REMARK SMILES IDX 81 14 82 15 83 16 84 19 85 20 86 21 8 22 9 23 10 24 11 25
REMARK SMILES IDX 12 27 13 28 14 29 75 30 15 31 74 32 16 33 17 34 18 35 68 36
REMARK SMILES IDX 19 37 73 38 67 39 69 40 20 41 72 42 66 43 65 44 21 46 53 47
REMARK SMILES IDX 33 48 52 49 34 50 37 51 51 52 70 53 35 54 36 55 50 57 71 58
REMARK SMILES IDX 38 59 22 60 23 61 31 62 24 63 30 64 32 65 29 66 25 67 26 68
REMARK SMILES IDX 27 69 28 70 54 71 55 72 63 73 56 74 62 75 64 76 61 77 57 78
REMARK SMILES IDX 58 79 59 80 60 81 39 82 40 83 48 84 41 85 47 86 49 87 46 88
REMARK SMILES IDX 42 89 43 90 44 91 45 92
REMARK H PARENT 6 5 83 17 83 18 10 26 69 45 37 56
REMARK Flexibility Score: inf
ROOT
ATOM      1  C   UNL     1      -1.259   0.496   3.019  1.00  0.00     0.117 C 
ENDROOT
BRANCH   1   2
ATOM      2  N   UNL     1      -0.900   1.821   2.549  1.00  0.00    -0.356 N 
ATOM      3  C   UNL     1      -0.648   2.285   1.302  1.00  0.00     0.225 C 
ATOM      4  O   UNL     1      -0.329   3.473   1.192  1.00  0.00    -0.275 OA
ATOM      5  H   UNL     1      -0.827   2.499   3.259  1.00  0.00     0.163 HD
BRANCH   3   6
ATOM      6  C   UNL     1      -0.700   1.404   0.071  1.00  0.00     0.102 C 
ATOM      7  C   UNL     1       1.242   0.564  -1.226  1.00  0.00     0.032 C 
ATOM      8  C   UNL     1       0.431   0.368   0.055  1.00  0.00     0.094 C 
ATOM      9  N   UNL     1      -0.236  -0.930   0.029  1.00  0.00    -0.339 N 
ATOM     10  C   UNL     1      -2.001   0.635  -0.170  1.00  0.00     0.037 C 
ATOM     11  C   UNL     1      -1.582  -0.795  -0.490  1.00  0.00     0.120 C 
BRANCH   9  12
ATOM     12  C   UNL     1       0.280  -2.176   0.334  1.00  0.00     0.228 C 
ATOM     13  O   UNL     1      -0.333  -3.204   0.036  1.00  0.00    -0.275 OA
BRANCH  12  14
ATOM     14  C   UNL     1       1.597  -2.275   1.093  1.00  0.00     0.161 C 
BRANCH  14  15
ATOM     15  C   UNL     1       2.814  -2.435   0.180  1.00  0.00     0.270 C 
BRANCH  15  16
ATOM     16  N   UNL     1       3.681  -1.251   0.216  1.00  0.00    -0.343 N 
ATOM     17  H   UNL     1       4.142  -1.221   1.126  1.00  0.00     0.346 HD
ATOM     18  H   UNL     1       3.079  -0.445   0.048  1.00  0.00     0.346 HD
BRANCH  16  19
ATOM     19  C   UNL     1       4.715  -1.222  -0.821  1.00  0.00     0.182 C 
ATOM     20  C   UNL     1       4.387  -1.252  -2.290  1.00  0.00     0.071 C 
ATOM     21  C   UNL     1       4.854   0.025  -1.661  1.00  0.00     0.071 C 
ENDBRANCH  16  19
ENDBRANCH  15  16
ENDBRANCH  14  15
ENDBRANCH  12  14
ENDBRANCH   9  12
ENDBRANCH   3   6
ENDBRANCH   1   2
BRANCH   1  22
ATOM     22  C   UNL     1      -0.241  -0.060   4.001  1.00  0.00     0.042 C 
BRANCH  22  23
ATOM     23  C   UNL     1      -0.114   0.751   5.283  1.00  0.00     0.118 C 
BRANCH  23  24
ATOM     24  N   UNL     1      -1.387   0.903   5.973  1.00  0.00    -0.352 N 
ATOM     25  C   UNL     1      -1.785   0.443   7.201  1.00  0.00     0.251 C 
ATOM     26  H   UNL     1      -2.069   1.416   5.481  1.00  0.00     0.163 HD
ATOM     27  O   UNL     1      -2.982   0.462   7.489  1.00  0.00    -0.269 OA
BRANCH  25  28
ATOM     28  C   UNL     1      -0.792  -0.082   8.160  1.00  0.00     0.039 A 
ATOM     29  C   UNL     1      -1.120  -1.196   8.935  1.00  0.00     0.014 A 
ATOM     30  C   UNL     1       0.453   0.534   8.313  1.00  0.00     0.014 A 
ATOM     31  C   UNL     1      -0.177  -1.725   9.816  1.00  0.00     0.010 A 
ATOM     32  C   UNL     1       1.425  -0.052   9.116  1.00  0.00     0.010 A 
ATOM     33  C   UNL     1       1.117  -1.182   9.886  1.00  0.00    -0.014 A 
BRANCH  33  34
ATOM     34  C   UNL     1       2.152  -1.780  10.767  1.00  0.00     0.031 A 
ATOM     35  C   UNL     1       2.747  -0.977  11.892  1.00  0.00     0.074 A 
ATOM     36  C   UNL     1       2.587  -3.032  10.520  1.00  0.00     0.049 A 
ATOM     37  N   UNL     1       3.687  -1.309  12.739  1.00  0.00    -0.248 NA
ATOM     38  C   UNL     1       2.239   0.392  12.067  1.00  0.00     0.031 C 
ATOM     39  C   UNL     1       2.120  -3.886   9.425  1.00  0.00     0.029 A 
ATOM     40  N   UNL     1       3.516  -3.805  11.168  1.00  0.00    -0.354 N 
ATOM     41  C   UNL     1       3.885  -0.192  13.544  1.00  0.00     0.074 A 
ATOM     42  C   UNL     1       3.023   0.851  13.030  1.00  0.00     0.031 C 
ATOM     43  C   UNL     1       2.740  -5.074   9.498  1.00  0.00     0.029 A 
ATOM     44  C   UNL     1       3.683  -5.051  10.611  1.00  0.00     0.049 A 
ATOM     45  H   UNL     1       4.016  -3.496  11.958  1.00  0.00     0.167 HD
ATOM     46  C   UNL     1       4.687  -0.059  14.629  1.00  0.00     0.034 A 
ATOM     47  C   UNL     1       4.511  -6.059  10.951  1.00  0.00     0.034 A 
ATOM     48  C   UNL     1       5.540  -1.113  15.125  1.00  0.00     0.049 A 
ATOM     49  C   UNL     1       5.415  -5.880  12.144  1.00  0.00     0.074 A 
ATOM     50  C   UNL     1       6.364  -1.105  16.237  1.00  0.00     0.029 A 
ATOM     51  N   UNL     1       5.687  -2.363  14.534  1.00  0.00    -0.354 N 
ATOM     52  N   UNL     1       5.550  -4.835  12.929  1.00  0.00    -0.248 NA
ATOM     53  C   UNL     1       6.264  -7.020  12.505  1.00  0.00     0.031 C 
ATOM     54  C   UNL     1       7.062  -2.316  16.274  1.00  0.00     0.029 A 
ATOM     55  C   UNL     1       6.612  -3.119  15.239  1.00  0.00     0.049 A 
ATOM     56  H   UNL     1       5.205  -2.667  13.731  1.00  0.00     0.167 HD
ATOM     57  C   UNL     1       6.483  -5.205  13.894  1.00  0.00     0.074 A 
ATOM     58  C   UNL     1       6.853  -6.576  13.605  1.00  0.00     0.031 C 
ATOM     59  C   UNL     1       6.988  -4.479  14.926  1.00  0.00     0.034 A 
BRANCH  46  60
ATOM     60  C   UNL     1       4.690   1.281  15.330  1.00  0.00     0.023 A 
ATOM     61  C   UNL     1       3.524   1.812  15.911  1.00  0.00     0.031 A 
ATOM     62  C   UNL     1       5.862   2.054  15.392  1.00  0.00     0.131 A 
ATOM     63  C   UNL     1       3.534   3.107  16.450  1.00  0.00     0.055 A 
ATOM     64  C   UNL     1       5.888   3.306  16.012  1.00  0.00     0.041 A 
ATOM     65  F   UNL     1       7.003   1.615  14.836  1.00  0.00    -0.206 F 
ATOM     66  C   UNL     1       4.715   3.847  16.530  1.00  0.00     0.022 A 
BRANCH  63  67
ATOM     67  S   UNL     1       1.951   3.870  16.898  1.00  0.00     0.124 S 
ATOM     68  O   UNL     1       1.230   3.821  15.628  1.00  0.00    -0.237 OA
ATOM     69  O   UNL     1       1.459   2.984  17.947  1.00  0.00    -0.237 OA
ATOM     70  O   UNL     1       2.329   5.211  17.339  1.00  0.00    -0.744 OA
ENDBRANCH  63  67
ENDBRANCH  46  60
BRANCH  47  71
ATOM     71  C   UNL     1       4.535  -7.317  10.150  1.00  0.00     0.023 A 
ATOM     72  C   UNL     1       4.163  -8.547  10.715  1.00  0.00     0.031 A 
ATOM     73  C   UNL     1       4.968  -7.312   8.812  1.00  0.00     0.131 A 
ATOM     74  C   UNL     1       4.275  -9.726   9.961  1.00  0.00     0.055 A 
ATOM     75  C   UNL     1       5.021  -8.478   8.047  1.00  0.00     0.041 A 
ATOM     76  F   UNL     1       5.332  -6.162   8.220  1.00  0.00    -0.206 F 
ATOM     77  C   UNL     1       4.687  -9.698   8.627  1.00  0.00     0.022 A 
BRANCH  74  78
ATOM     78  S   UNL     1       3.962 -11.314  10.780  1.00  0.00     0.124 S 
ATOM     79  O   UNL     1       4.928 -11.282  11.871  1.00  0.00    -0.237 OA
ATOM     80  O   UNL     1       2.559 -11.187  11.160  1.00  0.00    -0.237 OA
ATOM     81  O   UNL     1       4.234 -12.296   9.732  1.00  0.00    -0.744 OA
ENDBRANCH  74  78
ENDBRANCH  47  71
BRANCH  59  82
ATOM     82  C   UNL     1       7.971  -5.179  15.835  1.00  0.00     0.023 A 
ATOM     83  C   UNL     1       9.221  -5.625  15.370  1.00  0.00     0.031 A 
ATOM     84  C   UNL     1       7.639  -5.431  17.178  1.00  0.00     0.131 A 
ATOM     85  C   UNL     1      10.060  -6.363  16.218  1.00  0.00     0.055 A 
ATOM     86  C   UNL     1       8.511  -6.100  18.038  1.00  0.00     0.041 A 
ATOM     87  F   UNL     1       6.458  -5.033  17.678  1.00  0.00    -0.206 F 
ATOM     88  C   UNL     1       9.722  -6.586  17.555  1.00  0.00     0.022 A 
BRANCH  85  89
ATOM     89  S   UNL     1      11.543  -7.135  15.515  1.00  0.00     0.124 S 
ATOM     90  O   UNL     1      10.980  -7.952  14.445  1.00  0.00    -0.237 OA
ATOM     91  O   UNL     1      12.325  -5.978  15.090  1.00  0.00    -0.237 OA
ATOM     92  O   UNL     1      12.105  -7.884  16.638  1.00  0.00    -0.744 OA
ENDBRANCH  85  89
ENDBRANCH  59  82
ENDBRANCH  33  34
ENDBRANCH  25  28
ENDBRANCH  23  24
ENDBRANCH  22  23
ENDBRANCH   1  22
TORSDOF 18
