REMARK SMILES O=C(NCCCNC(=O)[C@@H](Cc1ccccc1)N1C(=O)/C(=C/c2ccncc2)SC1=S)c1ccc(-c2c3nc(c(-c4cc(S(=O)(=O)[O-])ccc4F)c4ccc([nH]4)c(-c4cc(S(=O)(=O)[O-])ccc4F)c4nc(c(-c5cc(S(=O)(=O)[O-])ccc5F)c5ccc2[nH]5)C=C4)C=C3)cc1
REMARK SMILES IDX 4 1 3 2 1 3 2 4 32 6 33 7 94 8 34 9 93 10 35 11 36 12 37 13
REMARK SMILES IDX 87 14 38 15 92 16 86 17 88 18 39 19 91 20 85 21 84 22 40 24
REMARK SMILES IDX 72 25 52 26 71 27 53 28 56 29 70 30 89 31 54 32 55 33 69 35
REMARK SMILES IDX 90 36 57 37 41 38 42 39 50 40 43 41 49 42 51 43 48 44 44 45
REMARK SMILES IDX 45 46 46 47 47 48 73 49 74 50 82 51 75 52 81 53 83 54 80 55
REMARK SMILES IDX 76 56 77 57 78 58 79 59 58 60 59 61 67 62 60 63 66 64 68 65
REMARK SMILES IDX 65 66 61 67 62 68 63 69 64 70 5 71 6 72 7 73 8 74 9 76 10 77
REMARK SMILES IDX 11 78 12 79 13 80 17 81 14 82 16 83 15 84 18 85 19 86 30 87
REMARK SMILES IDX 20 88 21 89 29 90 31 91 22 92 23 93 24 94 28 95 25 96 27 97
REMARK SMILES IDX 26 98
REMARK H PARENT 3 5 88 23 56 34 7 75
REMARK Flexibility Score: inf
ROOT
ATOM      1  C   UNL     1       4.036  -1.578  -0.990  1.00  0.00     0.118 C 
ENDROOT
BRANCH   1   2
ATOM      2  N   UNL     1       2.669  -1.091  -0.889  1.00  0.00    -0.352 N 
ATOM      3  O   UNL     1       0.946   0.207  -0.312  1.00  0.00    -0.269 OA
ATOM      4  C   UNL     1       2.151   0.140  -0.556  1.00  0.00     0.251 C 
ATOM      5  H   UNL     1       1.986  -1.769  -1.097  1.00  0.00     0.163 HD
BRANCH   4   6
ATOM      6  C   UNL     1       2.981   1.372  -0.477  1.00  0.00     0.039 A 
ATOM      7  C   UNL     1       4.096   1.572  -1.286  1.00  0.00     0.014 A 
ATOM      8  C   UNL     1       2.559   2.422   0.353  1.00  0.00     0.014 A 
ATOM      9  C   UNL     1       4.859   2.731  -1.175  1.00  0.00     0.010 A 
ATOM     10  C   UNL     1       3.249   3.643   0.366  1.00  0.00     0.010 A 
ATOM     11  C   UNL     1       4.415   3.806  -0.395  1.00  0.00    -0.014 A 
BRANCH  11  12
ATOM     12  C   UNL     1       5.131   5.108  -0.500  1.00  0.00     0.031 A 
ATOM     13  C   UNL     1       5.790   5.739   0.694  1.00  0.00     0.074 A 
ATOM     14  C   UNL     1       5.217   5.700  -1.711  1.00  0.00     0.049 A 
ATOM     15  N   UNL     1       6.477   6.851   0.762  1.00  0.00    -0.248 NA
ATOM     16  C   UNL     1       5.650   5.040   1.979  1.00  0.00     0.031 C 
ATOM     17  C   UNL     1       4.600   5.189  -2.941  1.00  0.00     0.029 A 
ATOM     18  N   UNL     1       5.873   6.832  -2.123  1.00  0.00    -0.354 N 
ATOM     19  C   UNL     1       6.837   6.998   2.098  1.00  0.00     0.074 A 
ATOM     20  C   UNL     1       6.261   5.874   2.808  1.00  0.00     0.031 C 
ATOM     21  C   UNL     1       4.965   5.960  -3.974  1.00  0.00     0.029 A 
ATOM     22  C   UNL     1       5.767   7.070  -3.475  1.00  0.00     0.049 A 
ATOM     23  H   UNL     1       6.372   7.418  -1.510  1.00  0.00     0.167 HD
ATOM     24  C   UNL     1       7.584   7.975   2.671  1.00  0.00     0.034 A 
ATOM     25  C   UNL     1       6.238   8.079  -4.232  1.00  0.00     0.034 A 
ATOM     26  C   UNL     1       8.152   9.087   1.944  1.00  0.00     0.049 A 
ATOM     27  C   UNL     1       7.036   9.165  -3.565  1.00  0.00     0.074 A 
ATOM     28  C   UNL     1       8.946  10.116   2.422  1.00  0.00     0.029 A 
ATOM     29  N   UNL     1       7.982   9.322   0.584  1.00  0.00    -0.354 N 
ATOM     30  N   UNL     1       7.376   9.279  -2.301  1.00  0.00    -0.248 NA
ATOM     31  C   UNL     1       7.509  10.258  -4.421  1.00  0.00     0.031 C 
ATOM     32  C   UNL     1       9.198  11.004   1.370  1.00  0.00     0.029 A 
ATOM     33  C   UNL     1       8.628  10.494   0.215  1.00  0.00     0.049 A 
ATOM     34  H   UNL     1       7.476   8.741  -0.029  1.00  0.00     0.167 HD
ATOM     35  C   UNL     1       8.115  10.453  -2.215  1.00  0.00     0.074 A 
ATOM     36  C   UNL     1       8.194  10.994  -3.557  1.00  0.00     0.031 C 
ATOM     37  C   UNL     1       8.678  11.032  -1.124  1.00  0.00     0.034 A 
BRANCH  24  38
ATOM     38  C   UNL     1       7.787   7.907   4.167  1.00  0.00     0.023 A 
ATOM     39  C   UNL     1       8.493   6.853   4.773  1.00  0.00     0.031 A 
ATOM     40  C   UNL     1       7.244   8.900   5.003  1.00  0.00     0.131 A 
ATOM     41  C   UNL     1       8.577   6.779   6.172  1.00  0.00     0.055 A 
ATOM     42  C   UNL     1       7.398   8.861   6.391  1.00  0.00     0.041 A 
ATOM     43  F   UNL     1       6.543   9.921   4.485  1.00  0.00    -0.206 F 
ATOM     44  C   UNL     1       8.055   7.788   6.984  1.00  0.00     0.022 A 
BRANCH  41  45
ATOM     45  S   UNL     1       9.253   5.271   6.920  1.00  0.00     0.124 S 
ATOM     46  O   UNL     1       8.365   4.247   6.374  1.00  0.00    -0.237 OA
ATOM     47  O   UNL     1      10.624   5.259   6.423  1.00  0.00    -0.237 OA
ATOM     48  O   UNL     1       9.111   5.506   8.356  1.00  0.00    -0.744 OA
ENDBRANCH  41  45
ENDBRANCH  24  38
BRANCH  25  49
ATOM     49  C   UNL     1       5.933   8.133  -5.691  1.00  0.00     0.023 A 
ATOM     50  C   UNL     1       6.952   8.057  -6.653  1.00  0.00     0.031 A 
ATOM     51  C   UNL     1       4.609   8.284  -6.144  1.00  0.00     0.131 A 
ATOM     52  C   UNL     1       6.636   8.167  -8.016  1.00  0.00     0.055 A 
ATOM     53  C   UNL     1       4.294   8.337  -7.502  1.00  0.00     0.041 A 
ATOM     54  F   UNL     1       3.595   8.359  -5.267  1.00  0.00    -0.206 F 
ATOM     55  C   UNL     1       5.313   8.291  -8.448  1.00  0.00     0.022 A 
BRANCH  52  56
ATOM     56  S   UNL     1       7.990   8.224  -9.222  1.00  0.00     0.124 S 
ATOM     57  O   UNL     1       8.759   9.370  -8.752  1.00  0.00    -0.237 OA
ATOM     58  O   UNL     1       8.611   6.916  -9.040  1.00  0.00    -0.237 OA
ATOM     59  O   UNL     1       7.303   8.413 -10.497  1.00  0.00    -0.744 OA
ENDBRANCH  52  56
ENDBRANCH  25  49
BRANCH  37  60
ATOM     60  C   UNL     1       9.452  12.305  -1.360  1.00  0.00     0.023 A 
ATOM     61  C   UNL     1       8.814  13.492  -1.761  1.00  0.00     0.031 A 
ATOM     62  C   UNL     1      10.849  12.321  -1.211  1.00  0.00     0.131 A 
ATOM     63  C   UNL     1       9.579  14.630  -2.058  1.00  0.00     0.055 A 
ATOM     64  C   UNL     1      11.600  13.473  -1.450  1.00  0.00     0.041 A 
ATOM     65  F   UNL     1      11.509  11.213  -0.835  1.00  0.00    -0.206 F 
ATOM     66  C   UNL     1      10.966  14.632  -1.890  1.00  0.00     0.022 A 
BRANCH  63  67
ATOM     67  S   UNL     1       8.747  16.080  -2.760  1.00  0.00     0.124 S 
ATOM     68  O   UNL     1       8.156  15.531  -3.977  1.00  0.00    -0.237 OA
ATOM     69  O   UNL     1       7.808  16.444  -1.704  1.00  0.00    -0.237 OA
ATOM     70  O   UNL     1       9.837  17.030  -2.975  1.00  0.00    -0.744 OA
ENDBRANCH  63  67
ENDBRANCH  37  60
ENDBRANCH  11  12
ENDBRANCH   4   6
ENDBRANCH   1   2
BRANCH   1  71
ATOM     71  C   UNL     1       4.614  -1.927   0.365  1.00  0.00     0.042 C 
BRANCH  71  72
ATOM     72  C   UNL     1       4.115  -3.260   0.881  1.00  0.00     0.117 C 
BRANCH  72  73
ATOM     73  N   UNL     1       4.888  -4.374   0.389  1.00  0.00    -0.354 N 
ATOM     74  C   UNL     1       5.624  -5.279   1.085  1.00  0.00     0.243 C 
ATOM     75  H   UNL     1       4.880  -4.495  -0.588  1.00  0.00     0.163 HD
ATOM     76  O   UNL     1       6.251  -6.103   0.409  1.00  0.00    -0.273 OA
BRANCH  74  77
ATOM     77  C   UNL     1       5.618  -5.370   2.631  1.00  0.00     0.185 C 
BRANCH  77  78
ATOM     78  C   UNL     1       6.526  -4.399   3.434  1.00  0.00     0.071 C 
BRANCH  78  79
ATOM     79  C   UNL     1       6.292  -2.918   3.572  1.00  0.00    -0.045 A 
ATOM     80  C   UNL     1       6.935  -1.989   2.740  1.00  0.00     0.004 A 
ATOM     81  C   UNL     1       5.503  -2.421   4.614  1.00  0.00     0.004 A 
ATOM     82  C   UNL     1       6.700  -0.615   2.883  1.00  0.00     0.000 A 
ATOM     83  C   UNL     1       5.223  -1.058   4.724  1.00  0.00     0.000 A 
ATOM     84  C   UNL     1       5.813  -0.153   3.851  1.00  0.00     0.000 A 
ENDBRANCH  78  79
ENDBRANCH  77  78
BRANCH  77  85
ATOM     85  N   UNL     1       4.323  -5.929   3.134  1.00  0.00    -0.280 N 
ATOM     86  C   UNL     1       4.255  -7.327   3.283  1.00  0.00     0.266 C 
ATOM     87  C   UNL     1       3.110  -5.310   3.363  1.00  0.00     0.149 C 
ATOM     88  O   UNL     1       5.174  -8.125   3.254  1.00  0.00    -0.268 OA
ATOM     89  C   UNL     1       2.856  -7.729   3.609  1.00  0.00     0.081 C 
ATOM     90  S   UNL     1       1.817  -6.468   3.120  1.00  0.00    -0.054 SA
ATOM     91  S   UNL     1       2.653  -3.821   3.931  1.00  0.00    -0.052 S 
ATOM     92  C   UNL     1       2.563  -8.764   4.409  1.00  0.00     0.029 C 
BRANCH  92  93
ATOM     93  C   UNL     1       1.290  -8.900   5.146  1.00  0.00    -0.021 A 
ATOM     94  C   UNL     1       0.032  -8.731   4.566  1.00  0.00     0.028 A 
ATOM     95  C   UNL     1       1.360  -9.099   6.527  1.00  0.00     0.028 A 
ATOM     96  C   UNL     1      -1.080  -8.677   5.392  1.00  0.00     0.111 A 
ATOM     97  C   UNL     1       0.188  -9.059   7.265  1.00  0.00     0.111 A 
ATOM     98  N   UNL     1      -1.031  -8.842   6.730  1.00  0.00    -0.265 NA
ENDBRANCH  92  93
ENDBRANCH  77  85
ENDBRANCH  74  77
ENDBRANCH  72  73
ENDBRANCH  71  72
ENDBRANCH   1  71
TORSDOF 17
