REMARK SMILES CC[C@H](C)CN(CC)C(=O)c1ccc(/C=C/C(=O)NCCCNC(=O)c2ccc(-c3c4nc(c(-c5cc(S(=O)(=O)[O-])ccc5F)c5ccc([nH]5)c(-c5cc(S(=O)(=O)[O-])ccc5F)c5nc(c(-c6cc(S(=O)(=O)[O-])ccc6F)c6ccc3[nH]6)C=C5)C=C4)cc2)cn1
REMARK SMILES IDX 17 1 18 2 19 3 16 5 15 6 14 7 11 8 12 9 90 10 13 11 89 12
REMARK SMILES IDX 9 13 10 14 6 15 5 16 3 17 4 18 2 19 1 20 7 21 8 22 20 23
REMARK SMILES IDX 21 24 22 25 23 26 24 27 25 29 26 30 27 31 88 32 28 33 87 34
REMARK SMILES IDX 29 35 30 36 31 37 81 38 32 39 86 40 80 41 82 42 33 43 85 44
REMARK SMILES IDX 79 45 78 46 34 48 66 49 46 50 65 51 47 52 50 53 64 54 83 55
REMARK SMILES IDX 48 56 49 57 63 59 84 60 51 61 35 62 36 63 44 64 37 65 43 66
REMARK SMILES IDX 45 67 42 68 38 69 39 70 40 71 41 72 67 73 68 74 76 75 69 76
REMARK SMILES IDX 75 77 77 78 74 79 70 80 71 81 72 82 73 83 52 84 53 85 61 86
REMARK SMILES IDX 54 87 60 88 62 89 59 90 55 91 56 92 57 93 58 94
REMARK H PARENT 19 4 23 28 82 47 50 58
REMARK Flexibility Score: inf
ROOT
ATOM      1  C   UNL     1       2.981  -7.905   6.626  1.00  0.00     0.244 C 
ATOM      2  O   UNL     1       3.158  -8.887   5.907  1.00  0.00    -0.270 OA
ATOM      3  N   UNL     1       3.082  -8.021   7.978  1.00  0.00    -0.352 N 
ATOM      4  H   UNL     1       3.173  -8.944   8.309  1.00  0.00     0.163 HD
ENDROOT
BRANCH   1   5
ATOM      5  C   UNL     1       2.746  -6.583   6.005  1.00  0.00     0.072 C 
ATOM      6  C   UNL     1       1.762  -5.766   6.408  1.00  0.00     0.015 C 
BRANCH   6   7
ATOM      7  C   UNL     1       1.454  -4.440   5.862  1.00  0.00    -0.007 A 
ATOM      8  C   UNL     1       0.666  -2.026   4.827  1.00  0.00     0.128 A 
ATOM      9  C   UNL     1       0.268  -2.346   6.114  1.00  0.00     0.035 A 
ATOM     10  N   UNL     1       1.454  -2.815   4.052  1.00  0.00    -0.250 NA
ATOM     11  C   UNL     1       0.690  -3.562   6.641  1.00  0.00     0.012 A 
ATOM     12  C   UNL     1       1.805  -4.011   4.582  1.00  0.00     0.120 A 
BRANCH   8  13
ATOM     13  C   UNL     1       0.070  -0.841   4.170  1.00  0.00     0.272 C 
ATOM     14  O   UNL     1      -1.033  -0.985   3.642  1.00  0.00    -0.267 OA
BRANCH  13  15
ATOM     15  N   UNL     1       0.773   0.367   4.162  1.00  0.00    -0.337 N 
BRANCH  15  16
ATOM     16  C   UNL     1       0.260   1.446   3.317  1.00  0.00     0.123 C 
BRANCH  16  17
ATOM     17  C   UNL     1       0.812   1.418   1.867  1.00  0.00     0.005 C 
ATOM     18  C   UNL     1       0.452   0.121   1.132  1.00  0.00     0.009 C 
BRANCH  17  19
ATOM     19  C   UNL     1       0.307   2.678   1.126  1.00  0.00     0.002 C 
ATOM     20  C   UNL     1       0.417   2.636  -0.392  1.00  0.00     0.004 C 
ENDBRANCH  17  19
ENDBRANCH  16  17
ENDBRANCH  15  16
BRANCH  15  21
ATOM     21  C   UNL     1       1.937   0.650   5.003  1.00  0.00     0.116 C 
ATOM     22  C   UNL     1       1.530   0.943   6.444  1.00  0.00     0.027 C 
ENDBRANCH  15  21
ENDBRANCH  13  15
ENDBRANCH   8  13
ENDBRANCH   6   7
ENDBRANCH   1   5
BRANCH   3  23
ATOM     23  C   UNL     1       3.078  -6.998   9.013  1.00  0.00     0.118 C 
BRANCH  23  24
ATOM     24  C   UNL     1       1.810  -7.051   9.863  1.00  0.00     0.042 C 
BRANCH  24  25
ATOM     25  C   UNL     1       1.775  -8.228  10.834  1.00  0.00     0.118 C 
BRANCH  25  26
ATOM     26  N   UNL     1       2.785  -8.104  11.875  1.00  0.00    -0.352 N 
ATOM     27  C   UNL     1       2.649  -8.073  13.239  1.00  0.00     0.251 C 
ATOM     28  H   UNL     1       3.711  -8.032  11.548  1.00  0.00     0.163 HD
ATOM     29  O   UNL     1       3.610  -7.716  13.922  1.00  0.00    -0.269 OA
BRANCH  27  30
ATOM     30  C   UNL     1       1.373  -8.445  13.888  1.00  0.00     0.039 A 
ATOM     31  C   UNL     1       0.957  -7.731  15.016  1.00  0.00     0.014 A 
ATOM     32  C   UNL     1       0.610  -9.522  13.427  1.00  0.00     0.014 A 
ATOM     33  C   UNL     1      -0.244  -8.064  15.648  1.00  0.00     0.010 A 
ATOM     34  C   UNL     1      -0.622  -9.805  14.013  1.00  0.00     0.010 A 
ATOM     35  C   UNL     1      -1.058  -9.086  15.136  1.00  0.00    -0.014 A 
BRANCH  35  36
ATOM     36  C   UNL     1      -2.357  -9.430  15.771  1.00  0.00     0.031 A 
ATOM     37  C   UNL     1      -2.559 -10.786  16.392  1.00  0.00     0.074 A 
ATOM     38  C   UNL     1      -3.371  -8.542  15.740  1.00  0.00     0.049 A 
ATOM     39  N   UNL     1      -3.636 -11.305  16.923  1.00  0.00    -0.248 NA
ATOM     40  C   UNL     1      -1.398 -11.689  16.385  1.00  0.00     0.031 C 
ATOM     41  C   UNL     1      -3.305  -7.207  15.142  1.00  0.00     0.029 A 
ATOM     42  N   UNL     1      -4.655  -8.629  16.216  1.00  0.00    -0.354 N 
ATOM     43  C   UNL     1      -3.289 -12.597  17.303  1.00  0.00     0.074 A 
ATOM     44  C   UNL     1      -1.920 -12.802  16.877  1.00  0.00     0.031 C 
ATOM     45  C   UNL     1      -4.486  -6.591  15.312  1.00  0.00     0.029 A 
ATOM     46  C   UNL     1      -5.407  -7.500  15.986  1.00  0.00     0.049 A 
ATOM     47  H   UNL     1      -5.005  -9.424  16.678  1.00  0.00     0.167 HD
ATOM     48  C   UNL     1      -4.032 -13.518  17.968  1.00  0.00     0.034 A 
ATOM     49  C   UNL     1      -6.695  -7.233  16.276  1.00  0.00     0.034 A 
ATOM     50  C   UNL     1      -5.394 -13.293  18.389  1.00  0.00     0.049 A 
ATOM     51  C   UNL     1      -7.516  -8.285  16.979  1.00  0.00     0.074 A 
ATOM     52  C   UNL     1      -6.230 -14.137  19.101  1.00  0.00     0.029 A 
ATOM     53  N   UNL     1      -6.127 -12.140  18.129  1.00  0.00    -0.354 N 
ATOM     54  N   UNL     1      -7.161  -9.488  17.366  1.00  0.00    -0.248 NA
ATOM     55  C   UNL     1      -8.907  -7.936  17.291  1.00  0.00     0.031 C 
ATOM     56  C   UNL     1      -7.483 -13.524  19.213  1.00  0.00     0.029 A 
ATOM     57  C   UNL     1      -7.410 -12.264  18.641  1.00  0.00     0.049 A 
ATOM     58  H   UNL     1      -5.785 -11.351  17.651  1.00  0.00     0.167 HD
ATOM     59  C   UNL     1      -8.277 -10.026  18.001  1.00  0.00     0.074 A 
ATOM     60  C   UNL     1      -9.309  -9.011  17.954  1.00  0.00     0.031 C 
ATOM     61  C   UNL     1      -8.434 -11.246  18.577  1.00  0.00     0.034 A 
BRANCH  48  62
ATOM     62  C   UNL     1      -3.385 -14.855  18.250  1.00  0.00     0.023 A 
ATOM     63  C   UNL     1      -2.227 -14.961  19.041  1.00  0.00     0.031 A 
ATOM     64  C   UNL     1      -3.902 -16.035  17.686  1.00  0.00     0.131 A 
ATOM     65  C   UNL     1      -1.573 -16.196  19.168  1.00  0.00     0.055 A 
ATOM     66  C   UNL     1      -3.297 -17.277  17.892  1.00  0.00     0.041 A 
ATOM     67  F   UNL     1      -4.993 -15.999  16.905  1.00  0.00    -0.206 F 
ATOM     68  C   UNL     1      -2.114 -17.360  18.620  1.00  0.00     0.022 A 
BRANCH  65  69
ATOM     69  S   UNL     1       0.082 -16.224  19.911  1.00  0.00     0.124 S 
ATOM     70  O   UNL     1       0.812 -15.306  19.039  1.00  0.00    -0.237 OA
ATOM     71  O   UNL     1      -0.173 -15.751  21.267  1.00  0.00    -0.237 OA
ATOM     72  O   UNL     1       0.483 -17.625  19.803  1.00  0.00    -0.744 OA
ENDBRANCH  65  69
ENDBRANCH  48  62
BRANCH  49  73
ATOM     73  C   UNL     1      -7.296  -5.919  15.909  1.00  0.00     0.023 A 
ATOM     74  C   UNL     1      -7.734  -5.027  16.900  1.00  0.00     0.031 A 
ATOM     75  C   UNL     1      -7.476  -5.551  14.564  1.00  0.00     0.131 A 
ATOM     76  C   UNL     1      -8.373  -3.832  16.534  1.00  0.00     0.055 A 
ATOM     77  C   UNL     1      -8.064  -4.337  14.204  1.00  0.00     0.041 A 
ATOM     78  F   UNL     1      -7.068  -6.364  13.576  1.00  0.00    -0.206 F 
ATOM     79  C   UNL     1      -8.529  -3.475  15.193  1.00  0.00     0.022 A 
BRANCH  76  80
ATOM     80  S   UNL     1      -9.070  -2.786  17.841  1.00  0.00     0.124 S 
ATOM     81  O   UNL     1     -10.001  -3.702  18.489  1.00  0.00    -0.237 OA
ATOM     82  O   UNL     1      -7.881  -2.428  18.608  1.00  0.00    -0.237 OA
ATOM     83  O   UNL     1      -9.687  -1.686  17.102  1.00  0.00    -0.744 OA
ENDBRANCH  76  80
ENDBRANCH  49  73
BRANCH  61  84
ATOM     84  C   UNL     1      -9.758 -11.520  19.247  1.00  0.00     0.023 A 
ATOM     85  C   UNL     1     -10.954 -11.622  18.514  1.00  0.00     0.031 A 
ATOM     86  C   UNL     1      -9.826 -11.663  20.644  1.00  0.00     0.131 A 
ATOM     87  C   UNL     1     -12.173 -11.800  19.186  1.00  0.00     0.055 A 
ATOM     88  C   UNL     1     -11.033 -11.903  21.302  1.00  0.00     0.041 A 
ATOM     89  F   UNL     1      -8.716 -11.572  21.395  1.00  0.00    -0.206 F 
ATOM     90  C   UNL     1     -12.218 -11.958  20.573  1.00  0.00     0.022 A 
BRANCH  87  91
ATOM     91  S   UNL     1     -13.713 -11.724  18.231  1.00  0.00     0.124 S 
ATOM     92  O   UNL     1     -13.634 -10.395  17.633  1.00  0.00    -0.237 OA
ATOM     93  O   UNL     1     -13.565 -12.847  17.311  1.00  0.00    -0.237 OA
ATOM     94  O   UNL     1     -14.754 -11.887  19.245  1.00  0.00    -0.744 OA
ENDBRANCH  87  91
ENDBRANCH  61  84
ENDBRANCH  35  36
ENDBRANCH  27  30
ENDBRANCH  25  26
ENDBRANCH  24  25
ENDBRANCH  23  24
ENDBRANCH   3  23
TORSDOF 20
