REMARK SMILES CCN(Cc1ccccn1)c1nc(C)cc(C)c1C(=O)NCCCNC(=O)c1ccc(-c2c3nc(c(-c4cc(S(=O)(=O)[O-])ccc4F)c4ccc([nH]4)c(-c4cc(S(=O)(=O)[O-])ccc4F)c4nc(c(-c5cc(S(=O)(=O)[O-])ccc5F)c5ccc2[nH]5)C=C4)C=C3)cc1
REMARK SMILES IDX 23 1 22 2 21 3 19 4 20 5 18 7 11 8 12 9 13 10 16 11 14 12
REMARK SMILES IDX 15 13 17 14 3 15 2 16 1 17 4 18 5 19 6 20 10 21 7 22 9 23
REMARK SMILES IDX 8 24 24 25 25 26 26 27 27 29 28 30 29 31 90 32 30 33 89 34
REMARK SMILES IDX 31 35 32 36 33 37 83 38 34 39 88 40 82 41 84 42 35 43 87 44
REMARK SMILES IDX 81 45 80 46 36 48 68 49 48 50 67 51 49 52 52 53 66 54 85 55
REMARK SMILES IDX 50 56 51 57 65 59 86 60 53 61 37 62 38 63 46 64 39 65 45 66
REMARK SMILES IDX 47 67 44 68 40 69 41 70 42 71 43 72 69 73 70 74 78 75 71 76
REMARK SMILES IDX 77 77 79 78 76 79 72 80 73 81 74 82 75 83 54 84 55 85 63 86
REMARK SMILES IDX 56 87 62 88 64 89 61 90 57 91 58 92 59 93 60 94
REMARK H PARENT 21 6 25 28 84 47 52 58
REMARK Flexibility Score: inf
ROOT
ATOM      1  C   UNL     1       5.229   1.831   0.751  1.00  0.00     0.042 C 
ENDROOT
BRANCH   1   2
ATOM      2  C   UNL     1       4.461   1.083   1.829  1.00  0.00     0.118 C 
BRANCH   2   3
ATOM      3  N   UNL     1       3.323   0.385   1.272  1.00  0.00    -0.352 N 
ATOM      4  C   UNL     1       3.024  -0.903   1.652  1.00  0.00     0.255 C 
ATOM      5  O   UNL     1       2.293  -1.100   2.619  1.00  0.00    -0.269 OA
ATOM      6  H   UNL     1       2.753   0.839   0.611  1.00  0.00     0.163 HD
BRANCH   4   7
ATOM      7  C   UNL     1       3.481  -2.021   0.788  1.00  0.00     0.085 A 
ATOM      8  C   UNL     1       2.493  -2.822   0.186  1.00  0.00     0.142 A 
ATOM      9  N   UNL     1       2.822  -4.017  -0.361  1.00  0.00    -0.235 NA
ATOM     10  C   UNL     1       4.087  -4.470  -0.314  1.00  0.00     0.040 A 
ATOM     11  C   UNL     1       4.830  -2.451   0.740  1.00  0.00    -0.033 A 
ATOM     12  C   UNL     1       4.305  -5.891  -0.728  1.00  0.00     0.067 C 
ATOM     13  C   UNL     1       5.116  -3.700   0.178  1.00  0.00     0.028 A 
ATOM     14  C   UNL     1       5.999  -1.696   1.290  1.00  0.00     0.045 C 
BRANCH   8  15
ATOM     15  N   UNL     1       1.144  -2.484   0.110  1.00  0.00    -0.350 N 
BRANCH  15  16
ATOM     16  C   UNL     1       0.698  -1.621  -0.981  1.00  0.00     0.115 C 
ATOM     17  C   UNL     1       0.621  -0.160  -0.575  1.00  0.00     0.027 C 
ENDBRANCH  15  16
BRANCH  15  18
ATOM     18  C   UNL     1       0.197  -3.490   0.633  1.00  0.00     0.174 C 
BRANCH  18  19
ATOM     19  C   UNL     1       0.101  -4.833  -0.094  1.00  0.00     0.060 A 
ATOM     20  C   UNL     1       0.283  -4.955  -1.474  1.00  0.00     0.026 A 
ATOM     21  N   UNL     1      -0.167  -5.922   0.681  1.00  0.00    -0.259 NA
ATOM     22  C   UNL     1       0.294  -6.220  -2.058  1.00  0.00     0.004 A 
ATOM     23  C   UNL     1      -0.155  -7.135   0.085  1.00  0.00     0.111 A 
ATOM     24  C   UNL     1       0.082  -7.335  -1.263  1.00  0.00     0.020 A 
ENDBRANCH  18  19
ENDBRANCH  15  18
ENDBRANCH   8  15
ENDBRANCH   4   7
ENDBRANCH   2   3
ENDBRANCH   1   2
BRANCH   1  25
ATOM     25  C   UNL     1       5.018   3.332   0.858  1.00  0.00     0.118 C 
BRANCH  25  26
ATOM     26  N   UNL     1       5.560   3.859   2.108  1.00  0.00    -0.352 N 
ATOM     27  C   UNL     1       6.603   4.730   2.321  1.00  0.00     0.251 C 
ATOM     28  H   UNL     1       5.110   3.542   2.924  1.00  0.00     0.163 HD
ATOM     29  O   UNL     1       7.078   4.851   3.439  1.00  0.00    -0.269 OA
BRANCH  27  30
ATOM     30  C   UNL     1       7.145   5.493   1.179  1.00  0.00     0.039 A 
ATOM     31  C   UNL     1       8.527   5.648   1.046  1.00  0.00     0.014 A 
ATOM     32  C   UNL     1       6.277   6.037   0.232  1.00  0.00     0.014 A 
ATOM     33  C   UNL     1       9.040   6.282  -0.087  1.00  0.00     0.010 A 
ATOM     34  C   UNL     1       6.790   6.565  -0.941  1.00  0.00     0.010 A 
ATOM     35  C   UNL     1       8.177   6.703  -1.110  1.00  0.00    -0.014 A 
BRANCH  35  36
ATOM     36  C   UNL     1       8.666   7.329  -2.362  1.00  0.00     0.031 A 
ATOM     37  C   UNL     1       8.199   8.715  -2.712  1.00  0.00     0.074 A 
ATOM     38  C   UNL     1       9.417   6.618  -3.225  1.00  0.00     0.049 A 
ATOM     39  N   UNL     1       8.305   9.368  -3.839  1.00  0.00    -0.248 NA
ATOM     40  C   UNL     1       7.465   9.440  -1.662  1.00  0.00     0.031 C 
ATOM     41  C   UNL     1       9.909   5.257  -3.001  1.00  0.00     0.029 A 
ATOM     42  N   UNL     1       9.880   6.934  -4.477  1.00  0.00    -0.354 N 
ATOM     43  C   UNL     1       7.621  10.564  -3.644  1.00  0.00     0.074 A 
ATOM     44  C   UNL     1       7.045  10.509  -2.318  1.00  0.00     0.031 C 
ATOM     45  C   UNL     1      10.621   4.865  -4.070  1.00  0.00     0.029 A 
ATOM     46  C   UNL     1      10.584   5.918  -5.080  1.00  0.00     0.049 A 
ATOM     47  H   UNL     1       9.723   7.808  -4.904  1.00  0.00     0.167 HD
ATOM     48  C   UNL     1       7.509  11.621  -4.486  1.00  0.00     0.034 A 
ATOM     49  C   UNL     1      11.114   5.837  -6.316  1.00  0.00     0.034 A 
ATOM     50  C   UNL     1       8.117  11.659  -5.792  1.00  0.00     0.049 A 
ATOM     51  C   UNL     1      10.949   7.009  -7.252  1.00  0.00     0.074 A 
ATOM     52  C   UNL     1       8.116  12.689  -6.715  1.00  0.00     0.029 A 
ATOM     53  N   UNL     1       8.838  10.615  -6.360  1.00  0.00    -0.354 N 
ATOM     54  N   UNL     1      10.319   8.144  -7.049  1.00  0.00    -0.248 NA
ATOM     55  C   UNL     1      11.565   6.892  -8.580  1.00  0.00     0.031 C 
ATOM     56  C   UNL     1       8.778  12.246  -7.864  1.00  0.00     0.029 A 
ATOM     57  C   UNL     1       9.264  10.969  -7.630  1.00  0.00     0.049 A 
ATOM     58  H   UNL     1       9.019   9.751  -5.925  1.00  0.00     0.167 HD
ATOM     59  C   UNL     1      10.503   8.893  -8.208  1.00  0.00     0.074 A 
ATOM     60  C   UNL     1      11.298   8.079  -9.105  1.00  0.00     0.031 C 
ATOM     61  C   UNL     1      10.065  10.143  -8.502  1.00  0.00     0.034 A 
BRANCH  48  62
ATOM     62  C   UNL     1       6.684  12.796  -4.018  1.00  0.00     0.023 A 
ATOM     63  C   UNL     1       7.022  13.518  -2.859  1.00  0.00     0.031 A 
ATOM     64  C   UNL     1       5.517  13.171  -4.705  1.00  0.00     0.131 A 
ATOM     65  C   UNL     1       6.155  14.505  -2.369  1.00  0.00     0.055 A 
ATOM     66  C   UNL     1       4.708  14.221  -4.266  1.00  0.00     0.041 A 
ATOM     67  F   UNL     1       5.128  12.508  -5.805  1.00  0.00    -0.206 F 
ATOM     68  C   UNL     1       5.014  14.882  -3.080  1.00  0.00     0.022 A 
BRANCH  65  69
ATOM     69  S   UNL     1       6.452  15.163  -0.705  1.00  0.00     0.124 S 
ATOM     70  O   UNL     1       6.388  13.948   0.105  1.00  0.00    -0.237 OA
ATOM     71  O   UNL     1       7.769  15.774  -0.837  1.00  0.00    -0.237 OA
ATOM     72  O   UNL     1       5.346  16.096  -0.503  1.00  0.00    -0.744 OA
ENDBRANCH  65  69
ENDBRANCH  48  62
BRANCH  49  73
ATOM     73  C   UNL     1      11.844   4.611  -6.749  1.00  0.00     0.023 A 
ATOM     74  C   UNL     1      13.213   4.662  -7.052  1.00  0.00     0.031 A 
ATOM     75  C   UNL     1      11.182   3.379  -6.900  1.00  0.00     0.131 A 
ATOM     76  C   UNL     1      13.867   3.519  -7.537  1.00  0.00     0.055 A 
ATOM     77  C   UNL     1      11.850   2.230  -7.330  1.00  0.00     0.041 A 
ATOM     78  F   UNL     1       9.874   3.271  -6.618  1.00  0.00    -0.206 F 
ATOM     79  C   UNL     1      13.199   2.300  -7.665  1.00  0.00     0.022 A 
BRANCH  76  80
ATOM     80  S   UNL     1      15.589   3.674  -8.085  1.00  0.00     0.124 S 
ATOM     81  O   UNL     1      15.480   4.704  -9.113  1.00  0.00    -0.237 OA
ATOM     82  O   UNL     1      16.265   4.065  -6.853  1.00  0.00    -0.237 OA
ATOM     83  O   UNL     1      15.912   2.335  -8.573  1.00  0.00    -0.744 OA
ENDBRANCH  76  80
ENDBRANCH  49  73
BRANCH  61  84
ATOM     84  C   UNL     1      10.497  10.736  -9.818  1.00  0.00     0.023 A 
ATOM     85  C   UNL     1      10.008  10.262 -11.046  1.00  0.00     0.031 A 
ATOM     86  C   UNL     1      11.390  11.823  -9.832  1.00  0.00     0.131 A 
ATOM     87  C   UNL     1      10.440  10.855 -12.242  1.00  0.00     0.055 A 
ATOM     88  C   UNL     1      11.774  12.443 -11.021  1.00  0.00     0.041 A 
ATOM     89  F   UNL     1      11.887  12.313  -8.685  1.00  0.00    -0.206 F 
ATOM     90  C   UNL     1      11.304  11.954 -12.236  1.00  0.00     0.022 A 
BRANCH  87  91
ATOM     91  S   UNL     1       9.900  10.137 -13.818  1.00  0.00     0.124 S 
ATOM     92  O   UNL     1      10.458   8.790 -13.744  1.00  0.00    -0.237 OA
ATOM     93  O   UNL     1       8.447  10.230 -13.723  1.00  0.00    -0.237 OA
ATOM     94  O   UNL     1      10.512  11.008 -14.820  1.00  0.00    -0.744 OA
ENDBRANCH  87  91
ENDBRANCH  61  84
ENDBRANCH  35  36
ENDBRANCH  27  30
ENDBRANCH  25  26
ENDBRANCH   1  25
TORSDOF 17
