REMARK SMILES CC(C)[C@H](NC(=O)[C@H]1CC(=O)N(c2ccc(F)cc2)C1)C(=O)N1CCC[C@@H]1C(=O)NCCCNC(=O)c1ccc(-c2c3nc(c(-c4cc(S(=O)(=O)[O-])ccc4F)c4ccc([nH]4)c(-c4cc(S(=O)(=O)[O-])ccc4F)c4nc(c(-c5cc(S(=O)(=O)[O-])ccc5F)c5ccc2[nH]5)C=C4)C=C3)cc1
REMARK SMILES IDX 31 1 30 2 28 3 29 4 27 6 23 7 24 8 25 9 26 10 21 11 22 12
REMARK SMILES IDX 4 13 2 14 1 15 3 16 5 17 6 18 7 20 8 21 9 22 20 23 10 24
REMARK SMILES IDX 12 25 11 26 13 27 14 28 19 29 15 30 18 31 16 32 17 33 32 34
REMARK SMILES IDX 33 35 34 36 35 37 36 39 37 40 38 41 99 42 39 43 98 44 40 45
REMARK SMILES IDX 41 46 42 47 92 48 43 49 97 50 91 51 93 52 44 53 96 54 90 55
REMARK SMILES IDX 89 56 45 58 77 59 57 60 76 61 58 62 61 63 75 64 94 65 59 66
REMARK SMILES IDX 60 67 74 69 95 70 62 71 46 72 47 73 55 74 48 75 54 76 56 77
REMARK SMILES IDX 53 78 49 79 50 80 51 81 52 82 78 83 79 84 87 85 80 86 86 87
REMARK SMILES IDX 88 88 85 89 81 90 82 91 83 92 84 93 63 94 64 95 72 96 65 97
REMARK SMILES IDX 71 98 73 99 70 100 66 101 67 102 68 103 69 104
REMARK H PARENT 30 5 5 19 34 38 93 57 61 68
REMARK Flexibility Score: inf
ROOT
ATOM      1  C   UNL     1       3.826  -1.938   0.899  1.00  0.00     0.117 C 
ENDROOT
BRANCH   1   2
ATOM      2  N   UNL     1       5.083  -2.486   1.339  1.00  0.00    -0.354 N 
ATOM      3  C   UNL     1       5.750  -2.250   2.509  1.00  0.00     0.242 C 
ATOM      4  O   UNL     1       6.832  -2.826   2.662  1.00  0.00    -0.273 OA
ATOM      5  H   UNL     1       5.519  -3.111   0.717  1.00  0.00     0.163 HD
BRANCH   3   6
ATOM      6  C   UNL     1       5.296  -1.148   3.500  1.00  0.00     0.174 C 
ATOM      7  N   UNL     1       3.862  -1.068   3.831  1.00  0.00    -0.329 N 
ATOM      8  C   UNL     1       3.483   0.324   3.961  1.00  0.00     0.120 C 
ATOM      9  C   UNL     1       4.376   1.058   2.980  1.00  0.00     0.024 C 
ATOM     10  C   UNL     1       5.663   0.240   2.947  1.00  0.00     0.037 C 
BRANCH   7  11
ATOM     11  C   UNL     1       3.291  -2.084   4.570  1.00  0.00     0.246 C 
ATOM     12  O   UNL     1       4.015  -2.908   5.143  1.00  0.00    -0.272 OA
BRANCH  11  13
ATOM     13  C   UNL     1       1.752  -2.383   4.467  1.00  0.00     0.174 C 
BRANCH  13  14
ATOM     14  C   UNL     1       1.400  -3.384   3.336  1.00  0.00     0.015 C 
ATOM     15  C   UNL     1       2.413  -4.536   3.203  1.00  0.00     0.010 C 
ATOM     16  C   UNL     1       0.015  -4.011   3.520  1.00  0.00     0.010 C 
ENDBRANCH  13  14
BRANCH  13  17
ATOM     17  N   UNL     1       0.830  -1.240   4.676  1.00  0.00    -0.344 N 
ATOM     18  C   UNL     1       0.061  -0.324   4.066  1.00  0.00     0.226 C 
ATOM     19  H   UNL     1       0.749  -1.098   5.647  1.00  0.00     0.164 HD
ATOM     20  O   UNL     1      -0.473   0.462   4.867  1.00  0.00    -0.275 OA
BRANCH  18  21
ATOM     21  C   UNL     1      -0.285  -0.131   2.604  1.00  0.00     0.107 C 
ATOM     22  C   UNL     1       0.760  -0.285   1.523  1.00  0.00     0.116 C 
ATOM     23  C   UNL     1      -1.476  -0.954   2.140  1.00  0.00     0.139 C 
ATOM     24  C   UNL     1      -0.046  -0.618   0.290  1.00  0.00     0.227 C 
ATOM     25  N   UNL     1      -1.300  -1.038   0.717  1.00  0.00    -0.312 N 
ATOM     26  O   UNL     1       0.381  -0.542  -0.844  1.00  0.00    -0.274 OA
BRANCH  25  27
ATOM     27  C   UNL     1      -2.315  -1.448  -0.154  1.00  0.00     0.044 A 
ATOM     28  C   UNL     1      -2.475  -2.804  -0.452  1.00  0.00     0.029 A 
ATOM     29  C   UNL     1      -3.122  -0.490  -0.776  1.00  0.00     0.029 A 
ATOM     30  C   UNL     1      -3.440  -3.201  -1.380  1.00  0.00     0.041 A 
ATOM     31  C   UNL     1      -4.093  -0.892  -1.696  1.00  0.00     0.041 A 
ATOM     32  C   UNL     1      -4.240  -2.243  -1.992  1.00  0.00     0.123 A 
ATOM     33  F   UNL     1      -5.162  -2.624  -2.886  1.00  0.00    -0.207 F 
ENDBRANCH  25  27
ENDBRANCH  18  21
ENDBRANCH  13  17
ENDBRANCH  11  13
ENDBRANCH   7  11
ENDBRANCH   3   6
ENDBRANCH   1   2
BRANCH   1  34
ATOM     34  C   UNL     1       3.822  -1.437  -0.529  1.00  0.00     0.042 C 
BRANCH  34  35
ATOM     35  C   UNL     1       3.633  -2.540  -1.557  1.00  0.00     0.118 C 
BRANCH  35  36
ATOM     36  N   UNL     1       2.381  -3.276  -1.402  1.00  0.00    -0.352 N 
ATOM     37  C   UNL     1       1.291  -3.367  -2.239  1.00  0.00     0.251 C 
ATOM     38  H   UNL     1       2.304  -3.790  -0.566  1.00  0.00     0.163 HD
ATOM     39  O   UNL     1       0.285  -3.956  -1.849  1.00  0.00    -0.269 OA
BRANCH  37  40
ATOM     40  C   UNL     1       1.352  -2.788  -3.599  1.00  0.00     0.039 A 
ATOM     41  C   UNL     1       0.265  -2.076  -4.111  1.00  0.00     0.014 A 
ATOM     42  C   UNL     1       2.498  -2.963  -4.378  1.00  0.00     0.014 A 
ATOM     43  C   UNL     1       0.358  -1.485  -5.377  1.00  0.00     0.010 A 
ATOM     44  C   UNL     1       2.631  -2.284  -5.581  1.00  0.00     0.010 A 
ATOM     45  C   UNL     1       1.557  -1.552  -6.107  1.00  0.00    -0.014 A 
BRANCH  45  46
ATOM     46  C   UNL     1       1.722  -0.915  -7.441  1.00  0.00     0.031 A 
ATOM     47  C   UNL     1       2.073  -1.773  -8.631  1.00  0.00     0.074 A 
ATOM     48  C   UNL     1       1.647   0.424  -7.572  1.00  0.00     0.049 A 
ATOM     49  N   UNL     1       2.429  -1.413  -9.836  1.00  0.00    -0.248 NA
ATOM     50  C   UNL     1       2.065  -3.231  -8.421  1.00  0.00     0.031 C 
ATOM     51  C   UNL     1       1.346   1.367  -6.493  1.00  0.00     0.029 A 
ATOM     52  N   UNL     1       1.828   1.228  -8.671  1.00  0.00    -0.354 N 
ATOM     53  C   UNL     1       2.713  -2.593 -10.515  1.00  0.00     0.074 A 
ATOM     54  C   UNL     1       2.549  -3.675  -9.571  1.00  0.00     0.031 C 
ATOM     55  C   UNL     1       1.327   2.614  -6.990  1.00  0.00     0.029 A 
ATOM     56  C   UNL     1       1.666   2.569  -8.409  1.00  0.00     0.049 A 
ATOM     57  H   UNL     1       2.053   0.877  -9.563  1.00  0.00     0.167 HD
ATOM     58  C   UNL     1       3.053  -2.763 -11.816  1.00  0.00     0.034 A 
ATOM     59  C   UNL     1       1.789   3.641  -9.217  1.00  0.00     0.034 A 
ATOM     60  C   UNL     1       3.161  -1.682 -12.760  1.00  0.00     0.049 A 
ATOM     61  C   UNL     1       2.172   3.431 -10.659  1.00  0.00     0.074 A 
ATOM     62  C   UNL     1       3.436  -1.750 -14.115  1.00  0.00     0.029 A 
ATOM     63  N   UNL     1       2.989  -0.340 -12.453  1.00  0.00    -0.354 N 
ATOM     64  N   UNL     1       2.439   2.308 -11.284  1.00  0.00    -0.248 NA
ATOM     65  C   UNL     1       2.276   4.630 -11.503  1.00  0.00     0.031 C 
ATOM     66  C   UNL     1       3.482  -0.446 -14.616  1.00  0.00     0.029 A 
ATOM     67  C   UNL     1       3.172   0.431 -13.588  1.00  0.00     0.049 A 
ATOM     68  H   UNL     1       2.769   0.012 -11.560  1.00  0.00     0.167 HD
ATOM     69  C   UNL     1       2.719   2.663 -12.600  1.00  0.00     0.074 A 
ATOM     70  C   UNL     1       2.590   4.104 -12.680  1.00  0.00     0.031 C 
ATOM     71  C   UNL     1       3.047   1.867 -13.647  1.00  0.00     0.034 A 
BRANCH  58  72
ATOM     72  C   UNL     1       3.329  -4.165 -12.293  1.00  0.00     0.023 A 
ATOM     73  C   UNL     1       2.314  -5.135 -12.351  1.00  0.00     0.031 A 
ATOM     74  C   UNL     1       4.620  -4.532 -12.710  1.00  0.00     0.131 A 
ATOM     75  C   UNL     1       2.616  -6.439 -12.768  1.00  0.00     0.055 A 
ATOM     76  C   UNL     1       4.900  -5.813 -13.190  1.00  0.00     0.041 A 
ATOM     77  F   UNL     1       5.631  -3.651 -12.659  1.00  0.00    -0.206 F 
ATOM     78  C   UNL     1       3.896  -6.778 -13.213  1.00  0.00     0.022 A 
BRANCH  75  79
ATOM     79  S   UNL     1       1.331  -7.711 -12.643  1.00  0.00     0.124 S 
ATOM     80  O   UNL     1       1.146  -7.799 -11.197  1.00  0.00    -0.237 OA
ATOM     81  O   UNL     1       0.227  -7.123 -13.393  1.00  0.00    -0.237 OA
ATOM     82  O   UNL     1       1.948  -8.883 -13.260  1.00  0.00    -0.744 OA
ENDBRANCH  75  79
ENDBRANCH  58  72
BRANCH  59  83
ATOM     83  C   UNL     1       1.544   5.009  -8.681  1.00  0.00     0.023 A 
ATOM     84  C   UNL     1       0.411   5.741  -9.069  1.00  0.00     0.031 A 
ATOM     85  C   UNL     1       2.431   5.598  -7.763  1.00  0.00     0.131 A 
ATOM     86  C   UNL     1       0.203   7.030  -8.555  1.00  0.00     0.055 A 
ATOM     87  C   UNL     1       2.200   6.865  -7.225  1.00  0.00     0.041 A 
ATOM     88  F   UNL     1       3.523   4.934  -7.353  1.00  0.00    -0.206 F 
ATOM     89  C   UNL     1       1.082   7.591  -7.625  1.00  0.00     0.022 A 
BRANCH  86  90
ATOM     90  S   UNL     1      -1.231   7.979  -9.133  1.00  0.00     0.124 S 
ATOM     91  O   UNL     1      -0.915   8.162 -10.545  1.00  0.00    -0.237 OA
ATOM     92  O   UNL     1      -2.337   7.077  -8.833  1.00  0.00    -0.237 OA
ATOM     93  O   UNL     1      -1.185   9.193  -8.320  1.00  0.00    -0.744 OA
ENDBRANCH  86  90
ENDBRANCH  59  83
BRANCH  71  94
ATOM     94  C   UNL     1       3.257   2.523 -14.985  1.00  0.00     0.023 A 
ATOM     95  C   UNL     1       4.411   3.274 -15.259  1.00  0.00     0.031 A 
ATOM     96  C   UNL     1       2.324   2.327 -16.018  1.00  0.00     0.131 A 
ATOM     97  C   UNL     1       4.595   3.821 -16.538  1.00  0.00     0.055 A 
ATOM     98  C   UNL     1       2.533   2.837 -17.299  1.00  0.00     0.041 A 
ATOM     99  F   UNL     1       1.209   1.610 -15.803  1.00  0.00    -0.206 F 
ATOM    100  C   UNL     1       3.673   3.591 -17.564  1.00  0.00     0.022 A 
BRANCH  97 101
ATOM    101  S   UNL     1       6.053   4.854 -16.844  1.00  0.00     0.124 S 
ATOM    102  O   UNL     1       5.794   6.004 -15.984  1.00  0.00    -0.237 OA
ATOM    103  O   UNL     1       7.150   3.984 -16.431  1.00  0.00    -0.237 OA
ATOM    104  O   UNL     1       5.987   5.124 -18.279  1.00  0.00    -0.744 OA
ENDBRANCH  97 101
ENDBRANCH  71  94
ENDBRANCH  45  46
ENDBRANCH  37  40
ENDBRANCH  35  36
ENDBRANCH  34  35
ENDBRANCH   1  34
TORSDOF 19
