REMARK SMILES O=C(CS(=O)(=O)NCc1ccc(N2CCOCC2)nc1)NCCCNC(=O)c1ccc(-c2c3nc(c(-c4cc(S(=O)(=O)[O-])ccc4F)c4ccc([nH]4)c(-c4cc(S(=O)(=O)[O-])ccc4F)c4nc(c(-c5cc(S(=O)(=O)[O-])ccc5F)c5ccc2[nH]5)C=C4)C=C3)cc1
REMARK SMILES IDX 22 1 21 2 1 3 2 4 3 6 4 7 5 8 6 9 7 10 8 12 9 13 10 14 20 15
REMARK SMILES IDX 11 16 19 17 12 18 13 19 14 20 18 21 15 22 17 23 16 24 23 25
REMARK SMILES IDX 24 26 25 27 26 28 27 30 28 31 29 32 90 33 30 34 89 35 31 36
REMARK SMILES IDX 32 37 33 38 83 39 34 40 88 41 82 42 84 43 35 44 87 45 81 46
REMARK SMILES IDX 80 47 36 49 68 50 48 51 67 52 49 53 52 54 66 55 85 56 50 57
REMARK SMILES IDX 51 58 65 60 86 61 53 62 37 63 38 64 46 65 39 66 45 67 47 68
REMARK SMILES IDX 44 69 40 70 41 71 42 72 43 73 69 74 70 75 78 76 71 77 77 78
REMARK SMILES IDX 79 79 76 80 72 81 73 82 74 83 75 84 54 85 55 86 63 87 56 88
REMARK SMILES IDX 62 89 64 90 61 91 57 92 58 93 59 94 60 95
REMARK H PARENT 21 5 7 11 25 29 84 48 52 59
REMARK Flexibility Score: inf
ROOT
ATOM      1  C   UNL     1       2.012  -2.237  -0.350  1.00  0.00     0.117 C 
ENDROOT
BRANCH   1   2
ATOM      2  N   UNL     1       2.615  -0.917  -0.274  1.00  0.00    -0.355 N 
ATOM      3  O   UNL     1       0.642   0.220  -0.048  1.00  0.00    -0.274 OA
ATOM      4  C   UNL     1       1.871   0.229  -0.099  1.00  0.00     0.236 C 
ATOM      5  H   UNL     1       3.593  -0.838  -0.351  1.00  0.00     0.163 HD
BRANCH   4   6
ATOM      6  C   UNL     1       2.623   1.520  -0.028  1.00  0.00     0.253 C 
BRANCH   6   7
ATOM      7  S   UNL     1       3.855   1.511   1.241  1.00  0.00     0.220 S 
ATOM      8  O   UNL     1       4.778   0.427   0.963  1.00  0.00    -0.212 OA
ATOM      9  O   UNL     1       4.353   2.861   1.372  1.00  0.00    -0.212 OA
BRANCH   7  10
ATOM     10  N   UNL     1       3.067   1.225   2.678  1.00  0.00    -0.210 NA
ATOM     11  H   UNL     1       2.260   1.848   2.677  1.00  0.00     0.141 HD
BRANCH  10  12
ATOM     12  C   UNL     1       2.555  -0.083   3.099  1.00  0.00     0.135 C 
BRANCH  12  13
ATOM     13  C   UNL     1       3.550  -1.192   3.267  1.00  0.00    -0.015 A 
ATOM     14  C   UNL     1       4.885  -0.993   3.596  1.00  0.00     0.010 A 
ATOM     15  C   UNL     1       3.151  -2.513   3.125  1.00  0.00     0.118 A 
ATOM     16  C   UNL     1       5.750  -2.086   3.699  1.00  0.00     0.047 A 
ATOM     17  N   UNL     1       3.979  -3.580   3.200  1.00  0.00    -0.239 NA
ATOM     18  C   UNL     1       5.282  -3.380   3.495  1.00  0.00     0.128 A 
BRANCH  18  19
ATOM     19  N   UNL     1       6.104  -4.473   3.584  1.00  0.00    -0.352 N 
ATOM     20  C   UNL     1       7.353  -4.539   4.334  1.00  0.00     0.146 C 
ATOM     21  C   UNL     1       5.855  -5.649   2.742  1.00  0.00     0.146 C 
ATOM     22  C   UNL     1       8.516  -4.787   3.365  1.00  0.00     0.181 C 
ATOM     23  C   UNL     1       7.078  -5.874   1.827  1.00  0.00     0.181 C 
ATOM     24  O   UNL     1       8.301  -5.976   2.588  1.00  0.00    -0.378 OA
ENDBRANCH  18  19
ENDBRANCH  12  13
ENDBRANCH  10  12
ENDBRANCH   7  10
ENDBRANCH   6   7
ENDBRANCH   4   6
ENDBRANCH   1   2
BRANCH   1  25
ATOM     25  C   UNL     1       2.424  -2.999  -1.599  1.00  0.00     0.042 C 
BRANCH  25  26
ATOM     26  C   UNL     1       3.894  -3.410  -1.620  1.00  0.00     0.118 C 
BRANCH  26  27
ATOM     27  N   UNL     1       4.210  -4.444  -0.642  1.00  0.00    -0.352 N 
ATOM     28  C   UNL     1       4.651  -5.734  -0.824  1.00  0.00     0.251 C 
ATOM     29  H   UNL     1       4.087  -4.177   0.297  1.00  0.00     0.163 HD
ATOM     30  O   UNL     1       4.584  -6.531   0.109  1.00  0.00    -0.269 OA
BRANCH  28  31
ATOM     31  C   UNL     1       5.177  -6.213  -2.119  1.00  0.00     0.039 A 
ATOM     32  C   UNL     1       4.981  -7.563  -2.435  1.00  0.00     0.014 A 
ATOM     33  C   UNL     1       5.856  -5.385  -3.014  1.00  0.00     0.014 A 
ATOM     34  C   UNL     1       5.335  -8.042  -3.692  1.00  0.00     0.010 A 
ATOM     35  C   UNL     1       6.118  -5.835  -4.304  1.00  0.00     0.010 A 
ATOM     36  C   UNL     1       5.822  -7.158  -4.663  1.00  0.00    -0.014 A 
BRANCH  36  37
ATOM     37  C   UNL     1       5.929  -7.584  -6.077  1.00  0.00     0.031 A 
ATOM     38  C   UNL     1       7.260  -7.617  -6.764  1.00  0.00     0.074 A 
ATOM     39  C   UNL     1       4.793  -7.871  -6.745  1.00  0.00     0.049 A 
ATOM     40  N   UNL     1       7.535  -7.885  -8.013  1.00  0.00    -0.248 NA
ATOM     41  C   UNL     1       8.433  -7.280  -5.945  1.00  0.00     0.031 C 
ATOM     42  C   UNL     1       3.444  -7.827  -6.170  1.00  0.00     0.029 A 
ATOM     43  N   UNL     1       4.581  -8.251  -8.045  1.00  0.00    -0.354 N 
ATOM     44  C   UNL     1       8.912  -7.742  -8.136  1.00  0.00     0.074 A 
ATOM     45  C   UNL     1       9.405  -7.308  -6.845  1.00  0.00     0.031 C 
ATOM     46  C   UNL     1       2.553  -8.198  -7.101  1.00  0.00     0.029 A 
ATOM     47  C   UNL     1       3.254  -8.445  -8.354  1.00  0.00     0.049 A 
ATOM     48  H   UNL     1       5.310  -8.373  -8.696  1.00  0.00     0.167 HD
ATOM     49  C   UNL     1       9.687  -7.969  -9.225  1.00  0.00     0.034 A 
ATOM     50  C   UNL     1       2.667  -8.765  -9.523  1.00  0.00     0.034 A 
ATOM     51  C   UNL     1       9.161  -8.396 -10.499  1.00  0.00     0.049 A 
ATOM     52  C   UNL     1       3.547  -8.973 -10.726  1.00  0.00     0.074 A 
ATOM     53  C   UNL     1       9.849  -8.697 -11.661  1.00  0.00     0.029 A 
ATOM     54  N   UNL     1       7.810  -8.573 -10.782  1.00  0.00    -0.354 N 
ATOM     55  N   UNL     1       4.855  -8.877 -10.816  1.00  0.00    -0.248 NA
ATOM     56  C   UNL     1       2.879  -9.333 -11.981  1.00  0.00     0.031 C 
ATOM     57  C   UNL     1       8.914  -8.985 -12.661  1.00  0.00     0.029 A 
ATOM     58  C   UNL     1       7.644  -8.942 -12.108  1.00  0.00     0.049 A 
ATOM     59  H   UNL     1       7.078  -8.453 -10.134  1.00  0.00     0.167 HD
ATOM     60  C   UNL     1       5.167  -9.190 -12.134  1.00  0.00     0.074 A 
ATOM     61  C   UNL     1       3.913  -9.494 -12.795  1.00  0.00     0.031 C 
ATOM     62  C   UNL     1       6.378  -9.224 -12.746  1.00  0.00     0.034 A 
BRANCH  49  63
ATOM     63  C   UNL     1      11.170  -7.721  -9.084  1.00  0.00     0.023 A 
ATOM     64  C   UNL     1      11.960  -8.456  -8.181  1.00  0.00     0.031 A 
ATOM     65  C   UNL     1      11.799  -6.712  -9.834  1.00  0.00     0.131 A 
ATOM     66  C   UNL     1      13.309  -8.119  -7.993  1.00  0.00     0.055 A 
ATOM     67  C   UNL     1      13.162  -6.436  -9.702  1.00  0.00     0.041 A 
ATOM     68  F   UNL     1      11.095  -5.961 -10.695  1.00  0.00    -0.206 F 
ATOM     69  C   UNL     1      13.922  -7.131  -8.765  1.00  0.00     0.022 A 
BRANCH  66  70
ATOM     70  S   UNL     1      14.210  -8.887  -6.619  1.00  0.00     0.124 S 
ATOM     71  O   UNL     1      13.403  -8.477  -5.472  1.00  0.00    -0.237 OA
ATOM     72  O   UNL     1      14.160 -10.304  -6.961  1.00  0.00    -0.237 OA
ATOM     73  O   UNL     1      15.534  -8.274  -6.691  1.00  0.00    -0.744 OA
ENDBRANCH  66  70
ENDBRANCH  49  63
BRANCH  50  74
ATOM     74  C   UNL     1       1.183  -8.885  -9.619  1.00  0.00     0.023 A 
ATOM     75  C   UNL     1       0.575 -10.108  -9.939  1.00  0.00     0.031 A 
ATOM     76  C   UNL     1       0.350  -7.769  -9.418  1.00  0.00     0.131 A 
ATOM     77  C   UNL     1      -0.819 -10.178 -10.093  1.00  0.00     0.055 A 
ATOM     78  C   UNL     1      -1.040  -7.856  -9.517  1.00  0.00     0.041 A 
ATOM     79  F   UNL     1       0.878  -6.574  -9.103  1.00  0.00    -0.206 F 
ATOM     80  C   UNL     1      -1.631  -9.064  -9.870  1.00  0.00     0.022 A 
BRANCH  77  81
ATOM     81  S   UNL     1      -1.551 -11.731 -10.677  1.00  0.00     0.124 S 
ATOM     82  O   UNL     1      -0.848 -11.936 -11.938  1.00  0.00    -0.237 OA
ATOM     83  O   UNL     1      -1.212 -12.650  -9.595  1.00  0.00    -0.237 OA
ATOM     84  O   UNL     1      -2.972 -11.413 -10.799  1.00  0.00    -0.744 OA
ENDBRANCH  77  81
ENDBRANCH  50  74
BRANCH  62  85
ATOM     85  C   UNL     1       6.393  -9.638 -14.195  1.00  0.00     0.023 A 
ATOM     86  C   UNL     1       5.833  -8.829 -15.199  1.00  0.00     0.031 A 
ATOM     87  C   UNL     1       6.972 -10.862 -14.574  1.00  0.00     0.131 A 
ATOM     88  C   UNL     1       5.817  -9.278 -16.527  1.00  0.00     0.055 A 
ATOM     89  C   UNL     1       7.008 -11.275 -15.906  1.00  0.00     0.041 A 
ATOM     90  F   UNL     1       7.518 -11.674 -13.654  1.00  0.00    -0.206 F 
ATOM     91  C   UNL     1       6.418 -10.486 -16.890  1.00  0.00     0.022 A 
BRANCH  88  92
ATOM     92  S   UNL     1       4.928  -8.297 -17.766  1.00  0.00     0.124 S 
ATOM     93  O   UNL     1       3.568  -8.303 -17.237  1.00  0.00    -0.237 OA
ATOM     94  O   UNL     1       5.627  -7.017 -17.713  1.00  0.00    -0.237 OA
ATOM     95  O   UNL     1       5.116  -9.054 -19.002  1.00  0.00    -0.744 OA
ENDBRANCH  88  92
ENDBRANCH  62  85
ENDBRANCH  36  37
ENDBRANCH  28  31
ENDBRANCH  26  27
ENDBRANCH  25  26
ENDBRANCH   1  25
TORSDOF 18
