REMARK SMILES CC[C@@H](C)NC(=O)[C@H](C)[NH+]1CC(n2cc(C(=O)NCCCNC(=O)c3ccc(-c4c5nc(c(-c6cc(S(=O)(=O)[O-])ccc6F)c6ccc([nH]6)c(-c6cc(S(=O)(=O)[O-])ccc6F)c6nc(c(-c7cc(S(=O)(=O)[O-])ccc7F)c7ccc4[nH]7)C=C6)C=C5)cc3)nn2)C1
REMARK SMILES IDX 19 1 18 2 16 3 17 4 15 6 13 7 14 8 89 9 88 10 12 11 10 12
REMARK SMILES IDX 11 13 90 14 8 16 9 17 6 18 5 19 7 21 3 22 4 23 2 24 1 25
REMARK SMILES IDX 20 26 21 27 22 28 23 29 24 31 25 32 26 33 87 34 27 35 86 36
REMARK SMILES IDX 28 37 29 38 30 39 80 40 31 41 85 42 79 43 81 44 32 45 84 46
REMARK SMILES IDX 78 47 77 48 33 50 65 51 45 52 64 53 46 54 49 55 63 56 82 57
REMARK SMILES IDX 47 58 48 59 62 61 83 62 50 63 34 64 35 65 43 66 36 67 42 68
REMARK SMILES IDX 44 69 41 70 37 71 38 72 39 73 40 74 66 75 67 76 75 77 68 78
REMARK SMILES IDX 74 79 76 80 73 81 69 82 70 83 71 84 72 85 51 86 52 87 60 88
REMARK SMILES IDX 53 89 59 90 61 91 58 92 54 93 55 94 56 95 57 96
REMARK H PARENT 18 5 10 15 5 20 22 30 81 49 49 60
REMARK Flexibility Score: inf
ROOT
ATOM      1  C   UNL     1       8.298   6.927   4.381  1.00  0.00     0.118 C 
ENDROOT
BRANCH   1   2
ATOM      2  N   UNL     1       7.681   8.182   4.779  1.00  0.00    -0.351 N 
ATOM      3  C   UNL     1       6.367   8.466   5.089  1.00  0.00     0.273 C 
ATOM      4  O   UNL     1       6.122   9.553   5.603  1.00  0.00    -0.267 OA
ATOM      5  H   UNL     1       8.297   8.948   4.835  1.00  0.00     0.163 HD
BRANCH   3   6
ATOM      6  C   UNL     1       5.323   7.480   4.833  1.00  0.00     0.170 A 
ATOM      7  N   UNL     1       4.076   5.849   4.134  1.00  0.00    -0.237 N 
ATOM      8  C   UNL     1       5.230   6.516   3.850  1.00  0.00     0.145 A 
ATOM      9  N   UNL     1       3.448   6.387   5.188  1.00  0.00    -0.066 NA
ATOM     10  N   UNL     1       4.182   7.410   5.606  1.00  0.00    -0.125 NA
BRANCH   7  11
ATOM     11  C   UNL     1       3.620   4.714   3.400  1.00  0.00     0.218 C 
ATOM     12  N   UNL     1       3.021   2.722   3.623  1.00  0.00    -0.321 N 
ATOM     13  C   UNL     1       2.359   4.016   3.949  1.00  0.00     0.296 C 
ATOM     14  C   UNL     1       4.331   3.418   3.847  1.00  0.00     0.296 C 
ATOM     15  H   UNL     1       2.754   2.230   2.770  1.00  0.00     0.348 HD
BRANCH  12  16
ATOM     16  C   UNL     1       2.866   1.631   4.616  1.00  0.00     0.271 C 
ATOM     17  C   UNL     1       1.687   1.738   5.580  1.00  0.00     0.086 C 
BRANCH  16  18
ATOM     18  C   UNL     1       3.023   0.300   3.820  1.00  0.00     0.278 C 
ATOM     19  N   UNL     1       1.990  -0.403   3.279  1.00  0.00    -0.349 N 
ATOM     20  H   UNL     1       2.267  -1.090   2.631  1.00  0.00     0.163 HD
ATOM     21  O   UNL     1       4.158  -0.135   3.574  1.00  0.00    -0.268 OA
BRANCH  19  22
ATOM     22  C   UNL     1       0.552  -0.323   3.484  1.00  0.00     0.078 C 
ATOM     23  C   UNL     1       0.113  -1.495   4.363  1.00  0.00     0.031 C 
BRANCH  22  24
ATOM     24  C   UNL     1      -0.200  -0.281   2.148  1.00  0.00     0.021 C 
ATOM     25  C   UNL     1      -1.634   0.204   2.328  1.00  0.00     0.006 C 
ENDBRANCH  22  24
ENDBRANCH  19  22
ENDBRANCH  16  18
ENDBRANCH  12  16
ENDBRANCH   7  11
ENDBRANCH   3   6
ENDBRANCH   1   2
BRANCH   1  26
ATOM     26  C   UNL     1       8.514   6.829   2.868  1.00  0.00     0.042 C 
BRANCH  26  27
ATOM     27  C   UNL     1       9.795   7.512   2.420  1.00  0.00     0.118 C 
BRANCH  27  28
ATOM     28  N   UNL     1      10.990   6.796   2.866  1.00  0.00    -0.352 N 
ATOM     29  C   UNL     1      12.317   7.163   2.718  1.00  0.00     0.251 C 
ATOM     30  H   UNL     1      10.830   5.944   3.333  1.00  0.00     0.163 HD
ATOM     31  O   UNL     1      13.197   6.322   2.800  1.00  0.00    -0.269 OA
BRANCH  29  32
ATOM     32  C   UNL     1      12.632   8.579   2.446  1.00  0.00     0.039 A 
ATOM     33  C   UNL     1      13.622   8.937   1.528  1.00  0.00     0.014 A 
ATOM     34  C   UNL     1      11.880   9.554   3.096  1.00  0.00     0.014 A 
ATOM     35  C   UNL     1      13.774  10.283   1.203  1.00  0.00     0.010 A 
ATOM     36  C   UNL     1      11.918  10.853   2.657  1.00  0.00     0.010 A 
ATOM     37  C   UNL     1      12.894  11.235   1.748  1.00  0.00    -0.014 A 
BRANCH  37  38
ATOM     38  C   UNL     1      12.895  12.616   1.277  1.00  0.00     0.031 A 
ATOM     39  C   UNL     1      12.765  12.753  -0.196  1.00  0.00     0.074 A 
ATOM     40  C   UNL     1      12.814  13.695   2.086  1.00  0.00     0.049 A 
ATOM     41  N   UNL     1      13.706  13.021  -1.037  1.00  0.00    -0.248 NA
ATOM     42  C   UNL     1      11.495  12.371  -0.835  1.00  0.00     0.031 C 
ATOM     43  C   UNL     1      12.625  13.736   3.540  1.00  0.00     0.029 A 
ATOM     44  N   UNL     1      12.792  15.014   1.748  1.00  0.00    -0.354 N 
ATOM     45  C   UNL     1      13.094  13.113  -2.281  1.00  0.00     0.074 A 
ATOM     46  C   UNL     1      11.811  12.481  -2.129  1.00  0.00     0.031 C 
ATOM     47  C   UNL     1      12.288  14.990   3.921  1.00  0.00     0.029 A 
ATOM     48  C   UNL     1      12.414  15.874   2.776  1.00  0.00     0.049 A 
ATOM     49  H   UNL     1      13.026  15.334   0.848  1.00  0.00     0.167 HD
ATOM     50  C   UNL     1      13.600  13.932  -3.246  1.00  0.00     0.034 A 
ATOM     51  C   UNL     1      12.216  17.218   2.696  1.00  0.00     0.034 A 
ATOM     52  C   UNL     1      14.930  14.382  -2.888  1.00  0.00     0.049 A 
ATOM     53  C   UNL     1      12.998  17.685   1.524  1.00  0.00     0.074 A 
ATOM     54  C   UNL     1      16.125  13.751  -2.601  1.00  0.00     0.029 A 
ATOM     55  N   UNL     1      15.056  15.656  -2.376  1.00  0.00    -0.354 N 
ATOM     56  N   UNL     1      14.300  17.620   1.465  1.00  0.00    -0.248 NA
ATOM     57  C   UNL     1      12.326  17.750   0.235  1.00  0.00     0.031 C 
ATOM     58  C   UNL     1      16.673  14.486  -1.507  1.00  0.00     0.029 A 
ATOM     59  C   UNL     1      15.839  15.578  -1.251  1.00  0.00     0.049 A 
ATOM     60  H   UNL     1      14.657  16.475  -2.750  1.00  0.00     0.167 HD
ATOM     61  C   UNL     1      14.580  17.184   0.179  1.00  0.00     0.074 A 
ATOM     62  C   UNL     1      13.333  17.379  -0.561  1.00  0.00     0.031 C 
ATOM     63  C   UNL     1      15.698  16.446  -0.094  1.00  0.00     0.034 A 
BRANCH  50  64
ATOM     64  C   UNL     1      12.792  14.643  -4.311  1.00  0.00     0.023 A 
ATOM     65  C   UNL     1      13.507  15.451  -5.218  1.00  0.00     0.031 A 
ATOM     66  C   UNL     1      11.390  14.814  -4.314  1.00  0.00     0.131 A 
ATOM     67  C   UNL     1      12.858  16.444  -5.971  1.00  0.00     0.055 A 
ATOM     68  C   UNL     1      10.741  15.755  -5.120  1.00  0.00     0.041 A 
ATOM     69  F   UNL     1      10.576  14.157  -3.482  1.00  0.00    -0.206 F 
ATOM     70  C   UNL     1      11.478  16.603  -5.928  1.00  0.00     0.022 A 
BRANCH  67  71
ATOM     71  S   UNL     1      13.880  17.642  -6.864  1.00  0.00     0.124 S 
ATOM     72  O   UNL     1      14.704  18.182  -5.787  1.00  0.00    -0.237 OA
ATOM     73  O   UNL     1      14.563  16.792  -7.834  1.00  0.00    -0.237 OA
ATOM     74  O   UNL     1      12.901  18.569  -7.427  1.00  0.00    -0.744 OA
ENDBRANCH  67  71
ENDBRANCH  50  64
BRANCH  51  75
ATOM     75  C   UNL     1      11.139  18.018   3.347  1.00  0.00     0.023 A 
ATOM     76  C   UNL     1      11.192  19.424   3.476  1.00  0.00     0.031 A 
ATOM     77  C   UNL     1       9.896  17.406   3.629  1.00  0.00     0.131 A 
ATOM     78  C   UNL     1      10.038  20.152   3.860  1.00  0.00     0.055 A 
ATOM     79  C   UNL     1       8.761  18.129   4.005  1.00  0.00     0.041 A 
ATOM     80  F   UNL     1       9.719  16.086   3.461  1.00  0.00    -0.206 F 
ATOM     81  C   UNL     1       8.825  19.509   4.112  1.00  0.00     0.022 A 
BRANCH  78  82
ATOM     82  S   UNL     1      10.072  21.975   3.953  1.00  0.00     0.124 S 
ATOM     83  O   UNL     1      10.948  22.212   5.094  1.00  0.00    -0.237 OA
ATOM     84  O   UNL     1      10.595  22.347   2.644  1.00  0.00    -0.237 OA
ATOM     85  O   UNL     1       8.669  22.332   4.173  1.00  0.00    -0.744 OA
ENDBRANCH  78  82
ENDBRANCH  51  75
BRANCH  63  86
ATOM     86  C   UNL     1      16.795  16.374   0.954  1.00  0.00     0.023 A 
ATOM     87  C   UNL     1      16.638  15.895   2.276  1.00  0.00     0.031 A 
ATOM     88  C   UNL     1      18.096  16.706   0.534  1.00  0.00     0.131 A 
ATOM     89  C   UNL     1      17.763  15.774   3.120  1.00  0.00     0.055 A 
ATOM     90  C   UNL     1      19.207  16.562   1.363  1.00  0.00     0.041 A 
ATOM     91  F   UNL     1      18.315  17.146  -0.716  1.00  0.00    -0.206 F 
ATOM     92  C   UNL     1      19.044  16.101   2.662  1.00  0.00     0.022 A 
BRANCH  89  93
ATOM     93  S   UNL     1      17.585  15.208   4.845  1.00  0.00     0.124 S 
ATOM     94  O   UNL     1      16.476  16.005   5.355  1.00  0.00    -0.237 OA
ATOM     95  O   UNL     1      17.325  13.780   4.685  1.00  0.00    -0.237 OA
ATOM     96  O   UNL     1      18.885  15.523   5.442  1.00  0.00    -0.744 OA
ENDBRANCH  89  93
ENDBRANCH  63  86
ENDBRANCH  37  38
ENDBRANCH  29  32
ENDBRANCH  27  28
ENDBRANCH  26  27
ENDBRANCH   1  26
TORSDOF 18
