REMARK SMILES O=C(NCCCNC(=O)c1ccc(Br)c(NC(=S)NC(=O)c2cccs2)c1)c1ccc(-c2c3nc(c(-c4cc(S(=O)(=O)[O-])ccc4F)c4ccc([nH]4)c(-c4cc(S(=O)(=O)[O-])ccc4F)c4nc(c(-c5cc(S(=O)(=O)[O-])ccc5F)c5ccc2[nH]5)C=C4)C=C3)cc1
REMARK SMILES IDX 5 1 4 2 3 3 1 4 2 5 28 7 29 8 90 9 30 10 89 11 31 12 32 13
REMARK SMILES IDX 33 14 83 15 34 16 88 17 82 18 84 19 35 20 87 21 81 22 80 23
REMARK SMILES IDX 36 25 68 26 48 27 67 28 49 29 52 30 66 31 85 32 50 33 51 34
REMARK SMILES IDX 65 36 86 37 53 38 37 39 38 40 46 41 39 42 45 43 47 44 44 45
REMARK SMILES IDX 40 46 41 47 42 48 43 49 69 50 70 51 78 52 71 53 77 54 79 55
REMARK SMILES IDX 76 56 72 57 73 58 74 59 75 60 54 61 55 62 63 63 56 64 62 65
REMARK SMILES IDX 64 66 61 67 57 68 58 69 59 70 60 71 6 72 7 73 8 74 9 76
REMARK SMILES IDX 10 77 11 78 27 79 12 80 15 81 13 82 14 83 16 84 17 86 18 87
REMARK SMILES IDX 19 88 20 89 21 91 22 92 23 93 26 94 24 95 25 96
REMARK H PARENT 3 6 84 24 52 35 7 75 16 85 19 90
REMARK Flexibility Score: inf
ROOT
ATOM      1  C   UNL     1       4.949  -2.146  -0.660  1.00  0.00     0.042 C 
ENDROOT
BRANCH   1   2
ATOM      2  C   UNL     1       4.569  -0.702  -0.940  1.00  0.00     0.118 C 
BRANCH   2   3
ATOM      3  N   UNL     1       3.127  -0.461  -0.893  1.00  0.00    -0.352 N 
ATOM      4  O   UNL     1       1.137   0.120   0.001  1.00  0.00    -0.269 OA
ATOM      5  C   UNL     1       2.361   0.169   0.061  1.00  0.00     0.251 C 
ATOM      6  H   UNL     1       2.625  -0.804  -1.667  1.00  0.00     0.163 HD
BRANCH   5   7
ATOM      7  C   UNL     1       3.031   0.866   1.175  1.00  0.00     0.039 A 
ATOM      8  C   UNL     1       4.163   1.635   0.923  1.00  0.00     0.014 A 
ATOM      9  C   UNL     1       2.570   0.698   2.482  1.00  0.00     0.014 A 
ATOM     10  C   UNL     1       4.979   2.006   1.976  1.00  0.00     0.010 A 
ATOM     11  C   UNL     1       3.309   1.230   3.542  1.00  0.00     0.010 A 
ATOM     12  C   UNL     1       4.549   1.843   3.301  1.00  0.00    -0.014 A 
BRANCH  12  13
ATOM     13  C   UNL     1       5.398   2.383   4.393  1.00  0.00     0.031 A 
ATOM     14  C   UNL     1       5.936   1.496   5.481  1.00  0.00     0.074 A 
ATOM     15  C   UNL     1       5.721   3.692   4.362  1.00  0.00     0.049 A 
ATOM     16  N   UNL     1       6.719   1.811   6.481  1.00  0.00    -0.248 NA
ATOM     17  C   UNL     1       5.542   0.081   5.452  1.00  0.00     0.031 C 
ATOM     18  C   UNL     1       5.265   4.646   3.345  1.00  0.00     0.029 A 
ATOM     19  N   UNL     1       6.526   4.445   5.176  1.00  0.00    -0.354 N 
ATOM     20  C   UNL     1       6.894   0.643   7.214  1.00  0.00     0.074 A 
ATOM     21  C   UNL     1       6.102  -0.379   6.562  1.00  0.00     0.031 C 
ATOM     22  C   UNL     1       5.858   5.829   3.549  1.00  0.00     0.029 A 
ATOM     23  C   UNL     1       6.646   5.754   4.771  1.00  0.00     0.049 A 
ATOM     24  H   UNL     1       6.976   4.083   5.973  1.00  0.00     0.167 HD
ATOM     25  C   UNL     1       7.648   0.448   8.325  1.00  0.00     0.034 A 
ATOM     26  C   UNL     1       7.290   6.793   5.332  1.00  0.00     0.034 A 
ATOM     27  C   UNL     1       8.416   1.489   8.966  1.00  0.00     0.049 A 
ATOM     28  C   UNL     1       8.042   6.563   6.613  1.00  0.00     0.074 A 
ATOM     29  C   UNL     1       9.238   1.387  10.076  1.00  0.00     0.029 A 
ATOM     30  N   UNL     1       8.440   2.823   8.579  1.00  0.00    -0.354 N 
ATOM     31  N   UNL     1       8.211   5.447   7.282  1.00  0.00    -0.248 NA
ATOM     32  C   UNL     1       8.692   7.733   7.212  1.00  0.00     0.031 C 
ATOM     33  C   UNL     1       9.658   2.672  10.429  1.00  0.00     0.029 A 
ATOM     34  C   UNL     1       9.216   3.560   9.462  1.00  0.00     0.049 A 
ATOM     35  H   UNL     1       7.975   3.191   7.793  1.00  0.00     0.167 HD
ATOM     36  C   UNL     1       9.028   5.774   8.360  1.00  0.00     0.074 A 
ATOM     37  C   UNL     1       9.323   7.187   8.239  1.00  0.00     0.031 C 
ATOM     38  C   UNL     1       9.498   4.973   9.349  1.00  0.00     0.034 A 
BRANCH  25  39
ATOM     39  C   UNL     1       7.622  -0.923   8.959  1.00  0.00     0.023 A 
ATOM     40  C   UNL     1       8.057  -2.072   8.277  1.00  0.00     0.031 A 
ATOM     41  C   UNL     1       7.132  -1.084  10.269  1.00  0.00     0.131 A 
ATOM     42  C   UNL     1       7.915  -3.334   8.873  1.00  0.00     0.055 A 
ATOM     43  C   UNL     1       7.092  -2.331  10.895  1.00  0.00     0.041 A 
ATOM     44  F   UNL     1       6.673  -0.030  10.963  1.00  0.00    -0.206 F 
ATOM     45  C   UNL     1       7.468  -3.469  10.189  1.00  0.00     0.022 A 
BRANCH  42  46
ATOM     46  S   UNL     1       8.144  -4.806   7.838  1.00  0.00     0.124 S 
ATOM     47  O   UNL     1       7.191  -4.560   6.758  1.00  0.00    -0.237 OA
ATOM     48  O   UNL     1       9.553  -4.723   7.474  1.00  0.00    -0.237 OA
ATOM     49  O   UNL     1       7.791  -5.910   8.728  1.00  0.00    -0.744 OA
ENDBRANCH  42  46
ENDBRANCH  25  39
BRANCH  26  50
ATOM     50  C   UNL     1       7.224   8.147   4.712  1.00  0.00     0.023 A 
ATOM     51  C   UNL     1       8.390   8.806   4.298  1.00  0.00     0.031 A 
ATOM     52  C   UNL     1       5.999   8.826   4.576  1.00  0.00     0.131 A 
ATOM     53  C   UNL     1       8.316  10.127   3.832  1.00  0.00     0.055 A 
ATOM     54  C   UNL     1       5.922  10.108   4.033  1.00  0.00     0.041 A 
ATOM     55  F   UNL     1       4.852   8.246   4.963  1.00  0.00    -0.206 F 
ATOM     56  C   UNL     1       7.088  10.774   3.675  1.00  0.00     0.022 A 
BRANCH  53  57
ATOM     57  S   UNL     1       9.862  11.036   3.571  1.00  0.00     0.124 S 
ATOM     58  O   UNL     1      10.478  10.949   4.891  1.00  0.00    -0.237 OA
ATOM     59  O   UNL     1      10.498  10.258   2.513  1.00  0.00    -0.237 OA
ATOM     60  O   UNL     1       9.409  12.369   3.179  1.00  0.00    -0.744 OA
ENDBRANCH  53  57
ENDBRANCH  26  50
BRANCH  38  61
ATOM     61  C   UNL     1      10.449   5.595  10.345  1.00  0.00     0.023 A 
ATOM     62  C   UNL     1      10.070   6.662  11.179  1.00  0.00     0.031 A 
ATOM     63  C   UNL     1      11.774   5.128  10.437  1.00  0.00     0.131 A 
ATOM     64  C   UNL     1      11.026   7.280  11.998  1.00  0.00     0.055 A 
ATOM     65  C   UNL     1      12.692   5.683  11.327  1.00  0.00     0.041 A 
ATOM     66  F   UNL     1      12.201   4.122   9.656  1.00  0.00    -0.206 F 
ATOM     67  C   UNL     1      12.326   6.780  12.100  1.00  0.00     0.022 A 
BRANCH  64  68
ATOM     68  S   UNL     1      10.592   8.846  12.804  1.00  0.00     0.124 S 
ATOM     69  O   UNL     1      10.191   9.667  11.667  1.00  0.00    -0.237 OA
ATOM     70  O   UNL     1       9.521   8.445  13.710  1.00  0.00    -0.237 OA
ATOM     71  O   UNL     1      11.837   9.252  13.455  1.00  0.00    -0.744 OA
ENDBRANCH  64  68
ENDBRANCH  38  61
ENDBRANCH  12  13
ENDBRANCH   5   7
ENDBRANCH   2   3
ENDBRANCH   1   2
BRANCH   1  72
ATOM     72  C   UNL     1       4.289  -3.149  -1.588  1.00  0.00     0.118 C 
BRANCH  72  73
ATOM     73  N   UNL     1       4.454  -2.785  -2.980  1.00  0.00    -0.352 N 
ATOM     74  C   UNL     1       5.234  -3.276  -3.991  1.00  0.00     0.251 C 
ATOM     75  H   UNL     1       3.889  -2.028  -3.256  1.00  0.00     0.163 HD
ATOM     76  O   UNL     1       5.363  -2.499  -4.936  1.00  0.00    -0.269 OA
BRANCH  74  77
ATOM     77  C   UNL     1       5.860  -4.729  -3.886  1.00  0.00     0.041 A 
ATOM     78  C   UNL     1       4.689  -5.856  -3.065  1.00  0.00     0.015 A 
ATOM     79  C   UNL     1       7.627  -5.639  -4.423  1.00  0.00     0.041 A 
ATOM     80  C   UNL     1       5.232  -7.534  -2.798  1.00  0.00     0.018 A 
ATOM     81  C   UNL     1       8.067  -7.175  -4.034  1.00  0.00     0.055 A 
ATOM     82  C   UNL     1       6.856  -8.135  -3.261  1.00  0.00     0.041 A 
ATOM     83  Br  UNL     1       7.301  -9.906  -2.755  1.00  0.00    -0.049 Br
BRANCH  81  84
ATOM     84  N   UNL     1       9.467  -7.271  -4.193  1.00  0.00    -0.331 N 
ATOM     85  H   UNL     1       9.843  -8.170  -4.050  1.00  0.00     0.169 HD
BRANCH  84  86
ATOM     86  C   UNL     1      10.402  -6.281  -4.522  1.00  0.00     0.177 C 
ATOM     87  S   UNL     1      12.002  -6.787  -4.653  1.00  0.00    -0.040 S 
BRANCH  86  88
ATOM     88  N   UNL     1      10.174  -4.871  -4.806  1.00  0.00    -0.298 N 
ATOM     89  C   UNL     1       9.291  -3.626  -4.990  1.00  0.00     0.267 C 
ATOM     90  H   UNL     1      11.082  -4.527  -4.971  1.00  0.00     0.172 HD
ATOM     91  O   UNL     1       9.805  -2.643  -5.522  1.00  0.00    -0.268 OA
BRANCH  89  92
ATOM     92  C   UNL     1       7.837  -3.658  -4.508  1.00  0.00     0.092 A 
ATOM     93  C   UNL     1       7.678  -4.245  -2.912  1.00  0.00     0.025 A 
ATOM     94  S   UNL     1       6.506  -4.724  -6.076  1.00  0.00    -0.139 S 
ATOM     95  C   UNL     1       6.781  -5.930  -2.810  1.00  0.00     0.012 A 
ATOM     96  C   UNL     1       6.023  -6.444  -4.572  1.00  0.00     0.065 A 
ENDBRANCH  89  92
ENDBRANCH  86  88
ENDBRANCH  84  86
ENDBRANCH  81  84
ENDBRANCH  74  77
ENDBRANCH  72  73
ENDBRANCH   1  72
TORSDOF 17
