REMARK SMILES O=C(NCCCNC(=O)c1ccc(-c2c3nc(c(-c4cc(S(=O)(=O)[O-])ccc4F)c4ccc([nH]4)c(-c4cc(S(=O)(=O)[O-])ccc4F)c4nc(c(-c5cc(S(=O)(=O)[O-])ccc5F)c5ccc2[nH]5)C=C4)C=C3)cc1)C1=Cc2cc(Cl)cc(-c3ccc(CO)cc3)c2O[C@@H]1C(F)(F)F
REMARK SMILES IDX 5 1 4 2 3 3 1 4 2 5 73 7 74 8 91 9 75 10 90 11 76 12 89 13
REMARK SMILES IDX 77 14 80 15 78 16 79 17 92 18 93 19 94 20 95 21 81 22 82 23
REMARK SMILES IDX 88 24 83 25 87 26 84 27 85 28 86 29 6 31 7 32 8 33 9 35
REMARK SMILES IDX 10 36 11 37 72 38 12 39 71 40 13 41 14 42 15 43 65 44 16 45
REMARK SMILES IDX 70 46 64 47 66 48 17 49 69 50 63 51 62 52 18 54 50 55 30 56
REMARK SMILES IDX 49 57 31 58 34 59 48 60 67 61 32 62 33 63 47 65 68 66 35 67
REMARK SMILES IDX 19 68 20 69 28 70 21 71 27 72 29 73 26 74 22 75 23 76 24 77
REMARK SMILES IDX 25 78 51 79 52 80 60 81 53 82 59 83 61 84 58 85 54 86 55 87
REMARK SMILES IDX 56 88 57 89 36 90 37 91 45 92 38 93 44 94 46 95 43 96 39 97
REMARK SMILES IDX 40 98 41 99 42 100
REMARK H PARENT 3 6 86 30 7 34 66 53 34 64
REMARK Flexibility Score: inf
ROOT
ATOM      1  C   UNL     1       4.097   2.709  -1.163  1.00  0.00     0.042 C 
ENDROOT
BRANCH   1   2
ATOM      2  C   UNL     1       3.018   2.056  -0.298  1.00  0.00     0.118 C 
BRANCH   2   3
ATOM      3  N   UNL     1       2.209   1.083  -1.044  1.00  0.00    -0.352 N 
ATOM      4  O   UNL     1       1.348  -0.963  -1.535  1.00  0.00    -0.270 OA
ATOM      5  C   UNL     1       2.222  -0.288  -1.008  1.00  0.00     0.251 C 
ATOM      6  H   UNL     1       1.556   1.476  -1.667  1.00  0.00     0.163 HD
BRANCH   5   7
ATOM      7  C   UNL     1       3.301  -0.914  -0.233  1.00  0.00     0.067 C 
ATOM      8  C   UNL     1       4.556  -0.748  -0.662  1.00  0.00     0.025 C 
ATOM      9  C   UNL     1       2.972  -1.389   1.144  1.00  0.00     0.314 C 
ATOM     10  C   UNL     1       5.543  -0.571   0.406  1.00  0.00     0.019 A 
ATOM     11  O   UNL     1       3.814  -0.744   2.130  1.00  0.00    -0.475 OA
ATOM     12  C   UNL     1       6.839  -0.190   0.048  1.00  0.00     0.032 A 
ATOM     13  C   UNL     1       5.084  -0.387   1.729  1.00  0.00     0.135 A 
ATOM     14  C   UNL     1       7.638   0.462   0.980  1.00  0.00     0.042 A 
ATOM     15  C   UNL     1       5.861   0.337   2.647  1.00  0.00     0.026 A 
ATOM     16  Cl  UNL     1       9.181   1.053   0.503  1.00  0.00    -0.084 Cl
ATOM     17  C   UNL     1       7.149   0.749   2.253  1.00  0.00     0.033 A 
BRANCH   9  18
ATOM     18  C   UNL     1       3.017  -2.923   1.253  1.00  0.00     0.429 C 
ATOM     19  F   UNL     1       2.635  -3.339   2.486  1.00  0.00    -0.167 F 
ATOM     20  F   UNL     1       2.177  -3.515   0.370  1.00  0.00    -0.167 F 
ATOM     21  F   UNL     1       4.252  -3.430   1.029  1.00  0.00    -0.167 F 
ENDBRANCH   9  18
BRANCH  15  22
ATOM     22  C   UNL     1       5.303   0.871   3.899  1.00  0.00    -0.015 A 
ATOM     23  C   UNL     1       4.793   2.180   3.919  1.00  0.00     0.009 A 
ATOM     24  C   UNL     1       5.325   0.157   5.098  1.00  0.00     0.009 A 
ATOM     25  C   UNL     1       4.400   2.796   5.104  1.00  0.00     0.007 A 
ATOM     26  C   UNL     1       4.921   0.768   6.294  1.00  0.00     0.007 A 
ATOM     27  C   UNL     1       4.480   2.099   6.308  1.00  0.00    -0.023 A 
BRANCH  27  28
ATOM     28  C   UNL     1       4.196   2.816   7.598  1.00  0.00     0.191 C 
BRANCH  28  29
ATOM     29  O   UNL     1       5.365   3.491   8.047  1.00  0.00    -0.392 OA
ATOM     30  H   UNL     1       6.075   2.846   8.193  1.00  0.00     0.211 HD
ENDBRANCH  28  29
ENDBRANCH  27  28
ENDBRANCH  15  22
ENDBRANCH   5   7
ENDBRANCH   2   3
ENDBRANCH   1   2
BRANCH   1  31
ATOM     31  C   UNL     1       4.639   4.004  -0.562  1.00  0.00     0.118 C 
BRANCH  31  32
ATOM     32  N   UNL     1       5.369   3.849   0.689  1.00  0.00    -0.352 N 
ATOM     33  C   UNL     1       6.090   4.804   1.386  1.00  0.00     0.251 C 
ATOM     34  H   UNL     1       5.346   2.951   1.090  1.00  0.00     0.163 HD
ATOM     35  O   UNL     1       6.655   4.506   2.435  1.00  0.00    -0.269 OA
BRANCH  33  36
ATOM     36  C   UNL     1       6.287   6.145   0.788  1.00  0.00     0.039 A 
ATOM     37  C   UNL     1       7.596   6.623   0.665  1.00  0.00     0.014 A 
ATOM     38  C   UNL     1       5.234   6.831   0.191  1.00  0.00     0.014 A 
ATOM     39  C   UNL     1       7.866   7.669  -0.218  1.00  0.00     0.010 A 
ATOM     40  C   UNL     1       5.515   7.794  -0.769  1.00  0.00     0.010 A 
ATOM     41  C   UNL     1       6.841   8.179  -1.026  1.00  0.00    -0.014 A 
BRANCH  41  42
ATOM     42  C   UNL     1       7.119   9.037  -2.209  1.00  0.00     0.031 A 
ATOM     43  C   UNL     1       6.451  10.375  -2.335  1.00  0.00     0.074 A 
ATOM     44  C   UNL     1       7.843   8.537  -3.233  1.00  0.00     0.049 A 
ATOM     45  N   UNL     1       6.348  11.159  -3.375  1.00  0.00    -0.248 NA
ATOM     46  C   UNL     1       5.751  10.861  -1.138  1.00  0.00     0.031 C 
ATOM     47  C   UNL     1       8.495   7.224  -3.254  1.00  0.00     0.029 A 
ATOM     48  N   UNL     1       8.136   9.065  -4.466  1.00  0.00    -0.354 N 
ATOM     49  C   UNL     1       5.533  12.212  -2.973  1.00  0.00     0.074 A 
ATOM     50  C   UNL     1       5.123  11.924  -1.613  1.00  0.00     0.031 C 
ATOM     51  C   UNL     1       9.139   7.066  -4.421  1.00  0.00     0.029 A 
ATOM     52  C   UNL     1       8.895   8.233  -5.258  1.00  0.00     0.049 A 
ATOM     53  H   UNL     1       7.833   9.955  -4.756  1.00  0.00     0.167 HD
ATOM     54  C   UNL     1       5.178  13.322  -3.668  1.00  0.00     0.034 A 
ATOM     55  C   UNL     1       9.330   8.386  -6.524  1.00  0.00     0.034 A 
ATOM     56  C   UNL     1       5.628  13.597  -5.011  1.00  0.00     0.049 A 
ATOM     57  C   UNL     1       8.951   9.638  -7.268  1.00  0.00     0.074 A 
ATOM     58  C   UNL     1       5.366  14.699  -5.806  1.00  0.00     0.029 A 
ATOM     59  N   UNL     1       6.449  12.758  -5.756  1.00  0.00    -0.354 N 
ATOM     60  N   UNL     1       8.185  10.630  -6.874  1.00  0.00    -0.248 NA
ATOM     61  C   UNL     1       9.493   9.794  -8.624  1.00  0.00     0.031 C 
ATOM     62  C   UNL     1       5.997  14.509  -7.042  1.00  0.00     0.029 A 
ATOM     63  C   UNL     1       6.699  13.315  -7.000  1.00  0.00     0.049 A 
ATOM     64  H   UNL     1       6.801  11.893  -5.445  1.00  0.00     0.167 HD
ATOM     65  C   UNL     1       8.182  11.543  -7.922  1.00  0.00     0.074 A 
ATOM     66  C   UNL     1       9.022  10.986  -8.963  1.00  0.00     0.031 C 
ATOM     67  C   UNL     1       7.547  12.739  -8.016  1.00  0.00     0.034 A 
BRANCH  54  68
ATOM     68  C   UNL     1       4.242  14.288  -2.979  1.00  0.00     0.023 A 
ATOM     69  C   UNL     1       4.593  14.909  -1.767  1.00  0.00     0.031 A 
ATOM     70  C   UNL     1       2.950  14.521  -3.482  1.00  0.00     0.131 A 
ATOM     71  C   UNL     1       3.630  15.621  -1.039  1.00  0.00     0.055 A 
ATOM     72  C   UNL     1       2.028  15.321  -2.803  1.00  0.00     0.041 A 
ATOM     73  F   UNL     1       2.546  13.944  -4.626  1.00  0.00    -0.206 F 
ATOM     74  C   UNL     1       2.357  15.855  -1.560  1.00  0.00     0.022 A 
BRANCH  71  75
ATOM     75  S   UNL     1       4.005  16.054   0.682  1.00  0.00     0.124 S 
ATOM     76  O   UNL     1       4.237  14.736   1.270  1.00  0.00    -0.237 OA
ATOM     77  O   UNL     1       5.179  16.907   0.545  1.00  0.00    -0.237 OA
ATOM     78  O   UNL     1       2.791  16.727   1.139  1.00  0.00    -0.744 OA
ENDBRANCH  71  75
ENDBRANCH  54  68
BRANCH  55  79
ATOM     79  C   UNL     1      10.173   7.339  -7.168  1.00  0.00     0.023 A 
ATOM     80  C   UNL     1      11.519   7.596  -7.475  1.00  0.00     0.031 A 
ATOM     81  C   UNL     1       9.648   6.079  -7.503  1.00  0.00     0.131 A 
ATOM     82  C   UNL     1      12.285   6.622  -8.133  1.00  0.00     0.055 A 
ATOM     83  C   UNL     1      10.427   5.097  -8.119  1.00  0.00     0.041 A 
ATOM     84  F   UNL     1       8.371   5.778  -7.218  1.00  0.00    -0.206 F 
ATOM     85  C   UNL     1      11.752   5.370  -8.448  1.00  0.00     0.022 A 
BRANCH  82  86
ATOM     86  S   UNL     1      13.979   7.041  -8.629  1.00  0.00     0.124 S 
ATOM     87  O   UNL     1      13.758   8.192  -9.497  1.00  0.00    -0.237 OA
ATOM     88  O   UNL     1      14.611   7.317  -7.343  1.00  0.00    -0.237 OA
ATOM     89  O   UNL     1      14.445   5.831  -9.303  1.00  0.00    -0.744 OA
ENDBRANCH  82  86
ENDBRANCH  55  79
BRANCH  67  90
ATOM     90  C   UNL     1       7.798  13.543  -9.262  1.00  0.00     0.023 A 
ATOM     91  C   UNL     1       7.260  13.171 -10.505  1.00  0.00     0.031 A 
ATOM     92  C   UNL     1       8.591  14.702  -9.197  1.00  0.00     0.131 A 
ATOM     93  C   UNL     1       7.556  13.932 -11.646  1.00  0.00     0.055 A 
ATOM     94  C   UNL     1       8.845  15.480 -10.326  1.00  0.00     0.041 A 
ATOM     95  F   UNL     1       9.128  15.097  -8.031  1.00  0.00    -0.206 F 
ATOM     96  C   UNL     1       8.333  15.091 -11.561  1.00  0.00     0.022 A 
BRANCH  93  97
ATOM     97  S   UNL     1       6.954  13.357 -13.257  1.00  0.00     0.124 S 
ATOM     98  O   UNL     1       7.628  12.069 -13.390  1.00  0.00    -0.237 OA
ATOM     99  O   UNL     1       5.510  13.303 -13.051  1.00  0.00    -0.237 OA
ATOM    100  O   UNL     1       7.408  14.393 -14.182  1.00  0.00    -0.744 OA
ENDBRANCH  93  97
ENDBRANCH  67  90
ENDBRANCH  41  42
ENDBRANCH  33  36
ENDBRANCH  31  32
ENDBRANCH   1  31
TORSDOF 17
