REMARK SMILES O=C(NCCCNC(=O)C1(n2ccnc2)CCN(C(=O)[C@@H]2CC(=O)N(C3CC3)C2)CC1)c1ccc(-c2c3nc(c(-c4cc(S(=O)(=O)[O-])ccc4F)c4ccc([nH]4)c(-c4cc(S(=O)(=O)[O-])ccc4F)c4nc(c(-c5cc(S(=O)(=O)[O-])ccc5F)c5ccc2[nH]5)C=C4)C=C3)cc1
REMARK SMILES IDX 4 1 3 2 1 3 2 4 32 6 33 7 94 8 34 9 93 10 35 11 36 12 37 13
REMARK SMILES IDX 87 14 38 15 92 16 86 17 88 18 39 19 91 20 85 21 84 22 40 24
REMARK SMILES IDX 72 25 52 26 71 27 53 28 56 29 70 30 89 31 54 32 55 33 69 35
REMARK SMILES IDX 90 36 57 37 41 38 42 39 50 40 43 41 49 42 51 43 48 44 44 45
REMARK SMILES IDX 45 46 46 47 47 48 73 49 74 50 82 51 75 52 81 53 83 54 80 55
REMARK SMILES IDX 76 56 77 57 78 58 79 59 58 60 59 61 67 62 60 63 66 64 68 65
REMARK SMILES IDX 65 66 61 67 62 68 63 69 64 70 5 71 6 72 7 73 8 74 9 76 10 77
REMARK SMILES IDX 16 78 31 79 17 80 30 81 18 82 19 83 20 84 11 85 12 86 15 87
REMARK SMILES IDX 13 88 14 89 21 90 22 91 29 92 23 93 25 94 24 95 26 96 27 97
REMARK SMILES IDX 28 98
REMARK H PARENT 3 5 88 23 56 34 7 75
REMARK Flexibility Score: inf
ROOT
ATOM      1  C   UNL     1       4.343  -0.852   0.637  1.00  0.00     0.118 C 
ENDROOT
BRANCH   1   2
ATOM      2  N   UNL     1       2.979  -1.000   0.179  1.00  0.00    -0.352 N 
ATOM      3  O   UNL     1       0.958  -0.671  -0.623  1.00  0.00    -0.269 OA
ATOM      4  C   UNL     1       1.999  -0.138  -0.229  1.00  0.00     0.251 C 
ATOM      5  H   UNL     1       2.689  -1.941   0.154  1.00  0.00     0.163 HD
BRANCH   4   6
ATOM      6  C   UNL     1       2.066   1.350  -0.166  1.00  0.00     0.039 A 
ATOM      7  C   UNL     1       3.223   2.130  -0.106  1.00  0.00     0.014 A 
ATOM      8  C   UNL     1       0.820   2.005  -0.197  1.00  0.00     0.014 A 
ATOM      9  C   UNL     1       3.127   3.526  -0.010  1.00  0.00     0.010 A 
ATOM     10  C   UNL     1       0.720   3.389  -0.105  1.00  0.00     0.010 A 
ATOM     11  C   UNL     1       1.874   4.157   0.013  1.00  0.00    -0.014 A 
BRANCH  11  12
ATOM     12  C   UNL     1       1.786   5.619  -0.106  1.00  0.00     0.031 A 
ATOM     13  C   UNL     1       2.257   6.126  -1.430  1.00  0.00     0.074 A 
ATOM     14  C   UNL     1       1.165   6.441   0.772  1.00  0.00     0.049 A 
ATOM     15  N   UNL     1       3.300   6.849  -1.674  1.00  0.00    -0.248 NA
ATOM     16  C   UNL     1       1.583   5.641  -2.647  1.00  0.00     0.031 C 
ATOM     17  C   UNL     1       0.417   6.070   1.974  1.00  0.00     0.029 A 
ATOM     18  N   UNL     1       0.990   7.800   0.726  1.00  0.00    -0.354 N 
ATOM     19  C   UNL     1       3.277   7.112  -3.042  1.00  0.00     0.074 A 
ATOM     20  C   UNL     1       2.332   6.188  -3.606  1.00  0.00     0.031 C 
ATOM     21  C   UNL     1      -0.304   7.132   2.409  1.00  0.00     0.029 A 
ATOM     22  C   UNL     1       0.017   8.299   1.599  1.00  0.00     0.049 A 
ATOM     23  H   UNL     1       1.510   8.380   0.124  1.00  0.00     0.167 HD
ATOM     24  C   UNL     1       3.864   8.230  -3.558  1.00  0.00     0.034 A 
ATOM     25  C   UNL     1      -0.513   9.560   1.640  1.00  0.00     0.034 A 
ATOM     26  C   UNL     1       4.761   8.829  -2.598  1.00  0.00     0.049 A 
ATOM     27  C   UNL     1       0.462  10.454   0.970  1.00  0.00     0.074 A 
ATOM     28  C   UNL     1       5.888   8.404  -1.922  1.00  0.00     0.029 A 
ATOM     29  N   UNL     1       4.320   9.942  -1.917  1.00  0.00    -0.354 N 
ATOM     30  N   UNL     1       1.647  10.705   1.454  1.00  0.00    -0.248 NA
ATOM     31  C   UNL     1       0.320  10.661  -0.463  1.00  0.00     0.031 C 
ATOM     32  C   UNL     1       5.750   8.946  -0.611  1.00  0.00     0.029 A 
ATOM     33  C   UNL     1       4.607   9.748  -0.589  1.00  0.00     0.049 A 
ATOM     34  H   UNL     1       3.881  10.730  -2.310  1.00  0.00     0.167 HD
ATOM     35  C   UNL     1       2.494  10.646   0.360  1.00  0.00     0.074 A 
ATOM     36  C   UNL     1       1.611  10.702  -0.806  1.00  0.00     0.031 C 
ATOM     37  C   UNL     1       3.800  10.269   0.496  1.00  0.00     0.034 A 
BRANCH  24  38
ATOM     38  C   UNL     1       3.365   9.008  -4.758  1.00  0.00     0.023 A 
ATOM     39  C   UNL     1       4.103  10.148  -5.136  1.00  0.00     0.031 A 
ATOM     40  C   UNL     1       2.083   8.889  -5.339  1.00  0.00     0.131 A 
ATOM     41  C   UNL     1       3.529  11.151  -5.936  1.00  0.00     0.055 A 
ATOM     42  C   UNL     1       1.543   9.856  -6.193  1.00  0.00     0.041 A 
ATOM     43  F   UNL     1       1.242   7.892  -5.042  1.00  0.00    -0.206 F 
ATOM     44  C   UNL     1       2.251  11.013  -6.468  1.00  0.00     0.022 A 
BRANCH  41  45
ATOM     45  S   UNL     1       4.414  12.723  -6.110  1.00  0.00     0.124 S 
ATOM     46  O   UNL     1       4.569  13.125  -4.716  1.00  0.00    -0.237 OA
ATOM     47  O   UNL     1       5.630  12.309  -6.801  1.00  0.00    -0.237 OA
ATOM     48  O   UNL     1       3.497  13.541  -6.899  1.00  0.00    -0.744 OA
ENDBRANCH  41  45
ENDBRANCH  24  38
BRANCH  25  49
ATOM     49  C   UNL     1      -1.929   9.975   1.914  1.00  0.00     0.023 A 
ATOM     50  C   UNL     1      -2.322  11.302   2.234  1.00  0.00     0.031 A 
ATOM     51  C   UNL     1      -2.974   9.081   1.592  1.00  0.00     0.131 A 
ATOM     52  C   UNL     1      -3.695  11.672   2.222  1.00  0.00     0.055 A 
ATOM     53  C   UNL     1      -4.322   9.452   1.575  1.00  0.00     0.041 A 
ATOM     54  F   UNL     1      -2.713   7.827   1.191  1.00  0.00    -0.206 F 
ATOM     55  C   UNL     1      -4.688  10.752   1.881  1.00  0.00     0.022 A 
BRANCH  52  56
ATOM     56  S   UNL     1      -4.228  13.388   2.571  1.00  0.00     0.124 S 
ATOM     57  O   UNL     1      -3.908  13.534   3.986  1.00  0.00    -0.237 OA
ATOM     58  O   UNL     1      -3.423  14.167   1.638  1.00  0.00    -0.237 OA
ATOM     59  O   UNL     1      -5.661  13.371   2.269  1.00  0.00    -0.744 OA
ENDBRANCH  52  56
ENDBRANCH  25  49
BRANCH  37  60
ATOM     60  C   UNL     1       4.399  10.206   1.887  1.00  0.00     0.023 A 
ATOM     61  C   UNL     1       3.907   9.423   2.958  1.00  0.00     0.031 A 
ATOM     62  C   UNL     1       5.608  10.896   2.087  1.00  0.00     0.131 A 
ATOM     63  C   UNL     1       4.620   9.365   4.173  1.00  0.00     0.055 A 
ATOM     64  C   UNL     1       6.324  10.814   3.279  1.00  0.00     0.041 A 
ATOM     65  F   UNL     1       6.137  11.641   1.102  1.00  0.00    -0.206 F 
ATOM     66  C   UNL     1       5.829  10.052   4.329  1.00  0.00     0.022 A 
BRANCH  63  67
ATOM     67  S   UNL     1       3.978   8.414   5.590  1.00  0.00     0.124 S 
ATOM     68  O   UNL     1       2.591   8.850   5.694  1.00  0.00    -0.237 OA
ATOM     69  O   UNL     1       4.183   7.031   5.166  1.00  0.00    -0.237 OA
ATOM     70  O   UNL     1       4.833   8.839   6.701  1.00  0.00    -0.744 OA
ENDBRANCH  63  67
ENDBRANCH  37  60
ENDBRANCH  11  12
ENDBRANCH   4   6
ENDBRANCH   1   2
BRANCH   1  71
ATOM     71  C   UNL     1       4.478  -0.324   2.061  1.00  0.00     0.042 C 
BRANCH  71  72
ATOM     72  C   UNL     1       3.821  -1.194   3.137  1.00  0.00     0.117 C 
BRANCH  72  73
ATOM     73  N   UNL     1       4.586  -2.392   3.437  1.00  0.00    -0.354 N 
ATOM     74  C   UNL     1       5.385  -2.811   4.442  1.00  0.00     0.246 C 
ATOM     75  H   UNL     1       4.502  -3.069   2.727  1.00  0.00     0.163 HD
ATOM     76  O   UNL     1       5.803  -3.971   4.279  1.00  0.00    -0.272 OA
BRANCH  74  77
ATOM     77  C   UNL     1       5.872  -2.008   5.694  1.00  0.00     0.127 C 
ATOM     78  C   UNL     1       5.363  -0.582   6.002  1.00  0.00     0.061 C 
ATOM     79  C   UNL     1       7.413  -1.920   5.513  1.00  0.00     0.061 C 
ATOM     80  C   UNL     1       5.944   0.563   5.163  1.00  0.00     0.122 C 
ATOM     81  C   UNL     1       7.737  -0.926   4.415  1.00  0.00     0.122 C 
ATOM     82  N   UNL     1       7.362   0.405   4.850  1.00  0.00    -0.342 N 
ATOM     83  C   UNL     1       8.125   1.559   4.751  1.00  0.00     0.227 C 
ATOM     84  O   UNL     1       7.572   2.662   4.711  1.00  0.00    -0.274 OA
BRANCH  77  85
ATOM     85  N   UNL     1       5.520  -2.849   6.874  1.00  0.00    -0.322 N 
ATOM     86  C   UNL     1       4.240  -3.179   7.256  1.00  0.00     0.108 A 
ATOM     87  C   UNL     1       6.360  -3.421   7.794  1.00  0.00     0.200 A 
ATOM     88  C   UNL     1       4.380  -3.933   8.396  1.00  0.00     0.130 A 
ATOM     89  N   UNL     1       5.700  -4.073   8.725  1.00  0.00    -0.245 NA
ENDBRANCH  77  85
BRANCH  83  90
ATOM     90  C   UNL     1       9.654   1.548   4.745  1.00  0.00     0.107 C 
ATOM     91  C   UNL     1      10.321   1.147   3.441  1.00  0.00     0.115 C 
ATOM     92  C   UNL     1      10.280   0.688   5.818  1.00  0.00     0.133 C 
ATOM     93  C   UNL     1      10.962  -0.191   3.738  1.00  0.00     0.223 C 
ATOM     94  N   UNL     1      10.837  -0.440   5.111  1.00  0.00    -0.339 N 
ATOM     95  O   UNL     1      11.427  -0.923   2.887  1.00  0.00    -0.275 OA
BRANCH  94  96
ATOM     96  C   UNL     1      11.012  -1.698   5.777  1.00  0.00     0.085 C 
ATOM     97  C   UNL     1      10.755  -3.012   5.082  1.00  0.00     0.027 C 
ATOM     98  C   UNL     1      12.148  -2.635   5.495  1.00  0.00     0.027 C 
ENDBRANCH  94  96
ENDBRANCH  83  90
ENDBRANCH  74  77
ENDBRANCH  72  73
ENDBRANCH  71  72
ENDBRANCH   1  71
TORSDOF 16
