REMARK SMILES O=C(NCCCNC(=O)c1ccc(-c2cccc(O)c2)cc1Cl)c1ccc(-c2c3nc(c(-c4cc(S(=O)(=O)[O-])ccc4F)c4ccc([nH]4)c(-c4cc(S(=O)(=O)[O-])ccc4F)c4nc(c(-c5cc(S(=O)(=O)[O-])ccc5F)c5ccc2[nH]5)C=C4)C=C3)cc1
REMARK SMILES IDX 4 1 3 2 1 3 2 4 24 6 25 7 86 8 26 9 85 10 27 11 28 12 29 13
REMARK SMILES IDX 79 14 30 15 84 16 78 17 80 18 31 19 83 20 77 21 76 22 32 24
REMARK SMILES IDX 64 25 44 26 63 27 45 28 48 29 62 30 81 31 46 32 47 33 61 35
REMARK SMILES IDX 82 36 49 37 33 38 34 39 42 40 35 41 41 42 43 43 40 44 36 45
REMARK SMILES IDX 37 46 38 47 39 48 65 49 66 50 74 51 67 52 73 53 75 54 72 55
REMARK SMILES IDX 68 56 69 57 70 58 71 59 50 60 51 61 59 62 52 63 58 64 60 65
REMARK SMILES IDX 57 66 53 67 54 68 55 69 56 70 5 71 6 72 7 73 8 74 9 76 10 77
REMARK SMILES IDX 11 78 22 79 12 80 21 81 23 82 13 83 14 84 15 85 20 86 16 87
REMARK SMILES IDX 18 88 17 89 19 90
REMARK H PARENT 3 5 80 23 48 34 7 75 19 91
REMARK Flexibility Score: inf
ROOT
ATOM      1  C   UNL     1       4.465   0.942  -1.036  1.00  0.00     0.118 C 
ENDROOT
BRANCH   1   2
ATOM      2  N   UNL     1       3.043   0.815  -0.735  1.00  0.00    -0.352 N 
ATOM      3  O   UNL     1       1.151  -0.091   0.079  1.00  0.00    -0.269 OA
ATOM      4  C   UNL     1       2.378  -0.054   0.100  1.00  0.00     0.251 C 
ATOM      5  H   UNL     1       2.464   1.457  -1.206  1.00  0.00     0.163 HD
BRANCH   4   6
ATOM      6  C   UNL     1       3.131  -0.952   1.004  1.00  0.00     0.039 A 
ATOM      7  C   UNL     1       4.266  -0.496   1.673  1.00  0.00     0.014 A 
ATOM      8  C   UNL     1       2.690  -2.265   1.203  1.00  0.00     0.014 A 
ATOM      9  C   UNL     1       5.061  -1.393   2.372  1.00  0.00     0.010 A 
ATOM     10  C   UNL     1       3.428  -3.136   2.014  1.00  0.00     0.010 A 
ATOM     11  C   UNL     1       4.643  -2.719   2.575  1.00  0.00    -0.014 A 
BRANCH  11  12
ATOM     12  C   UNL     1       5.484  -3.597   3.432  1.00  0.00     0.031 A 
ATOM     13  C   UNL     1       6.141  -4.836   2.885  1.00  0.00     0.074 A 
ATOM     14  C   UNL     1       5.721  -3.206   4.701  1.00  0.00     0.049 A 
ATOM     15  N   UNL     1       6.974  -5.653   3.478  1.00  0.00    -0.248 NA
ATOM     16  C   UNL     1       5.812  -5.215   1.504  1.00  0.00     0.031 C 
ATOM     17  C   UNL     1       5.117  -2.033   5.342  1.00  0.00     0.029 A 
ATOM     18  N   UNL     1       6.557  -3.710   5.663  1.00  0.00    -0.354 N 
ATOM     19  C   UNL     1       7.263  -6.649   2.550  1.00  0.00     0.074 A 
ATOM     20  C   UNL     1       6.484  -6.351   1.366  1.00  0.00     0.031 C 
ATOM     21  C   UNL     1       5.662  -1.862   6.554  1.00  0.00     0.029 A 
ATOM     22  C   UNL     1       6.594  -2.952   6.811  1.00  0.00     0.049 A 
ATOM     23  H   UNL     1       7.082  -4.535   5.543  1.00  0.00     0.167 HD
ATOM     24  C   UNL     1       8.105  -7.706   2.675  1.00  0.00     0.034 A 
ATOM     25  C   UNL     1       7.290  -3.118   7.952  1.00  0.00     0.034 A 
ATOM     26  C   UNL     1       8.875  -7.986   3.865  1.00  0.00     0.049 A 
ATOM     27  C   UNL     1       8.222  -4.292   8.056  1.00  0.00     0.074 A 
ATOM     28  C   UNL     1       9.753  -9.031   4.102  1.00  0.00     0.029 A 
ATOM     29  N   UNL     1       8.861  -7.216   5.023  1.00  0.00    -0.354 N 
ATOM     30  N   UNL     1       8.475  -5.224   7.167  1.00  0.00    -0.248 NA
ATOM     31  C   UNL     1       8.962  -4.435   9.314  1.00  0.00     0.031 C 
ATOM     32  C   UNL     1      10.228  -8.922   5.414  1.00  0.00     0.029 A 
ATOM     33  C   UNL     1       9.700  -7.772   5.979  1.00  0.00     0.049 A 
ATOM     34  H   UNL     1       8.333  -6.395   5.146  1.00  0.00     0.167 HD
ATOM     35  C   UNL     1       9.404  -6.069   7.763  1.00  0.00     0.074 A 
ATOM     36  C   UNL     1       9.700  -5.506   9.066  1.00  0.00     0.031 C 
ATOM     37  C   UNL     1       9.955  -7.214   7.285  1.00  0.00     0.034 A 
BRANCH  24  38
ATOM     38  C   UNL     1       8.205  -8.659   1.507  1.00  0.00     0.023 A 
ATOM     39  C   UNL     1       8.751  -8.264   0.273  1.00  0.00     0.031 A 
ATOM     40  C   UNL     1       7.740  -9.981   1.627  1.00  0.00     0.131 A 
ATOM     41  C   UNL     1       8.769  -9.162  -0.806  1.00  0.00     0.055 A 
ATOM     42  C   UNL     1       7.824 -10.891   0.570  1.00  0.00     0.041 A 
ATOM     43  F   UNL     1       7.191 -10.411   2.774  1.00  0.00    -0.206 F 
ATOM     44  C   UNL     1       8.330 -10.480  -0.659  1.00  0.00     0.022 A 
BRANCH  41  45
ATOM     45  S   UNL     1       9.269  -8.551  -2.439  1.00  0.00     0.124 S 
ATOM     46  O   UNL     1       8.273  -7.510  -2.684  1.00  0.00    -0.237 OA
ATOM     47  O   UNL     1      10.631  -8.087  -2.200  1.00  0.00    -0.237 OA
ATOM     48  O   UNL     1       9.153  -9.728  -3.298  1.00  0.00    -0.744 OA
ENDBRANCH  41  45
ENDBRANCH  24  38
BRANCH  25  49
ATOM     49  C   UNL     1       7.101  -2.174   9.090  1.00  0.00     0.023 A 
ATOM     50  C   UNL     1       8.155  -1.378   9.563  1.00  0.00     0.031 A 
ATOM     51  C   UNL     1       5.857  -2.076   9.740  1.00  0.00     0.131 A 
ATOM     52  C   UNL     1       7.957  -0.549  10.679  1.00  0.00     0.055 A 
ATOM     53  C   UNL     1       5.649  -1.208  10.811  1.00  0.00     0.041 A 
ATOM     54  F   UNL     1       4.814  -2.812   9.324  1.00  0.00    -0.206 F 
ATOM     55  C   UNL     1       6.708  -0.448  11.296  1.00  0.00     0.022 A 
BRANCH  52  56
ATOM     56  S   UNL     1       9.383   0.332  11.372  1.00  0.00     0.124 S 
ATOM     57  O   UNL     1      10.323  -0.757  11.607  1.00  0.00    -0.237 OA
ATOM     58  O   UNL     1       9.723   1.252  10.291  1.00  0.00    -0.237 OA
ATOM     59  O   UNL     1       8.842   0.961  12.575  1.00  0.00    -0.744 OA
ENDBRANCH  52  56
ENDBRANCH  25  49
BRANCH  37  60
ATOM     60  C   UNL     1      10.933  -7.913   8.195  1.00  0.00     0.023 A 
ATOM     61  C   UNL     1      10.516  -8.493   9.407  1.00  0.00     0.031 A 
ATOM     62  C   UNL     1      12.301  -7.951   7.877  1.00  0.00     0.131 A 
ATOM     63  C   UNL     1      11.467  -9.019  10.292  1.00  0.00     0.055 A 
ATOM     64  C   UNL     1      13.236  -8.531   8.735  1.00  0.00     0.041 A 
ATOM     65  F   UNL     1      12.752  -7.410   6.734  1.00  0.00    -0.206 F 
ATOM     66  C   UNL     1      12.823  -9.053   9.958  1.00  0.00     0.022 A 
BRANCH  63  67
ATOM     67  S   UNL     1      10.920  -9.552  11.937  1.00  0.00     0.124 S 
ATOM     68  O   UNL     1      10.295  -8.341  12.457  1.00  0.00    -0.237 OA
ATOM     69  O   UNL     1      10.014 -10.652  11.623  1.00  0.00    -0.237 OA
ATOM     70  O   UNL     1      12.162  -9.943  12.601  1.00  0.00    -0.744 OA
ENDBRANCH  63  67
ENDBRANCH  37  60
ENDBRANCH  11  12
ENDBRANCH   4   6
ENDBRANCH   1   2
BRANCH   1  71
ATOM     71  C   UNL     1       4.808   0.562  -2.469  1.00  0.00     0.042 C 
BRANCH  71  72
ATOM     72  C   UNL     1       4.200   1.487  -3.510  1.00  0.00     0.118 C 
BRANCH  72  73
ATOM     73  N   UNL     1       4.692   2.854  -3.399  1.00  0.00    -0.352 N 
ATOM     74  C   UNL     1       5.511   3.550  -4.250  1.00  0.00     0.252 C 
ATOM     75  H   UNL     1       4.394   3.347  -2.600  1.00  0.00     0.163 HD
ATOM     76  O   UNL     1       5.903   4.679  -3.969  1.00  0.00    -0.269 OA
BRANCH  74  77
ATOM     77  C   UNL     1       5.971   2.912  -5.492  1.00  0.00     0.058 A 
ATOM     78  C   UNL     1       7.334   2.627  -5.604  1.00  0.00     0.016 A 
ATOM     79  C   UNL     1       5.099   2.583  -6.530  1.00  0.00     0.054 A 
ATOM     80  C   UNL     1       7.811   1.950  -6.730  1.00  0.00     0.009 A 
ATOM     81  C   UNL     1       5.580   1.875  -7.635  1.00  0.00     0.030 A 
ATOM     82  Cl  UNL     1       3.424   3.014  -6.519  1.00  0.00    -0.083 Cl
ATOM     83  C   UNL     1       6.941   1.536  -7.755  1.00  0.00    -0.017 A 
BRANCH  83  84
ATOM     84  C   UNL     1       7.431   0.761  -8.915  1.00  0.00    -0.015 A 
ATOM     85  C   UNL     1       6.928   0.985 -10.210  1.00  0.00     0.009 A 
ATOM     86  C   UNL     1       8.402  -0.243  -8.762  1.00  0.00     0.054 A 
ATOM     87  C   UNL     1       7.367   0.230 -11.303  1.00  0.00     0.004 A 
ATOM     88  C   UNL     1       8.842  -0.985  -9.856  1.00  0.00     0.116 A 
ATOM     89  C   UNL     1       8.329  -0.760 -11.127  1.00  0.00     0.046 A 
BRANCH  88  90
ATOM     90  O   UNL     1       9.791  -1.936  -9.631  1.00  0.00    -0.508 OA
ATOM     91  H   UNL     1      10.113  -2.455 -10.341  1.00  0.00     0.293 HD
ENDBRANCH  88  90
ENDBRANCH  83  84
ENDBRANCH  74  77
ENDBRANCH  72  73
ENDBRANCH  71  72
ENDBRANCH   1  71
TORSDOF 15
