REMARK SMILES CC1(C)S[C@H]2[C@H](NC(=O)[C@H](NN3CCNC3=O)c3ccccc3)C(=O)N2[C@H]1C(=O)NCCCNC(=O)c1ccc(-c2c3nc(c(-c4cc(S(=O)(=O)[O-])ccc4F)c4ccc([nH]4)c(-c4cc(S(=O)(=O)[O-])ccc4F)c4nc(c(-c5cc(S(=O)(=O)[O-])ccc5F)c5ccc2[nH]5)C=C4)C=C3)cc1
REMARK SMILES IDX 31 1 30 2 28 3 29 4 27 6 1 7 2 8 3 9 4 10 5 11 26 12 6 13
REMARK SMILES IDX 24 14 25 15 7 16 8 17 9 19 10 20 18 21 19 22 23 23 20 24
REMARK SMILES IDX 22 25 21 26 11 27 12 29 13 30 16 31 14 32 15 33 17 34 32 36
REMARK SMILES IDX 33 37 34 38 35 39 36 41 37 42 38 43 99 44 39 45 98 46 40 47
REMARK SMILES IDX 41 48 42 49 92 50 43 51 97 52 91 53 93 54 44 55 96 56 90 57
REMARK SMILES IDX 89 58 45 60 77 61 57 62 76 63 58 64 61 65 75 66 94 67 59 68
REMARK SMILES IDX 60 69 74 71 95 72 62 73 46 74 47 75 55 76 48 77 54 78 56 79
REMARK SMILES IDX 53 80 49 81 50 82 51 83 52 84 78 85 79 86 87 87 80 88 86 89
REMARK SMILES IDX 88 90 85 91 81 92 82 93 83 94 84 95 63 96 64 97 72 98 65 99
REMARK SMILES IDX 71 100 73 101 70 102 66 103 67 104 68 105 69 106
REMARK H PARENT 30 5 7 18 11 28 15 35 34 40 93 59 61 70
REMARK Flexibility Score: inf
ROOT
ATOM      1  C   UNL     1      -7.273   0.547   5.338  1.00  0.00     0.117 C 
ENDROOT
BRANCH   1   2
ATOM      2  N   UNL     1      -7.937   1.629   6.056  1.00  0.00    -0.354 N 
ATOM      3  C   UNL     1      -7.536   2.479   7.038  1.00  0.00     0.244 C 
ATOM      4  O   UNL     1      -8.396   3.270   7.451  1.00  0.00    -0.273 OA
ATOM      5  H   UNL     1      -8.868   1.774   5.769  1.00  0.00     0.163 HD
BRANCH   3   6
ATOM      6  C   UNL     1      -6.173   2.409   7.765  1.00  0.00     0.191 C 
ATOM      7  C   UNL     1      -6.655   1.859  10.198  1.00  0.00     0.026 C 
ATOM      8  C   UNL     1      -6.058   1.334   8.880  1.00  0.00     0.042 C 
ATOM      9  C   UNL     1      -6.665  -0.038   8.585  1.00  0.00     0.026 C 
ATOM     10  S   UNL     1      -4.242   1.054   9.151  1.00  0.00    -0.125 SA
ATOM     11  C   UNL     1      -3.710   1.951   7.664  1.00  0.00     0.176 C 
ATOM     12  N   UNL     1      -4.914   2.502   7.036  1.00  0.00    -0.313 N 
ATOM     13  C   UNL     1      -3.537   1.079   6.393  1.00  0.00     0.205 C 
ATOM     14  C   UNL     1      -4.583   2.064   5.801  1.00  0.00     0.249 C 
ATOM     15  O   UNL     1      -5.045   2.309   4.712  1.00  0.00    -0.272 OA
BRANCH  13  16
ATOM     16  N   UNL     1      -2.202   1.094   5.759  1.00  0.00    -0.340 N 
ATOM     17  C   UNL     1      -1.430   0.015   5.385  1.00  0.00     0.244 C 
ATOM     18  H   UNL     1      -1.817   1.983   5.582  1.00  0.00     0.164 HD
ATOM     19  O   UNL     1      -0.398   0.263   4.754  1.00  0.00    -0.273 OA
BRANCH  17  20
ATOM     20  C   UNL     1      -1.908  -1.426   5.745  1.00  0.00     0.194 C 
BRANCH  20  21
ATOM     21  C   UNL     1      -2.799  -2.083   4.683  1.00  0.00    -0.020 A 
ATOM     22  C   UNL     1      -3.021  -1.505   3.420  1.00  0.00     0.006 A 
ATOM     23  C   UNL     1      -3.426  -3.316   4.959  1.00  0.00     0.006 A 
ATOM     24  C   UNL     1      -3.831  -2.143   2.472  1.00  0.00     0.000 A 
ATOM     25  C   UNL     1      -4.228  -3.957   4.006  1.00  0.00     0.000 A 
ATOM     26  C   UNL     1      -4.431  -3.368   2.762  1.00  0.00     0.000 A 
ENDBRANCH  20  21
BRANCH  20  27
ATOM     27  N   UNL     1      -0.726  -2.208   6.201  1.00  0.00    -0.213 NA
ATOM     28  H   UNL     1      -1.004  -2.756   7.015  1.00  0.00     0.149 HD
BRANCH  27  29
ATOM     29  N   UNL     1      -0.196  -3.087   5.243  1.00  0.00    -0.257 N 
ATOM     30  C   UNL     1       0.603  -2.698   4.110  1.00  0.00     0.163 C 
ATOM     31  C   UNL     1      -0.123  -4.470   5.479  1.00  0.00     0.331 C 
ATOM     32  C   UNL     1       0.968  -4.037   3.466  1.00  0.00     0.141 C 
ATOM     33  N   UNL     1       0.611  -5.028   4.447  1.00  0.00    -0.335 N 
ATOM     34  O   UNL     1      -0.600  -5.069   6.428  1.00  0.00    -0.247 OA
ATOM     35  H   UNL     1       0.857  -5.979   4.391  1.00  0.00     0.165 HD
ENDBRANCH  27  29
ENDBRANCH  20  27
ENDBRANCH  17  20
ENDBRANCH  13  16
ENDBRANCH   3   6
ENDBRANCH   1   2
BRANCH   1  36
ATOM     36  C   UNL     1      -8.094  -0.739   5.313  1.00  0.00     0.042 C 
BRANCH  36  37
ATOM     37  C   UNL     1      -9.296  -0.669   4.377  1.00  0.00     0.118 C 
BRANCH  37  38
ATOM     38  N   UNL     1      -8.921  -0.838   2.980  1.00  0.00    -0.352 N 
ATOM     39  C   UNL     1      -8.846  -1.961   2.190  1.00  0.00     0.251 C 
ATOM     40  H   UNL     1      -8.680  -0.001   2.521  1.00  0.00     0.163 HD
ATOM     41  O   UNL     1      -8.285  -1.875   1.099  1.00  0.00    -0.269 OA
BRANCH  39  42
ATOM     42  C   UNL     1      -9.393  -3.271   2.628  1.00  0.00     0.039 A 
ATOM     43  C   UNL     1      -8.703  -4.438   2.271  1.00  0.00     0.014 A 
ATOM     44  C   UNL     1     -10.606  -3.382   3.307  1.00  0.00     0.014 A 
ATOM     45  C   UNL     1      -9.192  -5.695   2.651  1.00  0.00     0.010 A 
ATOM     46  C   UNL     1     -11.051  -4.627   3.757  1.00  0.00     0.010 A 
ATOM     47  C   UNL     1     -10.354  -5.800   3.429  1.00  0.00    -0.014 A 
BRANCH  47  48
ATOM     48  C   UNL     1     -10.888  -7.114   3.884  1.00  0.00     0.031 A 
ATOM     49  C   UNL     1     -12.272  -7.546   3.471  1.00  0.00     0.074 A 
ATOM     50  C   UNL     1     -10.186  -7.871   4.750  1.00  0.00     0.049 A 
ATOM     51  N   UNL     1     -13.013  -8.520   3.937  1.00  0.00    -0.248 NA
ATOM     52  C   UNL     1     -12.923  -6.742   2.427  1.00  0.00     0.031 C 
ATOM     53  C   UNL     1      -8.851  -7.561   5.266  1.00  0.00     0.029 A 
ATOM     54  N   UNL     1     -10.515  -9.051   5.369  1.00  0.00    -0.354 N 
ATOM     55  C   UNL     1     -14.244  -8.399   3.299  1.00  0.00     0.074 A 
ATOM     56  C   UNL     1     -14.145  -7.253   2.417  1.00  0.00     0.031 C 
ATOM     57  C   UNL     1      -8.472  -8.530   6.115  1.00  0.00     0.029 A 
ATOM     58  C   UNL     1      -9.551  -9.504   6.237  1.00  0.00     0.049 A 
ATOM     59  H   UNL     1     -11.361  -9.528   5.206  1.00  0.00     0.167 HD
ATOM     60  C   UNL     1     -15.354  -9.168   3.438  1.00  0.00     0.034 A 
ATOM     61  C   UNL     1      -9.544 -10.570   7.060  1.00  0.00     0.034 A 
ATOM     62  C   UNL     1     -15.419 -10.358   4.251  1.00  0.00     0.049 A 
ATOM     63  C   UNL     1     -10.748 -11.465   7.125  1.00  0.00     0.074 A 
ATOM     64  C   UNL     1     -16.461 -11.262   4.382  1.00  0.00     0.029 A 
ATOM     65  N   UNL     1     -14.391 -10.820   5.060  1.00  0.00    -0.354 N 
ATOM     66  N   UNL     1     -11.907 -11.330   6.527  1.00  0.00    -0.248 NA
ATOM     67  C   UNL     1     -10.642 -12.654   7.983  1.00  0.00     0.031 C 
ATOM     68  C   UNL     1     -16.070 -12.258   5.288  1.00  0.00     0.029 A 
ATOM     69  C   UNL     1     -14.774 -11.990   5.697  1.00  0.00     0.049 A 
ATOM     70  H   UNL     1     -13.517 -10.380   5.167  1.00  0.00     0.167 HD
ATOM     71  C   UNL     1     -12.668 -12.421   6.932  1.00  0.00     0.074 A 
ATOM     72  C   UNL     1     -11.836 -13.206   7.822  1.00  0.00     0.031 C 
ATOM     73  C   UNL     1     -13.938 -12.748   6.592  1.00  0.00     0.034 A 
BRANCH  60  74
ATOM     74  C   UNL     1     -16.598  -8.710   2.721  1.00  0.00     0.023 A 
ATOM     75  C   UNL     1     -16.688  -8.715   1.319  1.00  0.00     0.031 A 
ATOM     76  C   UNL     1     -17.685  -8.201   3.458  1.00  0.00     0.131 A 
ATOM     77  C   UNL     1     -17.803  -8.139   0.693  1.00  0.00     0.055 A 
ATOM     78  C   UNL     1     -18.826  -7.698   2.830  1.00  0.00     0.041 A 
ATOM     79  F   UNL     1     -17.642  -8.158   4.799  1.00  0.00    -0.206 F 
ATOM     80  C   UNL     1     -18.882  -7.649   1.439  1.00  0.00     0.022 A 
BRANCH  77  81
ATOM     81  S   UNL     1     -17.758  -7.911  -1.108  1.00  0.00     0.124 S 
ATOM     82  O   UNL     1     -16.620  -7.007  -1.261  1.00  0.00    -0.237 OA
ATOM     83  O   UNL     1     -17.563  -9.271  -1.597  1.00  0.00    -0.237 OA
ATOM     84  O   UNL     1     -19.060  -7.319  -1.409  1.00  0.00    -0.744 OA
ENDBRANCH  77  81
ENDBRANCH  60  74
BRANCH  61  85
ATOM     85  C   UNL     1      -8.362 -10.838   7.917  1.00  0.00     0.023 A 
ATOM     86  C   UNL     1      -7.454 -11.856   7.582  1.00  0.00     0.031 A 
ATOM     87  C   UNL     1      -8.137 -10.086   9.084  1.00  0.00     0.131 A 
ATOM     88  C   UNL     1      -6.362 -12.115   8.423  1.00  0.00     0.055 A 
ATOM     89  C   UNL     1      -7.039 -10.333   9.908  1.00  0.00     0.041 A 
ATOM     90  F   UNL     1      -8.976  -9.095   9.428  1.00  0.00    -0.206 F 
ATOM     91  C   UNL     1      -6.147 -11.357   9.581  1.00  0.00     0.022 A 
BRANCH  88  92
ATOM     92  S   UNL     1      -5.239 -13.483   7.991  1.00  0.00     0.124 S 
ATOM     93  O   UNL     1      -6.143 -14.628   7.981  1.00  0.00    -0.237 OA
ATOM     94  O   UNL     1      -4.729 -13.061   6.690  1.00  0.00    -0.237 OA
ATOM     95  O   UNL     1      -4.258 -13.473   9.073  1.00  0.00    -0.744 OA
ENDBRANCH  88  92
ENDBRANCH  61  85
BRANCH  73  96
ATOM     96  C   UNL     1     -14.476 -14.028   7.165  1.00  0.00     0.023 A 
ATOM     97  C   UNL     1     -14.928 -14.098   8.495  1.00  0.00     0.031 A 
ATOM     98  C   UNL     1     -14.504 -15.193   6.378  1.00  0.00     0.131 A 
ATOM     99  C   UNL     1     -15.362 -15.326   9.014  1.00  0.00     0.055 A 
ATOM    100  C   UNL     1     -14.960 -16.407   6.891  1.00  0.00     0.041 A 
ATOM    101  F   UNL     1     -14.076 -15.167   5.105  1.00  0.00    -0.206 F 
ATOM    102  C   UNL     1     -15.386 -16.479   8.217  1.00  0.00     0.022 A 
BRANCH  99 103
ATOM    103  S   UNL     1     -15.861 -15.409  10.761  1.00  0.00     0.124 S 
ATOM    104  O   UNL     1     -14.618 -15.081  11.451  1.00  0.00    -0.237 OA
ATOM    105  O   UNL     1     -16.916 -14.404  10.837  1.00  0.00    -0.237 OA
ATOM    106  O   UNL     1     -16.313 -16.790  10.923  1.00  0.00    -0.744 OA
ENDBRANCH  99 103
ENDBRANCH  73  96
ENDBRANCH  47  48
ENDBRANCH  39  42
ENDBRANCH  37  38
ENDBRANCH  36  37
ENDBRANCH   1  36
TORSDOF 18
