REMARK SMILES CCCc1cc(C(N)=O)c(NC(=O)[C@H]2CC(C)=C(C)C[C@@H]2C(=O)NCCCNC(=O)c2ccc(-c3c4nc(c(-c5cc(S(=O)(=O)[O-])ccc5F)c5ccc([nH]5)c(-c5cc(S(=O)(=O)[O-])ccc5F)c5nc(c(-c6cc(S(=O)(=O)[O-])ccc6F)c6ccc3[nH]6)C=C5)C=C4)cc2)s1
REMARK SMILES IDX 25 1 24 2 22 3 23 4 21 6 14 7 15 8 16 9 20 10 17 11 18 12
REMARK SMILES IDX 19 13 12 14 11 15 13 17 10 18 4 19 5 20 94 21 6 22 3 23 2 24
REMARK SMILES IDX 1 25 7 26 8 27 9 28 26 31 27 32 28 33 29 34 30 36 31 37
REMARK SMILES IDX 32 38 93 39 33 40 92 41 34 42 35 43 36 44 86 45 37 46 91 47
REMARK SMILES IDX 85 48 87 49 38 50 90 51 84 52 83 53 39 55 71 56 51 57 70 58
REMARK SMILES IDX 52 59 55 60 69 61 88 62 53 63 54 64 68 66 89 67 56 68 40 69
REMARK SMILES IDX 41 70 49 71 42 72 48 73 50 74 47 75 43 76 44 77 45 78 46 79
REMARK SMILES IDX 72 80 73 81 81 82 74 83 80 84 82 85 79 86 75 87 76 88 77 89
REMARK SMILES IDX 78 90 57 91 58 92 66 93 59 94 65 95 67 96 64 97 60 98 61 99
REMARK SMILES IDX 62 100 63 101
REMARK H PARENT 24 5 11 16 8 29 8 30 28 35 87 54 55 65
REMARK Flexibility Score: inf
ROOT
ATOM      1  C   UNL     1      -2.489   8.905  -2.740  1.00  0.00     0.117 C 
ENDROOT
BRANCH   1   2
ATOM      2  N   UNL     1      -1.864   8.878  -1.429  1.00  0.00    -0.356 N 
ATOM      3  C   UNL     1      -0.564   8.735  -1.058  1.00  0.00     0.224 C 
ATOM      4  O   UNL     1      -0.318   8.775   0.151  1.00  0.00    -0.275 OA
ATOM      5  H   UNL     1      -2.491   8.982  -0.678  1.00  0.00     0.163 HD
BRANCH   3   6
ATOM      6  C   UNL     1       0.530   8.462  -2.091  1.00  0.00     0.095 C 
ATOM      7  C   UNL     1       0.785   6.933  -2.082  1.00  0.00     0.095 C 
ATOM      8  C   UNL     1       2.253   6.479  -1.994  1.00  0.00     0.045 C 
ATOM      9  C   UNL     1       3.339   7.500  -1.803  1.00  0.00    -0.074 C 
ATOM     10  C   UNL     1       1.712   9.396  -1.778  1.00  0.00     0.045 C 
ATOM     11  C   UNL     1       4.717   6.890  -1.703  1.00  0.00     0.039 C 
ATOM     12  C   UNL     1       3.094   8.817  -1.707  1.00  0.00    -0.074 C 
ATOM     13  C   UNL     1       4.183   9.837  -1.486  1.00  0.00     0.039 C 
BRANCH   7  14
ATOM     14  C   UNL     1       0.166   6.264  -3.318  1.00  0.00     0.229 C 
ATOM     15  N   UNL     1      -0.123   4.934  -3.428  1.00  0.00    -0.317 N 
ATOM     16  H   UNL     1      -0.392   4.684  -4.341  1.00  0.00     0.170 HD
ATOM     17  O   UNL     1      -0.041   6.923  -4.348  1.00  0.00    -0.274 OA
BRANCH  15  18
ATOM     18  C   UNL     1      -0.129   3.853  -2.564  1.00  0.00     0.108 A 
ATOM     19  C   UNL     1       0.226   2.348  -0.621  1.00  0.00     0.008 A 
ATOM     20  C   UNL     1      -0.136   1.663  -1.759  1.00  0.00     0.031 A 
ATOM     21  S   UNL     1       0.129   4.026  -0.901  1.00  0.00    -0.122 S 
ATOM     22  C   UNL     1      -0.354   2.522  -2.899  1.00  0.00     0.074 A 
BRANCH  19  23
ATOM     23  C   UNL     1       0.666   1.879   0.739  1.00  0.00     0.046 C 
BRANCH  23  24
ATOM     24  C   UNL     1       0.392   0.412   1.063  1.00  0.00     0.002 C 
ATOM     25  C   UNL     1       1.389  -0.549   0.430  1.00  0.00     0.004 C 
ENDBRANCH  23  24
ENDBRANCH  19  23
BRANCH  22  26
ATOM     26  C   UNL     1      -0.666   1.999  -4.223  1.00  0.00     0.251 C 
ATOM     27  N   UNL     1      -1.471   2.760  -5.014  1.00  0.00    -0.366 N 
ATOM     28  O   UNL     1      -0.260   0.902  -4.615  1.00  0.00    -0.269 OA
ATOM     29  H   UNL     1      -1.791   3.634  -4.695  1.00  0.00     0.159 HD
ATOM     30  H   UNL     1      -1.733   2.436  -5.907  1.00  0.00     0.159 HD
ENDBRANCH  22  26
ENDBRANCH  15  18
ENDBRANCH   7  14
ENDBRANCH   3   6
ENDBRANCH   1   2
BRANCH   1  31
ATOM     31  C   UNL     1      -3.469   7.753  -2.938  1.00  0.00     0.042 C 
BRANCH  31  32
ATOM     32  C   UNL     1      -4.636   7.726  -1.952  1.00  0.00     0.118 C 
BRANCH  32  33
ATOM     33  N   UNL     1      -5.449   8.933  -1.996  1.00  0.00    -0.352 N 
ATOM     34  C   UNL     1      -6.774   9.113  -2.313  1.00  0.00     0.251 C 
ATOM     35  H   UNL     1      -4.969   9.759  -1.759  1.00  0.00     0.163 HD
ATOM     36  O   UNL     1      -7.200  10.257  -2.451  1.00  0.00    -0.269 OA
BRANCH  34  37
ATOM     37  C   UNL     1      -7.678   7.958  -2.515  1.00  0.00     0.039 A 
ATOM     38  C   UNL     1      -8.601   8.004  -3.566  1.00  0.00     0.014 A 
ATOM     39  C   UNL     1      -7.655   6.852  -1.662  1.00  0.00     0.014 A 
ATOM     40  C   UNL     1      -9.442   6.914  -3.807  1.00  0.00     0.010 A 
ATOM     41  C   UNL     1      -8.448   5.739  -1.942  1.00  0.00     0.010 A 
ATOM     42  C   UNL     1      -9.345   5.755  -3.022  1.00  0.00    -0.014 A 
BRANCH  42  43
ATOM     43  C   UNL     1     -10.161   4.546  -3.317  1.00  0.00     0.031 A 
ATOM     44  C   UNL     1     -11.180   4.059  -2.322  1.00  0.00     0.074 A 
ATOM     45  C   UNL     1      -9.931   3.847  -4.446  1.00  0.00     0.049 A 
ATOM     46  N   UNL     1     -11.893   2.963  -2.337  1.00  0.00    -0.248 NA
ATOM     47  C   UNL     1     -11.404   4.907  -1.142  1.00  0.00     0.031 C 
ATOM     48  C   UNL     1      -8.955   4.204  -5.478  1.00  0.00     0.029 A 
ATOM     49  N   UNL     1     -10.490   2.682  -4.910  1.00  0.00    -0.354 N 
ATOM     50  C   UNL     1     -12.642   2.980  -1.165  1.00  0.00     0.074 A 
ATOM     51  C   UNL     1     -12.255   4.173  -0.441  1.00  0.00     0.031 C 
ATOM     52  C   UNL     1      -8.992   3.285  -6.457  1.00  0.00     0.029 A 
ATOM     53  C   UNL     1      -9.957   2.249  -6.103  1.00  0.00     0.049 A 
ATOM     54  H   UNL     1     -11.206   2.202  -4.435  1.00  0.00     0.167 HD
ATOM     55  C   UNL     1     -13.576   2.093  -0.740  1.00  0.00     0.034 A 
ATOM     56  C   UNL     1     -10.201   1.134  -6.820  1.00  0.00     0.034 A 
ATOM     57  C   UNL     1     -13.963   0.915  -1.478  1.00  0.00     0.049 A 
ATOM     58  C   UNL     1     -11.224   0.149  -6.312  1.00  0.00     0.074 A 
ATOM     59  C   UNL     1     -14.928  -0.026  -1.158  1.00  0.00     0.029 A 
ATOM     60  N   UNL     1     -13.406   0.513  -2.685  1.00  0.00    -0.354 N 
ATOM     61  N   UNL     1     -11.940   0.195  -5.213  1.00  0.00    -0.248 NA
ATOM     62  C   UNL     1     -11.476  -1.033  -7.147  1.00  0.00     0.031 C 
ATOM     63  C   UNL     1     -14.914  -1.023  -2.140  1.00  0.00     0.029 A 
ATOM     64  C   UNL     1     -13.988  -0.672  -3.109  1.00  0.00     0.049 A 
ATOM     65  H   UNL     1     -12.700   0.999  -3.169  1.00  0.00     0.167 HD
ATOM     66  C   UNL     1     -12.748  -0.939  -5.241  1.00  0.00     0.074 A 
ATOM     67  C   UNL     1     -12.441  -1.638  -6.471  1.00  0.00     0.031 C 
ATOM     68  C   UNL     1     -13.665  -1.362  -4.334  1.00  0.00     0.034 A 
BRANCH  55  69
ATOM     69  C   UNL     1     -14.224   2.355   0.598  1.00  0.00     0.023 A 
ATOM     70  C   UNL     1     -15.035   3.482   0.815  1.00  0.00     0.031 A 
ATOM     71  C   UNL     1     -14.016   1.475   1.675  1.00  0.00     0.131 A 
ATOM     72  C   UNL     1     -15.552   3.737   2.094  1.00  0.00     0.055 A 
ATOM     73  C   UNL     1     -14.596   1.694   2.926  1.00  0.00     0.041 A 
ATOM     74  F   UNL     1     -13.236   0.392   1.532  1.00  0.00    -0.206 F 
ATOM     75  C   UNL     1     -15.358   2.838   3.146  1.00  0.00     0.022 A 
BRANCH  72  76
ATOM     76  S   UNL     1     -16.375   5.324   2.395  1.00  0.00     0.124 S 
ATOM     77  O   UNL     1     -15.300   6.271   2.110  1.00  0.00    -0.237 OA
ATOM     78  O   UNL     1     -17.474   5.297   1.437  1.00  0.00    -0.237 OA
ATOM     79  O   UNL     1     -16.770   5.245   3.800  1.00  0.00    -0.744 OA
ENDBRANCH  72  76
ENDBRANCH  55  69
BRANCH  56  80
ATOM     80  C   UNL     1      -9.456   0.865  -8.082  1.00  0.00     0.023 A 
ATOM     81  C   UNL     1     -10.124   0.817  -9.316  1.00  0.00     0.031 A 
ATOM     82  C   UNL     1      -8.076   0.597  -8.067  1.00  0.00     0.131 A 
ATOM     83  C   UNL     1      -9.423   0.455 -10.477  1.00  0.00     0.055 A 
ATOM     84  C   UNL     1      -7.372   0.288  -9.233  1.00  0.00     0.041 A 
ATOM     85  F   UNL     1      -7.388   0.639  -6.915  1.00  0.00    -0.206 F 
ATOM     86  C   UNL     1      -8.050   0.201 -10.445  1.00  0.00     0.022 A 
BRANCH  83  87
ATOM     87  S   UNL     1     -10.354   0.230 -12.017  1.00  0.00     0.124 S 
ATOM     88  O   UNL     1     -11.341  -0.769 -11.624  1.00  0.00    -0.237 OA
ATOM     89  O   UNL     1     -10.864   1.575 -12.259  1.00  0.00    -0.237 OA
ATOM     90  O   UNL     1      -9.340  -0.231 -12.962  1.00  0.00    -0.744 OA
ENDBRANCH  83  87
ENDBRANCH  56  80
BRANCH  68  91
ATOM     91  C   UNL     1     -14.429  -2.617  -4.673  1.00  0.00     0.023 A 
ATOM     92  C   UNL     1     -13.803  -3.875  -4.710  1.00  0.00     0.031 A 
ATOM     93  C   UNL     1     -15.798  -2.547  -4.984  1.00  0.00     0.131 A 
ATOM     94  C   UNL     1     -14.534  -5.007  -5.104  1.00  0.00     0.055 A 
ATOM     95  C   UNL     1     -16.533  -3.684  -5.322  1.00  0.00     0.041 A 
ATOM     96  F   UNL     1     -16.444  -1.370  -4.966  1.00  0.00    -0.206 F 
ATOM     97  C   UNL     1     -15.898  -4.921  -5.396  1.00  0.00     0.022 A 
BRANCH  94  98
ATOM     98  S   UNL     1     -13.657  -6.581  -5.311  1.00  0.00     0.124 S 
ATOM     99  O   UNL     1     -12.663  -6.244  -6.325  1.00  0.00    -0.237 OA
ATOM    100  O   UNL     1     -13.140  -6.829  -3.969  1.00  0.00    -0.237 OA
ATOM    101  O   UNL     1     -14.704  -7.502  -5.750  1.00  0.00    -0.744 OA
ENDBRANCH  94  98
ENDBRANCH  68  91
ENDBRANCH  42  43
ENDBRANCH  34  37
ENDBRANCH  32  33
ENDBRANCH  31  32
ENDBRANCH   1  31
TORSDOF 18
