REMARK SMILES Cc1ccc(-c2nc(C)c(C(=O)N3CCC(C(=O)NCCCNC(=O)c4ccc(-c5c6nc(c(-c7cc(S(=O)(=O)[O-])ccc7F)c7ccc([nH]7)c(-c7cc(S(=O)(=O)[O-])ccc7F)c7nc(c(-c8cc(S(=O)(=O)[O-])ccc8F)c8ccc5[nH]8)C=C7)C=C6)cc4)CC3)s2)o1
REMARK SMILES IDX 21 1 20 2 19 3 17 4 18 5 16 7 11 8 12 9 13 10 14 11 90 12
REMARK SMILES IDX 15 13 89 14 10 15 6 16 7 17 91 18 8 19 9 20 5 21 1 22 2 23
REMARK SMILES IDX 3 24 92 25 4 26 22 27 23 28 24 29 25 31 26 32 27 33 88 34
REMARK SMILES IDX 28 35 87 36 29 37 30 38 31 39 81 40 32 41 86 42 80 43 82 44
REMARK SMILES IDX 33 45 85 46 79 47 78 48 34 50 66 51 46 52 65 53 47 54 50 55
REMARK SMILES IDX 64 56 83 57 48 58 49 59 63 61 84 62 51 63 35 64 36 65 44 66
REMARK SMILES IDX 37 67 43 68 45 69 42 70 38 71 39 72 40 73 41 74 67 75 68 76
REMARK SMILES IDX 76 77 69 78 75 79 77 80 74 81 70 82 71 83 72 84 73 85 52 86
REMARK SMILES IDX 53 87 61 88 54 89 60 90 62 91 59 92 55 93 56 94 57 95 58 96
REMARK H PARENT 19 6 23 30 82 49 50 60
REMARK Flexibility Score: inf
ROOT
ATOM      1  C   UNL     1     -10.366   4.887   2.562  1.00  0.00     0.042 C 
ENDROOT
BRANCH   1   2
ATOM      2  C   UNL     1     -10.140   4.632   1.081  1.00  0.00     0.117 C 
BRANCH   2   3
ATOM      3  N   UNL     1     -10.575   5.749   0.253  1.00  0.00    -0.356 N 
ATOM      4  C   UNL     1      -9.864   6.599  -0.536  1.00  0.00     0.223 C 
ATOM      5  O   UNL     1     -10.475   7.482  -1.144  1.00  0.00    -0.275 OA
ATOM      6  H   UNL     1     -11.544   5.917   0.267  1.00  0.00     0.163 HD
BRANCH   4   7
ATOM      7  C   UNL     1      -8.359   6.463  -0.688  1.00  0.00     0.082 C 
ATOM      8  C   UNL     1      -5.390   4.036   0.795  1.00  0.00     0.265 C 
ATOM      9  O   UNL     1      -5.711   3.928   1.978  1.00  0.00    -0.268 OA
ATOM     10  N   UNL     1      -5.978   5.035   0.020  1.00  0.00    -0.338 N 
ATOM     11  C   UNL     1      -6.183   6.346   0.610  1.00  0.00     0.120 C 
ATOM     12  C   UNL     1      -6.507   4.829  -1.319  1.00  0.00     0.120 C 
ATOM     13  C   UNL     1      -7.645   6.738   0.642  1.00  0.00     0.035 C 
ATOM     14  C   UNL     1      -7.996   5.140  -1.384  1.00  0.00     0.035 C 
BRANCH   8  15
ATOM     15  C   UNL     1      -4.320   3.251   0.191  1.00  0.00     0.115 A 
ATOM     16  C   UNL     1      -2.504   1.658  -0.111  1.00  0.00     0.159 A 
ATOM     17  N   UNL     1      -2.431   2.596  -1.026  1.00  0.00    -0.237 NA
ATOM     18  S   UNL     1      -3.853   1.760   0.934  1.00  0.00    -0.105 S 
ATOM     19  C   UNL     1      -3.445   3.523  -0.855  1.00  0.00     0.062 A 
ATOM     20  C   UNL     1      -3.394   4.694  -1.766  1.00  0.00     0.068 C 
BRANCH  16  21
ATOM     21  C   UNL     1      -1.484   0.655   0.003  1.00  0.00     0.162 A 
ATOM     22  C   UNL     1       2.036  -0.032  -0.005  1.00  0.00     0.087 C 
ATOM     23  C   UNL     1       0.568  -0.178   0.037  1.00  0.00     0.101 A 
ATOM     24  C   UNL     1      -0.283  -1.251   0.171  1.00  0.00     0.046 A 
ATOM     25  O   UNL     1      -0.148   0.970  -0.081  1.00  0.00    -0.459 OA
ATOM     26  C   UNL     1      -1.597  -0.716   0.168  1.00  0.00     0.054 A 
ENDBRANCH  16  21
ENDBRANCH   8  15
ENDBRANCH   4   7
ENDBRANCH   2   3
ENDBRANCH   1   2
BRANCH   1  27
ATOM     27  C   UNL     1     -11.832   5.001   2.941  1.00  0.00     0.118 C 
BRANCH  27  28
ATOM     28  N   UNL     1     -12.571   3.777   2.666  1.00  0.00    -0.352 N 
ATOM     29  C   UNL     1     -13.210   2.924   3.530  1.00  0.00     0.251 C 
ATOM     30  H   UNL     1     -12.620   3.524   1.716  1.00  0.00     0.163 HD
ATOM     31  O   UNL     1     -13.575   1.822   3.124  1.00  0.00    -0.269 OA
BRANCH  29  32
ATOM     32  C   UNL     1     -13.437   3.320   4.936  1.00  0.00     0.039 A 
ATOM     33  C   UNL     1     -13.292   2.363   5.942  1.00  0.00     0.014 A 
ATOM     34  C   UNL     1     -13.800   4.628   5.264  1.00  0.00     0.014 A 
ATOM     35  C   UNL     1     -13.454   2.736   7.277  1.00  0.00     0.010 A 
ATOM     36  C   UNL     1     -13.853   5.022   6.597  1.00  0.00     0.010 A 
ATOM     37  C   UNL     1     -13.699   4.077   7.619  1.00  0.00    -0.014 A 
BRANCH  37  38
ATOM     38  C   UNL     1     -13.819   4.497   9.040  1.00  0.00     0.031 A 
ATOM     39  C   UNL     1     -15.103   5.104   9.542  1.00  0.00     0.074 A 
ATOM     40  C   UNL     1     -12.759   4.369   9.863  1.00  0.00     0.049 A 
ATOM     41  N   UNL     1     -15.393   5.557  10.735  1.00  0.00    -0.248 NA
ATOM     42  C   UNL     1     -16.194   5.250   8.567  1.00  0.00     0.031 C 
ATOM     43  C   UNL     1     -11.447   3.845   9.476  1.00  0.00     0.029 A 
ATOM     44  N   UNL     1     -12.615   4.666  11.194  1.00  0.00    -0.354 N 
ATOM     45  C   UNL     1     -16.692   6.048  10.650  1.00  0.00     0.074 A 
ATOM     46  C   UNL     1     -17.102   5.908   9.270  1.00  0.00     0.031 C 
ATOM     47  C   UNL     1     -10.649   3.815  10.554  1.00  0.00     0.029 A 
ATOM     48  C   UNL     1     -11.370   4.364  11.697  1.00  0.00     0.049 A 
ATOM     49  H   UNL     1     -13.335   5.057  11.740  1.00  0.00     0.167 HD
ATOM     50  C   UNL     1     -17.480   6.540  11.637  1.00  0.00     0.034 A 
ATOM     51  C   UNL     1     -10.865   4.518  12.937  1.00  0.00     0.034 A 
ATOM     52  C   UNL     1     -17.055   6.663  13.011  1.00  0.00     0.049 A 
ATOM     53  C   UNL     1     -11.755   5.088  14.014  1.00  0.00     0.074 A 
ATOM     54  C   UNL     1     -17.784   7.104  14.102  1.00  0.00     0.029 A 
ATOM     55  N   UNL     1     -15.785   6.353  13.482  1.00  0.00    -0.354 N 
ATOM     56  N   UNL     1     -13.001   5.495  13.929  1.00  0.00    -0.248 NA
ATOM     57  C   UNL     1     -11.174   5.202  15.356  1.00  0.00     0.031 C 
ATOM     58  C   UNL     1     -16.935   7.133  15.213  1.00  0.00     0.029 A 
ATOM     59  C   UNL     1     -15.701   6.623  14.840  1.00  0.00     0.049 A 
ATOM     60  H   UNL     1     -15.052   5.994  12.932  1.00  0.00     0.167 HD
ATOM     61  C   UNL     1     -13.362   5.880  15.218  1.00  0.00     0.074 A 
ATOM     62  C   UNL     1     -12.209   5.635  16.059  1.00  0.00     0.031 C 
ATOM     63  C   UNL     1     -14.540   6.385  15.667  1.00  0.00     0.034 A 
BRANCH  50  64
ATOM     64  C   UNL     1     -18.869   7.001  11.255  1.00  0.00     0.023 A 
ATOM     65  C   UNL     1     -19.818   6.118  10.709  1.00  0.00     0.031 A 
ATOM     66  C   UNL     1     -19.242   8.348  11.412  1.00  0.00     0.131 A 
ATOM     67  C   UNL     1     -21.058   6.604  10.268  1.00  0.00     0.055 A 
ATOM     68  C   UNL     1     -20.511   8.808  11.054  1.00  0.00     0.041 A 
ATOM     69  F   UNL     1     -18.374   9.246  11.904  1.00  0.00    -0.206 F 
ATOM     70  C   UNL     1     -21.423   7.938  10.463  1.00  0.00     0.022 A 
BRANCH  67  71
ATOM     71  S   UNL     1     -22.124   5.504   9.297  1.00  0.00     0.124 S 
ATOM     72  O   UNL     1     -21.253   5.166   8.173  1.00  0.00    -0.237 OA
ATOM     73  O   UNL     1     -22.404   4.425  10.236  1.00  0.00    -0.237 OA
ATOM     74  O   UNL     1     -23.268   6.348   8.956  1.00  0.00    -0.744 OA
ENDBRANCH  67  71
ENDBRANCH  50  64
BRANCH  51  75
ATOM     75  C   UNL     1      -9.456   4.130  13.236  1.00  0.00     0.023 A 
ATOM     76  C   UNL     1      -9.163   3.114  14.160  1.00  0.00     0.031 A 
ATOM     77  C   UNL     1      -8.376   4.805  12.637  1.00  0.00     0.131 A 
ATOM     78  C   UNL     1      -7.829   2.839  14.500  1.00  0.00     0.055 A 
ATOM     79  C   UNL     1      -7.050   4.485  12.932  1.00  0.00     0.041 A 
ATOM     80  F   UNL     1      -8.597   5.784  11.745  1.00  0.00    -0.206 F 
ATOM     81  C   UNL     1      -6.771   3.506  13.881  1.00  0.00     0.022 A 
BRANCH  78  82
ATOM     82  S   UNL     1      -7.500   1.663  15.841  1.00  0.00     0.124 S 
ATOM     83  O   UNL     1      -8.230   2.266  16.950  1.00  0.00    -0.237 OA
ATOM     84  O   UNL     1      -8.057   0.426  15.303  1.00  0.00    -0.237 OA
ATOM     85  O   UNL     1      -6.044   1.687  15.965  1.00  0.00    -0.744 OA
ENDBRANCH  78  82
ENDBRANCH  51  75
BRANCH  63  86
ATOM     86  C   UNL     1     -14.649   6.656  17.149  1.00  0.00     0.023 A 
ATOM     87  C   UNL     1     -13.846   7.616  17.791  1.00  0.00     0.031 A 
ATOM     88  C   UNL     1     -15.550   5.917  17.938  1.00  0.00     0.131 A 
ATOM     89  C   UNL     1     -13.905   7.757  19.185  1.00  0.00     0.055 A 
ATOM     90  C   UNL     1     -15.659   6.117  19.314  1.00  0.00     0.041 A 
ATOM     91  F   UNL     1     -16.340   4.984  17.382  1.00  0.00    -0.206 F 
ATOM     92  C   UNL     1     -14.820   7.028  19.949  1.00  0.00     0.022 A 
BRANCH  89  93
ATOM     93  S   UNL     1     -12.679   8.814  20.004  1.00  0.00     0.124 S 
ATOM     94  O   UNL     1     -11.422   8.228  19.549  1.00  0.00    -0.237 OA
ATOM     95  O   UNL     1     -12.998  10.133  19.468  1.00  0.00    -0.237 OA
ATOM     96  O   UNL     1     -12.967   8.636  21.426  1.00  0.00    -0.744 OA
ENDBRANCH  89  93
ENDBRANCH  63  86
ENDBRANCH  37  38
ENDBRANCH  29  32
ENDBRANCH  27  28
ENDBRANCH   1  27
TORSDOF 15
