REMARK SMILES Nc1c(Nc2ncc(C(F)(F)F)cc2Cl)ncnc1N1CCC(C(=O)NCCCNC(=O)c2ccc(-c3c4nc(c(-c5cc(S(=O)(=O)[O-])ccc5F)c5ccc([nH]5)c(-c5cc(S(=O)(=O)[O-])ccc5F)c5nc(c(-c6cc(S(=O)(=O)[O-])ccc6F)c6ccc3[nH]6)C=C5)C=C4)cc2)CC1
REMARK SMILES IDX 27 1 26 2 24 3 25 4 23 6 20 7 21 8 97 9 22 10 96 11 19 12
REMARK SMILES IDX 2 13 3 14 16 15 18 16 17 17 1 18 4 21 5 23 6 24 14 25 7 26
REMARK SMILES IDX 13 27 15 28 8 29 9 30 10 31 11 32 12 33 28 34 29 35 30 36
REMARK SMILES IDX 31 37 32 39 33 40 34 41 95 42 35 43 94 44 36 45 37 46 38 47
REMARK SMILES IDX 88 48 39 49 93 50 87 51 89 52 40 53 92 54 86 55 85 56 41 58
REMARK SMILES IDX 73 59 53 60 72 61 54 62 57 63 71 64 90 65 55 66 56 67 70 69
REMARK SMILES IDX 91 70 58 71 42 72 43 73 51 74 44 75 50 76 52 77 49 78 45 79
REMARK SMILES IDX 46 80 47 81 48 82 74 83 75 84 83 85 76 86 82 87 84 88 81 89
REMARK SMILES IDX 77 90 78 91 79 92 80 93 59 94 60 95 68 96 61 97 67 98 69 99
REMARK SMILES IDX 66 100 62 101 63 102 64 103 65 104
REMARK H PARENT 26 5 1 19 1 20 4 22 30 38 89 57 57 68
REMARK Flexibility Score: inf
ROOT
ATOM      1  C   UNL     1       0.563   6.466   0.792  1.00  0.00     0.117 C 
ENDROOT
BRANCH   1   2
ATOM      2  N   UNL     1       1.708   6.933   0.023  1.00  0.00    -0.356 N 
ATOM      3  C   UNL     1       2.769   6.271  -0.504  1.00  0.00     0.223 C 
ATOM      4  O   UNL     1       3.616   6.936  -1.108  1.00  0.00    -0.275 OA
ATOM      5  H   UNL     1       1.713   7.903  -0.145  1.00  0.00     0.163 HD
BRANCH   3   6
ATOM      6  C   UNL     1       2.920   4.763  -0.399  1.00  0.00     0.082 C 
ATOM      7  N   UNL     1       2.057   2.155   0.389  1.00  0.00    -0.355 N 
ATOM      8  C   UNL     1       3.151   2.769   1.130  1.00  0.00     0.119 C 
ATOM      9  C   UNL     1       1.899   2.521  -1.012  1.00  0.00     0.119 C 
ATOM     10  C   UNL     1       3.088   4.288   1.047  1.00  0.00     0.035 C 
ATOM     11  C   UNL     1       1.823   4.032  -1.183  1.00  0.00     0.035 C 
BRANCH   7  12
ATOM     12  C   UNL     1       0.928   1.761   1.110  1.00  0.00     0.157 A 
ATOM     13  C   UNL     1       0.319   0.528   0.820  1.00  0.00     0.118 A 
ATOM     14  C   UNL     1      -0.747   0.151   1.650  1.00  0.00     0.160 A 
ATOM     15  N   UNL     1      -1.223   0.952   2.617  1.00  0.00    -0.217 NA
ATOM     16  N   UNL     1       0.476   2.559   2.094  1.00  0.00    -0.217 NA
ATOM     17  C   UNL     1      -0.584   2.116   2.788  1.00  0.00     0.226 A 
BRANCH  13  18
ATOM     18  N   UNL     1       0.874  -0.379  -0.107  1.00  0.00    -0.393 N 
ATOM     19  H   UNL     1       0.423  -1.235  -0.288  1.00  0.00     0.156 HD
ATOM     20  H   UNL     1       1.712  -0.156  -0.573  1.00  0.00     0.156 HD
ENDBRANCH  13  18
BRANCH  14  21
ATOM     21  N   UNL     1      -1.261  -1.160   1.483  1.00  0.00    -0.322 N 
ATOM     22  H   UNL     1      -0.820  -1.712   0.798  1.00  0.00     0.170 HD
BRANCH  21  23
ATOM     23  C   UNL     1      -2.313  -1.764   2.168  1.00  0.00     0.150 A 
ATOM     24  N   UNL     1      -1.999  -2.976   2.696  1.00  0.00    -0.237 NA
ATOM     25  C   UNL     1      -3.596  -1.221   2.304  1.00  0.00     0.084 A 
ATOM     26  C   UNL     1      -2.929  -3.609   3.447  1.00  0.00     0.126 A 
ATOM     27  C   UNL     1      -4.543  -1.908   3.069  1.00  0.00     0.039 A 
ATOM     28  Cl  UNL     1      -4.125   0.195   1.466  1.00  0.00    -0.080 Cl
ATOM     29  C   UNL     1      -4.205  -3.121   3.674  1.00  0.00     0.075 A 
BRANCH  29  30
ATOM     30  C   UNL     1      -5.156  -3.902   4.525  1.00  0.00     0.417 C 
ATOM     31  F   UNL     1      -5.356  -5.162   4.046  1.00  0.00    -0.166 F 
ATOM     32  F   UNL     1      -4.712  -4.056   5.800  1.00  0.00    -0.166 F 
ATOM     33  F   UNL     1      -6.392  -3.341   4.617  1.00  0.00    -0.166 F 
ENDBRANCH  29  30
ENDBRANCH  21  23
ENDBRANCH  14  21
ENDBRANCH   7  12
ENDBRANCH   3   6
ENDBRANCH   1   2
BRANCH   1  34
ATOM     34  C   UNL     1       0.611   6.934   2.241  1.00  0.00     0.042 C 
BRANCH  34  35
ATOM     35  C   UNL     1       0.530   8.446   2.397  1.00  0.00     0.118 C 
BRANCH  35  36
ATOM     36  N   UNL     1      -0.753   8.981   1.963  1.00  0.00    -0.352 N 
ATOM     37  C   UNL     1      -1.809   9.456   2.702  1.00  0.00     0.251 C 
ATOM     38  H   UNL     1      -0.884   9.006   0.988  1.00  0.00     0.163 HD
ATOM     39  O   UNL     1      -2.890   9.650   2.151  1.00  0.00    -0.269 OA
BRANCH  37  40
ATOM     40  C   UNL     1      -1.655   9.709   4.151  1.00  0.00     0.039 A 
ATOM     41  C   UNL     1      -2.676   9.317   5.020  1.00  0.00     0.014 A 
ATOM     42  C   UNL     1      -0.517  10.347   4.653  1.00  0.00     0.014 A 
ATOM     43  C   UNL     1      -2.523   9.501   6.396  1.00  0.00     0.010 A 
ATOM     44  C   UNL     1      -0.329  10.452   6.028  1.00  0.00     0.010 A 
ATOM     45  C   UNL     1      -1.332  10.035   6.914  1.00  0.00    -0.014 A 
BRANCH  45  46
ATOM     46  C   UNL     1      -1.128  10.186   8.377  1.00  0.00     0.031 A 
ATOM     47  C   UNL     1      -0.977  11.556   8.979  1.00  0.00     0.074 A 
ATOM     48  C   UNL     1      -1.042   9.090   9.157  1.00  0.00     0.049 A 
ATOM     49  N   UNL     1      -0.733  11.891  10.219  1.00  0.00    -0.248 NA
ATOM     50  C   UNL     1      -1.090  12.699   8.059  1.00  0.00     0.031 C 
ATOM     51  C   UNL     1      -1.145   7.707   8.685  1.00  0.00     0.029 A 
ATOM     52  N   UNL     1      -0.855   8.964  10.510  1.00  0.00    -0.354 N 
ATOM     53  C   UNL     1      -0.658  13.279  10.228  1.00  0.00     0.074 A 
ATOM     54  C   UNL     1      -0.819  13.719   8.859  1.00  0.00     0.031 C 
ATOM     55  C   UNL     1      -1.067   6.877   9.738  1.00  0.00     0.029 A 
ATOM     56  C   UNL     1      -0.864   7.662  10.951  1.00  0.00     0.049 A 
ATOM     57  H   UNL     1      -0.727   9.735  11.109  1.00  0.00     0.167 HD
ATOM     58  C   UNL     1      -0.500  14.113  11.285  1.00  0.00     0.034 A 
ATOM     59  C   UNL     1      -0.724   7.157  12.193  1.00  0.00     0.034 A 
ATOM     60  C   UNL     1      -0.366  13.667  12.647  1.00  0.00     0.049 A 
ATOM     61  C   UNL     1      -0.512   8.100  13.347  1.00  0.00     0.074 A 
ATOM     62  C   UNL     1      -0.243  14.430  13.795  1.00  0.00     0.029 A 
ATOM     63  N   UNL     1      -0.340  12.338  13.047  1.00  0.00    -0.354 N 
ATOM     64  N   UNL     1      -0.447   9.410  13.336  1.00  0.00    -0.248 NA
ATOM     65  C   UNL     1      -0.349   7.497  14.676  1.00  0.00     0.031 C 
ATOM     66  C   UNL     1      -0.092  13.563  14.882  1.00  0.00     0.029 A 
ATOM     67  C   UNL     1      -0.178  12.259  14.420  1.00  0.00     0.049 A 
ATOM     68  H   UNL     1      -0.423  11.565  12.443  1.00  0.00     0.167 HD
ATOM     69  C   UNL     1      -0.251   9.790  14.660  1.00  0.00     0.074 A 
ATOM     70  C   UNL     1      -0.213   8.571  15.443  1.00  0.00     0.031 C 
ATOM     71  C   UNL     1      -0.121  11.035  15.180  1.00  0.00     0.034 A 
BRANCH  58  72
ATOM     72  C   UNL     1      -0.460  15.592  10.999  1.00  0.00     0.023 A 
ATOM     73  C   UNL     1      -1.592  16.274  10.522  1.00  0.00     0.031 A 
ATOM     74  C   UNL     1       0.721  16.326  11.198  1.00  0.00     0.131 A 
ATOM     75  C   UNL     1      -1.503  17.636  10.203  1.00  0.00     0.055 A 
ATOM     76  C   UNL     1       0.784  17.697  10.944  1.00  0.00     0.041 A 
ATOM     77  F   UNL     1       1.837  15.720  11.636  1.00  0.00    -0.206 F 
ATOM     78  C   UNL     1      -0.330  18.358  10.433  1.00  0.00     0.022 A 
BRANCH  75  79
ATOM     79  S   UNL     1      -2.915  18.430   9.389  1.00  0.00     0.124 S 
ATOM     80  O   UNL     1      -2.958  17.716   8.115  1.00  0.00    -0.237 OA
ATOM     81  O   UNL     1      -4.010  18.155  10.312  1.00  0.00    -0.237 OA
ATOM     82  O   UNL     1      -2.514  19.832   9.298  1.00  0.00    -0.744 OA
ENDBRANCH  75  79
ENDBRANCH  58  72
BRANCH  59  83
ATOM     83  C   UNL     1      -0.786   5.686  12.408  1.00  0.00     0.023 A 
ATOM     84  C   UNL     1      -1.887   5.101  13.050  1.00  0.00     0.031 A 
ATOM     85  C   UNL     1       0.249   4.845  11.964  1.00  0.00     0.131 A 
ATOM     86  C   UNL     1      -1.922   3.713  13.248  1.00  0.00     0.055 A 
ATOM     87  C   UNL     1       0.195   3.461  12.134  1.00  0.00     0.041 A 
ATOM     88  F   UNL     1       1.317   5.359  11.334  1.00  0.00    -0.206 F 
ATOM     89  C   UNL     1      -0.894   2.888  12.784  1.00  0.00     0.022 A 
BRANCH  86  90
ATOM     90  S   UNL     1      -3.330   2.994  14.139  1.00  0.00     0.124 S 
ATOM     91  O   UNL     1      -3.161   3.566  15.470  1.00  0.00    -0.237 OA
ATOM     92  O   UNL     1      -4.465   3.488  13.366  1.00  0.00    -0.237 OA
ATOM     93  O   UNL     1      -3.094   1.555  14.041  1.00  0.00    -0.744 OA
ENDBRANCH  86  90
ENDBRANCH  59  83
BRANCH  71  94
ATOM     94  C   UNL     1       0.058  11.147  16.669  1.00  0.00     0.023 A 
ATOM     95  C   UNL     1       1.276  10.816  17.284  1.00  0.00     0.031 A 
ATOM     96  C   UNL     1      -0.984  11.643  17.471  1.00  0.00     0.131 A 
ATOM     97  C   UNL     1       1.417  10.966  18.672  1.00  0.00     0.055 A 
ATOM     98  C   UNL     1      -0.826  11.828  18.844  1.00  0.00     0.041 A 
ATOM     99  F   UNL     1      -2.165  11.976  16.926  1.00  0.00    -0.206 F 
ATOM    100  C   UNL     1       0.380  11.486  19.452  1.00  0.00     0.022 A 
BRANCH  97 101
ATOM    101  S   UNL     1       2.973  10.459  19.452  1.00  0.00     0.124 S 
ATOM    102  O   UNL     1       2.949   9.013  19.260  1.00  0.00    -0.237 OA
ATOM    103  O   UNL     1       3.970  11.188  18.676  1.00  0.00    -0.237 OA
ATOM    104  O   UNL     1       2.823  10.904  20.836  1.00  0.00    -0.744 OA
ENDBRANCH  97 101
ENDBRANCH  71  94
ENDBRANCH  45  46
ENDBRANCH  37  40
ENDBRANCH  35  36
ENDBRANCH  34  35
ENDBRANCH   1  34
TORSDOF 18
