REMARK SMILES COc1ccc(-c2nc(SCC(=O)NCCCNC(=O)c3ccc(-c4c5nc(c(-c6cc(S(=O)(=O)[O-])ccc6F)c6ccc([nH]6)c(-c6cc(S(=O)(=O)[O-])ccc6F)c6nc(c(-c7cc(S(=O)(=O)[O-])ccc7F)c7ccc4[nH]7)C=C6)C=C5)cc3)[nH]c2C)cc1
REMARK SMILES IDX 15 1 14 2 12 3 13 4 11 6 10 7 9 8 7 9 8 10 85 11 84 12 86 13
REMARK SMILES IDX 6 15 3 16 4 17 88 18 5 19 87 20 2 21 1 22 16 23 17 24 18 25
REMARK SMILES IDX 19 26 20 28 21 29 22 30 83 31 23 32 82 33 24 34 25 35 26 36
REMARK SMILES IDX 76 37 27 38 81 39 75 40 77 41 28 42 80 43 74 44 73 45 29 47
REMARK SMILES IDX 61 48 41 49 60 50 42 51 45 52 59 53 78 54 43 55 44 56 58 58
REMARK SMILES IDX 79 59 46 60 30 61 31 62 39 63 32 64 38 65 40 66 37 67 33 68
REMARK SMILES IDX 34 69 35 70 36 71 62 72 63 73 71 74 64 75 70 76 72 77 69 78
REMARK SMILES IDX 65 79 66 80 67 81 68 82 47 83 48 84 56 85 49 86 55 87 57 88
REMARK SMILES IDX 54 89 50 90 51 91 52 92 53 93
REMARK H PARENT 14 5 84 14 18 27 77 46 45 57
REMARK Flexibility Score: inf
ROOT
ATOM      1  C   UNL     1      -0.442   9.005   7.488  1.00  0.00     0.117 C 
ENDROOT
BRANCH   1   2
ATOM      2  N   UNL     1      -0.941   7.791   6.870  1.00  0.00    -0.355 N 
ATOM      3  C   UNL     1      -0.364   6.559   6.754  1.00  0.00     0.230 C 
ATOM      4  O   UNL     1      -1.054   5.664   6.258  1.00  0.00    -0.274 OA
ATOM      5  H   UNL     1      -1.837   7.868   6.471  1.00  0.00     0.163 HD
BRANCH   3   6
ATOM      6  C   UNL     1       1.002   6.271   7.353  1.00  0.00     0.178 C 
BRANCH   6   7
ATOM      7  S   UNL     1       2.356   7.229   6.623  1.00  0.00    -0.078 SA
BRANCH   7   8
ATOM      8  C   UNL     1       2.413   6.602   5.025  1.00  0.00     0.166 A 
ATOM      9  C   UNL     1       2.196   5.460   3.247  1.00  0.00     0.092 A 
ATOM     10  N   UNL     1       1.767   5.571   4.548  1.00  0.00    -0.222 NA
ATOM     11  C   UNL     1       3.112   6.447   2.934  1.00  0.00     0.040 A 
ATOM     12  N   UNL     1       3.227   7.176   4.095  1.00  0.00    -0.337 N 
ATOM     13  C   UNL     1       3.868   6.789   1.709  1.00  0.00     0.067 C 
ATOM     14  H   UNL     1       3.795   7.968   4.229  1.00  0.00     0.168 HD
BRANCH   9  15
ATOM     15  C   UNL     1       1.736   4.414   2.363  1.00  0.00     0.002 A 
ATOM     16  C   UNL     1       0.825   2.342   0.707  1.00  0.00     0.118 A 
ATOM     17  C   UNL     1      -0.038   3.370   1.091  1.00  0.00     0.047 A 
ATOM     18  C   UNL     1       2.155   2.365   1.132  1.00  0.00     0.047 A 
ATOM     19  C   UNL     1       0.408   4.395   1.930  1.00  0.00     0.014 A 
ATOM     20  C   UNL     1       2.608   3.399   1.957  1.00  0.00     0.014 A 
BRANCH  16  21
ATOM     21  O   UNL     1       0.272   1.385  -0.101  1.00  0.00    -0.497 OA
ATOM     22  C   UNL     1       0.904   0.111  -0.067  1.00  0.00     0.278 C 
ENDBRANCH  16  21
ENDBRANCH   9  15
ENDBRANCH   7   8
ENDBRANCH   6   7
ENDBRANCH   3   6
ENDBRANCH   1   2
BRANCH   1  23
ATOM     23  C   UNL     1       0.005  10.038   6.458  1.00  0.00     0.042 C 
BRANCH  23  24
ATOM     24  C   UNL     1      -1.118  10.555   5.563  1.00  0.00     0.118 C 
BRANCH  24  25
ATOM     25  N   UNL     1      -2.089  11.362   6.288  1.00  0.00    -0.352 N 
ATOM     26  C   UNL     1      -2.481  12.663   6.074  1.00  0.00     0.251 C 
ATOM     27  H   UNL     1      -2.531  10.910   7.042  1.00  0.00     0.163 HD
ATOM     28  O   UNL     1      -3.188  13.227   6.905  1.00  0.00    -0.269 OA
BRANCH  26  29
ATOM     29  C   UNL     1      -2.026  13.388   4.866  1.00  0.00     0.039 A 
ATOM     30  C   UNL     1      -1.544  14.694   4.998  1.00  0.00     0.014 A 
ATOM     31  C   UNL     1      -2.073  12.784   3.607  1.00  0.00     0.014 A 
ATOM     32  C   UNL     1      -1.030  15.362   3.883  1.00  0.00     0.010 A 
ATOM     33  C   UNL     1      -1.500  13.425   2.511  1.00  0.00     0.010 A 
ATOM     34  C   UNL     1      -0.963  14.716   2.639  1.00  0.00    -0.014 A 
BRANCH  34  35
ATOM     35  C   UNL     1      -0.335  15.355   1.452  1.00  0.00     0.031 A 
ATOM     36  C   UNL     1      -1.165  15.642   0.231  1.00  0.00     0.074 A 
ATOM     37  C   UNL     1       0.995  15.579   1.433  1.00  0.00     0.049 A 
ATOM     38  N   UNL     1      -0.784  16.017  -0.963  1.00  0.00    -0.248 NA
ATOM     39  C   UNL     1      -2.615  15.446   0.368  1.00  0.00     0.031 C 
ATOM     40  C   UNL     1       1.911  15.327   2.547  1.00  0.00     0.029 A 
ATOM     41  N   UNL     1       1.812  16.047   0.433  1.00  0.00    -0.354 N 
ATOM     42  C   UNL     1      -1.943  16.078  -1.729  1.00  0.00     0.074 A 
ATOM     43  C   UNL     1      -3.032  15.655  -0.872  1.00  0.00     0.031 C 
ATOM     44  C   UNL     1       3.160  15.646   2.171  1.00  0.00     0.029 A 
ATOM     45  C   UNL     1       3.145  16.072   0.775  1.00  0.00     0.049 A 
ATOM     46  H   UNL     1       1.475  16.338  -0.445  1.00  0.00     0.167 HD
ATOM     47  C   UNL     1      -2.087  16.464  -3.021  1.00  0.00     0.034 A 
ATOM     48  C   UNL     1       4.234  16.373   0.039  1.00  0.00     0.034 A 
ATOM     49  C   UNL     1      -0.993  16.899  -3.855  1.00  0.00     0.049 A 
ATOM     50  C   UNL     1       4.055  16.769  -1.405  1.00  0.00     0.074 A 
ATOM     51  C   UNL     1      -1.034  17.361  -5.160  1.00  0.00     0.029 A 
ATOM     52  N   UNL     1       0.341  16.924  -3.468  1.00  0.00    -0.354 N 
ATOM     53  N   UNL     1       2.949  16.844  -2.108  1.00  0.00    -0.248 NA
ATOM     54  C   UNL     1       5.269  17.122  -2.152  1.00  0.00     0.031 C 
ATOM     55  C   UNL     1       0.278  17.606  -5.580  1.00  0.00     0.029 A 
ATOM     56  C   UNL     1       1.133  17.366  -4.516  1.00  0.00     0.049 A 
ATOM     57  H   UNL     1       0.675  16.665  -2.579  1.00  0.00     0.167 HD
ATOM     58  C   UNL     1       3.333  17.288  -3.371  1.00  0.00     0.074 A 
ATOM     59  C   UNL     1       4.770  17.465  -3.331  1.00  0.00     0.031 C 
ATOM     60  C   UNL     1       2.565  17.535  -4.462  1.00  0.00     0.034 A 
BRANCH  47  61
ATOM     61  C   UNL     1      -3.474  16.398  -3.614  1.00  0.00     0.023 A 
ATOM     62  C   UNL     1      -4.527  17.187  -3.119  1.00  0.00     0.031 A 
ATOM     63  C   UNL     1      -3.756  15.511  -4.669  1.00  0.00     0.131 A 
ATOM     64  C   UNL     1      -5.825  17.017  -3.621  1.00  0.00     0.055 A 
ATOM     65  C   UNL     1      -5.034  15.407  -5.221  1.00  0.00     0.041 A 
ATOM     66  F   UNL     1      -2.796  14.719  -5.171  1.00  0.00    -0.206 F 
ATOM     67  C   UNL     1      -6.082  16.150  -4.686  1.00  0.00     0.022 A 
BRANCH  64  68
ATOM     68  S   UNL     1      -7.197  17.836  -2.763  1.00  0.00     0.124 S 
ATOM     69  O   UNL     1      -7.079  17.276  -1.419  1.00  0.00    -0.237 OA
ATOM     70  O   UNL     1      -6.857  19.247  -2.900  1.00  0.00    -0.237 OA
ATOM     71  O   UNL     1      -8.376  17.402  -3.510  1.00  0.00    -0.744 OA
ENDBRANCH  64  68
ENDBRANCH  47  61
BRANCH  48  72
ATOM     72  C   UNL     1       5.596  16.288   0.640  1.00  0.00     0.023 A 
ATOM     73  C   UNL     1       6.382  17.438   0.809  1.00  0.00     0.031 A 
ATOM     74  C   UNL     1       6.146  15.050   1.017  1.00  0.00     0.131 A 
ATOM     75  C   UNL     1       7.691  17.323   1.301  1.00  0.00     0.055 A 
ATOM     76  C   UNL     1       7.432  14.947   1.552  1.00  0.00     0.041 A 
ATOM     77  F   UNL     1       5.434  13.920   0.882  1.00  0.00    -0.206 F 
ATOM     78  C   UNL     1       8.217  16.088   1.685  1.00  0.00     0.022 A 
BRANCH  75  79
ATOM     79  S   UNL     1       8.730  18.809   1.358  1.00  0.00     0.124 S 
ATOM     80  O   UNL     1       8.730  19.225  -0.040  1.00  0.00    -0.237 OA
ATOM     81  O   UNL     1       7.988  19.661   2.282  1.00  0.00    -0.237 OA
ATOM     82  O   UNL     1      10.008  18.311   1.862  1.00  0.00    -0.744 OA
ENDBRANCH  75  79
ENDBRANCH  48  72
BRANCH  60  83
ATOM     83  C   UNL     1       3.260  18.083  -5.683  1.00  0.00     0.023 A 
ATOM     84  C   UNL     1       4.131  17.297  -6.457  1.00  0.00     0.031 A 
ATOM     85  C   UNL     1       3.033  19.412  -6.081  1.00  0.00     0.131 A 
ATOM     86  C   UNL     1       4.774  17.861  -7.570  1.00  0.00     0.055 A 
ATOM     87  C   UNL     1       3.635  19.952  -7.217  1.00  0.00     0.041 A 
ATOM     88  F   UNL     1       2.210  20.205  -5.375  1.00  0.00    -0.206 F 
ATOM     89  C   UNL     1       4.519  19.178  -7.964  1.00  0.00     0.022 A 
BRANCH  86  90
ATOM     90  S   UNL     1       5.997  16.868  -8.468  1.00  0.00     0.124 S 
ATOM     91  O   UNL     1       6.999  16.617  -7.438  1.00  0.00    -0.237 OA
ATOM     92  O   UNL     1       5.213  15.711  -8.890  1.00  0.00    -0.237 OA
ATOM     93  O   UNL     1       6.428  17.751  -9.551  1.00  0.00    -0.744 OA
ENDBRANCH  86  90
ENDBRANCH  60  83
ENDBRANCH  34  35
ENDBRANCH  26  29
ENDBRANCH  24  25
ENDBRANCH  23  24
ENDBRANCH   1  23
TORSDOF 17
