REMARK SMILES C[NH2+][C@](C)(CCSc1ccncc1)C(=O)NCCCNC(=O)c1ccc(-c2c3nc(c(-c4cc(S(=O)(=O)[O-])ccc4F)c4ccc([nH]4)c(-c4cc(S(=O)(=O)[O-])ccc4F)c4nc(c(-c5cc(S(=O)(=O)[O-])ccc5F)c5ccc2[nH]5)C=C4)C=C3)cc1
REMARK SMILES IDX 17 1 16 2 14 3 15 4 3 6 4 7 2 8 1 9 5 12 6 13 7 14 8 15 9 16
REMARK SMILES IDX 13 17 10 18 12 19 11 20 18 21 19 22 20 23 21 24 22 26 23 27
REMARK SMILES IDX 24 28 85 29 25 30 84 31 26 32 27 33 28 34 78 35 29 36 83 37
REMARK SMILES IDX 77 38 79 39 30 40 82 41 76 42 75 43 31 45 63 46 43 47 62 48
REMARK SMILES IDX 44 49 47 50 61 51 80 52 45 53 46 54 60 56 81 57 48 58 32 59
REMARK SMILES IDX 33 60 41 61 34 62 40 63 42 64 39 65 35 66 36 67 37 68 38 69
REMARK SMILES IDX 64 70 65 71 73 72 66 73 72 74 74 75 71 76 67 77 68 78 69 79
REMARK SMILES IDX 70 80 49 81 50 82 58 83 51 84 57 85 59 86 56 87 52 88 53 89
REMARK SMILES IDX 54 90 55 91
REMARK H PARENT 16 5 2 10 2 11 20 25 79 44 47 55
REMARK Flexibility Score: inf
ROOT
ATOM      1  C   UNL     1      -4.252  -0.679  -1.207  1.00  0.00     0.118 C 
ENDROOT
BRANCH   1   2
ATOM      2  N   UNL     1      -3.185  -0.712  -0.218  1.00  0.00    -0.351 N 
ATOM      3  C   UNL     1      -1.841  -0.445  -0.308  1.00  0.00     0.281 C 
ATOM      4  O   UNL     1      -1.238  -0.152   0.727  1.00  0.00    -0.268 OA
ATOM      5  H   UNL     1      -3.482  -0.976   0.683  1.00  0.00     0.163 HD
BRANCH   3   6
ATOM      6  C   UNL     1      -1.121  -0.454  -1.672  1.00  0.00     0.173 C 
ATOM      7  C   UNL     1       0.408  -0.235  -1.562  1.00  0.00     0.090 C 
BRANCH   6   8
ATOM      8  N   UNL     1      -1.581   0.718  -2.488  1.00  0.00    -0.336 N 
ATOM      9  C   UNL     1      -1.862   1.909  -1.664  1.00  0.00     0.331 C 
ATOM     10  H   UNL     1      -0.852   0.953  -3.162  1.00  0.00     0.346 HD
ATOM     11  H   UNL     1      -2.450   0.451  -2.950  1.00  0.00     0.346 HD
ENDBRANCH   6   8
BRANCH   6  12
ATOM     12  C   UNL     1      -1.336  -1.860  -2.315  1.00  0.00     0.090 C 
BRANCH  12  13
ATOM     13  C   UNL     1      -0.847  -3.089  -1.475  1.00  0.00     0.082 C 
BRANCH  13  14
ATOM     14  S   UNL     1      -1.950  -3.774  -0.145  1.00  0.00    -0.126 SA
BRANCH  14  15
ATOM     15  C   UNL     1      -1.155  -3.318   1.400  1.00  0.00     0.010 A 
ATOM     16  C   UNL     1       0.063  -3.857   1.799  1.00  0.00     0.035 A 
ATOM     17  C   UNL     1      -1.806  -2.463   2.293  1.00  0.00     0.035 A 
ATOM     18  C   UNL     1       0.615  -3.430   3.003  1.00  0.00     0.112 A 
ATOM     19  C   UNL     1      -1.141  -2.030   3.430  1.00  0.00     0.112 A 
ATOM     20  N   UNL     1       0.062  -2.499   3.809  1.00  0.00    -0.265 NA
ENDBRANCH  14  15
ENDBRANCH  13  14
ENDBRANCH  12  13
ENDBRANCH   6  12
ENDBRANCH   3   6
ENDBRANCH   1   2
BRANCH   1  21
ATOM     21  C   UNL     1      -4.993  -1.992  -1.425  1.00  0.00     0.042 C 
BRANCH  21  22
ATOM     22  C   UNL     1      -5.549  -2.632  -0.162  1.00  0.00     0.118 C 
BRANCH  22  23
ATOM     23  N   UNL     1      -6.526  -1.790   0.510  1.00  0.00    -0.352 N 
ATOM     24  C   UNL     1      -7.888  -1.944   0.636  1.00  0.00     0.251 C 
ATOM     25  H   UNL     1      -6.156  -0.986   0.941  1.00  0.00     0.163 HD
ATOM     26  O   UNL     1      -8.561  -1.021   1.069  1.00  0.00    -0.269 OA
BRANCH  24  27
ATOM     27  C   UNL     1      -8.527  -3.211   0.214  1.00  0.00     0.039 A 
ATOM     28  C   UNL     1      -9.696  -3.162  -0.549  1.00  0.00     0.014 A 
ATOM     29  C   UNL     1      -7.970  -4.442   0.564  1.00  0.00     0.014 A 
ATOM     30  C   UNL     1     -10.261  -4.347  -1.028  1.00  0.00     0.010 A 
ATOM     31  C   UNL     1      -8.479  -5.611   0.011  1.00  0.00     0.010 A 
ATOM     32  C   UNL     1      -9.633  -5.580  -0.788  1.00  0.00    -0.014 A 
BRANCH  32  33
ATOM     33  C   UNL     1     -10.167  -6.858  -1.329  1.00  0.00     0.031 A 
ATOM     34  C   UNL     1     -10.577  -7.950  -0.378  1.00  0.00     0.074 A 
ATOM     35  C   UNL     1     -10.193  -7.077  -2.658  1.00  0.00     0.049 A 
ATOM     36  N   UNL     1     -10.900  -9.192  -0.627  1.00  0.00    -0.248 NA
ATOM     37  C   UNL     1     -10.582  -7.600   1.050  1.00  0.00     0.031 C 
ATOM     38  C   UNL     1      -9.800  -6.108  -3.683  1.00  0.00     0.029 A 
ATOM     39  N   UNL     1     -10.544  -8.194  -3.376  1.00  0.00    -0.354 N 
ATOM     40  C   UNL     1     -11.121  -9.780   0.614  1.00  0.00     0.074 A 
ATOM     41  C   UNL     1     -10.825  -8.773   1.611  1.00  0.00     0.031 C 
ATOM     42  C   UNL     1      -9.944  -6.668  -4.894  1.00  0.00     0.029 A 
ATOM     43  C   UNL     1     -10.378  -8.052  -4.735  1.00  0.00     0.049 A 
ATOM     44  H   UNL     1     -10.882  -9.018  -2.958  1.00  0.00     0.167 HD
ATOM     45  C   UNL     1     -11.552 -11.036   0.895  1.00  0.00     0.034 A 
ATOM     46  C   UNL     1     -10.530  -8.943  -5.736  1.00  0.00     0.034 A 
ATOM     47  C   UNL     1     -11.847 -12.022  -0.116  1.00  0.00     0.049 A 
ATOM     48  C   UNL     1     -10.966 -10.348  -5.405  1.00  0.00     0.074 A 
ATOM     49  C   UNL     1     -12.330 -13.308   0.050  1.00  0.00     0.029 A 
ATOM     50  N   UNL     1     -11.675 -11.837  -1.483  1.00  0.00    -0.354 N 
ATOM     51  N   UNL     1     -11.199 -10.885  -4.229  1.00  0.00    -0.248 NA
ATOM     52  C   UNL     1     -11.169 -11.264  -6.535  1.00  0.00     0.031 C 
ATOM     53  C   UNL     1     -12.373 -13.925  -1.204  1.00  0.00     0.029 A 
ATOM     54  C   UNL     1     -12.012 -12.995  -2.167  1.00  0.00     0.049 A 
ATOM     55  H   UNL     1     -11.361 -11.005  -1.904  1.00  0.00     0.167 HD
ATOM     56  C   UNL     1     -11.616 -12.190  -4.482  1.00  0.00     0.074 A 
ATOM     57  C   UNL     1     -11.599 -12.358  -5.921  1.00  0.00     0.031 C 
ATOM     58  C   UNL     1     -11.992 -13.154  -3.604  1.00  0.00     0.034 A 
BRANCH  45  59
ATOM     59  C   UNL     1     -11.687 -11.410   2.355  1.00  0.00     0.023 A 
ATOM     60  C   UNL     1     -12.542 -10.706   3.222  1.00  0.00     0.031 A 
ATOM     61  C   UNL     1     -10.906 -12.443   2.903  1.00  0.00     0.131 A 
ATOM     62  C   UNL     1     -12.514 -10.966   4.600  1.00  0.00     0.055 A 
ATOM     63  C   UNL     1     -10.961 -12.768   4.261  1.00  0.00     0.041 A 
ATOM     64  F   UNL     1     -10.055 -13.140   2.135  1.00  0.00    -0.206 F 
ATOM     65  C   UNL     1     -11.751 -12.012   5.122  1.00  0.00     0.022 A 
BRANCH  62  66
ATOM     66  S   UNL     1     -13.333  -9.792   5.714  1.00  0.00     0.124 S 
ATOM     67  O   UNL     1     -12.675  -8.538   5.355  1.00  0.00    -0.237 OA
ATOM     68  O   UNL     1     -14.733  -9.913   5.326  1.00  0.00    -0.237 OA
ATOM     69  O   UNL     1     -13.006 -10.298   7.045  1.00  0.00    -0.744 OA
ENDBRANCH  62  66
ENDBRANCH  45  59
BRANCH  46  70
ATOM     70  C   UNL     1     -10.247  -8.539  -7.144  1.00  0.00     0.023 A 
ATOM     71  C   UNL     1     -11.270  -8.490  -8.104  1.00  0.00     0.031 A 
ATOM     72  C   UNL     1      -8.943  -8.208  -7.553  1.00  0.00     0.131 A 
ATOM     73  C   UNL     1     -10.966  -8.153  -9.433  1.00  0.00     0.055 A 
ATOM     74  C   UNL     1      -8.655  -7.822  -8.864  1.00  0.00     0.041 A 
ATOM     75  F   UNL     1      -7.928  -8.233  -6.674  1.00  0.00    -0.206 F 
ATOM     76  C   UNL     1      -9.669  -7.803  -9.815  1.00  0.00     0.022 A 
BRANCH  73  77
ATOM     77  S   UNL     1     -12.283  -8.245 -10.677  1.00  0.00     0.124 S 
ATOM     78  O   UNL     1     -12.667  -9.650 -10.598  1.00  0.00    -0.237 OA
ATOM     79  O   UNL     1     -13.253  -7.283 -10.164  1.00  0.00    -0.237 OA
ATOM     80  O   UNL     1     -11.611  -7.850 -11.913  1.00  0.00    -0.744 OA
ENDBRANCH  73  77
ENDBRANCH  46  70
BRANCH  58  81
ATOM     81  C   UNL     1     -12.491 -14.461  -4.174  1.00  0.00     0.023 A 
ATOM     82  C   UNL     1     -11.651 -15.350  -4.866  1.00  0.00     0.031 A 
ATOM     83  C   UNL     1     -13.838 -14.829  -3.993  1.00  0.00     0.131 A 
ATOM     84  C   UNL     1     -12.176 -16.544  -5.386  1.00  0.00     0.055 A 
ATOM     85  C   UNL     1     -14.339 -16.045  -4.458  1.00  0.00     0.041 A 
ATOM     86  F   UNL     1     -14.687 -14.016  -3.345  1.00  0.00    -0.206 F 
ATOM     87  C   UNL     1     -13.509 -16.906  -5.168  1.00  0.00     0.022 A 
BRANCH  84  88
ATOM     88  S   UNL     1     -11.116 -17.588  -6.424  1.00  0.00     0.124 S 
ATOM     89  O   UNL     1     -10.754 -16.674  -7.503  1.00  0.00    -0.237 OA
ATOM     90  O   UNL     1     -10.040 -17.950  -5.508  1.00  0.00    -0.237 OA
ATOM     91  O   UNL     1     -11.994 -18.689  -6.814  1.00  0.00    -0.744 OA
ENDBRANCH  84  88
ENDBRANCH  58  81
ENDBRANCH  32  33
ENDBRANCH  24  27
ENDBRANCH  22  23
ENDBRANCH  21  22
ENDBRANCH   1  21
TORSDOF 18
