REMARK SMILES C=CCN1C(=O)/C(=C/c2ccc(OCc3cccc(C(=O)NCCCNC(=O)c4ccc(-c5c6nc(c(-c7cc(S(=O)(=O)[O-])ccc7F)c7ccc([nH]7)c(-c7cc(S(=O)(=O)[O-])ccc7F)c7nc(c(-c8cc(S(=O)(=O)[O-])ccc8F)c8ccc5[nH]8)C=C7)C=C6)cc4)c3)cc2)C(=O)NC1=S
REMARK SMILES IDX 20 1 21 2 22 3 19 5 15 6 16 7 92 8 17 9 18 10 14 11 13 12
REMARK SMILES IDX 12 13 9 14 10 15 94 16 11 17 93 18 8 19 4 20 5 21 98 22 6 23
REMARK SMILES IDX 7 24 97 25 99 26 95 27 96 29 3 30 2 31 1 32 23 33 24 34
REMARK SMILES IDX 25 35 26 36 27 37 28 39 29 40 30 41 91 42 31 43 90 44 32 45
REMARK SMILES IDX 33 46 34 47 84 48 35 49 89 50 83 51 85 52 36 53 88 54 82 55
REMARK SMILES IDX 81 56 37 58 69 59 49 60 68 61 50 62 53 63 67 64 86 65 51 66
REMARK SMILES IDX 52 67 66 69 87 70 54 71 38 72 39 73 47 74 40 75 46 76 48 77
REMARK SMILES IDX 45 78 41 79 42 80 43 81 44 82 70 83 71 84 79 85 72 86 78 87
REMARK SMILES IDX 80 88 77 89 73 90 74 91 75 92 76 93 55 94 56 95 64 96 57 97
REMARK SMILES IDX 63 98 65 99 62 100 58 101 59 102 60 103 61 104
REMARK H PARENT 22 4 97 28 26 38 85 57 53 68
REMARK Flexibility Score: inf
ROOT
ATOM      1  C   UNL     1      -3.683  -8.317  -0.321  1.00  0.00     0.251 C 
ATOM      2  O   UNL     1      -4.489  -8.270   0.610  1.00  0.00    -0.269 OA
ATOM      3  N   UNL     1      -3.602  -7.231  -1.176  1.00  0.00    -0.352 N 
ATOM      4  H   UNL     1      -4.237  -6.500  -0.997  1.00  0.00     0.163 HD
ENDROOT
BRANCH   1   5
ATOM      5  C   UNL     1      -2.898  -9.576  -0.538  1.00  0.00     0.040 A 
ATOM      6  C   UNL     1      -0.940 -10.807  -1.378  1.00  0.00    -0.010 A 
ATOM      7  C   UNL     1      -1.594 -12.008  -1.073  1.00  0.00     0.007 A 
ATOM      8  C   UNL     1      -1.593  -9.603  -1.046  1.00  0.00     0.021 A 
ATOM      9  C   UNL     1      -2.857 -12.001  -0.475  1.00  0.00     0.001 A 
ATOM     10  C   UNL     1      -3.510 -10.792  -0.221  1.00  0.00     0.014 A 
BRANCH   6  11
ATOM     11  C   UNL     1       0.364 -10.830  -2.172  1.00  0.00     0.265 C 
BRANCH  11  12
ATOM     12  O   UNL     1       1.517 -10.262  -1.534  1.00  0.00    -0.489 OA
BRANCH  12  13
ATOM     13  C   UNL     1       1.561  -8.900  -1.446  1.00  0.00     0.119 A 
ATOM     14  C   UNL     1       1.256  -6.190  -0.799  1.00  0.00    -0.024 A 
ATOM     15  C   UNL     1       1.932  -7.039   0.070  1.00  0.00     0.012 A 
ATOM     16  C   UNL     1       0.912  -6.680  -2.070  1.00  0.00     0.012 A 
ATOM     17  C   UNL     1       2.099  -8.387  -0.264  1.00  0.00     0.047 A 
ATOM     18  C   UNL     1       1.059  -8.027  -2.399  1.00  0.00     0.047 A 
BRANCH  14  19
ATOM     19  C   UNL     1       0.917  -4.807  -0.429  1.00  0.00     0.027 C 
ATOM     20  N   UNL     1      -0.873  -2.361   1.510  1.00  0.00    -0.281 N 
ATOM     21  C   UNL     1      -0.363  -2.894   0.330  1.00  0.00     0.265 C 
ATOM     22  C   UNL     1      -1.519  -3.153   2.449  1.00  0.00     0.183 C 
ATOM     23  O   UNL     1      -0.223  -2.236  -0.699  1.00  0.00    -0.268 OA
ATOM     24  C   UNL     1      -0.099  -4.357   0.339  1.00  0.00     0.106 C 
ATOM     25  N   UNL     1      -1.622  -4.495   2.152  1.00  0.00    -0.298 N 
ATOM     26  S   UNL     1      -2.220  -2.651   3.887  1.00  0.00    -0.040 S 
ATOM     27  C   UNL     1      -1.019  -5.180   1.131  1.00  0.00     0.263 C 
ATOM     28  H   UNL     1      -2.200  -5.026   2.746  1.00  0.00     0.172 HD
ATOM     29  O   UNL     1      -1.239  -6.375   0.930  1.00  0.00    -0.269 OA
BRANCH  20  30
ATOM     30  C   UNL     1      -0.912  -0.888   1.547  1.00  0.00     0.155 C 
BRANCH  30  31
ATOM     31  C   UNL     1       0.488  -0.330   1.483  1.00  0.00    -0.013 C 
ATOM     32  C   UNL     1       0.966   0.349   0.429  1.00  0.00     0.006 C 
ENDBRANCH  30  31
ENDBRANCH  20  30
ENDBRANCH  14  19
ENDBRANCH  12  13
ENDBRANCH  11  12
ENDBRANCH   6  11
ENDBRANCH   1   5
BRANCH   3  33
ATOM     33  C   UNL     1      -2.711  -7.026  -2.300  1.00  0.00     0.118 C 
BRANCH  33  34
ATOM     34  C   UNL     1      -3.182  -6.045  -3.368  1.00  0.00     0.042 C 
BRANCH  34  35
ATOM     35  C   UNL     1      -2.850  -4.560  -3.176  1.00  0.00     0.118 C 
BRANCH  35  36
ATOM     36  N   UNL     1      -1.456  -4.295  -2.848  1.00  0.00    -0.352 N 
ATOM     37  C   UNL     1      -0.470  -3.482  -3.360  1.00  0.00     0.251 C 
ATOM     38  H   UNL     1      -1.145  -4.822  -2.078  1.00  0.00     0.163 HD
ATOM     39  O   UNL     1       0.694  -3.681  -3.012  1.00  0.00    -0.269 OA
BRANCH  37  40
ATOM     40  C   UNL     1      -0.680  -2.447  -4.374  1.00  0.00     0.039 A 
ATOM     41  C   UNL     1       0.458  -1.986  -5.061  1.00  0.00     0.014 A 
ATOM     42  C   UNL     1      -1.937  -1.984  -4.722  1.00  0.00     0.014 A 
ATOM     43  C   UNL     1       0.315  -1.232  -6.211  1.00  0.00     0.010 A 
ATOM     44  C   UNL     1      -2.094  -1.367  -5.946  1.00  0.00     0.010 A 
ATOM     45  C   UNL     1      -0.970  -1.036  -6.716  1.00  0.00    -0.014 A 
BRANCH  45  46
ATOM     46  C   UNL     1      -1.176  -0.572  -8.097  1.00  0.00     0.031 A 
ATOM     47  C   UNL     1      -1.971   0.671  -8.329  1.00  0.00     0.074 A 
ATOM     48  C   UNL     1      -0.769  -1.378  -9.097  1.00  0.00     0.049 A 
ATOM     49  N   UNL     1      -2.442   1.151  -9.444  1.00  0.00    -0.248 NA
ATOM     50  C   UNL     1      -2.354   1.431  -7.128  1.00  0.00     0.031 C 
ATOM     51  C   UNL     1      -0.070  -2.660  -8.924  1.00  0.00     0.029 A 
ATOM     52  N   UNL     1      -0.893  -1.259 -10.452  1.00  0.00    -0.354 N 
ATOM     53  C   UNL     1      -3.219   2.242  -9.076  1.00  0.00     0.074 A 
ATOM     54  C   UNL     1      -3.216   2.298  -7.631  1.00  0.00     0.031 C 
ATOM     55  C   UNL     1       0.209  -3.181 -10.127  1.00  0.00     0.029 A 
ATOM     56  C   UNL     1      -0.335  -2.305 -11.151  1.00  0.00     0.049 A 
ATOM     57  H   UNL     1      -1.339  -0.497 -10.887  1.00  0.00     0.167 HD
ATOM     58  C   UNL     1      -3.853   3.123  -9.887  1.00  0.00     0.034 A 
ATOM     59  C   UNL     1      -0.280  -2.522 -12.478  1.00  0.00     0.034 A 
ATOM     60  C   UNL     1      -3.788   3.023 -11.324  1.00  0.00     0.049 A 
ATOM     61  C   UNL     1      -0.909  -1.481 -13.362  1.00  0.00     0.074 A 
ATOM     62  C   UNL     1      -4.318   3.867 -12.281  1.00  0.00     0.029 A 
ATOM     63  N   UNL     1      -3.134   2.001 -12.012  1.00  0.00    -0.354 N 
ATOM     64  N   UNL     1      -1.593  -0.412 -13.014  1.00  0.00    -0.248 NA
ATOM     65  C   UNL     1      -0.746  -1.657 -14.805  1.00  0.00     0.031 C 
ATOM     66  C   UNL     1      -4.024   3.332 -13.542  1.00  0.00     0.029 A 
ATOM     67  C   UNL     1      -3.257   2.186 -13.378  1.00  0.00     0.049 A 
ATOM     68  H   UNL     1      -2.654   1.254 -11.586  1.00  0.00     0.167 HD
ATOM     69  C   UNL     1      -1.936   0.222 -14.199  1.00  0.00     0.074 A 
ATOM     70  C   UNL     1      -1.351  -0.573 -15.267  1.00  0.00     0.031 C 
ATOM     71  C   UNL     1      -2.670   1.347 -14.400  1.00  0.00     0.034 A 
BRANCH  58  72
ATOM     72  C   UNL     1      -4.666   4.210  -9.219  1.00  0.00     0.023 A 
ATOM     73  C   UNL     1      -4.084   5.114  -8.309  1.00  0.00     0.031 A 
ATOM     74  C   UNL     1      -6.056   4.280  -9.406  1.00  0.00     0.131 A 
ATOM     75  C   UNL     1      -4.897   5.956  -7.535  1.00  0.00     0.055 A 
ATOM     76  C   UNL     1      -6.850   5.194  -8.706  1.00  0.00     0.041 A 
ATOM     77  F   UNL     1      -6.679   3.434 -10.242  1.00  0.00    -0.206 F 
ATOM     78  C   UNL     1      -6.274   6.022  -7.746  1.00  0.00     0.022 A 
BRANCH  75  79
ATOM     79  S   UNL     1      -4.151   6.816  -6.121  1.00  0.00     0.124 S 
ATOM     80  O   UNL     1      -3.677   5.694  -5.313  1.00  0.00    -0.237 OA
ATOM     81  O   UNL     1      -3.118   7.628  -6.753  1.00  0.00    -0.237 OA
ATOM     82  O   UNL     1      -5.267   7.562  -5.545  1.00  0.00    -0.744 OA
ENDBRANCH  75  79
ENDBRANCH  58  72
BRANCH  59  83
ATOM     83  C   UNL     1       0.407  -3.727 -13.021  1.00  0.00     0.023 A 
ATOM     84  C   UNL     1       1.601  -3.609 -13.751  1.00  0.00     0.031 A 
ATOM     85  C   UNL     1      -0.097  -5.020 -12.792  1.00  0.00     0.131 A 
ATOM     86  C   UNL     1       2.236  -4.758 -14.251  1.00  0.00     0.055 A 
ATOM     87  C   UNL     1       0.560  -6.163 -13.256  1.00  0.00     0.041 A 
ATOM     88  F   UNL     1      -1.222  -5.195 -12.081  1.00  0.00    -0.206 F 
ATOM     89  C   UNL     1       1.730  -6.035 -13.999  1.00  0.00     0.022 A 
BRANCH  86  90
ATOM     90  S   UNL     1       3.717  -4.556 -15.280  1.00  0.00     0.124 S 
ATOM     91  O   UNL     1       3.223  -3.698 -16.351  1.00  0.00    -0.237 OA
ATOM     92  O   UNL     1       4.653  -3.942 -14.345  1.00  0.00    -0.237 OA
ATOM     93  O   UNL     1       4.043  -5.924 -15.678  1.00  0.00    -0.744 OA
ENDBRANCH  86  90
ENDBRANCH  59  83
BRANCH  71  94
ATOM     94  C   UNL     1      -2.854   1.764 -15.834  1.00  0.00     0.023 A 
ATOM     95  C   UNL     1      -3.622   0.992 -16.720  1.00  0.00     0.031 A 
ATOM     96  C   UNL     1      -2.231   2.924 -16.321  1.00  0.00     0.131 A 
ATOM     97  C   UNL     1      -3.693   1.353 -18.071  1.00  0.00     0.055 A 
ATOM     98  C   UNL     1      -2.360   3.316 -17.652  1.00  0.00     0.041 A 
ATOM     99  F   UNL     1      -1.485   3.692 -15.510  1.00  0.00    -0.206 F 
ATOM    100  C   UNL     1      -3.082   2.520 -18.539  1.00  0.00     0.022 A 
BRANCH  97 101
ATOM    101  S   UNL     1      -4.503   0.217 -19.226  1.00  0.00     0.124 S 
ATOM    102  O   UNL     1      -3.719  -1.001 -19.052  1.00  0.00    -0.237 OA
ATOM    103  O   UNL     1      -5.870   0.175 -18.715  1.00  0.00    -0.237 OA
ATOM    104  O   UNL     1      -4.345   0.876 -20.521  1.00  0.00    -0.744 OA
ENDBRANCH  97 101
ENDBRANCH  71  94
ENDBRANCH  45  46
ENDBRANCH  37  40
ENDBRANCH  35  36
ENDBRANCH  34  35
ENDBRANCH  33  34
ENDBRANCH   3  33
TORSDOF 19
