REMARK SMILES COc1cccc([C@@H]2CN(C(=O)CCSC)C[C@H]2C(=O)NCCCNC(=O)c2ccc(-c3c4nc(c(-c5cc(S(=O)(=O)[O-])ccc5F)c5ccc([nH]5)c(-c5cc(S(=O)(=O)[O-])ccc5F)c5nc(c(-c6cc(S(=O)(=O)[O-])ccc6F)c6ccc3[nH]6)C=C5)C=C4)cc2)c1OC
REMARK SMILES IDX 22 1 21 2 19 3 20 4 18 6 8 7 9 8 10 9 17 10 7 11 3 12 4 13
REMARK SMILES IDX 91 14 5 15 6 16 2 17 1 18 92 19 93 20 11 21 12 22 13 23
REMARK SMILES IDX 14 24 15 25 16 26 23 27 24 28 25 29 26 30 27 32 28 33 29 34
REMARK SMILES IDX 90 35 30 36 89 37 31 38 32 39 33 40 83 41 34 42 88 43 82 44
REMARK SMILES IDX 84 45 35 46 87 47 81 48 80 49 36 51 68 52 48 53 67 54 49 55
REMARK SMILES IDX 52 56 66 57 85 58 50 59 51 60 65 62 86 63 53 64 37 65 38 66
REMARK SMILES IDX 46 67 39 68 45 69 47 70 44 71 40 72 41 73 42 74 43 75 69 76
REMARK SMILES IDX 70 77 78 78 71 79 77 80 79 81 76 82 72 83 73 84 74 85 75 86
REMARK SMILES IDX 54 87 55 88 63 89 56 90 62 91 64 92 61 93 57 94 58 95 59 96
REMARK SMILES IDX 60 97
REMARK H PARENT 21 5 25 31 84 50 52 61
REMARK Flexibility Score: inf
ROOT
ATOM      1  C   UNL     1       5.986   6.155  -1.654  1.00  0.00     0.117 C 
ENDROOT
BRANCH   1   2
ATOM      2  N   UNL     1       5.193   5.926  -0.457  1.00  0.00    -0.356 N 
ATOM      3  C   UNL     1       4.575   4.814   0.014  1.00  0.00     0.225 C 
ATOM      4  O   UNL     1       3.984   4.911   1.094  1.00  0.00    -0.275 OA
ATOM      5  H   UNL     1       5.085   6.721   0.113  1.00  0.00     0.163 HD
BRANCH   3   6
ATOM      6  C   UNL     1       4.584   3.494  -0.732  1.00  0.00     0.107 C 
ATOM      7  C   UNL     1       3.874   3.564  -2.097  1.00  0.00     0.057 C 
ATOM      8  C   UNL     1       4.817   2.892  -3.095  1.00  0.00     0.128 C 
ATOM      9  N   UNL     1       6.096   2.743  -2.422  1.00  0.00    -0.341 N 
ATOM     10  C   UNL     1       5.991   2.976  -0.992  1.00  0.00     0.133 C 
BRANCH   7  11
ATOM     11  C   UNL     1       2.468   2.986  -2.158  1.00  0.00     0.004 A 
ATOM     12  C   UNL     1       0.823   1.237  -1.781  1.00  0.00     0.161 A 
ATOM     13  C   UNL     1      -0.164   2.034  -2.372  1.00  0.00     0.050 A 
ATOM     14  C   UNL     1       2.150   1.688  -1.697  1.00  0.00     0.164 A 
ATOM     15  C   UNL     1       0.154   3.299  -2.857  1.00  0.00     0.004 A 
ATOM     16  C   UNL     1       1.458   3.774  -2.742  1.00  0.00     0.008 A 
BRANCH  12  17
ATOM     17  O   UNL     1       0.467  -0.030  -1.399  1.00  0.00    -0.493 OA
ATOM     18  C   UNL     1      -0.224  -0.013  -0.148  1.00  0.00     0.278 C 
ENDBRANCH  12  17
BRANCH  14  19
ATOM     19  O   UNL     1       3.225   0.948  -1.276  1.00  0.00    -0.493 OA
ATOM     20  C   UNL     1       3.010  -0.060  -0.302  1.00  0.00     0.278 C 
ENDBRANCH  14  19
ENDBRANCH   7  11
BRANCH   9  21
ATOM     21  C   UNL     1       7.274   2.296  -2.974  1.00  0.00     0.223 C 
ATOM     22  O   UNL     1       8.300   2.182  -2.300  1.00  0.00    -0.275 OA
BRANCH  21  23
ATOM     23  C   UNL     1       7.276   1.896  -4.434  1.00  0.00     0.111 C 
BRANCH  23  24
ATOM     24  C   UNL     1       7.377   0.382  -4.593  1.00  0.00     0.079 C 
BRANCH  24  25
ATOM     25  S   UNL     1       5.780  -0.497  -4.449  1.00  0.00    -0.165 SA
ATOM     26  C   UNL     1       5.729  -0.774  -2.660  1.00  0.00     0.085 C 
ENDBRANCH  24  25
ENDBRANCH  23  24
ENDBRANCH  21  23
ENDBRANCH   9  21
ENDBRANCH   3   6
ENDBRANCH   1   2
BRANCH   1  27
ATOM     27  C   UNL     1       5.277   7.045  -2.663  1.00  0.00     0.042 C 
BRANCH  27  28
ATOM     28  C   UNL     1       4.985   8.437  -2.127  1.00  0.00     0.118 C 
BRANCH  28  29
ATOM     29  N   UNL     1       6.206   9.156  -1.786  1.00  0.00    -0.352 N 
ATOM     30  C   UNL     1       6.815  10.201  -2.435  1.00  0.00     0.251 C 
ATOM     31  H   UNL     1       6.661   8.847  -0.969  1.00  0.00     0.163 HD
ATOM     32  O   UNL     1       7.978  10.491  -2.163  1.00  0.00    -0.269 OA
BRANCH  30  33
ATOM     33  C   UNL     1       6.074  10.948  -3.471  1.00  0.00     0.039 A 
ATOM     34  C   UNL     1       6.720  11.301  -4.657  1.00  0.00     0.014 A 
ATOM     35  C   UNL     1       4.732  11.281  -3.273  1.00  0.00     0.014 A 
ATOM     36  C   UNL     1       5.992  11.910  -5.680  1.00  0.00     0.010 A 
ATOM     37  C   UNL     1       3.986  11.788  -4.328  1.00  0.00     0.010 A 
ATOM     38  C   UNL     1       4.608  12.110  -5.543  1.00  0.00    -0.014 A 
BRANCH  38  39
ATOM     39  C   UNL     1       3.784  12.644  -6.655  1.00  0.00     0.031 A 
ATOM     40  C   UNL     1       3.034  13.936  -6.484  1.00  0.00     0.074 A 
ATOM     41  C   UNL     1       3.644  11.921  -7.784  1.00  0.00     0.049 A 
ATOM     42  N   UNL     1       2.195  14.521  -7.298  1.00  0.00    -0.248 NA
ATOM     43  C   UNL     1       3.230  14.642  -5.209  1.00  0.00     0.031 C 
ATOM     44  C   UNL     1       4.296  10.637  -8.051  1.00  0.00     0.029 A 
ATOM     45  N   UNL     1       2.907  12.159  -8.915  1.00  0.00    -0.354 N 
ATOM     46  C   UNL     1       1.750  15.656  -6.628  1.00  0.00     0.074 A 
ATOM     47  C   UNL     1       2.357  15.630  -5.314  1.00  0.00     0.031 C 
ATOM     48  C   UNL     1       3.966  10.225  -9.284  1.00  0.00     0.029 A 
ATOM     49  C   UNL     1       3.032  11.179  -9.872  1.00  0.00     0.049 A 
ATOM     50  H   UNL     1       2.341  12.957  -9.032  1.00  0.00     0.167 HD
ATOM     51  C   UNL     1       0.931  16.640  -7.078  1.00  0.00     0.034 A 
ATOM     52  C   UNL     1       2.452  11.059 -11.082  1.00  0.00     0.034 A 
ATOM     53  C   UNL     1       0.337  16.642  -8.393  1.00  0.00     0.049 A 
ATOM     54  C   UNL     1       1.490  12.127 -11.535  1.00  0.00     0.074 A 
ATOM     55  C   UNL     1      -0.453  17.613  -8.981  1.00  0.00     0.029 A 
ATOM     56  N   UNL     1       0.451  15.611  -9.319  1.00  0.00    -0.354 N 
ATOM     57  N   UNL     1       1.125  13.227 -10.917  1.00  0.00    -0.248 NA
ATOM     58  C   UNL     1       0.863  11.935 -12.848  1.00  0.00     0.031 C 
ATOM     59  C   UNL     1      -0.890  17.131 -10.220  1.00  0.00     0.029 A 
ATOM     60  C   UNL     1      -0.299  15.899 -10.450  1.00  0.00     0.049 A 
ATOM     61  H   UNL     1       0.986  14.794  -9.191  1.00  0.00     0.167 HD
ATOM     62  C   UNL     1       0.248  13.874 -11.783  1.00  0.00     0.074 A 
ATOM     63  C   UNL     1       0.149  13.046 -12.967  1.00  0.00     0.031 C 
ATOM     64  C   UNL     1      -0.409  15.052 -11.616  1.00  0.00     0.034 A 
BRANCH  51  65
ATOM     65  C   UNL     1       0.606  17.762  -6.117  1.00  0.00     0.023 A 
ATOM     66  C   UNL     1       1.610  18.574  -5.561  1.00  0.00     0.031 A 
ATOM     67  C   UNL     1      -0.719  17.984  -5.702  1.00  0.00     0.131 A 
ATOM     68  C   UNL     1       1.292  19.487  -4.545  1.00  0.00     0.055 A 
ATOM     69  C   UNL     1      -1.043  18.968  -4.764  1.00  0.00     0.041 A 
ATOM     70  F   UNL     1      -1.722  17.230  -6.178  1.00  0.00    -0.206 F 
ATOM     71  C   UNL     1      -0.032  19.710  -4.162  1.00  0.00     0.022 A 
BRANCH  68  72
ATOM     72  S   UNL     1       2.650  20.225  -3.594  1.00  0.00     0.124 S 
ATOM     73  O   UNL     1       3.360  19.037  -3.123  1.00  0.00    -0.237 OA
ATOM     74  O   UNL     1       3.340  21.025  -4.599  1.00  0.00    -0.237 OA
ATOM     75  O   UNL     1       1.965  20.985  -2.551  1.00  0.00    -0.744 OA
ENDBRANCH  68  72
ENDBRANCH  51  65
BRANCH  52  76
ATOM     76  C   UNL     1       2.767   9.893 -11.954  1.00  0.00     0.023 A 
ATOM     77  C   UNL     1       3.426  10.076 -13.180  1.00  0.00     0.031 A 
ATOM     78  C   UNL     1       2.402   8.585 -11.590  1.00  0.00     0.131 A 
ATOM     79  C   UNL     1       3.669   8.976 -14.015  1.00  0.00     0.055 A 
ATOM     80  C   UNL     1       2.694   7.486 -12.400  1.00  0.00     0.041 A 
ATOM     81  F   UNL     1       1.773   8.353 -10.427  1.00  0.00    -0.206 F 
ATOM     82  C   UNL     1       3.322   7.680 -13.627  1.00  0.00     0.022 A 
BRANCH  79  83
ATOM     83  S   UNL     1       4.386   9.274 -15.653  1.00  0.00     0.124 S 
ATOM     84  O   UNL     1       3.385  10.145 -16.260  1.00  0.00    -0.237 OA
ATOM     85  O   UNL     1       5.662   9.898 -15.317  1.00  0.00    -0.237 OA
ATOM     86  O   UNL     1       4.483   7.936 -16.230  1.00  0.00    -0.744 OA
ENDBRANCH  79  83
ENDBRANCH  52  76
BRANCH  64  87
ATOM     87  C   UNL     1      -1.268  15.527 -12.763  1.00  0.00     0.023 A 
ATOM     88  C   UNL     1      -2.428  14.836 -13.155  1.00  0.00     0.031 A 
ATOM     89  C   UNL     1      -0.921  16.690 -13.473  1.00  0.00     0.131 A 
ATOM     90  C   UNL     1      -3.170  15.285 -14.258  1.00  0.00     0.055 A 
ATOM     91  C   UNL     1      -1.700  17.170 -14.527  1.00  0.00     0.041 A 
ATOM     92  F   UNL     1       0.180  17.387 -13.147  1.00  0.00    -0.206 F 
ATOM     93  C   UNL     1      -2.825  16.459 -14.933  1.00  0.00     0.022 A 
BRANCH  90  94
ATOM     94  S   UNL     1      -4.543  14.264 -14.859  1.00  0.00     0.124 S 
ATOM     95  O   UNL     1      -3.869  13.012 -15.187  1.00  0.00    -0.237 OA
ATOM     96  O   UNL     1      -5.434  14.225 -13.704  1.00  0.00    -0.237 OA
ATOM     97  O   UNL     1      -5.052  15.014 -16.007  1.00  0.00    -0.744 OA
ENDBRANCH  90  94
ENDBRANCH  64  87
ENDBRANCH  38  39
ENDBRANCH  30  33
ENDBRANCH  28  29
ENDBRANCH  27  28
ENDBRANCH   1  27
TORSDOF 20
