REMARK SMILES Cc1cccc(N2CCN(C(=O)[C@@H]3CC=CC[C@@H]3C(=O)NCCCNC(=O)c3ccc(-c4c5nc(c(-c6cc(S(=O)(=O)[O-])ccc6F)c6ccc([nH]6)c(-c6cc(S(=O)(=O)[O-])ccc6F)c6nc(c(-c7cc(S(=O)(=O)[O-])ccc7F)c7ccc4[nH]7)C=C6)C=C5)cc3)CC2)c1C
REMARK SMILES IDX 23 1 22 2 21 3 19 4 20 5 18 7 13 8 14 9 15 10 17 11 16 12
REMARK SMILES IDX 11 13 7 14 8 15 92 16 9 17 91 18 10 19 12 20 6 21 1 22 2 23
REMARK SMILES IDX 3 24 93 25 4 26 94 27 5 28 24 29 25 30 26 31 27 33 28 34
REMARK SMILES IDX 29 35 90 36 30 37 89 38 31 39 32 40 33 41 83 42 34 43 88 44
REMARK SMILES IDX 82 45 84 46 35 47 87 48 81 49 80 50 36 52 68 53 48 54 67 55
REMARK SMILES IDX 49 56 52 57 66 58 85 59 50 60 51 61 65 63 86 64 53 65 37 66
REMARK SMILES IDX 38 67 46 68 39 69 45 70 47 71 44 72 40 73 41 74 42 75 43 76
REMARK SMILES IDX 69 77 70 78 78 79 71 80 77 81 79 82 76 83 72 84 73 85 74 86
REMARK SMILES IDX 75 87 54 88 55 89 63 90 56 91 62 92 64 93 61 94 57 95 58 96
REMARK SMILES IDX 59 97 60 98
REMARK H PARENT 21 6 25 32 84 51 52 62
REMARK Flexibility Score: inf
ROOT
ATOM      1  C   UNL     1      -2.211 -10.668   1.107  1.00  0.00     0.042 C 
ENDROOT
BRANCH   1   2
ATOM      2  C   UNL     1      -1.574 -10.012  -0.105  1.00  0.00     0.117 C 
BRANCH   2   3
ATOM      3  N   UNL     1      -2.498  -9.275  -0.939  1.00  0.00    -0.356 N 
ATOM      4  C   UNL     1      -2.352  -8.271  -1.833  1.00  0.00     0.224 C 
ATOM      5  O   UNL     1      -3.382  -7.985  -2.462  1.00  0.00    -0.275 OA
ATOM      6  H   UNL     1      -3.433  -9.566  -0.832  1.00  0.00     0.163 HD
BRANCH   4   7
ATOM      7  C   UNL     1      -1.048  -7.537  -2.200  1.00  0.00     0.095 C 
ATOM      8  C   UNL     1       0.260  -7.768  -1.449  1.00  0.00     0.095 C 
ATOM      9  C   UNL     1       0.252  -7.106  -0.025  1.00  0.00     0.041 C 
ATOM     10  C   UNL     1      -0.725  -5.975   0.162  1.00  0.00    -0.030 C 
ATOM     11  C   UNL     1      -1.354  -6.018  -2.224  1.00  0.00     0.041 C 
ATOM     12  C   UNL     1      -1.443  -5.457  -0.842  1.00  0.00    -0.030 C 
BRANCH   8  13
ATOM     13  C   UNL     1       0.972  -9.147  -1.467  1.00  0.00     0.226 C 
ATOM     14  N   UNL     1       0.110 -12.879  -2.984  1.00  0.00    -0.368 N 
ATOM     15  C   UNL     1       1.333 -12.503  -2.246  1.00  0.00     0.138 C 
ATOM     16  C   UNL     1      -0.813 -11.763  -3.332  1.00  0.00     0.138 C 
ATOM     17  C   UNL     1       1.892 -11.116  -2.590  1.00  0.00     0.141 C 
ATOM     18  C   UNL     1      -0.189 -10.348  -3.462  1.00  0.00     0.141 C 
ATOM     19  N   UNL     1       0.875 -10.071  -2.498  1.00  0.00    -0.339 N 
ATOM     20  O   UNL     1       1.776  -9.367  -0.548  1.00  0.00    -0.275 OA
BRANCH  14  21
ATOM     21  C   UNL     1      -0.464 -14.180  -2.856  1.00  0.00     0.040 A 
ATOM     22  C   UNL     1      -0.054 -17.804  -1.459  1.00  0.00     0.044 C 
ATOM     23  C   UNL     1      -0.597 -16.576  -2.156  1.00  0.00    -0.046 A 
ATOM     24  C   UNL     1      -1.871 -16.697  -2.715  1.00  0.00     0.004 A 
ATOM     25  C   UNL     1       0.122 -15.327  -2.219  1.00  0.00    -0.025 A 
ATOM     26  C   UNL     1      -2.440 -15.621  -3.357  1.00  0.00     0.002 A 
ATOM     27  C   UNL     1       1.507 -15.343  -1.608  1.00  0.00     0.047 C 
ATOM     28  C   UNL     1      -1.749 -14.408  -3.426  1.00  0.00     0.026 A 
ENDBRANCH  14  21
ENDBRANCH   8  13
ENDBRANCH   4   7
ENDBRANCH   2   3
ENDBRANCH   1   2
BRANCH   1  29
ATOM     29  C   UNL     1      -2.477 -12.142   0.863  1.00  0.00     0.118 C 
BRANCH  29  30
ATOM     30  N   UNL     1      -1.254 -12.925   0.711  1.00  0.00    -0.352 N 
ATOM     31  C   UNL     1      -1.058 -14.270   0.931  1.00  0.00     0.251 C 
ATOM     32  H   UNL     1      -0.463 -12.424   0.409  1.00  0.00     0.163 HD
ATOM     33  O   UNL     1       0.086 -14.720   0.968  1.00  0.00    -0.269 OA
BRANCH  31  34
ATOM     34  C   UNL     1      -2.208 -15.127   1.284  1.00  0.00     0.039 A 
ATOM     35  C   UNL     1      -2.029 -16.036   2.327  1.00  0.00     0.014 A 
ATOM     36  C   UNL     1      -3.478 -14.895   0.756  1.00  0.00     0.014 A 
ATOM     37  C   UNL     1      -3.145 -16.547   2.977  1.00  0.00     0.010 A 
ATOM     38  C   UNL     1      -4.588 -15.292   1.485  1.00  0.00     0.010 A 
ATOM     39  C   UNL     1      -4.421 -16.076   2.633  1.00  0.00    -0.014 A 
BRANCH  39  40
ATOM     40  C   UNL     1      -5.558 -16.311   3.550  1.00  0.00     0.031 A 
ATOM     41  C   UNL     1      -6.741 -17.105   3.097  1.00  0.00     0.074 A 
ATOM     42  C   UNL     1      -5.509 -15.750   4.777  1.00  0.00     0.049 A 
ATOM     43  N   UNL     1      -7.799 -17.462   3.773  1.00  0.00    -0.248 NA
ATOM     44  C   UNL     1      -6.757 -17.519   1.686  1.00  0.00     0.031 C 
ATOM     45  C   UNL     1      -4.437 -14.868   5.259  1.00  0.00     0.029 A 
ATOM     46  N   UNL     1      -6.354 -15.846   5.849  1.00  0.00    -0.354 N 
ATOM     47  C   UNL     1      -8.606 -18.144   2.872  1.00  0.00     0.074 A 
ATOM     48  C   UNL     1      -7.953 -18.074   1.583  1.00  0.00     0.031 C 
ATOM     49  C   UNL     1      -4.653 -14.570   6.549  1.00  0.00     0.029 A 
ATOM     50  C   UNL     1      -5.892 -15.202   6.977  1.00  0.00     0.049 A 
ATOM     51  H   UNL     1      -7.211 -16.329   5.818  1.00  0.00     0.167 HD
ATOM     52  C   UNL     1      -9.771 -18.795   3.113  1.00  0.00     0.034 A 
ATOM     53  C   UNL     1      -6.406 -15.153   8.221  1.00  0.00     0.034 A 
ATOM     54  C   UNL     1     -10.390 -18.830   4.415  1.00  0.00     0.049 A 
ATOM     55  C   UNL     1      -7.674 -15.923   8.478  1.00  0.00     0.074 A 
ATOM     56  C   UNL     1     -11.558 -19.458   4.806  1.00  0.00     0.029 A 
ATOM     57  N   UNL     1      -9.881 -18.197   5.546  1.00  0.00    -0.354 N 
ATOM     58  N   UNL     1      -8.393 -16.629   7.633  1.00  0.00    -0.248 NA
ATOM     59  C   UNL     1      -8.189 -15.910   9.850  1.00  0.00     0.031 C 
ATOM     60  C   UNL     1     -11.778 -19.164   6.158  1.00  0.00     0.029 A 
ATOM     61  C   UNL     1     -10.717 -18.405   6.630  1.00  0.00     0.049 A 
ATOM     62  H   UNL     1      -9.046 -17.676   5.571  1.00  0.00     0.167 HD
ATOM     63  C   UNL     1      -9.442 -17.156   8.376  1.00  0.00     0.074 A 
ATOM     64  C   UNL     1      -9.238 -16.713   9.743  1.00  0.00     0.031 C 
ATOM     65  C   UNL     1     -10.484 -17.929   7.973  1.00  0.00     0.034 A 
BRANCH  52  66
ATOM     66  C   UNL     1     -10.429 -19.474   1.935  1.00  0.00     0.023 A 
ATOM     67  C   UNL     1      -9.779 -20.501   1.224  1.00  0.00     0.031 A 
ATOM     68  C   UNL     1     -11.675 -19.035   1.458  1.00  0.00     0.131 A 
ATOM     69  C   UNL     1     -10.325 -20.979   0.023  1.00  0.00     0.055 A 
ATOM     70  C   UNL     1     -12.257 -19.580   0.309  1.00  0.00     0.041 A 
ATOM     71  F   UNL     1     -12.334 -18.043   2.076  1.00  0.00    -0.206 F 
ATOM     72  C   UNL     1     -11.572 -20.543  -0.427  1.00  0.00     0.022 A 
BRANCH  69  73
ATOM     73  S   UNL     1      -9.302 -22.048  -1.027  1.00  0.00     0.124 S 
ATOM     74  O   UNL     1      -8.169 -21.173  -1.322  1.00  0.00    -0.237 OA
ATOM     75  O   UNL     1      -9.023 -23.180  -0.152  1.00  0.00    -0.237 OA
ATOM     76  O   UNL     1     -10.168 -22.339  -2.168  1.00  0.00    -0.744 OA
ENDBRANCH  69  73
ENDBRANCH  52  66
BRANCH  53  77
ATOM     77  C   UNL     1      -5.719 -14.388   9.303  1.00  0.00     0.023 A 
ATOM     78  C   UNL     1      -5.183 -15.037  10.428  1.00  0.00     0.031 A 
ATOM     79  C   UNL     1      -5.597 -12.988   9.236  1.00  0.00     0.131 A 
ATOM     80  C   UNL     1      -4.586 -14.288  11.455  1.00  0.00     0.055 A 
ATOM     81  C   UNL     1      -4.961 -12.251  10.238  1.00  0.00     0.041 A 
ATOM     82  F   UNL     1      -6.079 -12.315   8.179  1.00  0.00    -0.206 F 
ATOM     83  C   UNL     1      -4.462 -12.900  11.362  1.00  0.00     0.022 A 
BRANCH  80  84
ATOM     84  S   UNL     1      -4.037 -15.146  12.957  1.00  0.00     0.124 S 
ATOM     85  O   UNL     1      -5.257 -15.825  13.378  1.00  0.00    -0.237 OA
ATOM     86  O   UNL     1      -2.971 -16.000  12.444  1.00  0.00    -0.237 OA
ATOM     87  O   UNL     1      -3.596 -14.059  13.829  1.00  0.00    -0.744 OA
ENDBRANCH  80  84
ENDBRANCH  53  77
BRANCH  65  88
ATOM     88  C   UNL     1     -11.457 -18.341   9.046  1.00  0.00     0.023 A 
ATOM     89  C   UNL     1     -12.289 -17.401   9.675  1.00  0.00     0.031 A 
ATOM     90  C   UNL     1     -11.530 -19.682   9.458  1.00  0.00     0.131 A 
ATOM     91  C   UNL     1     -13.116 -17.803  10.732  1.00  0.00     0.055 A 
ATOM     92  C   UNL     1     -12.400 -20.087  10.470  1.00  0.00     0.041 A 
ATOM     93  F   UNL     1     -10.754 -20.616   8.887  1.00  0.00    -0.206 F 
ATOM     94  C   UNL     1     -13.188 -19.143  11.123  1.00  0.00     0.022 A 
BRANCH  91  95
ATOM     95  S   UNL     1     -14.023 -16.532  11.653  1.00  0.00     0.124 S 
ATOM     96  O   UNL     1     -12.942 -15.680  12.138  1.00  0.00    -0.237 OA
ATOM     97  O   UNL     1     -14.880 -15.952  10.624  1.00  0.00    -0.237 OA
ATOM     98  O   UNL     1     -14.725 -17.293  12.686  1.00  0.00    -0.744 OA
ENDBRANCH  91  95
ENDBRANCH  65  88
ENDBRANCH  39  40
ENDBRANCH  31  34
ENDBRANCH  29  30
ENDBRANCH   1  29
TORSDOF 15
