REMARK SMILES Cc1ccc(C)c(OCCNC(=O)CCC(=O)NCCCNC(=O)c2ccc(-c3c4nc(c(-c5cc(S(=O)(=O)[O-])ccc5F)c5ccc([nH]5)c(-c5cc(S(=O)(=O)[O-])ccc5F)c5nc(c(-c6cc(S(=O)(=O)[O-])ccc6F)c6ccc3[nH]6)C=C5)C=C4)cc2)c1
REMARK SMILES IDX 16 1 17 2 18 3 15 5 14 6 12 7 11 8 13 10 10 11 9 12 8 13
REMARK SMILES IDX 7 14 1 15 2 16 3 17 88 18 4 19 5 20 6 21 19 22 20 23 21 24
REMARK SMILES IDX 22 25 23 26 24 28 25 29 26 30 87 31 27 32 86 33 28 34 29 35
REMARK SMILES IDX 30 36 80 37 31 38 85 39 79 40 81 41 32 42 84 43 78 44 77 45
REMARK SMILES IDX 33 47 65 48 45 49 64 50 46 51 49 52 63 53 82 54 47 55 48 56
REMARK SMILES IDX 62 58 83 59 50 60 34 61 35 62 43 63 36 64 42 65 44 66 41 67
REMARK SMILES IDX 37 68 38 69 39 70 40 71 66 72 67 73 75 74 68 75 74 76 76 77
REMARK SMILES IDX 73 78 69 79 70 80 71 81 72 82 51 83 52 84 60 85 53 86 59 87
REMARK SMILES IDX 61 88 58 89 54 90 55 91 56 92 57 93
REMARK H PARENT 18 4 11 9 22 27 81 46 49 57
REMARK Flexibility Score: inf
ROOT
ATOM      1  C   UNL     1       2.496   4.299  -0.307  1.00  0.00     0.220 C 
ATOM      2  O   UNL     1       1.994   4.901  -1.256  1.00  0.00    -0.275 OA
ATOM      3  N   UNL     1       2.247   2.974  -0.137  1.00  0.00    -0.356 N 
ATOM      4  H   UNL     1       1.367   2.684  -0.468  1.00  0.00     0.163 HD
ENDROOT
BRANCH   1   5
ATOM      5  C   UNL     1       3.200   5.035   0.782  1.00  0.00     0.110 C 
BRANCH   5   6
ATOM      6  C   UNL     1       2.176   5.441   1.836  1.00  0.00     0.110 C 
BRANCH   6   7
ATOM      7  C   UNL     1       1.406   4.276   2.427  1.00  0.00     0.220 C 
ATOM      8  N   UNL     1       0.257   3.798   1.863  1.00  0.00    -0.353 N 
ATOM      9  H   UNL     1      -0.127   3.026   2.340  1.00  0.00     0.163 HD
ATOM     10  O   UNL     1       1.836   3.705   3.436  1.00  0.00    -0.275 OA
BRANCH   8  11
ATOM     11  C   UNL     1      -0.524   4.210   0.679  1.00  0.00     0.157 C 
BRANCH  11  12
ATOM     12  C   UNL     1      -1.055   3.105  -0.347  1.00  0.00     0.250 C 
BRANCH  12  13
ATOM     13  O   UNL     1      -0.125   2.469  -1.238  1.00  0.00    -0.491 OA
BRANCH  13  14
ATOM     14  C   UNL     1      -0.214   1.141  -1.592  1.00  0.00     0.122 A 
ATOM     15  C   UNL     1       2.780  -1.172  -1.934  1.00  0.00     0.044 C 
ATOM     16  C   UNL     1       1.348  -0.735  -1.934  1.00  0.00    -0.047 A 
ATOM     17  C   UNL     1       0.300  -1.633  -1.819  1.00  0.00     0.004 A 
ATOM     18  C   UNL     1       1.053   0.628  -1.908  1.00  0.00     0.050 A 
ATOM     19  C   UNL     1      -1.007  -1.141  -1.751  1.00  0.00     0.007 A 
ATOM     20  C   UNL     1      -1.286   0.252  -1.665  1.00  0.00    -0.009 A 
ATOM     21  C   UNL     1      -2.716   0.639  -1.912  1.00  0.00     0.048 C 
ENDBRANCH  13  14
ENDBRANCH  12  13
ENDBRANCH  11  12
ENDBRANCH   8  11
ENDBRANCH   6   7
ENDBRANCH   5   6
ENDBRANCH   1   5
BRANCH   3  22
ATOM     22  C   UNL     1       3.039   1.910   0.443  1.00  0.00     0.117 C 
BRANCH  22  23
ATOM     23  C   UNL     1       2.466   1.009   1.558  1.00  0.00     0.042 C 
BRANCH  23  24
ATOM     24  C   UNL     1       0.965   0.780   1.760  1.00  0.00     0.118 C 
BRANCH  24  25
ATOM     25  N   UNL     1       0.433  -0.547   1.472  1.00  0.00    -0.352 N 
ATOM     26  C   UNL     1      -0.831  -1.066   1.719  1.00  0.00     0.251 C 
ATOM     27  H   UNL     1       1.063  -1.166   1.037  1.00  0.00     0.163 HD
ATOM     28  O   UNL     1      -1.034  -2.272   1.573  1.00  0.00    -0.269 OA
BRANCH  26  29
ATOM     29  C   UNL     1      -1.988  -0.161   1.973  1.00  0.00     0.039 A 
ATOM     30  C   UNL     1      -3.190  -0.417   1.289  1.00  0.00     0.014 A 
ATOM     31  C   UNL     1      -1.875   1.002   2.722  1.00  0.00     0.014 A 
ATOM     32  C   UNL     1      -4.190   0.561   1.207  1.00  0.00     0.010 A 
ATOM     33  C   UNL     1      -2.813   2.010   2.563  1.00  0.00     0.010 A 
ATOM     34  C   UNL     1      -3.969   1.804   1.790  1.00  0.00    -0.014 A 
BRANCH  34  35
ATOM     35  C   UNL     1      -5.002   2.850   1.864  1.00  0.00     0.031 A 
ATOM     36  C   UNL     1      -5.885   2.772   3.062  1.00  0.00     0.074 A 
ATOM     37  C   UNL     1      -4.888   4.012   1.179  1.00  0.00     0.049 A 
ATOM     38  N   UNL     1      -7.143   3.064   3.133  1.00  0.00    -0.248 NA
ATOM     39  C   UNL     1      -5.331   2.251   4.326  1.00  0.00     0.031 C 
ATOM     40  C   UNL     1      -3.958   4.300   0.101  1.00  0.00     0.029 A 
ATOM     41  N   UNL     1      -5.416   5.248   1.443  1.00  0.00    -0.354 N 
ATOM     42  C   UNL     1      -7.473   2.968   4.479  1.00  0.00     0.074 A 
ATOM     43  C   UNL     1      -6.383   2.307   5.132  1.00  0.00     0.031 C 
ATOM     44  C   UNL     1      -3.717   5.626   0.038  1.00  0.00     0.029 A 
ATOM     45  C   UNL     1      -4.621   6.292   0.957  1.00  0.00     0.049 A 
ATOM     46  H   UNL     1      -6.264   5.387   1.923  1.00  0.00     0.167 HD
ATOM     47  C   UNL     1      -8.514   3.647   5.022  1.00  0.00     0.034 A 
ATOM     48  C   UNL     1      -4.654   7.607   1.292  1.00  0.00     0.034 A 
ATOM     49  C   UNL     1      -9.482   4.034   4.031  1.00  0.00     0.049 A 
ATOM     50  C   UNL     1      -5.997   7.884   1.837  1.00  0.00     0.074 A 
ATOM     51  C   UNL     1     -10.201   3.345   3.072  1.00  0.00     0.029 A 
ATOM     52  N   UNL     1      -9.585   5.361   3.689  1.00  0.00    -0.354 N 
ATOM     53  N   UNL     1      -7.086   7.810   1.125  1.00  0.00    -0.248 NA
ATOM     54  C   UNL     1      -6.197   7.856   3.277  1.00  0.00     0.031 C 
ATOM     55  C   UNL     1     -10.279   4.229   1.959  1.00  0.00     0.029 A 
ATOM     56  C   UNL     1      -9.640   5.417   2.317  1.00  0.00     0.049 A 
ATOM     57  H   UNL     1      -9.613   6.125   4.309  1.00  0.00     0.167 HD
ATOM     58  C   UNL     1      -8.027   7.271   1.982  1.00  0.00     0.074 A 
ATOM     59  C   UNL     1      -7.477   7.473   3.318  1.00  0.00     0.031 C 
ATOM     60  C   UNL     1      -9.008   6.444   1.513  1.00  0.00     0.034 A 
BRANCH  47  61
ATOM     61  C   UNL     1      -8.491   4.192   6.426  1.00  0.00     0.023 A 
ATOM     62  C   UNL     1      -9.687   4.694   6.957  1.00  0.00     0.031 A 
ATOM     63  C   UNL     1      -7.317   4.467   7.170  1.00  0.00     0.131 A 
ATOM     64  C   UNL     1      -9.684   5.448   8.142  1.00  0.00     0.055 A 
ATOM     65  C   UNL     1      -7.331   5.135   8.396  1.00  0.00     0.041 A 
ATOM     66  F   UNL     1      -6.089   4.195   6.706  1.00  0.00    -0.206 F 
ATOM     67  C   UNL     1      -8.519   5.651   8.879  1.00  0.00     0.022 A 
BRANCH  64  68
ATOM     68  S   UNL     1     -11.196   6.334   8.596  1.00  0.00     0.124 S 
ATOM     69  O   UNL     1     -11.562   6.966   7.332  1.00  0.00    -0.237 OA
ATOM     70  O   UNL     1     -12.056   5.244   9.045  1.00  0.00    -0.237 OA
ATOM     71  O   UNL     1     -10.747   7.250   9.641  1.00  0.00    -0.744 OA
ENDBRANCH  64  68
ENDBRANCH  47  61
BRANCH  48  72
ATOM     72  C   UNL     1      -3.526   8.574   1.341  1.00  0.00     0.023 A 
ATOM     73  C   UNL     1      -3.711   9.967   1.240  1.00  0.00     0.031 A 
ATOM     74  C   UNL     1      -2.236   8.133   1.717  1.00  0.00     0.131 A 
ATOM     75  C   UNL     1      -2.636  10.850   1.492  1.00  0.00     0.055 A 
ATOM     76  C   UNL     1      -1.172   9.008   1.950  1.00  0.00     0.041 A 
ATOM     77  F   UNL     1      -1.994   6.835   1.956  1.00  0.00    -0.206 F 
ATOM     78  C   UNL     1      -1.369  10.375   1.842  1.00  0.00     0.022 A 
BRANCH  75  79
ATOM     79  S   UNL     1      -2.910  12.651   1.479  1.00  0.00     0.124 S 
ATOM     80  O   UNL     1      -3.080  12.929   0.059  1.00  0.00    -0.237 OA
ATOM     81  O   UNL     1      -4.097  12.792   2.316  1.00  0.00    -0.237 OA
ATOM     82  O   UNL     1      -1.682  13.186   2.070  1.00  0.00    -0.744 OA
ENDBRANCH  75  79
ENDBRANCH  48  72
BRANCH  60  83
ATOM     83  C   UNL     1      -9.242   6.379   0.016  1.00  0.00     0.023 A 
ATOM     84  C   UNL     1      -8.255   6.005  -0.923  1.00  0.00     0.031 A 
ATOM     85  C   UNL     1     -10.553   6.558  -0.457  1.00  0.00     0.131 A 
ATOM     86  C   UNL     1      -8.591   5.836  -2.279  1.00  0.00     0.055 A 
ATOM     87  C   UNL     1     -10.889   6.373  -1.798  1.00  0.00     0.041 A 
ATOM     88  F   UNL     1     -11.545   6.874   0.392  1.00  0.00    -0.206 F 
ATOM     89  C   UNL     1      -9.907   6.016  -2.717  1.00  0.00     0.022 A 
BRANCH  86  90
ATOM     90  S   UNL     1      -7.313   5.376  -3.491  1.00  0.00     0.124 S 
ATOM     91  O   UNL     1      -6.222   6.301  -3.208  1.00  0.00    -0.237 OA
ATOM     92  O   UNL     1      -7.060   3.973  -3.169  1.00  0.00    -0.237 OA
ATOM     93  O   UNL     1      -7.976   5.591  -4.779  1.00  0.00    -0.744 OA
ENDBRANCH  86  90
ENDBRANCH  60  83
ENDBRANCH  34  35
ENDBRANCH  26  29
ENDBRANCH  24  25
ENDBRANCH  23  24
ENDBRANCH  22  23
ENDBRANCH   3  22
TORSDOF 19
