REMARK SMILES [NH3+][C@H]1CCC[C@H]1C(=O)NCc1ccc(C(=O)NCCCNC(=O)c2ccc(-c3c4nc(c(-c5cc(S(=O)(=O)[O-])ccc5F)c5ccc([nH]5)c(-c5cc(S(=O)(=O)[O-])ccc5F)c5nc(c(-c6cc(S(=O)(=O)[O-])ccc6F)c6ccc3[nH]6)C=C5)C=C4)cc2)o1
REMARK SMILES IDX 18 1 17 2 15 3 16 4 14 6 11 7 12 8 87 9 13 10 10 11 9 12
REMARK SMILES IDX 7 13 8 14 6 16 2 17 3 18 4 19 5 20 1 21 19 25 20 26 21 27
REMARK SMILES IDX 22 28 23 30 24 31 25 32 86 33 26 34 85 35 27 36 28 37 29 38
REMARK SMILES IDX 79 39 30 40 84 41 78 42 80 43 31 44 83 45 77 46 76 47 32 49
REMARK SMILES IDX 64 50 44 51 63 52 45 53 48 54 62 55 81 56 46 57 47 58 61 60
REMARK SMILES IDX 82 61 49 62 33 63 34 64 42 65 35 66 41 67 43 68 40 69 36 70
REMARK SMILES IDX 37 71 38 72 39 73 65 74 66 75 74 76 67 77 73 78 75 79 72 80
REMARK SMILES IDX 68 81 69 82 70 83 71 84 50 85 51 86 59 87 52 88 58 89 60 90
REMARK SMILES IDX 57 91 53 92 54 93 55 94 56 95
REMARK H PARENT 17 5 9 15 1 22 1 23 1 24 21 29 80 48 48 59
REMARK Flexibility Score: inf
ROOT
ATOM      1  C   UNL     1      -2.113   1.921  -6.574  1.00  0.00     0.118 C 
ENDROOT
BRANCH   1   2
ATOM      2  N   UNL     1      -1.490   2.199  -5.297  1.00  0.00    -0.349 N 
ATOM      3  C   UNL     1      -1.097   1.353  -4.288  1.00  0.00     0.286 C 
ATOM      4  O   UNL     1      -0.425   1.866  -3.390  1.00  0.00    -0.266 OA
ATOM      5  H   UNL     1      -1.319   3.153  -5.123  1.00  0.00     0.163 HD
BRANCH   3   6
ATOM      6  C   UNL     1      -1.445  -0.056  -4.301  1.00  0.00     0.191 A 
ATOM      7  C   UNL     1      -1.191  -2.134  -3.572  1.00  0.00     0.124 A 
ATOM      8  C   UNL     1      -2.225  -2.170  -4.479  1.00  0.00     0.048 A 
ATOM      9  O   UNL     1      -0.709  -0.867  -3.475  1.00  0.00    -0.454 OA
ATOM     10  C   UNL     1      -2.406  -0.835  -4.923  1.00  0.00     0.056 A 
BRANCH   7  11
ATOM     11  C   UNL     1      -0.610  -3.140  -2.650  1.00  0.00     0.191 C 
BRANCH  11  12
ATOM     12  N   UNL     1       0.829  -3.009  -2.595  1.00  0.00    -0.348 N 
ATOM     13  C   UNL     1       1.682  -2.827  -1.559  1.00  0.00     0.229 C 
ATOM     14  O   UNL     1       2.886  -2.765  -1.838  1.00  0.00    -0.275 OA
ATOM     15  H   UNL     1       1.270  -3.063  -3.474  1.00  0.00     0.163 HD
BRANCH  13  16
ATOM     16  C   UNL     1       1.245  -2.700  -0.105  1.00  0.00     0.136 C 
ATOM     17  C   UNL     1       0.642  -1.360   0.348  1.00  0.00     0.193 C 
ATOM     18  C   UNL     1      -0.240  -1.706   1.560  1.00  0.00     0.066 C 
ATOM     19  C   UNL     1      -0.233  -3.222   1.725  1.00  0.00     0.007 C 
ATOM     20  C   UNL     1       0.359  -3.806   0.453  1.00  0.00     0.020 C 
BRANCH  17  21
ATOM     21  N   UNL     1      -0.140  -0.557  -0.573  1.00  0.00    -0.354 N 
ATOM     22  H   UNL     1      -0.456   0.291  -0.101  1.00  0.00     0.344 HD
ATOM     23  H   UNL     1      -0.949  -1.092  -0.889  1.00  0.00     0.344 HD
ATOM     24  H   UNL     1       0.435  -0.304  -1.376  1.00  0.00     0.344 HD
ENDBRANCH  17  21
ENDBRANCH  13  16
ENDBRANCH  11  12
ENDBRANCH   7  11
ENDBRANCH   3   6
ENDBRANCH   1   2
BRANCH   1  25
ATOM     25  C   UNL     1      -3.597   2.278  -6.577  1.00  0.00     0.042 C 
BRANCH  25  26
ATOM     26  C   UNL     1      -3.859   3.783  -6.637  1.00  0.00     0.118 C 
BRANCH  26  27
ATOM     27  N   UNL     1      -3.414   4.361  -7.897  1.00  0.00    -0.352 N 
ATOM     28  C   UNL     1      -4.128   4.952  -8.909  1.00  0.00     0.251 C 
ATOM     29  H   UNL     1      -2.442   4.321  -8.048  1.00  0.00     0.163 HD
ATOM     30  O   UNL     1      -3.582   5.122  -9.997  1.00  0.00    -0.269 OA
BRANCH  28  31
ATOM     31  C   UNL     1      -5.532   5.376  -8.709  1.00  0.00     0.039 A 
ATOM     32  C   UNL     1      -6.439   5.220  -9.763  1.00  0.00     0.014 A 
ATOM     33  C   UNL     1      -5.944   5.987  -7.522  1.00  0.00     0.014 A 
ATOM     34  C   UNL     1      -7.767   5.626  -9.606  1.00  0.00     0.010 A 
ATOM     35  C   UNL     1      -7.283   6.332  -7.344  1.00  0.00     0.010 A 
ATOM     36  C   UNL     1      -8.208   6.160  -8.385  1.00  0.00    -0.014 A 
BRANCH  36  37
ATOM     37  C   UNL     1      -9.627   6.553  -8.181  1.00  0.00     0.031 A 
ATOM     38  C   UNL     1      -9.985   7.995  -7.944  1.00  0.00     0.074 A 
ATOM     39  C   UNL     1     -10.581   5.603  -8.145  1.00  0.00     0.049 A 
ATOM     40  N   UNL     1     -11.146   8.523  -7.649  1.00  0.00    -0.248 NA
ATOM     41  C   UNL     1      -8.884   8.966  -8.021  1.00  0.00     0.031 C 
ATOM     42  C   UNL     1     -10.351   4.168  -8.329  1.00  0.00     0.029 A 
ATOM     43  N   UNL     1     -11.933   5.696  -7.928  1.00  0.00    -0.354 N 
ATOM     44  C   UNL     1     -10.914   9.886  -7.488  1.00  0.00     0.074 A 
ATOM     45  C   UNL     1      -9.491  10.089  -7.666  1.00  0.00     0.031 C 
ATOM     46  C   UNL     1     -11.523   3.519  -8.233  1.00  0.00     0.029 A 
ATOM     47  C   UNL     1     -12.579   4.482  -7.939  1.00  0.00     0.049 A 
ATOM     48  H   UNL     1     -12.396   6.552  -7.780  1.00  0.00     0.167 HD
ATOM     49  C   UNL     1     -11.806  10.876  -7.235  1.00  0.00     0.034 A 
ATOM     50  C   UNL     1     -13.873   4.177  -7.720  1.00  0.00     0.034 A 
ATOM     51  C   UNL     1     -13.224  10.656  -7.074  1.00  0.00     0.049 A 
ATOM     52  C   UNL     1     -14.845   5.291  -7.426  1.00  0.00     0.074 A 
ATOM     53  C   UNL     1     -14.224  11.590  -6.864  1.00  0.00     0.029 A 
ATOM     54  N   UNL     1     -13.844   9.413  -7.101  1.00  0.00    -0.354 N 
ATOM     55  N   UNL     1     -14.615   6.579  -7.313  1.00  0.00    -0.248 NA
ATOM     56  C   UNL     1     -16.251   4.910  -7.240  1.00  0.00     0.031 C 
ATOM     57  C   UNL     1     -15.437  10.908  -6.706  1.00  0.00     0.029 A 
ATOM     58  C   UNL     1     -15.207   9.554  -6.886  1.00  0.00     0.049 A 
ATOM     59  H   UNL     1     -13.383   8.556  -7.251  1.00  0.00     0.167 HD
ATOM     60  C   UNL     1     -15.854   7.164  -7.071  1.00  0.00     0.074 A 
ATOM     61  C   UNL     1     -16.827   6.090  -7.068  1.00  0.00     0.031 C 
ATOM     62  C   UNL     1     -16.162   8.471  -6.874  1.00  0.00     0.034 A 
BRANCH  49  63
ATOM     63  C   UNL     1     -11.264  12.278  -7.091  1.00  0.00     0.023 A 
ATOM     64  C   UNL     1     -10.626  12.936  -8.158  1.00  0.00     0.031 A 
ATOM     65  C   UNL     1     -11.356  12.957  -5.863  1.00  0.00     0.131 A 
ATOM     66  C   UNL     1     -10.036  14.193  -7.956  1.00  0.00     0.055 A 
ATOM     67  C   UNL     1     -10.838  14.243  -5.691  1.00  0.00     0.041 A 
ATOM     68  F   UNL     1     -11.937  12.374  -4.802  1.00  0.00    -0.206 F 
ATOM     69  C   UNL     1     -10.159  14.862  -6.736  1.00  0.00     0.022 A 
BRANCH  66  70
ATOM     70  S   UNL     1      -8.982  14.874  -9.265  1.00  0.00     0.124 S 
ATOM     71  O   UNL     1      -7.959  13.839  -9.387  1.00  0.00    -0.237 OA
ATOM     72  O   UNL     1      -9.908  14.994 -10.385  1.00  0.00    -0.237 OA
ATOM     73  O   UNL     1      -8.513  16.140  -8.704  1.00  0.00    -0.744 OA
ENDBRANCH  66  70
ENDBRANCH  49  63
BRANCH  50  74
ATOM     74  C   UNL     1     -14.330   2.759  -7.760  1.00  0.00     0.023 A 
ATOM     75  C   UNL     1     -15.213   2.314  -8.756  1.00  0.00     0.031 A 
ATOM     76  C   UNL     1     -13.915   1.837  -6.783  1.00  0.00     0.131 A 
ATOM     77  C   UNL     1     -15.688   0.994  -8.729  1.00  0.00     0.055 A 
ATOM     78  C   UNL     1     -14.354   0.512  -6.788  1.00  0.00     0.041 A 
ATOM     79  F   UNL     1     -13.064   2.210  -5.814  1.00  0.00    -0.206 F 
ATOM     80  C   UNL     1     -15.256   0.087  -7.759  1.00  0.00     0.022 A 
BRANCH  77  81
ATOM     81  S   UNL     1     -16.941   0.498  -9.943  1.00  0.00     0.124 S 
ATOM     82  O   UNL     1     -18.012   1.449  -9.671  1.00  0.00    -0.237 OA
ATOM     83  O   UNL     1     -16.227   0.677 -11.203  1.00  0.00    -0.237 OA
ATOM     84  O   UNL     1     -17.230  -0.889  -9.585  1.00  0.00    -0.744 OA
ENDBRANCH  77  81
ENDBRANCH  50  74
BRANCH  62  85
ATOM     85  C   UNL     1     -17.620   8.806  -6.684  1.00  0.00     0.023 A 
ATOM     86  C   UNL     1     -18.327   8.406  -5.537  1.00  0.00     0.031 A 
ATOM     87  C   UNL     1     -18.315   9.521  -7.676  1.00  0.00     0.131 A 
ATOM     88  C   UNL     1     -19.700   8.676  -5.434  1.00  0.00     0.055 A 
ATOM     89  C   UNL     1     -19.668   9.835  -7.543  1.00  0.00     0.041 A 
ATOM     90  F   UNL     1     -17.688   9.925  -8.793  1.00  0.00    -0.206 F 
ATOM     91  C   UNL     1     -20.371   9.401  -6.423  1.00  0.00     0.022 A 
BRANCH  88  92
ATOM     92  S   UNL     1     -20.620   7.991  -4.029  1.00  0.00     0.124 S 
ATOM     93  O   UNL     1     -20.393   6.558  -4.187  1.00  0.00    -0.237 OA
ATOM     94  O   UNL     1     -19.961   8.618  -2.888  1.00  0.00    -0.237 OA
ATOM     95  O   UNL     1     -21.993   8.431  -4.270  1.00  0.00    -0.744 OA
ENDBRANCH  88  92
ENDBRANCH  62  85
ENDBRANCH  36  37
ENDBRANCH  28  31
ENDBRANCH  26  27
ENDBRANCH  25  26
ENDBRANCH   1  25
TORSDOF 17
