REMARK SMILES CC(C)([NH2+]C[C@@H]1COc2ccccc21)C(=O)NCCCNC(=O)c1ccc(-c2c3nc(c(-c4cc(S(=O)(=O)[O-])ccc4F)c4ccc([nH]4)c(-c4cc(S(=O)(=O)[O-])ccc4F)c4nc(c(-c5cc(S(=O)(=O)[O-])ccc5F)c5ccc2[nH]5)C=C4)C=C3)cc1
REMARK SMILES IDX 19 1 18 2 17 3 15 4 16 5 2 7 1 8 3 9 4 10 5 13 6 14 7 15
REMARK SMILES IDX 14 16 8 17 9 18 13 19 10 20 12 21 11 22 20 23 21 24 22 25
REMARK SMILES IDX 23 27 24 28 25 29 86 30 26 31 85 32 27 33 28 34 29 35 79 36
REMARK SMILES IDX 30 37 84 38 78 39 80 40 31 41 83 42 77 43 76 44 32 46 64 47
REMARK SMILES IDX 44 48 63 49 45 50 48 51 62 52 81 53 46 54 47 55 61 57 82 58
REMARK SMILES IDX 49 59 33 60 34 61 42 62 35 63 41 64 43 65 40 66 36 67 37 68
REMARK SMILES IDX 38 69 39 70 65 71 66 72 74 73 67 74 73 75 75 76 72 77 68 78
REMARK SMILES IDX 69 79 70 80 71 81 50 82 51 83 59 84 52 85 58 86 60 87 57 88
REMARK SMILES IDX 53 89 54 90 55 91 56 92
REMARK H PARENT 17 6 4 11 4 12 21 26 80 45 48 56
REMARK Flexibility Score: inf
ROOT
ATOM      1  C   UNL     1       1.097  -1.442  -5.684  1.00  0.00     0.042 C 
ENDROOT
BRANCH   1   2
ATOM      2  C   UNL     1       0.510  -0.156  -5.106  1.00  0.00     0.118 C 
BRANCH   2   3
ATOM      3  N   UNL     1      -0.524   0.384  -5.959  1.00  0.00    -0.351 N 
ATOM      4  C   UNL     1      -1.881   0.410  -5.883  1.00  0.00     0.280 C 
ATOM      5  O   UNL     1      -2.421   0.927  -6.873  1.00  0.00    -0.268 OA
ATOM      6  H   UNL     1      -0.171   0.826  -6.765  1.00  0.00     0.163 HD
BRANCH   4   7
ATOM      7  C   UNL     1      -2.737  -0.078  -4.654  1.00  0.00     0.169 C 
ATOM      8  C   UNL     1      -4.199   0.367  -4.980  1.00  0.00     0.090 C 
ATOM      9  C   UNL     1      -2.380   0.639  -3.351  1.00  0.00     0.090 C 
BRANCH   7  10
ATOM     10  N   UNL     1      -2.866  -1.553  -4.558  1.00  0.00    -0.333 N 
ATOM     11  H   UNL     1      -3.069  -1.877  -5.503  1.00  0.00     0.347 HD
ATOM     12  H   UNL     1      -3.564  -1.644  -3.820  1.00  0.00     0.347 HD
BRANCH  10  13
ATOM     13  C   UNL     1      -1.808  -2.422  -4.056  1.00  0.00     0.273 C 
BRANCH  13  14
ATOM     14  C   UNL     1      -1.569  -2.463  -2.536  1.00  0.00     0.116 C 
ATOM     15  C   UNL     1      -0.148  -2.043  -2.104  1.00  0.00     0.244 C 
ATOM     16  C   UNL     1      -1.538  -3.824  -1.918  1.00  0.00     0.006 A 
ATOM     17  O   UNL     1       0.171  -2.693  -0.854  1.00  0.00    -0.492 OA
ATOM     18  C   UNL     1      -0.540  -3.861  -0.950  1.00  0.00     0.123 A 
ATOM     19  C   UNL     1      -2.340  -4.931  -2.134  1.00  0.00     0.008 A 
ATOM     20  C   UNL     1      -0.301  -4.973  -0.173  1.00  0.00     0.047 A 
ATOM     21  C   UNL     1      -2.103  -6.079  -1.373  1.00  0.00     0.001 A 
ATOM     22  C   UNL     1      -1.092  -6.099  -0.397  1.00  0.00     0.004 A 
ENDBRANCH  13  14
ENDBRANCH  10  13
ENDBRANCH   7  10
ENDBRANCH   4   7
ENDBRANCH   2   3
ENDBRANCH   1   2
BRANCH   1  23
ATOM     23  C   UNL     1       2.375  -1.243  -6.474  1.00  0.00     0.118 C 
BRANCH  23  24
ATOM     24  N   UNL     1       3.494  -0.873  -5.618  1.00  0.00    -0.352 N 
ATOM     25  C   UNL     1       4.670  -1.528  -5.343  1.00  0.00     0.251 C 
ATOM     26  H   UNL     1       3.390  -0.008  -5.159  1.00  0.00     0.163 HD
ATOM     27  O   UNL     1       5.373  -1.106  -4.422  1.00  0.00    -0.269 OA
BRANCH  25  28
ATOM     28  C   UNL     1       5.086  -2.729  -6.104  1.00  0.00     0.039 A 
ATOM     29  C   UNL     1       5.817  -3.726  -5.449  1.00  0.00     0.014 A 
ATOM     30  C   UNL     1       4.794  -2.877  -7.461  1.00  0.00     0.014 A 
ATOM     31  C   UNL     1       6.191  -4.886  -6.136  1.00  0.00     0.010 A 
ATOM     32  C   UNL     1       5.057  -4.080  -8.108  1.00  0.00     0.010 A 
ATOM     33  C   UNL     1       5.777  -5.093  -7.461  1.00  0.00    -0.014 A 
BRANCH  33  34
ATOM     34  C   UNL     1       6.110  -6.343  -8.197  1.00  0.00     0.031 A 
ATOM     35  C   UNL     1       6.912  -6.271  -9.473  1.00  0.00     0.074 A 
ATOM     36  C   UNL     1       5.635  -7.526  -7.756  1.00  0.00     0.049 A 
ATOM     37  N   UNL     1       7.230  -7.230 -10.305  1.00  0.00    -0.248 NA
ATOM     38  C   UNL     1       7.389  -4.941  -9.889  1.00  0.00     0.031 C 
ATOM     39  C   UNL     1       4.804  -7.711  -6.564  1.00  0.00     0.029 A 
ATOM     40  N   UNL     1       5.769  -8.795  -8.262  1.00  0.00    -0.354 N 
ATOM     41  C   UNL     1       7.914  -6.616 -11.350  1.00  0.00     0.074 A 
ATOM     42  C   UNL     1       7.918  -5.197 -11.076  1.00  0.00     0.031 C 
ATOM     43  C   UNL     1       4.526  -9.016  -6.417  1.00  0.00     0.029 A 
ATOM     44  C   UNL     1       5.106  -9.757  -7.531  1.00  0.00     0.049 A 
ATOM     45  H   UNL     1       6.291  -9.000  -9.071  1.00  0.00     0.167 HD
ATOM     46  C   UNL     1       8.502  -7.188 -12.429  1.00  0.00     0.034 A 
ATOM     47  C   UNL     1       4.964 -11.081  -7.746  1.00  0.00     0.034 A 
ATOM     48  C   UNL     1       8.519  -8.611 -12.665  1.00  0.00     0.049 A 
ATOM     49  C   UNL     1       5.635 -11.691  -8.953  1.00  0.00     0.074 A 
ATOM     50  C   UNL     1       9.164  -9.305 -13.673  1.00  0.00     0.029 A 
ATOM     51  N   UNL     1       7.856  -9.555 -11.892  1.00  0.00    -0.354 N 
ATOM     52  N   UNL     1       6.347 -11.103  -9.888  1.00  0.00    -0.248 NA
ATOM     53  C   UNL     1       5.496 -13.143  -9.128  1.00  0.00     0.031 C 
ATOM     54  C   UNL     1       8.822 -10.655 -13.561  1.00  0.00     0.029 A 
ATOM     55  C   UNL     1       8.041 -10.819 -12.427  1.00  0.00     0.049 A 
ATOM     56  H   UNL     1       7.332  -9.355 -11.083  1.00  0.00     0.167 HD
ATOM     57  C   UNL     1       6.765 -12.121 -10.742  1.00  0.00     0.074 A 
ATOM     58  C   UNL     1       6.246 -13.358 -10.198  1.00  0.00     0.031 C 
ATOM     59  C   UNL     1       7.511 -12.043 -11.873  1.00  0.00     0.034 A 
BRANCH  46  60
ATOM     60  C   UNL     1       9.148  -6.283 -13.450  1.00  0.00     0.023 A 
ATOM     61  C   UNL     1      10.260  -5.480 -13.141  1.00  0.00     0.031 A 
ATOM     62  C   UNL     1       8.650  -6.237 -14.765  1.00  0.00     0.131 A 
ATOM     63  C   UNL     1      10.802  -4.628 -14.117  1.00  0.00     0.055 A 
ATOM     64  C   UNL     1       9.242  -5.446 -15.751  1.00  0.00     0.041 A 
ATOM     65  F   UNL     1       7.576  -6.963 -15.114  1.00  0.00    -0.206 F 
ATOM     66  C   UNL     1      10.318  -4.627 -15.427  1.00  0.00     0.022 A 
BRANCH  63  67
ATOM     67  S   UNL     1      12.075  -3.435 -13.620  1.00  0.00     0.124 S 
ATOM     68  O   UNL     1      11.367  -2.653 -12.608  1.00  0.00    -0.237 OA
ATOM     69  O   UNL     1      13.142  -4.298 -13.128  1.00  0.00    -0.237 OA
ATOM     70  O   UNL     1      12.373  -2.716 -14.857  1.00  0.00    -0.744 OA
ENDBRANCH  63  67
ENDBRANCH  46  60
BRANCH  47  71
ATOM     71  C   UNL     1       4.137 -11.920  -6.828  1.00  0.00     0.023 A 
ATOM     72  C   UNL     1       4.698 -12.994  -6.118  1.00  0.00     0.031 A 
ATOM     73  C   UNL     1       2.752 -11.704  -6.702  1.00  0.00     0.131 A 
ATOM     74  C   UNL     1       3.872 -13.848  -5.370  1.00  0.00     0.055 A 
ATOM     75  C   UNL     1       1.946 -12.515  -5.901  1.00  0.00     0.041 A 
ATOM     76  F   UNL     1       2.159 -10.693  -7.357  1.00  0.00    -0.206 F 
ATOM     77  C   UNL     1       2.503 -13.607  -5.244  1.00  0.00     0.022 A 
BRANCH  74  78
ATOM     78  S   UNL     1       4.594 -15.357  -4.666  1.00  0.00     0.124 S 
ATOM     79  O   UNL     1       5.175 -15.985  -5.847  1.00  0.00    -0.237 OA
ATOM     80  O   UNL     1       5.540 -14.815  -3.696  1.00  0.00    -0.237 OA
ATOM     81  O   UNL     1       3.442 -16.050  -4.093  1.00  0.00    -0.744 OA
ENDBRANCH  74  78
ENDBRANCH  47  71
BRANCH  59  82
ATOM     82  C   UNL     1       7.849 -13.340 -12.566  1.00  0.00     0.023 A 
ATOM     83  C   UNL     1       6.860 -14.145 -13.158  1.00  0.00     0.031 A 
ATOM     84  C   UNL     1       9.184 -13.779 -12.629  1.00  0.00     0.131 A 
ATOM     85  C   UNL     1       7.213 -15.374 -13.733  1.00  0.00     0.055 A 
ATOM     86  C   UNL     1       9.538 -14.969 -13.265  1.00  0.00     0.041 A 
ATOM     87  F   UNL     1      10.170 -13.053 -12.077  1.00  0.00    -0.206 F 
ATOM     88  C   UNL     1       8.547 -15.782 -13.809  1.00  0.00     0.022 A 
BRANCH  85  89
ATOM     89  S   UNL     1       5.892 -16.484 -14.290  1.00  0.00     0.124 S 
ATOM     90  O   UNL     1       5.121 -16.676 -13.066  1.00  0.00    -0.237 OA
ATOM     91  O   UNL     1       5.243 -15.699 -15.335  1.00  0.00    -0.237 OA
ATOM     92  O   UNL     1       6.613 -17.666 -14.761  1.00  0.00    -0.744 OA
ENDBRANCH  85  89
ENDBRANCH  59  82
ENDBRANCH  33  34
ENDBRANCH  25  28
ENDBRANCH  23  24
ENDBRANCH   1  23
TORSDOF 16
