REMARK SMILES O=C(NCCCNC(=O)c1c(C(=O)N2CCc3ccccc32)cccc1[N+](=O)[O-])c1ccc(-c2c3nc(c(-c4cc(S(=O)(=O)[O-])ccc4F)c4ccc([nH]4)c(-c4cc(S(=O)(=O)[O-])ccc4F)c4nc(c(-c5cc(S(=O)(=O)[O-])ccc5F)c5ccc2[nH]5)C=C4)C=C3)cc1
REMARK SMILES IDX 4 1 3 2 1 3 2 4 30 6 31 7 92 8 32 9 91 10 33 11 34 12 35 13
REMARK SMILES IDX 85 14 36 15 90 16 84 17 86 18 37 19 89 20 83 21 82 22 38 24
REMARK SMILES IDX 70 25 50 26 69 27 51 28 54 29 68 30 87 31 52 32 53 33 67 35
REMARK SMILES IDX 88 36 55 37 39 38 40 39 48 40 41 41 47 42 49 43 46 44 42 45
REMARK SMILES IDX 43 46 44 47 45 48 71 49 72 50 80 51 73 52 79 53 81 54 78 55
REMARK SMILES IDX 74 56 75 57 76 58 77 59 56 60 57 61 65 62 58 63 64 64 66 65
REMARK SMILES IDX 63 66 59 67 60 68 61 69 62 70 5 71 6 72 7 73 8 74 9 76 10 77
REMARK SMILES IDX 11 78 26 79 23 80 25 81 24 82 12 83 13 84 14 85 15 86 22 87
REMARK SMILES IDX 16 88 17 89 21 90 18 91 20 92 19 93 27 94 28 95 29 96
REMARK H PARENT 3 5 86 23 54 34 7 75
REMARK Flexibility Score: inf
ROOT
ATOM      1  C   UNL     1       4.687   1.225  -0.858  1.00  0.00     0.118 C 
ENDROOT
BRANCH   1   2
ATOM      2  N   UNL     1       3.248   1.016  -0.739  1.00  0.00    -0.352 N 
ATOM      3  O   UNL     1       1.313  -0.022  -0.232  1.00  0.00    -0.269 OA
ATOM      4  C   UNL     1       2.536   0.009  -0.121  1.00  0.00     0.251 C 
ATOM      5  H   UNL     1       2.695   1.707  -1.170  1.00  0.00     0.163 HD
BRANCH   4   6
ATOM      6  C   UNL     1       3.236  -1.049   0.645  1.00  0.00     0.039 A 
ATOM      7  C   UNL     1       4.318  -0.736   1.462  1.00  0.00     0.014 A 
ATOM      8  C   UNL     1       2.808  -2.378   0.544  1.00  0.00     0.014 A 
ATOM      9  C   UNL     1       5.103  -1.753   1.986  1.00  0.00     0.010 A 
ATOM     10  C   UNL     1       3.523  -3.395   1.192  1.00  0.00     0.010 A 
ATOM     11  C   UNL     1       4.706  -3.097   1.882  1.00  0.00    -0.014 A 
BRANCH  11  12
ATOM     12  C   UNL     1       5.533  -4.130   2.564  1.00  0.00     0.031 A 
ATOM     13  C   UNL     1       6.217  -5.229   1.795  1.00  0.00     0.074 A 
ATOM     14  C   UNL     1       5.737  -4.005   3.892  1.00  0.00     0.049 A 
ATOM     15  N   UNL     1       7.037  -6.152   2.234  1.00  0.00    -0.248 NA
ATOM     16  C   UNL     1       5.941  -5.315   0.353  1.00  0.00     0.031 C 
ATOM     17  C   UNL     1       5.110  -2.987   4.743  1.00  0.00     0.029 A 
ATOM     18  N   UNL     1       6.555  -4.691   4.752  1.00  0.00    -0.354 N 
ATOM     19  C   UNL     1       7.363  -6.936   1.131  1.00  0.00     0.074 A 
ATOM     20  C   UNL     1       6.626  -6.397   0.007  1.00  0.00     0.031 C 
ATOM     21  C   UNL     1       5.630  -3.059   5.975  1.00  0.00     0.029 A 
ATOM     22  C   UNL     1       6.557  -4.181   6.031  1.00  0.00     0.049 A 
ATOM     23  H   UNL     1       7.088  -5.472   4.481  1.00  0.00     0.167 HD
ATOM     24  C   UNL     1       8.204  -7.999   1.065  1.00  0.00     0.034 A 
ATOM     25  C   UNL     1       7.218  -4.579   7.135  1.00  0.00     0.034 A 
ATOM     26  C   UNL     1       8.935  -8.520   2.197  1.00  0.00     0.049 A 
ATOM     27  C   UNL     1       8.141  -5.760   7.030  1.00  0.00     0.074 A 
ATOM     28  C   UNL     1       9.810  -9.594   2.241  1.00  0.00     0.029 A 
ATOM     29  N   UNL     1       8.879  -8.007   3.488  1.00  0.00    -0.354 N 
ATOM     30  N   UNL     1       8.428  -6.489   5.976  1.00  0.00    -0.248 NA
ATOM     31  C   UNL     1       8.828  -6.170   8.258  1.00  0.00     0.031 C 
ATOM     32  C   UNL     1      10.239  -9.761   3.564  1.00  0.00     0.029 A 
ATOM     33  C   UNL     1       9.687  -8.752   4.335  1.00  0.00     0.049 A 
ATOM     34  H   UNL     1       8.344  -7.228   3.761  1.00  0.00     0.167 HD
ATOM     35  C   UNL     1       9.329  -7.451   6.420  1.00  0.00     0.074 A 
ATOM     36  C   UNL     1       9.573  -7.174   7.822  1.00  0.00     0.031 C 
ATOM     37  C   UNL     1       9.893  -8.479   5.738  1.00  0.00     0.034 A 
BRANCH  24  38
ATOM     38  C   UNL     1       8.349  -8.694  -0.269  1.00  0.00     0.023 A 
ATOM     39  C   UNL     1       8.947  -8.061  -1.373  1.00  0.00     0.031 A 
ATOM     40  C   UNL     1       7.885 -10.011  -0.437  1.00  0.00     0.131 A 
ATOM     41  C   UNL     1       9.018  -8.725  -2.608  1.00  0.00     0.055 A 
ATOM     42  C   UNL     1       8.020 -10.691  -1.649  1.00  0.00     0.041 A 
ATOM     43  F   UNL     1       7.288 -10.659   0.576  1.00  0.00    -0.206 F 
ATOM     44  C   UNL     1       8.580 -10.045  -2.747  1.00  0.00     0.022 A 
BRANCH  41  45
ATOM     45  S   UNL     1       9.597  -7.804  -4.059  1.00  0.00     0.124 S 
ATOM     46  O   UNL     1       8.608  -6.730  -4.142  1.00  0.00    -0.237 OA
ATOM     47  O   UNL     1      10.942  -7.402  -3.665  1.00  0.00    -0.237 OA
ATOM     48  O   UNL     1       9.530  -8.786  -5.139  1.00  0.00    -0.744 OA
ENDBRANCH  41  45
ENDBRANCH  24  38
BRANCH  25  49
ATOM     49  C   UNL     1       6.994  -3.886   8.437  1.00  0.00     0.023 A 
ATOM     50  C   UNL     1       8.039  -3.229   9.104  1.00  0.00     0.031 A 
ATOM     51  C   UNL     1       5.727  -3.902   9.050  1.00  0.00     0.131 A 
ATOM     52  C   UNL     1       7.809  -2.653  10.363  1.00  0.00     0.055 A 
ATOM     53  C   UNL     1       5.489  -3.275  10.272  1.00  0.00     0.041 A 
ATOM     54  F   UNL     1       4.691  -4.514   8.453  1.00  0.00    -0.206 F 
ATOM     55  C   UNL     1       6.539  -2.658  10.944  1.00  0.00     0.022 A 
BRANCH  52  56
ATOM     56  S   UNL     1       9.221  -1.979  11.280  1.00  0.00     0.124 S 
ATOM     57  O   UNL     1      10.136  -3.116  11.299  1.00  0.00    -0.237 OA
ATOM     58  O   UNL     1       9.615  -0.853  10.441  1.00  0.00    -0.237 OA
ATOM     59  O   UNL     1       8.646  -1.620  12.574  1.00  0.00    -0.744 OA
ENDBRANCH  52  56
ENDBRANCH  25  49
BRANCH  37  60
ATOM     60  C   UNL     1      10.832  -9.362   6.520  1.00  0.00     0.023 A 
ATOM     61  C   UNL     1      10.367 -10.170   7.573  1.00  0.00     0.031 A 
ATOM     62  C   UNL     1      12.211  -9.350   6.252  1.00  0.00     0.131 A 
ATOM     63  C   UNL     1      11.281 -10.873   8.369  1.00  0.00     0.055 A 
ATOM     64  C   UNL     1      13.110 -10.103   7.008  1.00  0.00     0.041 A 
ATOM     65  F   UNL     1      12.708  -8.595   5.259  1.00  0.00    -0.206 F 
ATOM     66  C   UNL     1      12.649 -10.856   8.085  1.00  0.00     0.022 A 
BRANCH  63  67
ATOM     67  S   UNL     1      10.669 -11.716   9.854  1.00  0.00     0.124 S 
ATOM     68  O   UNL     1      10.034 -10.623  10.584  1.00  0.00    -0.237 OA
ATOM     69  O   UNL     1       9.767 -12.717   9.294  1.00  0.00    -0.237 OA
ATOM     70  O   UNL     1      11.882 -12.250  10.469  1.00  0.00    -0.744 OA
ENDBRANCH  63  67
ENDBRANCH  37  60
ENDBRANCH  11  12
ENDBRANCH   4   6
ENDBRANCH   1   2
BRANCH   1  71
ATOM     71  C   UNL     1       5.207   1.144  -2.284  1.00  0.00     0.042 C 
BRANCH  71  72
ATOM     72  C   UNL     1       4.745   2.268  -3.192  1.00  0.00     0.118 C 
BRANCH  72  73
ATOM     73  N   UNL     1       5.180   3.595  -2.764  1.00  0.00    -0.352 N 
ATOM     74  C   UNL     1       5.811   4.609  -3.451  1.00  0.00     0.259 C 
ATOM     75  H   UNL     1       4.989   3.801  -1.820  1.00  0.00     0.163 HD
ATOM     76  O   UNL     1       6.105   5.643  -2.872  1.00  0.00    -0.269 OA
BRANCH  74  77
ATOM     77  C   UNL     1       6.181   4.418  -4.867  1.00  0.00     0.130 A 
ATOM     78  C   UNL     1       7.513   4.557  -5.275  1.00  0.00     0.060 A 
ATOM     79  C   UNL     1       5.236   4.035  -5.828  1.00  0.00     0.282 A 
ATOM     80  C   UNL     1       7.891   4.169  -6.573  1.00  0.00     0.015 A 
ATOM     81  C   UNL     1       5.616   3.608  -7.109  1.00  0.00     0.086 A 
ATOM     82  C   UNL     1       6.957   3.647  -7.467  1.00  0.00     0.008 A 
BRANCH  78  83
ATOM     83  C   UNL     1       8.558   5.187  -4.429  1.00  0.00     0.259 C 
ATOM     84  O   UNL     1       8.826   6.370  -4.604  1.00  0.00    -0.269 OA
BRANCH  83  85
ATOM     85  N   UNL     1       9.271   4.312  -3.654  1.00  0.00    -0.308 N 
ATOM     86  C   UNL     1       9.092   4.122  -2.212  1.00  0.00     0.131 C 
ATOM     87  C   UNL     1      10.459   3.680  -4.037  1.00  0.00     0.047 A 
ATOM     88  C   UNL     1       9.979   2.924  -1.830  1.00  0.00     0.059 C 
ATOM     89  C   UNL     1      10.863   2.803  -3.034  1.00  0.00    -0.022 A 
ATOM     90  C   UNL     1      11.165   3.804  -5.221  1.00  0.00     0.026 A 
ATOM     91  C   UNL     1      11.916   1.930  -3.244  1.00  0.00     0.006 A 
ATOM     92  C   UNL     1      12.242   2.942  -5.435  1.00  0.00     0.002 A 
ATOM     93  C   UNL     1      12.596   1.992  -4.464  1.00  0.00     0.000 A 
ENDBRANCH  83  85
ENDBRANCH  78  83
BRANCH  79  94
ATOM     94  N   UNL     1       3.812   4.117  -5.544  1.00  0.00     0.063 N 
ATOM     95  O   UNL     1       3.114   3.154  -5.888  1.00  0.00    -0.258 OA
ATOM     96  O   UNL     1       3.392   5.151  -5.012  1.00  0.00    -0.258 OA
ENDBRANCH  79  94
ENDBRANCH  74  77
ENDBRANCH  72  73
ENDBRANCH  71  72
ENDBRANCH   1  71
TORSDOF 16
