REMARK SMILES CCOc1ccc(-c2csc3ncn([C@H](C)C(=O)NCCCNC(=O)c4ccc(-c5c6nc(c(-c7cc(S(=O)(=O)[O-])ccc7F)c7ccc([nH]7)c(-c7cc(S(=O)(=O)[O-])ccc7F)c7nc(c(-c8cc(S(=O)(=O)[O-])ccc8F)c8ccc5[nH]8)C=C7)C=C6)cc4)c(=O)c23)cc1
REMARK SMILES IDX 20 1 19 2 17 3 18 4 15 6 16 7 14 8 8 9 9 10 91 11 10 12
REMARK SMILES IDX 11 13 89 14 12 15 90 16 13 17 7 18 4 19 5 20 93 21 6 22
REMARK SMILES IDX 92 23 3 24 2 25 1 26 21 27 22 28 23 29 24 30 25 32 26 33
REMARK SMILES IDX 27 34 88 35 28 36 87 37 29 38 30 39 31 40 81 41 32 42 86 43
REMARK SMILES IDX 80 44 82 45 33 46 85 47 79 48 78 49 34 51 66 52 46 53 65 54
REMARK SMILES IDX 47 55 50 56 64 57 83 58 48 59 49 60 63 62 84 63 51 64 35 65
REMARK SMILES IDX 36 66 44 67 37 68 43 69 45 70 42 71 38 72 39 73 40 74 41 75
REMARK SMILES IDX 67 76 68 77 76 78 69 79 75 80 77 81 74 82 70 83 71 84 72 85
REMARK SMILES IDX 73 86 52 87 53 88 61 89 54 90 60 91 62 92 59 93 55 94 56 95
REMARK SMILES IDX 57 96 58 97
REMARK H PARENT 19 5 23 31 82 50 50 61
REMARK Flexibility Score: inf
ROOT
ATOM      1  C   UNL     1       5.568   4.386   0.616  1.00  0.00     0.117 C 
ENDROOT
BRANCH   1   2
ATOM      2  N   UNL     1       6.499   4.393   1.740  1.00  0.00    -0.354 N 
ATOM      3  C   UNL     1       7.463   5.314   2.064  1.00  0.00     0.242 C 
ATOM      4  O   UNL     1       7.952   5.278   3.193  1.00  0.00    -0.273 OA
ATOM      5  H   UNL     1       6.425   3.626   2.354  1.00  0.00     0.163 HD
BRANCH   3   6
ATOM      6  C   UNL     1       7.891   6.398   1.055  1.00  0.00     0.177 C 
ATOM      7  C   UNL     1       8.415   5.736  -0.234  1.00  0.00     0.042 C 
BRANCH   6   8
ATOM      8  N   UNL     1       6.907   7.473   0.814  1.00  0.00    -0.286 N 
ATOM      9  C   UNL     1       6.215  10.715  -1.012  1.00  0.00     0.007 A 
ATOM     10  C   UNL     1       4.930  11.116  -1.339  1.00  0.00     0.076 A 
ATOM     11  C   UNL     1       6.213   9.430  -0.381  1.00  0.00     0.085 A 
ATOM     12  S   UNL     1       3.745  10.030  -0.766  1.00  0.00    -0.123 S 
ATOM     13  C   UNL     1       4.933   9.053  -0.038  1.00  0.00     0.131 A 
ATOM     14  C   UNL     1       7.306   8.565   0.038  1.00  0.00     0.263 A 
ATOM     15  N   UNL     1       4.595   8.071   0.824  1.00  0.00    -0.227 NA
ATOM     16  O   UNL     1       8.467   8.747  -0.317  1.00  0.00    -0.268 OA
ATOM     17  C   UNL     1       5.599   7.377   1.250  1.00  0.00     0.204 A 
BRANCH   9  18
ATOM     18  C   UNL     1       7.315  11.658  -1.133  1.00  0.00    -0.016 A 
ATOM     19  C   UNL     1       9.383  13.536  -1.228  1.00  0.00     0.119 A 
ATOM     20  C   UNL     1       9.485  12.345  -1.951  1.00  0.00     0.047 A 
ATOM     21  C   UNL     1       8.241  13.804  -0.482  1.00  0.00     0.047 A 
ATOM     22  C   UNL     1       8.452  11.400  -1.901  1.00  0.00     0.012 A 
ATOM     23  C   UNL     1       7.222  12.861  -0.418  1.00  0.00     0.012 A 
BRANCH  19  24
ATOM     24  O   UNL     1      10.372  14.469  -1.366  1.00  0.00    -0.494 OA
BRANCH  24  25
ATOM     25  C   UNL     1      11.096  14.718  -0.153  1.00  0.00     0.226 C 
ATOM     26  C   UNL     1      10.479  15.839   0.671  1.00  0.00     0.049 C 
ENDBRANCH  24  25
ENDBRANCH  19  24
ENDBRANCH   9  18
ENDBRANCH   6   8
ENDBRANCH   3   6
ENDBRANCH   1   2
BRANCH   1  27
ATOM     27  C   UNL     1       5.321   3.009   0.017  1.00  0.00     0.042 C 
BRANCH  27  28
ATOM     28  C   UNL     1       4.362   2.185   0.860  1.00  0.00     0.118 C 
BRANCH  28  29
ATOM     29  N   UNL     1       3.004   2.737   0.883  1.00  0.00    -0.352 N 
ATOM     30  C   UNL     1       1.923   2.270   1.607  1.00  0.00     0.251 C 
ATOM     31  H   UNL     1       2.844   3.529   0.320  1.00  0.00     0.163 HD
ATOM     32  O   UNL     1       0.778   2.599   1.315  1.00  0.00    -0.269 OA
BRANCH  30  33
ATOM     33  C   UNL     1       2.192   1.349   2.722  1.00  0.00     0.039 A 
ATOM     34  C   UNL     1       1.547   0.114   2.806  1.00  0.00     0.014 A 
ATOM     35  C   UNL     1       3.215   1.692   3.604  1.00  0.00     0.014 A 
ATOM     36  C   UNL     1       2.026  -0.828   3.714  1.00  0.00     0.010 A 
ATOM     37  C   UNL     1       3.768   0.717   4.398  1.00  0.00     0.010 A 
ATOM     38  C   UNL     1       3.168  -0.539   4.479  1.00  0.00    -0.014 A 
BRANCH  38  39
ATOM     39  C   UNL     1       3.834  -1.594   5.245  1.00  0.00     0.031 A 
ATOM     40  C   UNL     1       4.175  -2.822   4.470  1.00  0.00     0.074 A 
ATOM     41  C   UNL     1       4.347  -1.409   6.481  1.00  0.00     0.049 A 
ATOM     42  N   UNL     1       3.674  -4.006   4.596  1.00  0.00    -0.248 NA
ATOM     43  C   UNL     1       5.084  -2.690   3.320  1.00  0.00     0.031 C 
ATOM     44  C   UNL     1       4.389  -0.169   7.263  1.00  0.00     0.029 A 
ATOM     45  N   UNL     1       5.064  -2.272   7.253  1.00  0.00    -0.354 N 
ATOM     46  C   UNL     1       4.383  -4.825   3.719  1.00  0.00     0.074 A 
ATOM     47  C   UNL     1       5.065  -3.930   2.824  1.00  0.00     0.031 C 
ATOM     48  C   UNL     1       5.290  -0.292   8.261  1.00  0.00     0.029 A 
ATOM     49  C   UNL     1       5.749  -1.668   8.303  1.00  0.00     0.049 A 
ATOM     50  H   UNL     1       5.095  -3.241   7.083  1.00  0.00     0.167 HD
ATOM     51  C   UNL     1       4.538  -6.158   3.965  1.00  0.00     0.034 A 
ATOM     52  C   UNL     1       6.647  -2.240   9.146  1.00  0.00     0.034 A 
ATOM     53  C   UNL     1       3.604  -6.604   4.979  1.00  0.00     0.049 A 
ATOM     54  C   UNL     1       6.385  -3.699   9.122  1.00  0.00     0.074 A 
ATOM     55  C   UNL     1       2.228  -6.568   5.113  1.00  0.00     0.029 A 
ATOM     56  N   UNL     1       4.084  -6.832   6.251  1.00  0.00    -0.354 N 
ATOM     57  N   UNL     1       5.274  -4.232   9.552  1.00  0.00    -0.248 NA
ATOM     58  C   UNL     1       7.142  -4.521   8.190  1.00  0.00     0.031 C 
ATOM     59  C   UNL     1       2.004  -6.241   6.484  1.00  0.00     0.029 A 
ATOM     60  C   UNL     1       3.243  -6.191   7.126  1.00  0.00     0.049 A 
ATOM     61  H   UNL     1       4.882  -7.358   6.487  1.00  0.00     0.167 HD
ATOM     62  C   UNL     1       4.970  -5.221   8.629  1.00  0.00     0.074 A 
ATOM     63  C   UNL     1       6.211  -5.430   7.884  1.00  0.00     0.031 C 
ATOM     64  C   UNL     1       3.675  -5.570   8.365  1.00  0.00     0.034 A 
BRANCH  51  65
ATOM     65  C   UNL     1       5.757  -6.987   3.593  1.00  0.00     0.023 A 
ATOM     66  C   UNL     1       5.764  -8.335   4.008  1.00  0.00     0.031 A 
ATOM     67  C   UNL     1       6.999  -6.490   3.137  1.00  0.00     0.131 A 
ATOM     68  C   UNL     1       6.963  -9.064   4.098  1.00  0.00     0.055 A 
ATOM     69  C   UNL     1       8.178  -7.244   3.160  1.00  0.00     0.041 A 
ATOM     70  F   UNL     1       7.173  -5.231   2.724  1.00  0.00    -0.206 F 
ATOM     71  C   UNL     1       8.174  -8.525   3.680  1.00  0.00     0.022 A 
BRANCH  68  72
ATOM     72  S   UNL     1       6.933 -10.653   4.966  1.00  0.00     0.124 S 
ATOM     73  O   UNL     1       6.321 -10.277   6.236  1.00  0.00    -0.237 OA
ATOM     74  O   UNL     1       6.117 -11.467   4.072  1.00  0.00    -0.237 OA
ATOM     75  O   UNL     1       8.343 -11.026   5.037  1.00  0.00    -0.744 OA
ENDBRANCH  68  72
ENDBRANCH  51  65
BRANCH  52  76
ATOM     76  C   UNL     1       7.863  -1.618   9.734  1.00  0.00     0.023 A 
ATOM     77  C   UNL     1       8.512  -2.134  10.874  1.00  0.00     0.031 A 
ATOM     78  C   UNL     1       8.548  -0.611   9.016  1.00  0.00     0.131 A 
ATOM     79  C   UNL     1       9.787  -1.647  11.249  1.00  0.00     0.055 A 
ATOM     80  C   UNL     1       9.803  -0.130   9.394  1.00  0.00     0.041 A 
ATOM     81  F   UNL     1       8.056  -0.120   7.867  1.00  0.00    -0.206 F 
ATOM     82  C   UNL     1      10.434  -0.655  10.509  1.00  0.00     0.022 A 
BRANCH  79  83
ATOM     83  S   UNL     1      10.675  -2.379  12.663  1.00  0.00     0.124 S 
ATOM     84  O   UNL     1       9.889  -1.911  13.799  1.00  0.00    -0.237 OA
ATOM     85  O   UNL     1      10.609  -3.806  12.370  1.00  0.00    -0.237 OA
ATOM     86  O   UNL     1      12.014  -1.798  12.562  1.00  0.00    -0.744 OA
ENDBRANCH  79  83
ENDBRANCH  52  76
BRANCH  64  87
ATOM     87  C   UNL     1       2.587  -5.096   9.309  1.00  0.00     0.023 A 
ATOM     88  C   UNL     1       2.316  -3.744   9.624  1.00  0.00     0.031 A 
ATOM     89  C   UNL     1       1.706  -6.069   9.813  1.00  0.00     0.131 A 
ATOM     90  C   UNL     1       1.204  -3.415  10.426  1.00  0.00     0.055 A 
ATOM     91  C   UNL     1       0.595  -5.739  10.587  1.00  0.00     0.041 A 
ATOM     92  F   UNL     1       1.891  -7.369   9.526  1.00  0.00    -0.206 F 
ATOM     93  C   UNL     1       0.343  -4.410  10.902  1.00  0.00     0.022 A 
BRANCH  90  94
ATOM     94  S   UNL     1       0.860  -1.684  10.881  1.00  0.00     0.124 S 
ATOM     95  O   UNL     1       2.155  -1.181  11.323  1.00  0.00    -0.237 OA
ATOM     96  O   UNL     1       0.349  -1.124   9.632  1.00  0.00    -0.237 OA
ATOM     97  O   UNL     1      -0.140  -1.805  11.944  1.00  0.00    -0.744 OA
ENDBRANCH  90  94
ENDBRANCH  64  87
ENDBRANCH  38  39
ENDBRANCH  30  33
ENDBRANCH  28  29
ENDBRANCH  27  28
ENDBRANCH   1  27
TORSDOF 17
