REMARK SMILES O=C(NCCCNC(=O)[C@H](c1ccccc1)N1C(=O)/C(=C\c2ccc(Br)cc2)SC1=S)c1ccc(-c2c3nc(c(-c4cc(S(=O)(=O)[O-])ccc4F)c4ccc([nH]4)c(-c4cc(S(=O)(=O)[O-])ccc4F)c4nc(c(-c5cc(S(=O)(=O)[O-])ccc5F)c5ccc2[nH]5)C=C4)C=C3)cc1
REMARK SMILES IDX 4 1 3 2 1 3 2 4 32 6 33 7 94 8 34 9 93 10 35 11 36 12 37 13
REMARK SMILES IDX 87 14 38 15 92 16 86 17 88 18 39 19 91 20 85 21 84 22 40 24
REMARK SMILES IDX 72 25 52 26 71 27 53 28 56 29 70 30 89 31 54 32 55 33 69 35
REMARK SMILES IDX 90 36 57 37 41 38 42 39 50 40 43 41 49 42 51 43 48 44 44 45
REMARK SMILES IDX 45 46 46 47 47 48 73 49 74 50 82 51 75 52 81 53 83 54 80 55
REMARK SMILES IDX 76 56 77 57 78 58 79 59 58 60 59 61 67 62 60 63 66 64 68 65
REMARK SMILES IDX 65 66 61 67 62 68 63 69 64 70 5 71 6 72 7 73 8 74 9 76 10 77
REMARK SMILES IDX 17 78 18 79 30 80 19 81 20 82 29 83 31 84 21 85 22 86 23 87
REMARK SMILES IDX 28 88 24 89 27 90 25 91 26 92 11 93 12 94 16 95 13 96 15 97
REMARK SMILES IDX 14 98
REMARK H PARENT 3 5 88 23 56 34 7 75
REMARK Flexibility Score: inf
ROOT
ATOM      1  C   UNL     1       4.978   3.884  -0.641  1.00  0.00     0.118 C 
ENDROOT
BRANCH   1   2
ATOM      2  N   UNL     1       5.041   2.527  -1.172  1.00  0.00    -0.352 N 
ATOM      3  O   UNL     1       4.356   0.700  -2.294  1.00  0.00    -0.269 OA
ATOM      4  C   UNL     1       4.274   1.915  -2.136  1.00  0.00     0.251 C 
ATOM      5  H   UNL     1       5.744   1.961  -0.780  1.00  0.00     0.163 HD
BRANCH   4   6
ATOM      6  C   UNL     1       3.341   2.712  -2.961  1.00  0.00     0.039 A 
ATOM      7  C   UNL     1       3.713   3.972  -3.429  1.00  0.00     0.014 A 
ATOM      8  C   UNL     1       2.090   2.188  -3.299  1.00  0.00     0.014 A 
ATOM      9  C   UNL     1       2.784   4.780  -4.063  1.00  0.00     0.010 A 
ATOM     10  C   UNL     1       1.200   2.952  -4.061  1.00  0.00     0.010 A 
ATOM     11  C   UNL     1       1.534   4.263  -4.431  1.00  0.00    -0.014 A 
BRANCH  11  12
ATOM     12  C   UNL     1       0.661   5.078  -5.313  1.00  0.00     0.031 A 
ATOM     13  C   UNL     1      -0.700   5.527  -4.866  1.00  0.00     0.074 A 
ATOM     14  C   UNL     1       1.136   5.418  -6.529  1.00  0.00     0.049 A 
ATOM     15  N   UNL     1      -1.593   6.215  -5.529  1.00  0.00    -0.248 NA
ATOM     16  C   UNL     1      -1.120   5.151  -3.508  1.00  0.00     0.031 C 
ATOM     17  C   UNL     1       2.448   5.024  -7.058  1.00  0.00     0.029 A 
ATOM     18  N   UNL     1       0.594   6.173  -7.534  1.00  0.00    -0.354 N 
ATOM     19  C   UNL     1      -2.693   6.329  -4.686  1.00  0.00     0.074 A 
ATOM     20  C   UNL     1      -2.357   5.629  -3.463  1.00  0.00     0.031 C 
ATOM     21  C   UNL     1       2.623   5.574  -8.266  1.00  0.00     0.029 A 
ATOM     22  C   UNL     1       1.405   6.276  -8.642  1.00  0.00     0.049 A 
ATOM     23  H   UNL     1      -0.290   6.602  -7.471  1.00  0.00     0.167 HD
ATOM     24  C   UNL     1      -3.870   6.957  -4.923  1.00  0.00     0.034 A 
ATOM     25  C   UNL     1       1.178   6.826  -9.849  1.00  0.00     0.034 A 
ATOM     26  C   UNL     1      -4.166   7.667  -6.145  1.00  0.00     0.049 A 
ATOM     27  C   UNL     1      -0.154   7.476 -10.093  1.00  0.00     0.074 A 
ATOM     28  C   UNL     1      -5.290   8.412  -6.456  1.00  0.00     0.029 A 
ATOM     29  N   UNL     1      -3.345   7.702  -7.265  1.00  0.00    -0.354 N 
ATOM     30  N   UNL     1      -1.165   7.612  -9.266  1.00  0.00    -0.248 NA
ATOM     31  C   UNL     1      -0.383   8.034 -11.429  1.00  0.00     0.031 C 
ATOM     32  C   UNL     1      -5.181   8.835  -7.786  1.00  0.00     0.029 A 
ATOM     33  C   UNL     1      -3.959   8.412  -8.284  1.00  0.00     0.049 A 
ATOM     34  H   UNL     1      -2.455   7.285  -7.325  1.00  0.00     0.167 HD
ATOM     35  C   UNL     1      -2.151   8.277  -9.984  1.00  0.00     0.074 A 
ATOM     36  C   UNL     1      -1.601   8.539 -11.300  1.00  0.00     0.031 C 
ATOM     37  C   UNL     1      -3.401   8.634  -9.597  1.00  0.00     0.034 A 
BRANCH  24  38
ATOM     38  C   UNL     1      -4.947   6.866  -3.871  1.00  0.00     0.023 A 
ATOM     39  C   UNL     1      -4.825   7.487  -2.617  1.00  0.00     0.031 A 
ATOM     40  C   UNL     1      -6.130   6.155  -4.143  1.00  0.00     0.131 A 
ATOM     41  C   UNL     1      -5.849   7.350  -1.666  1.00  0.00     0.055 A 
ATOM     42  C   UNL     1      -7.172   6.074  -3.217  1.00  0.00     0.041 A 
ATOM     43  F   UNL     1      -6.292   5.524  -5.316  1.00  0.00    -0.206 F 
ATOM     44  C   UNL     1      -7.031   6.667  -1.966  1.00  0.00     0.022 A 
BRANCH  41  45
ATOM     45  S   UNL     1      -5.576   7.995   0.007  1.00  0.00     0.124 S 
ATOM     46  O   UNL     1      -4.393   7.245   0.425  1.00  0.00    -0.237 OA
ATOM     47  O   UNL     1      -5.376   9.420  -0.232  1.00  0.00    -0.237 OA
ATOM     48  O   UNL     1      -6.806   7.648   0.715  1.00  0.00    -0.744 OA
ENDBRANCH  41  45
ENDBRANCH  24  38
BRANCH  25  49
ATOM     49  C   UNL     1       2.196   6.711 -10.930  1.00  0.00     0.023 A 
ATOM     50  C   UNL     1       2.799   7.847 -11.488  1.00  0.00     0.031 A 
ATOM     51  C   UNL     1       2.562   5.451 -11.442  1.00  0.00     0.131 A 
ATOM     52  C   UNL     1       3.708   7.704 -12.548  1.00  0.00     0.055 A 
ATOM     53  C   UNL     1       3.510   5.311 -12.455  1.00  0.00     0.041 A 
ATOM     54  F   UNL     1       2.016   4.330 -10.943  1.00  0.00    -0.206 F 
ATOM     55  C   UNL     1       4.078   6.444 -13.025  1.00  0.00     0.022 A 
BRANCH  52  56
ATOM     56  S   UNL     1       4.328   9.200 -13.365  1.00  0.00     0.124 S 
ATOM     57  O   UNL     1       3.089   9.882 -13.721  1.00  0.00    -0.237 OA
ATOM     58  O   UNL     1       5.118   9.816 -12.303  1.00  0.00    -0.237 OA
ATOM     59  O   UNL     1       5.099   8.677 -14.491  1.00  0.00    -0.744 OA
ENDBRANCH  52  56
ENDBRANCH  25  49
BRANCH  37  60
ATOM     60  C   UNL     1      -4.238   9.356 -10.618  1.00  0.00     0.023 A 
ATOM     61  C   UNL     1      -4.728   8.693 -11.756  1.00  0.00     0.031 A 
ATOM     62  C   UNL     1      -4.528  10.722 -10.463  1.00  0.00     0.131 A 
ATOM     63  C   UNL     1      -5.444   9.411 -12.724  1.00  0.00     0.055 A 
ATOM     64  C   UNL     1      -5.288  11.418 -11.402  1.00  0.00     0.041 A 
ATOM     65  F   UNL     1      -4.078  11.399  -9.395  1.00  0.00    -0.206 F 
ATOM     66  C   UNL     1      -5.742  10.765 -12.546  1.00  0.00     0.022 A 
BRANCH  63  67
ATOM     67  S   UNL     1      -5.923   8.568 -14.256  1.00  0.00     0.124 S 
ATOM     68  O   UNL     1      -4.625   8.235 -14.835  1.00  0.00    -0.237 OA
ATOM     69  O   UNL     1      -6.708   7.441 -13.762  1.00  0.00    -0.237 OA
ATOM     70  O   UNL     1      -6.684   9.582 -14.982  1.00  0.00    -0.744 OA
ENDBRANCH  63  67
ENDBRANCH  37  60
ENDBRANCH  11  12
ENDBRANCH   4   6
ENDBRANCH   1   2
BRANCH   1  71
ATOM     71  C   UNL     1       4.310   3.944   0.720  1.00  0.00     0.042 C 
BRANCH  71  72
ATOM     72  C   UNL     1       5.141   3.309   1.812  1.00  0.00     0.117 C 
BRANCH  72  73
ATOM     73  N   UNL     1       6.389   4.005   2.060  1.00  0.00    -0.354 N 
ATOM     74  C   UNL     1       7.026   4.234   3.247  1.00  0.00     0.247 C 
ATOM     75  H   UNL     1       6.841   4.362   1.261  1.00  0.00     0.163 HD
ATOM     76  O   UNL     1       8.232   4.499   3.194  1.00  0.00    -0.272 OA
BRANCH  74  77
ATOM     77  C   UNL     1       6.301   4.047   4.620  1.00  0.00     0.211 C 
BRANCH  77  78
ATOM     78  N   UNL     1       5.035   4.833   4.615  1.00  0.00    -0.276 N 
ATOM     79  C   UNL     1       3.817   4.342   5.021  1.00  0.00     0.267 C 
ATOM     80  C   UNL     1       5.038   6.216   4.466  1.00  0.00     0.149 C 
ATOM     81  O   UNL     1       3.636   3.364   5.738  1.00  0.00    -0.268 OA
ATOM     82  C   UNL     1       2.718   5.268   4.623  1.00  0.00     0.081 C 
ATOM     83  S   UNL     1       3.389   6.832   4.391  1.00  0.00    -0.054 SA
ATOM     84  S   UNL     1       6.330   7.272   4.368  1.00  0.00    -0.052 S 
ATOM     85  C   UNL     1       1.431   4.988   4.365  1.00  0.00     0.029 C 
BRANCH  85  86
ATOM     86  C   UNL     1       0.828   3.652   4.359  1.00  0.00    -0.024 A 
ATOM     87  C   UNL     1       0.250   3.177   3.174  1.00  0.00     0.009 A 
ATOM     88  C   UNL     1       0.808   2.842   5.498  1.00  0.00     0.009 A 
ATOM     89  C   UNL     1      -0.278   1.884   3.112  1.00  0.00     0.016 A 
ATOM     90  C   UNL     1       0.297   1.544   5.435  1.00  0.00     0.016 A 
ATOM     91  C   UNL     1      -0.234   1.067   4.239  1.00  0.00     0.018 A 
ATOM     92  Br  UNL     1      -0.888  -0.704   4.147  1.00  0.00    -0.051 Br
ENDBRANCH  85  86
ENDBRANCH  77  78
BRANCH  77  93
ATOM     93  C   UNL     1       6.383   2.543   4.937  1.00  0.00    -0.016 A 
ATOM     94  C   UNL     1       5.445   1.569   4.558  1.00  0.00     0.006 A 
ATOM     95  C   UNL     1       7.607   2.073   5.462  1.00  0.00     0.006 A 
ATOM     96  C   UNL     1       5.715   0.201   4.677  1.00  0.00     0.000 A 
ATOM     97  C   UNL     1       7.881   0.707   5.580  1.00  0.00     0.000 A 
ATOM     98  C   UNL     1       6.937  -0.230   5.179  1.00  0.00     0.000 A 
ENDBRANCH  77  93
ENDBRANCH  74  77
ENDBRANCH  72  73
ENDBRANCH  71  72
ENDBRANCH   1  71
TORSDOF 16
