REMARK SMILES CCC1(C(=O)N[C@H]2C=C[C@H](C(=O)NCCCNC(=O)c3ccc(-c4c5nc(c(-c6cc(S(=O)(=O)[O-])ccc6F)c6ccc([nH]6)c(-c6cc(S(=O)(=O)[O-])ccc6F)c6nc(c(-c7cc(S(=O)(=O)[O-])ccc7F)c7ccc4[nH]7)C=C6)C=C5)cc3)C2)CC[NH2+]CC1
REMARK SMILES IDX 15 1 14 2 13 3 11 4 12 5 10 7 7 8 8 9 83 10 9 11 6 12 4 13
REMARK SMILES IDX 5 14 3 16 84 17 88 18 85 19 87 20 86 21 2 24 1 25 16 26
REMARK SMILES IDX 17 27 18 28 19 30 20 31 21 32 82 33 22 34 81 35 23 36 24 37
REMARK SMILES IDX 25 38 75 39 26 40 80 41 74 42 76 43 27 44 79 45 73 46 72 47
REMARK SMILES IDX 28 49 60 50 40 51 59 52 41 53 44 54 58 55 77 56 42 57 43 58
REMARK SMILES IDX 57 60 78 61 45 62 29 63 30 64 38 65 31 66 37 67 39 68 36 69
REMARK SMILES IDX 32 70 33 71 34 72 35 73 61 74 62 75 70 76 63 77 69 78 71 79
REMARK SMILES IDX 68 80 64 81 65 82 66 83 67 84 46 85 47 86 55 87 48 88 54 89
REMARK SMILES IDX 56 90 53 91 49 92 50 93 51 94 52 95
REMARK H PARENT 13 6 6 15 86 22 86 23 17 29 76 48 44 59
REMARK Flexibility Score: inf
ROOT
ATOM      1  C   UNL     1       4.237   7.643  -0.669  1.00  0.00     0.042 C 
ENDROOT
BRANCH   1   2
ATOM      2  C   UNL     1       2.855   7.055  -0.872  1.00  0.00     0.117 C 
BRANCH   2   3
ATOM      3  N   UNL     1       2.008   7.849  -1.738  1.00  0.00    -0.356 N 
ATOM      4  C   UNL     1       1.498   7.622  -2.978  1.00  0.00     0.227 C 
ATOM      5  O   UNL     1       0.785   8.519  -3.448  1.00  0.00    -0.274 OA
ATOM      6  H   UNL     1       1.754   8.720  -1.357  1.00  0.00     0.163 HD
BRANCH   4   7
ATOM      7  C   UNL     1       1.686   6.317  -3.775  1.00  0.00     0.103 C 
ATOM      8  C   UNL     1       1.945   4.240  -2.509  1.00  0.00     0.106 C 
ATOM      9  C   UNL     1       3.203   4.607  -3.242  1.00  0.00    -0.006 C 
ATOM     10  C   UNL     1       0.903   5.128  -3.203  1.00  0.00     0.047 C 
ATOM     11  C   UNL     1       3.073   5.770  -3.897  1.00  0.00    -0.016 C 
BRANCH   8  12
ATOM     12  N   UNL     1       1.744   2.817  -2.591  1.00  0.00    -0.349 N 
ATOM     13  C   UNL     1       1.332   1.903  -1.661  1.00  0.00     0.227 C 
ATOM     14  O   UNL     1       1.404   0.730  -2.037  1.00  0.00    -0.274 OA
ATOM     15  H   UNL     1       1.937   2.432  -3.476  1.00  0.00     0.164 HD
BRANCH  13  16
ATOM     16  C   UNL     1       0.787   2.288  -0.242  1.00  0.00     0.060 C 
ATOM     17  C   UNL     1       1.903   2.934   0.636  1.00  0.00     0.078 C 
ATOM     18  C   UNL     1      -0.419   3.244  -0.456  1.00  0.00     0.078 C 
ATOM     19  C   UNL     1       1.376   3.856   1.743  1.00  0.00     0.261 C 
ATOM     20  C   UNL     1      -0.787   4.091   0.750  1.00  0.00     0.261 C 
ATOM     21  N   UNL     1       0.387   4.807   1.238  1.00  0.00    -0.346 N 
ATOM     22  H   UNL     1       0.796   5.345   0.474  1.00  0.00     0.346 HD
ATOM     23  H   UNL     1       0.109   5.434   1.992  1.00  0.00     0.346 HD
BRANCH  16  24
ATOM     24  C   UNL     1       0.212   1.062   0.564  1.00  0.00     0.014 C 
ATOM     25  C   UNL     1       0.939  -0.275   0.482  1.00  0.00     0.005 C 
ENDBRANCH  16  24
ENDBRANCH  13  16
ENDBRANCH   8  12
ENDBRANCH   4   7
ENDBRANCH   2   3
ENDBRANCH   1   2
BRANCH   1  26
ATOM     26  C   UNL     1       4.243   8.822   0.284  1.00  0.00     0.118 C 
BRANCH  26  27
ATOM     27  N   UNL     1       3.876   8.438   1.643  1.00  0.00    -0.352 N 
ATOM     28  C   UNL     1       4.620   8.436   2.798  1.00  0.00     0.251 C 
ATOM     29  H   UNL     1       2.947   8.132   1.750  1.00  0.00     0.163 HD
ATOM     30  O   UNL     1       4.178   7.868   3.796  1.00  0.00    -0.269 OA
BRANCH  28  31
ATOM     31  C   UNL     1       5.951   9.082   2.832  1.00  0.00     0.039 A 
ATOM     32  C   UNL     1       6.986   8.477   3.548  1.00  0.00     0.014 A 
ATOM     33  C   UNL     1       6.182  10.280   2.155  1.00  0.00     0.014 A 
ATOM     34  C   UNL     1       8.268   9.033   3.513  1.00  0.00     0.010 A 
ATOM     35  C   UNL     1       7.478  10.765   2.025  1.00  0.00     0.010 A 
ATOM     36  C   UNL     1       8.536  10.154   2.711  1.00  0.00    -0.014 A 
BRANCH  36  37
ATOM     37  C   UNL     1       9.904  10.724   2.593  1.00  0.00     0.031 A 
ATOM     38  C   UNL     1      10.158  12.148   3.014  1.00  0.00     0.074 A 
ATOM     39  C   UNL     1      10.895   9.987   2.052  1.00  0.00     0.049 A 
ATOM     40  N   UNL     1      11.246  12.865   2.895  1.00  0.00    -0.248 NA
ATOM     41  C   UNL     1       9.028  12.873   3.619  1.00  0.00     0.031 C 
ATOM     42  C   UNL     1      10.762   8.608   1.574  1.00  0.00     0.029 A 
ATOM     43  N   UNL     1      12.210  10.294   1.805  1.00  0.00    -0.354 N 
ATOM     44  C   UNL     1      10.929  14.122   3.400  1.00  0.00     0.074 A 
ATOM     45  C   UNL     1       9.527  14.091   3.755  1.00  0.00     0.031 C 
ATOM     46  C   UNL     1      11.952   8.180   1.124  1.00  0.00     0.029 A 
ATOM     47  C   UNL     1      12.921   9.267   1.225  1.00  0.00     0.049 A 
ATOM     48  H   UNL     1      12.608  11.167   2.022  1.00  0.00     0.167 HD
ATOM     49  C   UNL     1      11.739  15.193   3.582  1.00  0.00     0.034 A 
ATOM     50  C   UNL     1      14.202   9.213   0.809  1.00  0.00     0.034 A 
ATOM     51  C   UNL     1      13.139  15.204   3.240  1.00  0.00     0.049 A 
ATOM     52  C   UNL     1      15.071  10.436   0.984  1.00  0.00     0.074 A 
ATOM     53  C   UNL     1      14.060  16.222   3.413  1.00  0.00     0.029 A 
ATOM     54  N   UNL     1      13.822  14.146   2.655  1.00  0.00    -0.354 N 
ATOM     55  N   UNL     1      14.762  11.604   1.500  1.00  0.00    -0.248 NA
ATOM     56  C   UNL     1      16.464  10.330   0.531  1.00  0.00     0.031 C 
ATOM     57  C   UNL     1      15.281  15.805   2.874  1.00  0.00     0.029 A 
ATOM     58  C   UNL     1      15.145  14.496   2.438  1.00  0.00     0.049 A 
ATOM     59  H   UNL     1      13.425  13.274   2.427  1.00  0.00     0.167 HD
ATOM     60  C   UNL     1      15.936  12.353   1.471  1.00  0.00     0.074 A 
ATOM     61  C   UNL     1      16.959  11.500   0.903  1.00  0.00     0.031 C 
ATOM     62  C   UNL     1      16.153  13.630   1.876  1.00  0.00     0.034 A 
BRANCH  49  63
ATOM     63  C   UNL     1      11.125  16.441   4.169  1.00  0.00     0.023 A 
ATOM     64  C   UNL     1      10.592  16.456   5.470  1.00  0.00     0.031 A 
ATOM     65  C   UNL     1      11.068  17.630   3.421  1.00  0.00     0.131 A 
ATOM     66  C   UNL     1       9.971  17.614   5.960  1.00  0.00     0.055 A 
ATOM     67  C   UNL     1      10.521  18.803   3.945  1.00  0.00     0.041 A 
ATOM     68  F   UNL     1      11.539  17.671   2.165  1.00  0.00    -0.206 F 
ATOM     69  C   UNL     1       9.956  18.796   5.217  1.00  0.00     0.022 A 
BRANCH  66  70
ATOM     70  S   UNL     1       9.071  17.515   7.531  1.00  0.00     0.124 S 
ATOM     71  O   UNL     1       8.059  16.506   7.227  1.00  0.00    -0.237 OA
ATOM     72  O   UNL     1      10.113  17.112   8.468  1.00  0.00    -0.237 OA
ATOM     73  O   UNL     1       8.555  18.869   7.716  1.00  0.00    -0.744 OA
ENDBRANCH  66  70
ENDBRANCH  49  63
BRANCH  50  74
ATOM     74  C   UNL     1      14.754   7.979   0.176  1.00  0.00     0.023 A 
ATOM     75  C   UNL     1      15.840   7.299   0.750  1.00  0.00     0.031 A 
ATOM     76  C   UNL     1      14.262   7.507  -1.054  1.00  0.00     0.131 A 
ATOM     77  C   UNL     1      16.445   6.236   0.063  1.00  0.00     0.055 A 
ATOM     78  C   UNL     1      14.824   6.404  -1.701  1.00  0.00     0.041 A 
ATOM     79  F   UNL     1      13.224   8.116  -1.651  1.00  0.00    -0.206 F 
ATOM     80  C   UNL     1      15.936   5.774  -1.152  1.00  0.00     0.022 A 
BRANCH  77  81
ATOM     81  S   UNL     1      17.994   5.553   0.717  1.00  0.00     0.124 S 
ATOM     82  O   UNL     1      18.829   6.746   0.803  1.00  0.00    -0.237 OA
ATOM     83  O   UNL     1      17.559   4.980   1.986  1.00  0.00    -0.237 OA
ATOM     84  O   UNL     1      18.394   4.583  -0.301  1.00  0.00    -0.744 OA
ENDBRANCH  77  81
ENDBRANCH  50  74
BRANCH  62  85
ATOM     85  C   UNL     1      17.565  14.153   1.776  1.00  0.00     0.023 A 
ATOM     86  C   UNL     1      18.200  14.345   0.537  1.00  0.00     0.031 A 
ATOM     87  C   UNL     1      18.288  14.456   2.944  1.00  0.00     0.131 A 
ATOM     88  C   UNL     1      19.537  14.767   0.496  1.00  0.00     0.055 A 
ATOM     89  C   UNL     1      19.596  14.940   2.895  1.00  0.00     0.041 A 
ATOM     90  F   UNL     1      17.732  14.290   4.155  1.00  0.00    -0.206 F 
ATOM     91  C   UNL     1      20.232  15.084   1.666  1.00  0.00     0.022 A 
BRANCH  88  92
ATOM     92  S   UNL     1      20.388  14.804  -1.105  1.00  0.00     0.124 S 
ATOM     93  O   UNL     1      20.263  13.419  -1.547  1.00  0.00    -0.237 OA
ATOM     94  O   UNL     1      19.607  15.784  -1.852  1.00  0.00    -0.237 OA
ATOM     95  O   UNL     1      21.745  15.226  -0.762  1.00  0.00    -0.744 OA
ENDBRANCH  88  92
ENDBRANCH  62  85
ENDBRANCH  36  37
ENDBRANCH  28  31
ENDBRANCH  26  27
ENDBRANCH   1  26
TORSDOF 16
