REMARK SMILES CO[C@H]1CN(C(=O)c2cn(C(C)C)cc(C(=O)NCCCNC(=O)c3ccc(-c4c5nc(c(-c6cc(S(=O)(=O)[O-])ccc6F)c6ccc([nH]6)c(-c6cc(S(=O)(=O)[O-])ccc6F)c6nc(c(-c7cc(S(=O)(=O)[O-])ccc7F)c7ccc4[nH]7)C=C6)C=C5)cc3)c2=O)CC[C@H]1[NH3+]
REMARK SMILES IDX 20 1 19 2 18 3 16 4 17 5 15 7 8 8 9 9 88 10 10 11 89 12
REMARK SMILES IDX 14 13 6 14 7 15 5 16 3 17 4 18 92 19 91 20 90 21 2 22 1 23
REMARK SMILES IDX 93 24 11 28 12 29 13 30 21 31 22 32 23 33 24 35 25 36 26 37
REMARK SMILES IDX 87 38 27 39 86 40 28 41 29 42 30 43 80 44 31 45 85 46 79 47
REMARK SMILES IDX 81 48 32 49 84 50 78 51 77 52 33 54 65 55 45 56 64 57 46 58
REMARK SMILES IDX 49 59 63 60 82 61 47 62 48 63 62 65 83 66 50 67 34 68 35 69
REMARK SMILES IDX 43 70 36 71 42 72 44 73 41 74 37 75 38 76 39 77 40 78 66 79
REMARK SMILES IDX 67 80 75 81 68 82 74 83 76 84 73 85 69 86 70 87 71 88 72 89
REMARK SMILES IDX 51 90 52 91 60 92 53 93 59 94 61 95 58 96 54 97 55 98 56 99
REMARK SMILES IDX 57 100
REMARK H PARENT 18 6 93 25 93 26 93 27 22 34 81 53 49 64
REMARK Flexibility Score: inf
ROOT
ATOM      1  C   UNL     1       0.418   4.881  -4.887  1.00  0.00     0.042 C 
ENDROOT
BRANCH   1   2
ATOM      2  C   UNL     1       1.345   4.398  -3.775  1.00  0.00     0.118 C 
BRANCH   2   3
ATOM      3  N   UNL     1       1.354   5.321  -2.651  1.00  0.00    -0.352 N 
ATOM      4  C   UNL     1       0.684   5.346  -1.470  1.00  0.00     0.256 C 
ATOM      5  O   UNL     1       0.942   6.295  -0.721  1.00  0.00    -0.269 OA
ATOM      6  H   UNL     1       1.969   6.080  -2.771  1.00  0.00     0.163 HD
BRANCH   4   7
ATOM      7  C   UNL     1      -0.234   4.268  -1.012  1.00  0.00     0.104 A 
ATOM      8  C   UNL     1      -1.635   2.154  -1.146  1.00  0.00     0.104 A 
ATOM      9  C   UNL     1      -1.713   2.184   0.191  1.00  0.00     0.103 A 
ATOM     10  C   UNL     1      -1.046   3.328  -1.833  1.00  0.00     0.207 A 
ATOM     11  N   UNL     1      -1.171   3.196   0.975  1.00  0.00    -0.350 N 
ATOM     12  O   UNL     1      -1.249   3.487  -3.030  1.00  0.00    -0.288 OA
ATOM     13  C   UNL     1      -0.395   4.155   0.322  1.00  0.00     0.103 A 
BRANCH   8  14
ATOM     14  C   UNL     1      -2.159   0.976  -1.867  1.00  0.00     0.259 C 
ATOM     15  O   UNL     1      -3.328   0.633  -1.698  1.00  0.00    -0.269 OA
BRANCH  14  16
ATOM     16  N   UNL     1      -1.257   0.252  -2.637  1.00  0.00    -0.335 N 
ATOM     17  C   UNL     1       0.882  -0.872  -2.108  1.00  0.00     0.195 C 
ATOM     18  C   UNL     1       0.203   0.409  -2.630  1.00  0.00     0.158 C 
ATOM     19  C   UNL     1       0.412  -2.114  -2.928  1.00  0.00     0.213 C 
ATOM     20  C   UNL     1      -1.126  -2.172  -2.966  1.00  0.00     0.089 C 
ATOM     21  C   UNL     1      -1.744  -0.861  -3.445  1.00  0.00     0.126 C 
BRANCH  17  22
ATOM     22  O   UNL     1       2.314  -0.793  -2.135  1.00  0.00    -0.373 OA
ATOM     23  C   UNL     1       2.868   0.124  -1.204  1.00  0.00     0.195 C 
ENDBRANCH  17  22
BRANCH  19  24
ATOM     24  N   UNL     1       0.975  -2.179  -4.288  1.00  0.00    -0.353 N 
ATOM     25  H   UNL     1       0.647  -1.379  -4.830  1.00  0.00     0.344 HD
ATOM     26  H   UNL     1       0.673  -3.042  -4.740  1.00  0.00     0.344 HD
ATOM     27  H   UNL     1       1.993  -2.160  -4.236  1.00  0.00     0.344 HD
ENDBRANCH  19  24
ENDBRANCH  14  16
ENDBRANCH   8  14
BRANCH  11  28
ATOM     28  C   UNL     1      -1.408   3.283   2.437  1.00  0.00     0.080 C 
ATOM     29  C   UNL     1      -2.889   3.536   2.721  1.00  0.00     0.031 C 
ATOM     30  C   UNL     1      -0.895   2.037   3.157  1.00  0.00     0.031 C 
ENDBRANCH  11  28
ENDBRANCH   4   7
ENDBRANCH   2   3
ENDBRANCH   1   2
BRANCH   1  31
ATOM     31  C   UNL     1       0.976   6.056  -5.677  1.00  0.00     0.118 C 
BRANCH  31  32
ATOM     32  N   UNL     1       2.027   5.656  -6.604  1.00  0.00    -0.352 N 
ATOM     33  C   UNL     1       2.044   5.692  -7.980  1.00  0.00     0.251 C 
ATOM     34  H   UNL     1       2.846   5.308  -6.184  1.00  0.00     0.163 HD
ATOM     35  O   UNL     1       2.949   5.122  -8.585  1.00  0.00    -0.269 OA
BRANCH  33  36
ATOM     36  C   UNL     1       0.968   6.385  -8.725  1.00  0.00     0.039 A 
ATOM     37  C   UNL     1       0.489   7.626  -8.303  1.00  0.00     0.014 A 
ATOM     38  C   UNL     1       0.428   5.782  -9.865  1.00  0.00     0.014 A 
ATOM     39  C   UNL     1      -0.638   8.175  -8.908  1.00  0.00     0.010 A 
ATOM     40  C   UNL     1      -0.647   6.382 -10.529  1.00  0.00     0.010 A 
ATOM     41  C   UNL     1      -1.223   7.559 -10.026  1.00  0.00    -0.014 A 
BRANCH  41  42
ATOM     42  C   UNL     1      -2.423   8.171 -10.656  1.00  0.00     0.031 A 
ATOM     43  C   UNL     1      -3.745   7.452 -10.660  1.00  0.00     0.074 A 
ATOM     44  C   UNL     1      -2.327   9.405 -11.189  1.00  0.00     0.049 A 
ATOM     45  N   UNL     1      -4.896   7.850 -11.139  1.00  0.00    -0.248 NA
ATOM     46  C   UNL     1      -3.784   6.111 -10.054  1.00  0.00     0.031 C 
ATOM     47  C   UNL     1      -1.097  10.195 -11.241  1.00  0.00     0.029 A 
ATOM     48  N   UNL     1      -3.270  10.220 -11.765  1.00  0.00    -0.354 N 
ATOM     49  C   UNL     1      -5.788   6.808 -10.911  1.00  0.00     0.074 A 
ATOM     50  C   UNL     1      -5.038   5.745 -10.280  1.00  0.00     0.031 C 
ATOM     51  C   UNL     1      -1.369  11.397 -11.767  1.00  0.00     0.029 A 
ATOM     52  C   UNL     1      -2.775  11.442 -12.159  1.00  0.00     0.049 A 
ATOM     53  H   UNL     1      -4.210   9.954 -11.886  1.00  0.00     0.167 HD
ATOM     54  C   UNL     1      -7.113   6.754 -11.188  1.00  0.00     0.034 A 
ATOM     55  C   UNL     1      -3.375  12.480 -12.776  1.00  0.00     0.034 A 
ATOM     56  C   UNL     1      -7.852   7.835 -11.789  1.00  0.00     0.049 A 
ATOM     57  C   UNL     1      -4.845  12.386 -13.093  1.00  0.00     0.074 A 
ATOM     58  C   UNL     1      -9.207   7.891 -12.065  1.00  0.00     0.029 A 
ATOM     59  N   UNL     1      -7.311   9.043 -12.204  1.00  0.00    -0.354 N 
ATOM     60  N   UNL     1      -5.684  11.414 -12.822  1.00  0.00    -0.248 NA
ATOM     61  C   UNL     1      -5.453  13.522 -13.799  1.00  0.00     0.031 C 
ATOM     62  C   UNL     1      -9.474   9.104 -12.700  1.00  0.00     0.029 A 
ATOM     63  C   UNL     1      -8.300   9.838 -12.762  1.00  0.00     0.049 A 
ATOM     64  H   UNL     1      -6.364   9.299 -12.115  1.00  0.00     0.167 HD
ATOM     65  C   UNL     1      -6.919  11.824 -13.313  1.00  0.00     0.074 A 
ATOM     66  C   UNL     1      -6.725  13.147 -13.870  1.00  0.00     0.031 C 
ATOM     67  C   UNL     1      -8.102  11.159 -13.310  1.00  0.00     0.034 A 
BRANCH  54  68
ATOM     68  C   UNL     1      -7.877   5.500 -10.839  1.00  0.00     0.023 A 
ATOM     69  C   UNL     1      -8.475   4.734 -11.859  1.00  0.00     0.031 A 
ATOM     70  C   UNL     1      -8.126   5.139  -9.504  1.00  0.00     0.131 A 
ATOM     71  C   UNL     1      -9.318   3.667 -11.525  1.00  0.00     0.055 A 
ATOM     72  C   UNL     1      -8.936   4.050  -9.177  1.00  0.00     0.041 A 
ATOM     73  F   UNL     1      -7.581   5.839  -8.495  1.00  0.00    -0.206 F 
ATOM     74  C   UNL     1      -9.547   3.316 -10.191  1.00  0.00     0.022 A 
BRANCH  71  75
ATOM     75  S   UNL     1     -10.201   2.731 -12.804  1.00  0.00     0.124 S 
ATOM     76  O   UNL     1      -9.708   1.375 -12.578  1.00  0.00    -0.237 OA
ATOM     77  O   UNL     1     -11.597   2.956 -12.438  1.00  0.00    -0.237 OA
ATOM     78  O   UNL     1      -9.769   3.348 -14.053  1.00  0.00    -0.744 OA
ENDBRANCH  71  75
ENDBRANCH  54  68
BRANCH  55  79
ATOM     79  C   UNL     1      -2.571  13.699 -13.085  1.00  0.00     0.023 A 
ATOM     80  C   UNL     1      -1.446  13.626 -13.929  1.00  0.00     0.031 A 
ATOM     81  C   UNL     1      -2.834  14.918 -12.441  1.00  0.00     0.131 A 
ATOM     82  C   UNL     1      -0.581  14.721 -14.035  1.00  0.00     0.055 A 
ATOM     83  C   UNL     1      -2.010  16.033 -12.611  1.00  0.00     0.041 A 
ATOM     84  F   UNL     1      -3.888  15.036 -11.618  1.00  0.00    -0.206 F 
ATOM     85  C   UNL     1      -0.865  15.931 -13.394  1.00  0.00     0.022 A 
BRANCH  82  86
ATOM     86  S   UNL     1       1.019  14.562 -14.878  1.00  0.00     0.124 S 
ATOM     87  O   UNL     1       0.899  15.548 -15.947  1.00  0.00    -0.237 OA
ATOM     88  O   UNL     1       1.954  14.901 -13.808  1.00  0.00    -0.237 OA
ATOM     89  O   UNL     1       1.046  13.167 -15.304  1.00  0.00    -0.744 OA
ENDBRANCH  82  86
ENDBRANCH  55  79
BRANCH  67  90
ATOM     90  C   UNL     1      -9.304  11.823 -13.936  1.00  0.00     0.023 A 
ATOM     91  C   UNL     1     -10.429  12.135 -13.148  1.00  0.00     0.031 A 
ATOM     92  C   UNL     1      -9.398  11.993 -15.328  1.00  0.00     0.131 A 
ATOM     93  C   UNL     1     -11.614  12.557 -13.763  1.00  0.00     0.055 A 
ATOM     94  C   UNL     1     -10.567  12.459 -15.931  1.00  0.00     0.041 A 
ATOM     95  F   UNL     1      -8.356  11.701 -16.122  1.00  0.00    -0.206 F 
ATOM     96  C   UNL     1     -11.687  12.728 -15.149  1.00  0.00     0.022 A 
BRANCH  93  97
ATOM     97  S   UNL     1     -13.130  12.812 -12.799  1.00  0.00     0.124 S 
ATOM     98  O   UNL     1     -13.415  14.223 -13.052  1.00  0.00    -0.237 OA
ATOM     99  O   UNL     1     -14.054  11.869 -13.423  1.00  0.00    -0.237 OA
ATOM    100  O   UNL     1     -12.736  12.494 -11.431  1.00  0.00    -0.744 OA
ENDBRANCH  93  97
ENDBRANCH  67  90
ENDBRANCH  41  42
ENDBRANCH  33  36
ENDBRANCH  31  32
ENDBRANCH   1  31
TORSDOF 18
