REMARK SMILES C[C@@H]1C[N@@H+](CC(C)(C)C(=O)NCCCNC(=O)c2ccc(-c3c4nc(c(-c5cc(S(=O)(=O)[O-])ccc5F)c5ccc([nH]5)c(-c5cc(S(=O)(=O)[O-])ccc5F)c5nc(c(-c6cc(S(=O)(=O)[O-])ccc6F)c6ccc3[nH]6)C=C5)C=C4)cc2)CC[C@@H]1[NH3+]
REMARK SMILES IDX 13 1 12 2 11 3 9 4 10 5 6 7 7 8 8 9 5 10 4 11 1 12 2 13 3 14
REMARK SMILES IDX 83 15 82 16 81 17 84 19 14 23 15 24 16 25 17 27 18 28 19 29
REMARK SMILES IDX 80 30 20 31 79 32 21 33 22 34 23 35 73 36 24 37 78 38 72 39
REMARK SMILES IDX 74 40 25 41 77 42 71 43 70 44 26 46 58 47 38 48 57 49 39 50
REMARK SMILES IDX 42 51 56 52 75 53 40 54 41 55 55 57 76 58 43 59 27 60 28 61
REMARK SMILES IDX 36 62 29 63 35 64 37 65 34 66 30 67 31 68 32 69 33 70 59 71
REMARK SMILES IDX 60 72 68 73 61 74 67 75 69 76 66 77 62 78 63 79 64 80 65 81
REMARK SMILES IDX 44 82 45 83 53 84 46 85 52 86 54 87 51 88 47 89 48 90 49 91
REMARK SMILES IDX 50 92
REMARK H PARENT 11 6 4 18 84 20 84 21 84 22 15 26 74 45 42 56
REMARK Flexibility Score: inf
ROOT
ATOM      1  C   UNL     1       0.475  -4.188  -7.516  1.00  0.00     0.042 C 
ENDROOT
BRANCH   1   2
ATOM      2  C   UNL     1       0.908  -2.902  -6.826  1.00  0.00     0.117 C 
BRANCH   2   3
ATOM      3  N   UNL     1       0.506  -2.907  -5.434  1.00  0.00    -0.355 N 
ATOM      4  C   UNL     1       1.206  -3.138  -4.298  1.00  0.00     0.231 C 
ATOM      5  O   UNL     1       0.543  -3.610  -3.367  1.00  0.00    -0.274 OA
ATOM      6  H   UNL     1      -0.447  -2.708  -5.288  1.00  0.00     0.163 HD
BRANCH   4   7
ATOM      7  C   UNL     1       2.719  -2.895  -4.163  1.00  0.00     0.092 C 
ATOM      8  C   UNL     1       3.328  -1.861  -5.122  1.00  0.00     0.027 C 
ATOM      9  C   UNL     1       3.381  -4.259  -4.455  1.00  0.00     0.027 C 
BRANCH   7  10
ATOM     10  C   UNL     1       3.035  -2.496  -2.666  1.00  0.00     0.278 C 
BRANCH  10  11
ATOM     11  N   UNL     1       2.560  -1.231  -2.045  1.00  0.00    -0.333 N 
ATOM     12  C   UNL     1       0.993  -0.018   0.384  1.00  0.00     0.020 C 
ATOM     13  C   UNL     1       0.607   0.052  -1.098  1.00  0.00     0.099 C 
ATOM     14  C   UNL     1       1.103  -1.185  -1.867  1.00  0.00     0.271 C 
ATOM     15  C   UNL     1       1.127   1.303  -1.827  1.00  0.00     0.194 C 
ATOM     16  C   UNL     1       2.654   1.271  -1.911  1.00  0.00     0.126 C 
ATOM     17  C   UNL     1       3.109  -0.007  -2.623  1.00  0.00     0.268 C 
ATOM     18  H   UNL     1       2.961  -1.256  -1.108  1.00  0.00     0.348 HD
BRANCH  15  19
ATOM     19  N   UNL     1       0.656   2.549  -1.218  1.00  0.00    -0.355 N 
ATOM     20  H   UNL     1       1.013   2.617  -0.265  1.00  0.00     0.344 HD
ATOM     21  H   UNL     1      -0.364   2.554  -1.200  1.00  0.00     0.344 HD
ATOM     22  H   UNL     1       0.991   3.343  -1.764  1.00  0.00     0.344 HD
ENDBRANCH  15  19
ENDBRANCH  10  11
ENDBRANCH   7  10
ENDBRANCH   4   7
ENDBRANCH   2   3
ENDBRANCH   1   2
BRANCH   1  23
ATOM     23  C   UNL     1      -1.036  -4.356  -7.584  1.00  0.00     0.118 C 
BRANCH  23  24
ATOM     24  N   UNL     1      -1.667  -3.341  -8.418  1.00  0.00    -0.352 N 
ATOM     25  C   UNL     1      -2.315  -3.486  -9.624  1.00  0.00     0.251 C 
ATOM     26  H   UNL     1      -1.624  -2.421  -8.069  1.00  0.00     0.163 HD
ATOM     27  O   UNL     1      -2.574  -2.502 -10.300  1.00  0.00    -0.269 OA
BRANCH  25  28
ATOM     28  C   UNL     1      -2.665  -4.844 -10.092  1.00  0.00     0.039 A 
ATOM     29  C   UNL     1      -2.409  -5.202 -11.417  1.00  0.00     0.014 A 
ATOM     30  C   UNL     1      -3.222  -5.769  -9.206  1.00  0.00     0.014 A 
ATOM     31  C   UNL     1      -2.644  -6.515 -11.832  1.00  0.00     0.010 A 
ATOM     32  C   UNL     1      -3.360  -7.095  -9.593  1.00  0.00     0.010 A 
ATOM     33  C   UNL     1      -3.082  -7.482 -10.913  1.00  0.00    -0.014 A 
BRANCH  33  34
ATOM     34  C   UNL     1      -3.298  -8.900 -11.299  1.00  0.00     0.031 A 
ATOM     35  C   UNL     1      -4.672  -9.500 -11.156  1.00  0.00     0.074 A 
ATOM     36  C   UNL     1      -2.256  -9.665 -11.680  1.00  0.00     0.049 A 
ATOM     37  N   UNL     1      -5.050 -10.747 -11.269  1.00  0.00    -0.248 NA
ATOM     38  C   UNL     1      -5.756  -8.573 -10.795  1.00  0.00     0.031 C 
ATOM     39  C   UNL     1      -0.874  -9.204 -11.825  1.00  0.00     0.029 A 
ATOM     40  N   UNL     1      -2.194 -10.999 -11.997  1.00  0.00    -0.354 N 
ATOM     41  C   UNL     1      -6.407 -10.758 -10.963  1.00  0.00     0.074 A 
ATOM     42  C   UNL     1      -6.766  -9.405 -10.598  1.00  0.00     0.031 C 
ATOM     43  C   UNL     1      -0.106 -10.233 -12.220  1.00  0.00     0.029 A 
ATOM     44  C   UNL     1      -0.926 -11.438 -12.301  1.00  0.00     0.049 A 
ATOM     45  H   UNL     1      -2.983 -11.588 -12.005  1.00  0.00     0.167 HD
ATOM     46  C   UNL     1      -7.277 -11.797 -11.008  1.00  0.00     0.034 A 
ATOM     47  C   UNL     1      -0.473 -12.674 -12.591  1.00  0.00     0.034 A 
ATOM     48  C   UNL     1      -6.903 -13.133 -11.398  1.00  0.00     0.049 A 
ATOM     49  C   UNL     1      -1.455 -13.820 -12.615  1.00  0.00     0.074 A 
ATOM     50  C   UNL     1      -7.707 -14.251 -11.529  1.00  0.00     0.029 A 
ATOM     51  N   UNL     1      -5.612 -13.534 -11.720  1.00  0.00    -0.354 N 
ATOM     52  N   UNL     1      -2.742 -13.810 -12.356  1.00  0.00    -0.248 NA
ATOM     53  C   UNL     1      -0.924 -15.140 -12.979  1.00  0.00     0.031 C 
ATOM     54  C   UNL     1      -6.895 -15.339 -11.864  1.00  0.00     0.029 A 
ATOM     55  C   UNL     1      -5.595 -14.886 -12.025  1.00  0.00     0.049 A 
ATOM     56  H   UNL     1      -4.824 -12.944 -11.730  1.00  0.00     0.167 HD
ATOM     57  C   UNL     1      -3.181 -15.115 -12.566  1.00  0.00     0.074 A 
ATOM     58  C   UNL     1      -2.023 -15.880 -12.979  1.00  0.00     0.031 C 
ATOM     59  C   UNL     1      -4.430 -15.633 -12.437  1.00  0.00     0.034 A 
BRANCH  46  60
ATOM     60  C   UNL     1      -8.706 -11.523 -10.599  1.00  0.00     0.023 A 
ATOM     61  C   UNL     1      -9.511 -10.604 -11.296  1.00  0.00     0.031 A 
ATOM     62  C   UNL     1      -9.261 -12.161  -9.476  1.00  0.00     0.131 A 
ATOM     63  C   UNL     1     -10.789 -10.284 -10.813  1.00  0.00     0.055 A 
ATOM     64  C   UNL     1     -10.568 -11.905  -9.053  1.00  0.00     0.041 A 
ATOM     65  F   UNL     1      -8.536 -13.032  -8.755  1.00  0.00    -0.206 F 
ATOM     66  C   UNL     1     -11.334 -10.949  -9.713  1.00  0.00     0.022 A 
BRANCH  63  67
ATOM     67  S   UNL     1     -11.662  -8.875 -11.550  1.00  0.00     0.124 S 
ATOM     68  O   UNL     1     -10.721  -7.785 -11.304  1.00  0.00    -0.237 OA
ATOM     69  O   UNL     1     -11.813  -9.288 -12.940  1.00  0.00    -0.237 OA
ATOM     70  O   UNL     1     -12.903  -8.802 -10.781  1.00  0.00    -0.744 OA
ENDBRANCH  63  67
ENDBRANCH  46  60
BRANCH  47  71
ATOM     71  C   UNL     1       0.974 -12.905 -12.870  1.00  0.00     0.023 A 
ATOM     72  C   UNL     1       1.403 -13.347 -14.131  1.00  0.00     0.031 A 
ATOM     73  C   UNL     1       1.946 -12.730 -11.868  1.00  0.00     0.131 A 
ATOM     74  C   UNL     1       2.758 -13.648 -14.345  1.00  0.00     0.055 A 
ATOM     75  C   UNL     1       3.300 -12.977 -12.102  1.00  0.00     0.041 A 
ATOM     76  F   UNL     1       1.592 -12.303 -10.646  1.00  0.00    -0.206 F 
ATOM     77  C   UNL     1       3.711 -13.453 -13.344  1.00  0.00     0.022 A 
BRANCH  74  78
ATOM     78  S   UNL     1       3.243 -14.386 -15.930  1.00  0.00     0.124 S 
ATOM     79  O   UNL     1       2.419 -15.588 -15.961  1.00  0.00    -0.237 OA
ATOM     80  O   UNL     1       2.882 -13.335 -16.875  1.00  0.00    -0.237 OA
ATOM     81  O   UNL     1       4.678 -14.615 -15.772  1.00  0.00    -0.744 OA
ENDBRANCH  74  78
ENDBRANCH  47  71
BRANCH  59  82
ATOM     82  C   UNL     1      -4.617 -17.082 -12.813  1.00  0.00     0.023 A 
ATOM     83  C   UNL     1      -4.041 -18.126 -12.070  1.00  0.00     0.031 A 
ATOM     84  C   UNL     1      -5.391 -17.419 -13.939  1.00  0.00     0.131 A 
ATOM     85  C   UNL     1      -4.206 -19.455 -12.489  1.00  0.00     0.055 A 
ATOM     86  C   UNL     1      -5.603 -18.745 -14.315  1.00  0.00     0.041 A 
ATOM     87  F   UNL     1      -5.963 -16.462 -14.686  1.00  0.00    -0.206 F 
ATOM     88  C   UNL     1      -4.999 -19.772 -13.596  1.00  0.00     0.022 A 
BRANCH  85  89
ATOM     89  S   UNL     1      -3.300 -20.763 -11.619  1.00  0.00     0.124 S 
ATOM     90  O   UNL     1      -1.915 -20.338 -11.789  1.00  0.00    -0.237 OA
ATOM     91  O   UNL     1      -3.835 -20.666 -10.265  1.00  0.00    -0.237 OA
ATOM     92  O   UNL     1      -3.669 -21.978 -12.345  1.00  0.00    -0.744 OA
ENDBRANCH  85  89
ENDBRANCH  59  82
ENDBRANCH  33  34
ENDBRANCH  25  28
ENDBRANCH  23  24
ENDBRANCH   1  23
TORSDOF 16
