REMARK SMILES CC[C@@H](C(=O)NCCCNC(=O)c1ccc(-c2c3nc(c(-c4cc(S(=O)(=O)[O-])ccc4F)c4ccc([nH]4)c(-c4cc(S(=O)(=O)[O-])ccc4F)c4nc(c(-c5cc(S(=O)(=O)[O-])ccc5F)c5ccc2[nH]5)C=C4)C=C3)cc1)N1C(=O)/C(=C/C(C)=C/c2ccccc2)SC1=S
REMARK SMILES IDX 8 1 7 2 6 3 4 4 5 5 3 7 2 8 1 9 76 10 77 11 91 12 78 13
REMARK SMILES IDX 79 14 90 15 92 16 80 17 81 18 82 19 83 20 84 21 85 22 89 23
REMARK SMILES IDX 86 24 88 25 87 26 9 27 10 28 11 29 12 31 13 32 14 33 75 34
REMARK SMILES IDX 15 35 74 36 16 37 17 38 18 39 68 40 19 41 73 42 67 43 69 44
REMARK SMILES IDX 20 45 72 46 66 47 65 48 21 50 53 51 33 52 52 53 34 54 37 55
REMARK SMILES IDX 51 56 70 57 35 58 36 59 50 61 71 62 38 63 22 64 23 65 31 66
REMARK SMILES IDX 24 67 30 68 32 69 29 70 25 71 26 72 27 73 28 74 54 75 55 76
REMARK SMILES IDX 63 77 56 78 62 79 64 80 61 81 57 82 58 83 59 84 60 85 39 86
REMARK SMILES IDX 40 87 48 88 41 89 47 90 49 91 46 92 42 93 43 94 44 95 45 96
REMARK H PARENT 6 6 10 30 69 49 37 60
REMARK Flexibility Score: inf
ROOT
ATOM      1  C   UNL     1       1.389  -1.848  -1.609  1.00  0.00     0.042 C 
ENDROOT
BRANCH   1   2
ATOM      2  C   UNL     1       2.013  -0.546  -2.093  1.00  0.00     0.117 C 
BRANCH   2   3
ATOM      3  N   UNL     1       1.014   0.335  -2.664  1.00  0.00    -0.354 N 
ATOM      4  C   UNL     1       0.494   1.514  -2.232  1.00  0.00     0.243 C 
ATOM      5  O   UNL     1      -0.301   2.058  -3.006  1.00  0.00    -0.273 OA
ATOM      6  H   UNL     1       0.643   0.021  -3.521  1.00  0.00     0.163 HD
BRANCH   4   7
ATOM      7  C   UNL     1       0.930   2.168  -0.894  1.00  0.00     0.181 C 
BRANCH   7   8
ATOM      8  C   UNL     1       0.288   1.645   0.405  1.00  0.00     0.032 C 
ATOM      9  C   UNL     1       0.920   0.419   1.037  1.00  0.00     0.006 C 
ENDBRANCH   7   8
BRANCH   7  10
ATOM     10  N   UNL     1       0.638   3.620  -1.063  1.00  0.00    -0.280 N 
ATOM     11  C   UNL     1      -0.679   4.061  -0.964  1.00  0.00     0.266 C 
ATOM     12  C   UNL     1       1.569   4.571  -1.413  1.00  0.00     0.149 C 
ATOM     13  O   UNL     1      -1.658   3.386  -0.701  1.00  0.00    -0.268 OA
ATOM     14  C   UNL     1      -0.756   5.533  -1.176  1.00  0.00     0.080 C 
ATOM     15  S   UNL     1       0.781   6.126  -1.643  1.00  0.00    -0.054 SA
ATOM     16  S   UNL     1       3.221   4.395  -1.582  1.00  0.00    -0.052 S 
ATOM     17  C   UNL     1      -1.915   6.168  -0.946  1.00  0.00     0.024 C 
BRANCH  17  18
ATOM     18  C   UNL     1      -2.296   7.579  -1.004  1.00  0.00    -0.049 C 
ATOM     19  C   UNL     1      -3.789   7.806  -1.088  1.00  0.00     0.044 C 
ATOM     20  C   UNL     1      -1.409   8.589  -0.914  1.00  0.00     0.011 C 
BRANCH  20  21
ATOM     21  C   UNL     1      -1.669  10.032  -0.897  1.00  0.00    -0.025 A 
ATOM     22  C   UNL     1      -0.959  10.845  -1.789  1.00  0.00     0.008 A 
ATOM     23  C   UNL     1      -2.489  10.626   0.067  1.00  0.00     0.008 A 
ATOM     24  C   UNL     1      -1.067  12.234  -1.719  1.00  0.00     0.001 A 
ATOM     25  C   UNL     1      -2.600  12.016   0.135  1.00  0.00     0.001 A 
ATOM     26  C   UNL     1      -1.885  12.819  -0.754  1.00  0.00     0.000 A 
ENDBRANCH  20  21
ENDBRANCH  17  18
ENDBRANCH   7  10
ENDBRANCH   4   7
ENDBRANCH   2   3
ENDBRANCH   1   2
BRANCH   1  27
ATOM     27  C   UNL     1       0.859  -2.739  -2.723  1.00  0.00     0.118 C 
BRANCH  27  28
ATOM     28  N   UNL     1       1.919  -3.434  -3.428  1.00  0.00    -0.352 N 
ATOM     29  C   UNL     1       2.207  -4.778  -3.476  1.00  0.00     0.251 C 
ATOM     30  H   UNL     1       2.522  -2.858  -3.951  1.00  0.00     0.163 HD
ATOM     31  O   UNL     1       3.282  -5.136  -3.952  1.00  0.00    -0.269 OA
BRANCH  29  32
ATOM     32  C   UNL     1       1.255  -5.783  -2.942  1.00  0.00     0.039 A 
ATOM     33  C   UNL     1       1.761  -6.908  -2.284  1.00  0.00     0.014 A 
ATOM     34  C   UNL     1      -0.126  -5.652  -3.117  1.00  0.00     0.014 A 
ATOM     35  C   UNL     1       0.886  -7.871  -1.770  1.00  0.00     0.010 A 
ATOM     36  C   UNL     1      -0.998  -6.557  -2.516  1.00  0.00     0.010 A 
ATOM     37  C   UNL     1      -0.504  -7.693  -1.859  1.00  0.00    -0.014 A 
BRANCH  37  38
ATOM     38  C   UNL     1      -1.453  -8.713  -1.334  1.00  0.00     0.031 A 
ATOM     39  C   UNL     1      -2.395  -9.414  -2.281  1.00  0.00     0.074 A 
ATOM     40  C   UNL     1      -1.501  -8.981  -0.013  1.00  0.00     0.049 A 
ATOM     41  N   UNL     1      -3.348 -10.273  -2.021  1.00  0.00    -0.248 NA
ATOM     42  C   UNL     1      -2.270  -9.076  -3.708  1.00  0.00     0.031 C 
ATOM     43  C   UNL     1      -0.666  -8.347   1.009  1.00  0.00     0.029 A 
ATOM     44  N   UNL     1      -2.288  -9.853   0.698  1.00  0.00    -0.354 N 
ATOM     45  C   UNL     1      -3.945 -10.560  -3.245  1.00  0.00     0.074 A 
ATOM     46  C   UNL     1      -3.293  -9.730  -4.234  1.00  0.00     0.031 C 
ATOM     47  C   UNL     1      -0.964  -8.871   2.209  1.00  0.00     0.029 A 
ATOM     48  C   UNL     1      -2.043  -9.842   2.053  1.00  0.00     0.049 A 
ATOM     49  H   UNL     1      -2.964 -10.432   0.279  1.00  0.00     0.167 HD
ATOM     50  C   UNL     1      -4.927 -11.454  -3.526  1.00  0.00     0.034 A 
ATOM     51  C   UNL     1      -2.628 -10.528   3.056  1.00  0.00     0.034 A 
ATOM     52  C   UNL     1      -5.550 -12.293  -2.532  1.00  0.00     0.049 A 
ATOM     53  C   UNL     1      -3.729 -11.506   2.723  1.00  0.00     0.074 A 
ATOM     54  C   UNL     1      -6.518 -13.267  -2.710  1.00  0.00     0.029 A 
ATOM     55  N   UNL     1      -5.268 -12.259  -1.172  1.00  0.00    -0.354 N 
ATOM     56  N   UNL     1      -4.253 -11.795   1.553  1.00  0.00    -0.248 NA
ATOM     57  C   UNL     1      -4.306 -12.261   3.842  1.00  0.00     0.031 C 
ATOM     58  C   UNL     1      -6.869 -13.771  -1.454  1.00  0.00     0.029 A 
ATOM     59  C   UNL     1      -6.061 -13.175  -0.499  1.00  0.00     0.049 A 
ATOM     60  H   UNL     1      -4.602 -11.671  -0.748  1.00  0.00     0.167 HD
ATOM     61  C   UNL     1      -5.193 -12.794   1.795  1.00  0.00     0.074 A 
ATOM     62  C   UNL     1      -5.153 -13.065   3.217  1.00  0.00     0.031 C 
ATOM     63  C   UNL     1      -6.010 -13.435   0.921  1.00  0.00     0.034 A 
BRANCH  50  64
ATOM     64  C   UNL     1      -5.397 -11.547  -4.959  1.00  0.00     0.023 A 
ATOM     65  C   UNL     1      -4.534 -11.943  -5.997  1.00  0.00     0.031 A 
ATOM     66  C   UNL     1      -6.720 -11.214  -5.298  1.00  0.00     0.131 A 
ATOM     67  C   UNL     1      -4.979 -11.918  -7.328  1.00  0.00     0.055 A 
ATOM     68  C   UNL     1      -7.182 -11.276  -6.615  1.00  0.00     0.041 A 
ATOM     69  F   UNL     1      -7.586 -10.809  -4.356  1.00  0.00    -0.206 F 
ATOM     70  C   UNL     1      -6.306 -11.614  -7.641  1.00  0.00     0.022 A 
BRANCH  67  71
ATOM     71  S   UNL     1      -3.761 -12.145  -8.652  1.00  0.00     0.124 S 
ATOM     72  O   UNL     1      -2.839 -11.040  -8.396  1.00  0.00    -0.237 OA
ATOM     73  O   UNL     1      -3.247 -13.482  -8.383  1.00  0.00    -0.237 OA
ATOM     74  O   UNL     1      -4.554 -12.014  -9.873  1.00  0.00    -0.744 OA
ENDBRANCH  67  71
ENDBRANCH  50  64
BRANCH  51  75
ATOM     75  C   UNL     1      -2.200 -10.320   4.470  1.00  0.00     0.023 A 
ATOM     76  C   UNL     1      -1.631 -11.365   5.216  1.00  0.00     0.031 A 
ATOM     77  C   UNL     1      -2.403  -9.087   5.116  1.00  0.00     0.131 A 
ATOM     78  C   UNL     1      -1.337 -11.177   6.576  1.00  0.00     0.055 A 
ATOM     79  C   UNL     1      -2.054  -8.887   6.453  1.00  0.00     0.041 A 
ATOM     80  F   UNL     1      -2.939  -8.052   4.450  1.00  0.00    -0.206 F 
ATOM     81  C   UNL     1      -1.532  -9.941   7.196  1.00  0.00     0.022 A 
BRANCH  78  82
ATOM     82  S   UNL     1      -0.790 -12.605   7.553  1.00  0.00     0.124 S 
ATOM     83  O   UNL     1      -1.891 -13.539   7.354  1.00  0.00    -0.237 OA
ATOM     84  O   UNL     1       0.470 -12.949   6.903  1.00  0.00    -0.237 OA
ATOM     85  O   UNL     1      -0.664 -12.064   8.904  1.00  0.00    -0.744 OA
ENDBRANCH  78  82
ENDBRANCH  51  75
BRANCH  63  86
ATOM     86  C   UNL     1      -6.881 -14.538   1.473  1.00  0.00     0.023 A 
ATOM     87  C   UNL     1      -7.920 -14.281   2.385  1.00  0.00     0.031 A 
ATOM     88  C   UNL     1      -6.660 -15.871   1.082  1.00  0.00     0.131 A 
ATOM     89  C   UNL     1      -8.657 -15.348   2.921  1.00  0.00     0.055 A 
ATOM     90  C   UNL     1      -7.440 -16.920   1.568  1.00  0.00     0.041 A 
ATOM     91  F   UNL     1      -5.680 -16.175   0.215  1.00  0.00    -0.206 F 
ATOM     92  C   UNL     1      -8.436 -16.663   2.505  1.00  0.00     0.022 A 
BRANCH  89  93
ATOM     93  S   UNL     1      -9.846 -15.005   4.248  1.00  0.00     0.124 S 
ATOM     94  O   UNL     1      -9.000 -14.375   5.258  1.00  0.00    -0.237 OA
ATOM     95  O   UNL     1     -10.808 -14.129   3.587  1.00  0.00    -0.237 OA
ATOM     96  O   UNL     1     -10.355 -16.328   4.604  1.00  0.00    -0.744 OA
ENDBRANCH  89  93
ENDBRANCH  63  86
ENDBRANCH  37  38
ENDBRANCH  29  32
ENDBRANCH  27  28
ENDBRANCH   1  27
TORSDOF 17
