REMARK SMILES C[C@H](C(=O)NCCCNC(=O)c1ccc(-c2c3nc(c(-c4cc(S(=O)(=O)[O-])ccc4F)c4ccc([nH]4)c(-c4cc(S(=O)(=O)[O-])ccc4F)c4nc(c(-c5cc(S(=O)(=O)[O-])ccc5F)c5ccc2[nH]5)C=C4)C=C3)cc1)[C@H](C)[NH+]1CCN(c2ccccc2Cl)CC1
REMARK SMILES IDX 7 1 6 2 5 3 3 4 4 5 2 7 1 8 75 9 76 10 77 11 78 12 89 13
REMARK SMILES IDX 79 15 88 16 80 17 81 18 82 19 86 20 83 21 85 22 87 23 84 24
REMARK SMILES IDX 8 25 9 26 10 27 11 29 12 30 13 31 74 32 14 33 73 34 15 35
REMARK SMILES IDX 16 36 17 37 67 38 18 39 72 40 66 41 68 42 19 43 71 44 65 45
REMARK SMILES IDX 64 46 20 48 52 49 32 50 51 51 33 52 36 53 50 54 69 55 34 56
REMARK SMILES IDX 35 57 49 59 70 60 37 61 21 62 22 63 30 64 23 65 29 66 31 67
REMARK SMILES IDX 28 68 24 69 25 70 26 71 27 72 53 73 54 74 62 75 55 76 61 77
REMARK SMILES IDX 63 78 60 79 56 80 57 81 58 82 59 83 38 84 39 85 47 86 40 87
REMARK SMILES IDX 46 88 48 89 45 90 41 91 42 92 43 93 44 94
REMARK H PARENT 5 6 77 14 9 28 68 47 36 58
REMARK Flexibility Score: inf
ROOT
ATOM      1  C   UNL     1      -2.283  -1.561  -4.947  1.00  0.00     0.042 C 
ENDROOT
BRANCH   1   2
ATOM      2  C   UNL     1      -2.539  -1.820  -3.472  1.00  0.00     0.117 C 
BRANCH   2   3
ATOM      3  N   UNL     1      -1.319  -2.186  -2.777  1.00  0.00    -0.356 N 
ATOM      4  C   UNL     1      -0.772  -1.832  -1.593  1.00  0.00     0.228 C 
ATOM      5  O   UNL     1       0.383  -2.237  -1.433  1.00  0.00    -0.275 OA
ATOM      6  H   UNL     1      -0.771  -2.833  -3.277  1.00  0.00     0.163 HD
BRANCH   4   7
ATOM      7  C   UNL     1      -1.450  -0.928  -0.562  1.00  0.00     0.133 C 
ATOM      8  C   UNL     1      -2.973  -0.784  -0.612  1.00  0.00     0.024 C 
BRANCH   7   9
ATOM      9  C   UNL     1      -0.947  -1.220   0.906  1.00  0.00     0.193 C 
ATOM     10  C   UNL     1       0.524  -0.772   1.075  1.00  0.00     0.076 C 
BRANCH   9  11
ATOM     11  N   UNL     1      -1.292  -2.458   1.647  1.00  0.00    -0.329 N 
ATOM     12  C   UNL     1      -2.476  -3.242   1.259  1.00  0.00     0.284 C 
ATOM     13  C   UNL     1      -0.209  -3.398   2.005  1.00  0.00     0.284 C 
ATOM     14  H   UNL     1      -1.548  -1.924   2.477  1.00  0.00     0.348 HD
ATOM     15  C   UNL     1      -2.248  -4.309   0.162  1.00  0.00     0.178 C 
ATOM     16  C   UNL     1       0.136  -4.461   0.937  1.00  0.00     0.178 C 
ATOM     17  N   UNL     1      -1.087  -5.130   0.487  1.00  0.00    -0.359 N 
BRANCH  17  18
ATOM     18  C   UNL     1      -1.015  -6.413  -0.023  1.00  0.00     0.056 A 
ATOM     19  C   UNL     1      -0.882  -6.634  -1.402  1.00  0.00     0.027 A 
ATOM     20  C   UNL     1      -1.138  -7.537   0.818  1.00  0.00     0.064 A 
ATOM     21  C   UNL     1      -0.905  -7.930  -1.928  1.00  0.00     0.002 A 
ATOM     22  C   UNL     1      -1.167  -8.831   0.293  1.00  0.00     0.023 A 
ATOM     23  Cl  UNL     1      -1.311  -7.357   2.534  1.00  0.00    -0.082 Cl
ATOM     24  C   UNL     1      -1.059  -9.026  -1.082  1.00  0.00     0.002 A 
ENDBRANCH  17  18
ENDBRANCH   9  11
ENDBRANCH   7   9
ENDBRANCH   4   7
ENDBRANCH   2   3
ENDBRANCH   1   2
BRANCH   1  25
ATOM     25  C   UNL     1      -1.801  -2.781  -5.715  1.00  0.00     0.118 C 
BRANCH  25  26
ATOM     26  N   UNL     1      -2.845  -3.779  -5.901  1.00  0.00    -0.352 N 
ATOM     27  C   UNL     1      -3.489  -4.159  -7.056  1.00  0.00     0.251 C 
ATOM     28  H   UNL     1      -3.130  -4.249  -5.084  1.00  0.00     0.163 HD
ATOM     29  O   UNL     1      -4.482  -4.878  -6.992  1.00  0.00    -0.269 OA
BRANCH  27  30
ATOM     30  C   UNL     1      -3.002  -3.662  -8.361  1.00  0.00     0.039 A 
ATOM     31  C   UNL     1      -3.917  -3.165  -9.290  1.00  0.00     0.014 A 
ATOM     32  C   UNL     1      -1.635  -3.650  -8.649  1.00  0.00     0.014 A 
ATOM     33  C   UNL     1      -3.452  -2.576 -10.468  1.00  0.00     0.010 A 
ATOM     34  C   UNL     1      -1.171  -2.963  -9.764  1.00  0.00     0.010 A 
ATOM     35  C   UNL     1      -2.073  -2.424 -10.693  1.00  0.00    -0.014 A 
BRANCH  35  36
ATOM     36  C   UNL     1      -1.552  -1.726 -11.899  1.00  0.00     0.031 A 
ATOM     37  C   UNL     1      -0.659  -2.463 -12.863  1.00  0.00     0.074 A 
ATOM     38  C   UNL     1      -1.824  -0.419 -12.090  1.00  0.00     0.049 A 
ATOM     39  N   UNL     1      -0.033  -2.015 -13.921  1.00  0.00    -0.248 NA
ATOM     40  C   UNL     1      -0.408  -3.884 -12.576  1.00  0.00     0.031 C 
ATOM     41  C   UNL     1      -2.636   0.416 -11.201  1.00  0.00     0.029 A 
ATOM     42  N   UNL     1      -1.443   0.441 -13.090  1.00  0.00    -0.354 N 
ATOM     43  C   UNL     1       0.698  -3.092 -14.412  1.00  0.00     0.074 A 
ATOM     44  C   UNL     1       0.496  -4.190 -13.493  1.00  0.00     0.031 C 
ATOM     45  C   UNL     1      -2.721   1.654 -11.714  1.00  0.00     0.029 A 
ATOM     46  C   UNL     1      -1.928   1.720 -12.937  1.00  0.00     0.049 A 
ATOM     47  H   UNL     1      -0.875   0.168 -13.847  1.00  0.00     0.167 HD
ATOM     48  C   UNL     1       1.443  -3.169 -15.543  1.00  0.00     0.034 A 
ATOM     49  C   UNL     1      -1.744   2.824 -13.690  1.00  0.00     0.034 A 
ATOM     50  C   UNL     1       1.617  -2.069 -16.459  1.00  0.00     0.049 A 
ATOM     51  C   UNL     1      -0.891   2.722 -14.930  1.00  0.00     0.074 A 
ATOM     52  C   UNL     1       2.300  -2.050 -17.662  1.00  0.00     0.029 A 
ATOM     53  N   UNL     1       1.111  -0.788 -16.270  1.00  0.00    -0.354 N 
ATOM     54  N   UNL     1      -0.252   1.680 -15.411  1.00  0.00    -0.248 NA
ATOM     55  C   UNL     1      -0.742   3.942 -15.733  1.00  0.00     0.031 C 
ATOM     56  C   UNL     1       2.271  -0.744 -18.162  1.00  0.00     0.029 A 
ATOM     57  C   UNL     1       1.496   0.035 -17.317  1.00  0.00     0.049 A 
ATOM     58  H   UNL     1       0.559  -0.507 -15.505  1.00  0.00     0.167 HD
ATOM     59  C   UNL     1       0.347   2.113 -16.590  1.00  0.00     0.074 A 
ATOM     60  C   UNL     1      -0.022   3.504 -16.755  1.00  0.00     0.031 C 
ATOM     61  C   UNL     1       1.129   1.425 -17.461  1.00  0.00     0.034 A 
BRANCH  48  62
ATOM     62  C   UNL     1       2.136  -4.480 -15.832  1.00  0.00     0.023 A 
ATOM     63  C   UNL     1       1.414  -5.671 -16.030  1.00  0.00     0.031 A 
ATOM     64  C   UNL     1       3.539  -4.550 -15.879  1.00  0.00     0.131 A 
ATOM     65  C   UNL     1       2.094  -6.888 -16.182  1.00  0.00     0.055 A 
ATOM     66  C   UNL     1       4.210  -5.751 -16.121  1.00  0.00     0.041 A 
ATOM     67  F   UNL     1       4.286  -3.453 -15.675  1.00  0.00    -0.206 F 
ATOM     68  C   UNL     1       3.487  -6.933 -16.257  1.00  0.00     0.022 A 
BRANCH  65  69
ATOM     69  S   UNL     1       1.136  -8.427 -16.121  1.00  0.00     0.124 S 
ATOM     70  O   UNL     1       0.507  -8.331 -14.806  1.00  0.00    -0.237 OA
ATOM     71  O   UNL     1       0.245  -8.289 -17.267  1.00  0.00    -0.237 OA
ATOM     72  O   UNL     1       2.154  -9.469 -16.242  1.00  0.00    -0.744 OA
ENDBRANCH  65  69
ENDBRANCH  48  62
BRANCH  49  73
ATOM     73  C   UNL     1      -2.367   4.123 -13.298  1.00  0.00     0.023 A 
ATOM     74  C   UNL     1      -3.322   4.745 -14.118  1.00  0.00     0.031 A 
ATOM     75  C   UNL     1      -1.981   4.787 -12.119  1.00  0.00     0.131 A 
ATOM     76  C   UNL     1      -3.821   6.012 -13.777  1.00  0.00     0.055 A 
ATOM     77  C   UNL     1      -2.524   6.020 -11.754  1.00  0.00     0.041 A 
ATOM     78  F   UNL     1      -1.074   4.237 -11.296  1.00  0.00    -0.206 F 
ATOM     79  C   UNL     1      -3.440   6.647 -12.593  1.00  0.00     0.022 A 
BRANCH  76  80
ATOM     80  S   UNL     1      -4.909   6.863 -14.953  1.00  0.00     0.124 S 
ATOM     81  O   UNL     1      -4.070   6.920 -16.144  1.00  0.00    -0.237 OA
ATOM     82  O   UNL     1      -6.053   5.959 -15.015  1.00  0.00    -0.237 OA
ATOM     83  O   UNL     1      -5.167   8.148 -14.308  1.00  0.00    -0.744 OA
ENDBRANCH  76  80
ENDBRANCH  49  73
BRANCH  61  84
ATOM     84  C   UNL     1       1.596   2.160 -18.694  1.00  0.00     0.023 A 
ATOM     85  C   UNL     1       2.482   3.248 -18.617  1.00  0.00     0.031 A 
ATOM     86  C   UNL     1       1.141   1.767 -19.966  1.00  0.00     0.131 A 
ATOM     87  C   UNL     1       2.838   3.943 -19.783  1.00  0.00     0.055 A 
ATOM     88  C   UNL     1       1.552   2.420 -21.128  1.00  0.00     0.041 A 
ATOM     89  F   UNL     1       0.291   0.736 -20.099  1.00  0.00    -0.206 F 
ATOM     90  C   UNL     1       2.394   3.524 -21.039  1.00  0.00     0.022 A 
BRANCH  87  91
ATOM     91  S   UNL     1       3.810   5.466 -19.625  1.00  0.00     0.124 S 
ATOM     92  O   UNL     1       2.957   6.282 -18.766  1.00  0.00    -0.237 OA
ATOM     93  O   UNL     1       5.048   4.986 -19.022  1.00  0.00    -0.237 OA
ATOM     94  O   UNL     1       3.934   5.938 -21.003  1.00  0.00    -0.744 OA
ENDBRANCH  87  91
ENDBRANCH  61  84
ENDBRANCH  35  36
ENDBRANCH  27  30
ENDBRANCH  25  26
ENDBRANCH   1  25
TORSDOF 16
