REMARK SMILES C/C=C/C[C@]1(C(=O)NCCCNC(=O)c2ccc(-c3c4nc(c(-c5cc(S(=O)(=O)[O-])ccc5F)c5ccc([nH]5)c(-c5cc(S(=O)(=O)[O-])ccc5F)c5nc(c(-c6cc(S(=O)(=O)[O-])ccc6F)c6ccc3[nH]6)C=C5)C=C4)cc2)CCN(C(=O)OC(C)(C)C)C1
REMARK SMILES IDX 10 1 9 2 8 3 6 4 7 5 5 7 78 8 88 9 79 10 80 11 4 12 3 13
REMARK SMILES IDX 1 14 2 15 81 16 82 17 83 18 84 19 85 20 86 21 87 22 11 23
REMARK SMILES IDX 12 24 13 25 14 27 15 28 16 29 77 30 17 31 76 32 18 33 19 34
REMARK SMILES IDX 20 35 70 36 21 37 75 38 69 39 71 40 22 41 74 42 68 43 67 44
REMARK SMILES IDX 23 46 55 47 35 48 54 49 36 50 39 51 53 52 72 53 37 54 38 55
REMARK SMILES IDX 52 57 73 58 40 59 24 60 25 61 33 62 26 63 32 64 34 65 31 66
REMARK SMILES IDX 27 67 28 68 29 69 30 70 56 71 57 72 65 73 58 74 64 75 66 76
REMARK SMILES IDX 63 77 59 78 60 79 61 80 62 81 41 82 42 83 50 84 43 85 49 86
REMARK SMILES IDX 51 87 48 88 44 89 45 90 46 91 47 92
REMARK H PARENT 8 6 12 26 71 45 39 56
REMARK Flexibility Score: inf
ROOT
ATOM      1  C   UNL     1      -0.002   5.025   7.055  1.00  0.00     0.042 C 
ENDROOT
BRANCH   1   2
ATOM      2  C   UNL     1       0.887   4.056   6.290  1.00  0.00     0.117 C 
BRANCH   2   3
ATOM      3  N   UNL     1       0.420   2.681   6.390  1.00  0.00    -0.355 N 
ATOM      4  C   UNL     1      -0.085   1.808   5.477  1.00  0.00     0.228 C 
ATOM      5  O   UNL     1      -0.443   0.715   5.930  1.00  0.00    -0.274 OA
ATOM      6  H   UNL     1       0.481   2.309   7.299  1.00  0.00     0.163 HD
BRANCH   4   7
ATOM      7  C   UNL     1      -0.224   2.142   3.979  1.00  0.00     0.072 C 
ATOM      8  C   UNL     1      -1.213   3.314   3.771  1.00  0.00     0.041 C 
ATOM      9  C   UNL     1       1.118   2.647   3.417  1.00  0.00     0.140 C 
ATOM     10  C   UNL     1      -0.590   4.197   2.705  1.00  0.00     0.124 C 
ATOM     11  N   UNL     1       0.824   3.905   2.752  1.00  0.00    -0.307 N 
BRANCH   7  12
ATOM     12  C   UNL     1      -0.727   0.863   3.232  1.00  0.00     0.046 C 
BRANCH  12  13
ATOM     13  C   UNL     1      -0.439   0.815   1.751  1.00  0.00    -0.030 C 
ATOM     14  C   UNL     1       0.901  -0.051  -0.188  1.00  0.00     0.035 C 
ATOM     15  C   UNL     1       0.434  -0.062   1.228  1.00  0.00    -0.035 C 
ENDBRANCH  12  13
ENDBRANCH   7  12
BRANCH  11  16
ATOM     16  C   UNL     1       1.819   4.679   2.212  1.00  0.00     0.410 C 
ATOM     17  O   UNL     1       2.999   4.350   2.229  1.00  0.00    -0.224 OA
BRANCH  16  18
ATOM     18  O   UNL     1       1.339   5.837   1.691  1.00  0.00    -0.444 OA
BRANCH  18  19
ATOM     19  C   UNL     1       2.244   6.818   1.124  1.00  0.00     0.106 C 
ATOM     20  C   UNL     1       3.253   7.325   2.164  1.00  0.00     0.056 C 
ATOM     21  C   UNL     1       2.933   6.264  -0.127  1.00  0.00     0.056 C 
ATOM     22  C   UNL     1       1.352   7.999   0.708  1.00  0.00     0.056 C 
ENDBRANCH  18  19
ENDBRANCH  16  18
ENDBRANCH  11  16
ENDBRANCH   4   7
ENDBRANCH   2   3
ENDBRANCH   1   2
BRANCH   1  23
ATOM     23  C   UNL     1      -0.014   4.795   8.559  1.00  0.00     0.118 C 
BRANCH  23  24
ATOM     24  N   UNL     1       1.289   5.017   9.165  1.00  0.00    -0.352 N 
ATOM     25  C   UNL     1       1.703   5.980  10.053  1.00  0.00     0.251 C 
ATOM     26  H   UNL     1       1.986   4.375   8.896  1.00  0.00     0.163 HD
ATOM     27  O   UNL     1       2.906   6.120  10.259  1.00  0.00    -0.269 OA
BRANCH  25  28
ATOM     28  C   UNL     1       0.723   6.854  10.735  1.00  0.00     0.039 A 
ATOM     29  C   UNL     1       1.046   8.199  10.931  1.00  0.00     0.014 A 
ATOM     30  C   UNL     1      -0.497   6.359  11.204  1.00  0.00     0.014 A 
ATOM     31  C   UNL     1       0.121   9.055  11.534  1.00  0.00     0.010 A 
ATOM     32  C   UNL     1      -1.455   7.231  11.716  1.00  0.00     0.010 A 
ATOM     33  C   UNL     1      -1.155   8.589  11.892  1.00  0.00    -0.014 A 
BRANCH  33  34
ATOM     34  C   UNL     1      -2.180   9.518  12.438  1.00  0.00     0.031 A 
ATOM     35  C   UNL     1      -2.731   9.320  13.825  1.00  0.00     0.074 A 
ATOM     36  C   UNL     1      -2.643  10.520  11.664  1.00  0.00     0.049 A 
ATOM     37  N   UNL     1      -3.641  10.014  14.460  1.00  0.00    -0.248 NA
ATOM     38  C   UNL     1      -2.209   8.177  14.589  1.00  0.00     0.031 C 
ATOM     39  C   UNL     1      -2.221  10.783  10.285  1.00  0.00     0.029 A 
ATOM     40  N   UNL     1      -3.564  11.505  11.919  1.00  0.00    -0.354 N 
ATOM     41  C   UNL     1      -3.804   9.392  15.694  1.00  0.00     0.074 A 
ATOM     42  C   UNL     1      -2.948   8.224  15.687  1.00  0.00     0.031 C 
ATOM     43  C   UNL     1      -2.850  11.878   9.833  1.00  0.00     0.029 A 
ATOM     44  C   UNL     1      -3.760  12.366  10.864  1.00  0.00     0.049 A 
ATOM     45  H   UNL     1      -4.040  11.587  12.777  1.00  0.00     0.167 HD
ATOM     46  C   UNL     1      -4.574   9.774  16.743  1.00  0.00     0.034 A 
ATOM     47  C   UNL     1      -4.587  13.422  10.734  1.00  0.00     0.034 A 
ATOM     48  C   UNL     1      -5.421  10.943  16.731  1.00  0.00     0.049 A 
ATOM     49  C   UNL     1      -5.459  13.806  11.902  1.00  0.00     0.074 A 
ATOM     50  C   UNL     1      -6.204  11.450  17.754  1.00  0.00     0.029 A 
ATOM     51  N   UNL     1      -5.610  11.781  15.639  1.00  0.00    -0.354 N 
ATOM     52  N   UNL     1      -5.555  13.242  13.085  1.00  0.00    -0.248 NA
ATOM     53  C   UNL     1      -6.325  14.978  11.722  1.00  0.00     0.031 C 
ATOM     54  C   UNL     1      -6.925  12.541  17.258  1.00  0.00     0.029 A 
ATOM     55  C   UNL     1      -6.526  12.775  15.952  1.00  0.00     0.049 A 
ATOM     56  H   UNL     1      -5.159  11.684  14.769  1.00  0.00     0.167 HD
ATOM     57  C   UNL     1      -6.474  14.008  13.797  1.00  0.00     0.074 A 
ATOM     58  C   UNL     1      -6.878  15.087  12.920  1.00  0.00     0.031 C 
ATOM     59  C   UNL     1      -6.941  13.835  15.061  1.00  0.00     0.034 A 
BRANCH  46  60
ATOM     60  C   UNL     1      -4.553   8.901  17.978  1.00  0.00     0.023 A 
ATOM     61  C   UNL     1      -3.374   8.693  18.717  1.00  0.00     0.031 A 
ATOM     62  C   UNL     1      -5.723   8.254  18.415  1.00  0.00     0.131 A 
ATOM     63  C   UNL     1      -3.374   7.803  19.802  1.00  0.00     0.055 A 
ATOM     64  C   UNL     1      -5.735   7.438  19.549  1.00  0.00     0.041 A 
ATOM     65  F   UNL     1      -6.875   8.394  17.740  1.00  0.00    -0.206 F 
ATOM     66  C   UNL     1      -4.552   7.196  20.241  1.00  0.00     0.022 A 
BRANCH  63  67
ATOM     67  S   UNL     1      -1.783   7.334  20.536  1.00  0.00     0.124 S 
ATOM     68  O   UNL     1      -1.077   6.782  19.382  1.00  0.00    -0.237 OA
ATOM     69  O   UNL     1      -1.282   8.606  21.044  1.00  0.00    -0.237 OA
ATOM     70  O   UNL     1      -2.151   6.355  21.557  1.00  0.00    -0.744 OA
ENDBRANCH  63  67
ENDBRANCH  46  60
BRANCH  47  71
ATOM     71  C   UNL     1      -4.646  14.184   9.453  1.00  0.00     0.023 A 
ATOM     72  C   UNL     1      -4.287  15.540   9.396  1.00  0.00     0.031 A 
ATOM     73  C   UNL     1      -5.107  13.575   8.271  1.00  0.00     0.131 A 
ATOM     74  C   UNL     1      -4.442  16.255   8.198  1.00  0.00     0.055 A 
ATOM     75  C   UNL     1      -5.200  14.275   7.067  1.00  0.00     0.041 A 
ATOM     76  F   UNL     1      -5.462  12.280   8.267  1.00  0.00    -0.206 F 
ATOM     77  C   UNL     1      -4.880  15.628   7.029  1.00  0.00     0.022 A 
BRANCH  74  78
ATOM     78  S   UNL     1      -4.154  18.046   8.211  1.00  0.00     0.124 S 
ATOM     79  O   UNL     1      -5.098  18.491   9.230  1.00  0.00    -0.237 OA
ATOM     80  O   UNL     1      -2.741  18.123   8.568  1.00  0.00    -0.237 OA
ATOM     81  O   UNL     1      -4.472  18.452   6.844  1.00  0.00    -0.744 OA
ENDBRANCH  74  78
ENDBRANCH  47  71
BRANCH  59  82
ATOM     82  C   UNL     1      -7.922  14.864  15.573  1.00  0.00     0.023 A 
ATOM     83  C   UNL     1      -9.188  15.035  14.985  1.00  0.00     0.031 A 
ATOM     84  C   UNL     1      -7.574  15.709  16.642  1.00  0.00     0.131 A 
ATOM     85  C   UNL     1     -10.027  16.073  15.417  1.00  0.00     0.055 A 
ATOM     86  C   UNL     1      -8.444  16.690  17.119  1.00  0.00     0.041 A 
ATOM     87  F   UNL     1      -6.377  15.597  17.240  1.00  0.00    -0.206 F 
ATOM     88  C   UNL     1      -9.671  16.889  16.494  1.00  0.00     0.022 A 
BRANCH  85  89
ATOM     89  S   UNL     1     -11.533  16.424  14.470  1.00  0.00     0.124 S 
ATOM     90  O   UNL     1     -11.000  16.668  13.134  1.00  0.00    -0.237 OA
ATOM     91  O   UNL     1     -12.300  15.193  14.635  1.00  0.00    -0.237 OA
ATOM     92  O   UNL     1     -12.093  17.597  15.138  1.00  0.00    -0.744 OA
ENDBRANCH  85  89
ENDBRANCH  59  82
ENDBRANCH  33  34
ENDBRANCH  25  28
ENDBRANCH  23  24
ENDBRANCH   1  23
TORSDOF 18
