REMARK SMILES O=C(NCCCNC(=O)[C@H]1CCC(=O)N(CCc2ccccc2F)[C@@H]1c1cccs1)c1ccc(-c2c3nc(c(-c4cc(S(=O)(=O)[O-])ccc4F)c4ccc([nH]4)c(-c4cc(S(=O)(=O)[O-])ccc4F)c4nc(c(-c5cc(S(=O)(=O)[O-])ccc5F)c5ccc2[nH]5)C=C4)C=C3)cc1
REMARK SMILES IDX 5 1 4 2 3 3 1 4 2 5 31 7 32 8 93 9 33 10 92 11 34 12 35 13
REMARK SMILES IDX 36 14 86 15 37 16 91 17 85 18 87 19 38 20 90 21 84 22 83 23
REMARK SMILES IDX 39 25 71 26 51 27 70 28 52 29 55 30 69 31 88 32 53 33 54 34
REMARK SMILES IDX 68 36 89 37 56 38 40 39 41 40 49 41 42 42 48 43 50 44 47 45
REMARK SMILES IDX 43 46 44 47 45 48 46 49 72 50 73 51 81 52 74 53 80 54 82 55
REMARK SMILES IDX 79 56 75 57 76 58 77 59 78 60 57 61 58 62 66 63 59 64 65 65
REMARK SMILES IDX 67 66 64 67 60 68 61 69 62 70 63 71 6 72 7 73 8 74 9 76
REMARK SMILES IDX 10 77 11 78 25 79 12 80 15 81 13 82 14 83 26 84 27 85 30 86
REMARK SMILES IDX 28 87 29 88 16 89 17 90 18 91 19 92 23 93 20 94 22 95 24 96
REMARK SMILES IDX 21 97
REMARK H PARENT 3 6 87 24 55 35 7 75
REMARK Flexibility Score: inf
ROOT
ATOM      1  C   UNL     1       9.239   4.462   2.276  1.00  0.00     0.042 C 
ENDROOT
BRANCH   1   2
ATOM      2  C   UNL     1       9.009   5.773   1.534  1.00  0.00     0.118 C 
BRANCH   2   3
ATOM      3  N   UNL     1       9.669   6.912   2.155  1.00  0.00    -0.352 N 
ATOM      4  O   UNL     1      11.320   8.388   2.579  1.00  0.00    -0.269 OA
ATOM      5  C   UNL     1      10.833   7.561   1.812  1.00  0.00     0.251 C 
ATOM      6  H   UNL     1       9.210   7.276   2.946  1.00  0.00     0.163 HD
BRANCH   5   7
ATOM      7  C   UNL     1      11.486   7.259   0.522  1.00  0.00     0.039 A 
ATOM      8  C   UNL     1      10.711   7.142  -0.632  1.00  0.00     0.014 A 
ATOM      9  C   UNL     1      12.872   7.096   0.455  1.00  0.00     0.014 A 
ATOM     10  C   UNL     1      11.284   6.673  -1.802  1.00  0.00     0.010 A 
ATOM     11  C   UNL     1      13.468   6.742  -0.760  1.00  0.00     0.010 A 
ATOM     12  C   UNL     1      12.673   6.497  -1.890  1.00  0.00    -0.014 A 
BRANCH  12  13
ATOM     13  C   UNL     1      13.263   6.131  -3.201  1.00  0.00     0.031 A 
ATOM     14  C   UNL     1      13.977   4.825  -3.394  1.00  0.00     0.074 A 
ATOM     15  C   UNL     1      13.083   6.975  -4.236  1.00  0.00     0.049 A 
ATOM     16  N   UNL     1      14.571   4.366  -4.465  1.00  0.00    -0.248 NA
ATOM     17  C   UNL     1      14.035   3.917  -2.239  1.00  0.00     0.031 C 
ATOM     18  C   UNL     1      12.367   8.254  -4.162  1.00  0.00     0.029 A 
ATOM     19  N   UNL     1      13.442   6.876  -5.553  1.00  0.00    -0.354 N 
ATOM     20  C   UNL     1      15.089   3.125  -4.113  1.00  0.00     0.074 A 
ATOM     21  C   UNL     1      14.757   2.913  -2.719  1.00  0.00     0.031 C 
ATOM     22  C   UNL     1      12.271   8.777  -5.391  1.00  0.00     0.029 A 
ATOM     23  C   UNL     1      12.999   7.926  -6.322  1.00  0.00     0.049 A 
ATOM     24  H   UNL     1      13.966   6.125  -5.915  1.00  0.00     0.167 HD
ATOM     25  C   UNL     1      15.775   2.248  -4.888  1.00  0.00     0.034 A 
ATOM     26  C   UNL     1      13.180   8.193  -7.628  1.00  0.00     0.034 A 
ATOM     27  C   UNL     1      16.094   2.485  -6.276  1.00  0.00     0.049 A 
ATOM     28  C   UNL     1      14.001   7.242  -8.444  1.00  0.00     0.074 A 
ATOM     29  C   UNL     1      16.813   1.684  -7.146  1.00  0.00     0.029 A 
ATOM     30  N   UNL     1      15.707   3.607  -7.000  1.00  0.00    -0.354 N 
ATOM     31  N   UNL     1      14.564   6.117  -8.072  1.00  0.00    -0.248 NA
ATOM     32  C   UNL     1      14.228   7.604  -9.847  1.00  0.00     0.031 C 
ATOM     33  C   UNL     1      16.904   2.343  -8.378  1.00  0.00     0.029 A 
ATOM     34  C   UNL     1      16.185   3.526  -8.299  1.00  0.00     0.049 A 
ATOM     35  H   UNL     1      15.172   4.352  -6.642  1.00  0.00     0.167 HD
ATOM     36  C   UNL     1      15.210   5.629  -9.200  1.00  0.00     0.074 A 
ATOM     37  C   UNL     1      14.955   6.578 -10.268  1.00  0.00     0.031 C 
ATOM     38  C   UNL     1      15.943   4.496  -9.340  1.00  0.00     0.034 A 
BRANCH  25  39
ATOM     39  C   UNL     1      16.269   0.980  -4.237  1.00  0.00     0.023 A 
ATOM     40  C   UNL     1      15.384  -0.022  -3.803  1.00  0.00     0.031 A 
ATOM     41  C   UNL     1      17.647   0.771  -4.047  1.00  0.00     0.131 A 
ATOM     42  C   UNL     1      15.883  -1.166  -3.160  1.00  0.00     0.055 A 
ATOM     43  C   UNL     1      18.141  -0.398  -3.465  1.00  0.00     0.041 A 
ATOM     44  F   UNL     1      18.537   1.703  -4.422  1.00  0.00    -0.206 F 
ATOM     45  C   UNL     1      17.257  -1.371  -3.009  1.00  0.00     0.022 A 
BRANCH  42  46
ATOM     46  S   UNL     1      14.708  -2.342  -2.436  1.00  0.00     0.124 S 
ATOM     47  O   UNL     1      14.059  -1.520  -1.417  1.00  0.00    -0.237 OA
ATOM     48  O   UNL     1      13.882  -2.711  -3.580  1.00  0.00    -0.237 OA
ATOM     49  O   UNL     1      15.564  -3.407  -1.916  1.00  0.00    -0.744 OA
ENDBRANCH  42  46
ENDBRANCH  25  39
BRANCH  26  50
ATOM     50  C   UNL     1      12.595   9.429  -8.211  1.00  0.00     0.023 A 
ATOM     51  C   UNL     1      11.519   9.362  -9.107  1.00  0.00     0.031 A 
ATOM     52  C   UNL     1      13.070  10.698  -7.833  1.00  0.00     0.131 A 
ATOM     53  C   UNL     1      10.951  10.546  -9.600  1.00  0.00     0.055 A 
ATOM     54  C   UNL     1      12.478  11.873  -8.297  1.00  0.00     0.041 A 
ATOM     55  F   UNL     1      14.087  10.810  -6.964  1.00  0.00    -0.206 F 
ATOM     56  C   UNL     1      11.413  11.800  -9.189  1.00  0.00     0.022 A 
BRANCH  53  57
ATOM     57  S   UNL     1       9.589  10.429 -10.791  1.00  0.00     0.124 S 
ATOM     58  O   UNL     1      10.251   9.821 -11.940  1.00  0.00    -0.237 OA
ATOM     59  O   UNL     1       8.632   9.587 -10.081  1.00  0.00    -0.237 OA
ATOM     60  O   UNL     1       9.174  11.819 -10.971  1.00  0.00    -0.744 OA
ENDBRANCH  53  57
ENDBRANCH  26  50
BRANCH  38  61
ATOM     61  C   UNL     1      16.495   4.215 -10.711  1.00  0.00     0.023 A 
ATOM     62  C   UNL     1      17.547   4.976 -11.248  1.00  0.00     0.031 A 
ATOM     63  C   UNL     1      15.958   3.174 -11.487  1.00  0.00     0.131 A 
ATOM     64  C   UNL     1      18.002   4.710 -12.547  1.00  0.00     0.055 A 
ATOM     65  C   UNL     1      16.448   2.883 -12.759  1.00  0.00     0.041 A 
ATOM     66  F   UNL     1      14.950   2.423 -11.016  1.00  0.00    -0.206 F 
ATOM     67  C   UNL     1      17.470   3.658 -13.300  1.00  0.00     0.022 A 
BRANCH  64  68
ATOM     68  S   UNL     1      19.263   5.796 -13.268  1.00  0.00     0.124 S 
ATOM     69  O   UNL     1      18.562   7.075 -13.324  1.00  0.00    -0.237 OA
ATOM     70  O   UNL     1      20.349   5.706 -12.298  1.00  0.00    -0.237 OA
ATOM     71  O   UNL     1      19.541   5.184 -14.566  1.00  0.00    -0.744 OA
ENDBRANCH  64  68
ENDBRANCH  38  61
ENDBRANCH  12  13
ENDBRANCH   5   7
ENDBRANCH   2   3
ENDBRANCH   1   2
BRANCH   1  72
ATOM     72  C   UNL     1       8.310   4.250   3.466  1.00  0.00     0.117 C 
BRANCH  72  73
ATOM     73  N   UNL     1       6.915   4.196   3.066  1.00  0.00    -0.356 N 
ATOM     74  C   UNL     1       5.788   3.797   3.695  1.00  0.00     0.225 C 
ATOM     75  H   UNL     1       6.759   4.516   2.148  1.00  0.00     0.163 HD
ATOM     76  O   UNL     1       4.769   3.783   2.995  1.00  0.00    -0.275 OA
BRANCH  74  77
ATOM     77  C   UNL     1       5.717   3.345   5.151  1.00  0.00     0.107 C 
ATOM     78  C   UNL     1       6.675   2.199   5.432  1.00  0.00     0.026 C 
ATOM     79  C   UNL     1       5.862   4.459   6.218  1.00  0.00     0.138 C 
ATOM     80  C   UNL     1       6.269   1.577   6.743  1.00  0.00     0.101 C 
ATOM     81  N   UNL     1       6.111   3.916   7.612  1.00  0.00    -0.334 N 
ATOM     82  C   UNL     1       6.407   2.570   7.869  1.00  0.00     0.223 C 
ATOM     83  O   UNL     1       6.726   2.157   8.987  1.00  0.00    -0.275 OA
BRANCH  79  84
ATOM     84  C   UNL     1       4.734   5.518   6.187  1.00  0.00     0.028 A 
ATOM     85  C   UNL     1       4.735   6.795   6.729  1.00  0.00     0.017 A 
ATOM     86  S   UNL     1       3.249   5.302   5.332  1.00  0.00    -0.147 S 
ATOM     87  C   UNL     1       3.639   7.612   6.344  1.00  0.00     0.012 A 
ATOM     88  C   UNL     1       2.799   6.940   5.495  1.00  0.00     0.065 A 
ENDBRANCH  79  84
BRANCH  81  89
ATOM     89  C   UNL     1       6.333   4.818   8.767  1.00  0.00     0.125 C 
BRANCH  89  90
ATOM     90  C   UNL     1       7.763   5.389   8.928  1.00  0.00     0.060 C 
BRANCH  90  91
ATOM     91  C   UNL     1       8.062   6.588   8.063  1.00  0.00    -0.010 A 
ATOM     92  C   UNL     1       7.627   7.876   8.419  1.00  0.00     0.007 A 
ATOM     93  C   UNL     1       8.709   6.427   6.840  1.00  0.00     0.126 A 
ATOM     94  C   UNL     1       7.721   8.933   7.505  1.00  0.00     0.000 A 
ATOM     95  C   UNL     1       8.821   7.478   5.938  1.00  0.00     0.039 A 
ATOM     96  F   UNL     1       9.168   5.218   6.484  1.00  0.00    -0.207 F 
ATOM     97  C   UNL     1       8.292   8.726   6.251  1.00  0.00     0.003 A 
ENDBRANCH  90  91
ENDBRANCH  89  90
ENDBRANCH  81  89
ENDBRANCH  74  77
ENDBRANCH  72  73
ENDBRANCH   1  72
TORSDOF 17
