REMARK SMILES CC(=O)Oc1ccccc1C(=O)NCCCNC(=O)c1ccc(-c2c3nc(c(-c4cc(S(=O)(=O)[O-])ccc4F)c4ccc([nH]4)c(-c4cc(S(=O)(=O)[O-])ccc4F)c4nc(c(-c5cc(S(=O)(=O)[O-])ccc5F)c5ccc2[nH]5)C=C4)C=C3)cc1
REMARK SMILES IDX 15 1 14 2 13 3 11 4 12 5 10 7 5 8 6 9 7 10 9 11 8 12 4 13
REMARK SMILES IDX 2 14 1 15 3 16 16 17 17 18 18 19 19 21 20 22 21 23 82 24
REMARK SMILES IDX 22 25 81 26 23 27 24 28 25 29 75 30 26 31 80 32 74 33 76 34
REMARK SMILES IDX 27 35 79 36 73 37 72 38 28 40 60 41 40 42 59 43 41 44 44 45
REMARK SMILES IDX 58 46 77 47 42 48 43 49 57 51 78 52 45 53 29 54 30 55 38 56
REMARK SMILES IDX 31 57 37 58 39 59 36 60 32 61 33 62 34 63 35 64 61 65 62 66
REMARK SMILES IDX 70 67 63 68 69 69 71 70 68 71 64 72 65 73 66 74 67 75 46 76
REMARK SMILES IDX 47 77 55 78 48 79 54 80 56 81 53 82 49 83 50 84 51 85 52 86
REMARK H PARENT 13 6 17 20 76 39 44 50
REMARK Flexibility Score: inf
ROOT
ATOM      1  C   UNL     1      -0.852  -0.904   1.570  1.00  0.00     0.042 C 
ENDROOT
BRANCH   1   2
ATOM      2  C   UNL     1      -0.454   0.544   1.388  1.00  0.00     0.118 C 
BRANCH   2   3
ATOM      3  N   UNL     1      -1.499   1.449   0.979  1.00  0.00    -0.352 N 
ATOM      4  C   UNL     1      -1.567   2.814   1.114  1.00  0.00     0.255 C 
ATOM      5  O   UNL     1      -2.534   3.386   0.606  1.00  0.00    -0.269 OA
ATOM      6  H   UNL     1      -2.273   1.029   0.540  1.00  0.00     0.163 HD
BRANCH   4   7
ATOM      7  C   UNL     1      -0.610   3.615   1.934  1.00  0.00     0.082 A 
ATOM      8  C   UNL     1       0.781   3.473   2.039  1.00  0.00     0.143 A 
ATOM      9  C   UNL     1       1.521   4.267   2.928  1.00  0.00     0.048 A 
ATOM     10  C   UNL     1       0.891   5.247   3.692  1.00  0.00     0.004 A 
ATOM     11  C   UNL     1      -1.218   4.636   2.695  1.00  0.00     0.018 A 
ATOM     12  C   UNL     1      -0.479   5.440   3.567  1.00  0.00     0.001 A 
BRANCH   8  13
ATOM     13  O   UNL     1       1.540   2.470   1.415  1.00  0.00    -0.426 OA
BRANCH  13  14
ATOM     14  C   UNL     1       1.838   2.590   0.065  1.00  0.00     0.308 C 
ATOM     15  C   UNL     1       2.650   1.396  -0.360  1.00  0.00     0.139 C 
ATOM     16  O   UNL     1       1.520   3.526  -0.667  1.00  0.00    -0.252 OA
ENDBRANCH  13  14
ENDBRANCH   8  13
ENDBRANCH   4   7
ENDBRANCH   2   3
ENDBRANCH   1   2
BRANCH   1  17
ATOM     17  C   UNL     1      -1.311  -1.608   0.300  1.00  0.00     0.118 C 
BRANCH  17  18
ATOM     18  N   UNL     1      -0.350  -1.574  -0.800  1.00  0.00    -0.352 N 
ATOM     19  C   UNL     1       0.507  -2.511  -1.335  1.00  0.00     0.251 C 
ATOM     20  H   UNL     1      -0.306  -0.701  -1.254  1.00  0.00     0.163 HD
ATOM     21  O   UNL     1       1.299  -2.145  -2.203  1.00  0.00    -0.269 OA
BRANCH  19  22
ATOM     22  C   UNL     1       0.537  -3.915  -0.857  1.00  0.00     0.039 A 
ATOM     23  C   UNL     1       1.750  -4.616  -0.862  1.00  0.00     0.014 A 
ATOM     24  C   UNL     1      -0.609  -4.564  -0.412  1.00  0.00     0.014 A 
ATOM     25  C   UNL     1       1.821  -5.904  -0.318  1.00  0.00     0.010 A 
ATOM     26  C   UNL     1      -0.511  -5.774   0.264  1.00  0.00     0.010 A 
ATOM     27  C   UNL     1       0.703  -6.470   0.315  1.00  0.00    -0.014 A 
BRANCH  27  28
ATOM     28  C   UNL     1       0.756  -7.785   1.014  1.00  0.00     0.031 A 
ATOM     29  C   UNL     1      -0.209  -8.881   0.629  1.00  0.00     0.074 A 
ATOM     30  C   UNL     1       1.593  -7.961   2.058  1.00  0.00     0.049 A 
ATOM     31  N   UNL     1      -0.440 -10.028   1.214  1.00  0.00    -0.248 NA
ATOM     32  C   UNL     1      -1.069  -8.626  -0.539  1.00  0.00     0.031 C 
ATOM     33  C   UNL     1       2.532  -6.959   2.571  1.00  0.00     0.029 A 
ATOM     34  N   UNL     1       1.781  -9.039   2.888  1.00  0.00    -0.354 N 
ATOM     35  C   UNL     1      -1.494 -10.607   0.513  1.00  0.00     0.074 A 
ATOM     36  C   UNL     1      -1.904  -9.651  -0.491  1.00  0.00     0.031 C 
ATOM     37  C   UNL     1       3.218  -7.481   3.600  1.00  0.00     0.029 A 
ATOM     38  C   UNL     1       2.733  -8.831   3.862  1.00  0.00     0.049 A 
ATOM     39  H   UNL     1       1.282  -9.882   2.796  1.00  0.00     0.167 HD
ATOM     40  C   UNL     1      -2.049 -11.835   0.668  1.00  0.00     0.034 A 
ATOM     41  C   UNL     1       3.157  -9.631   4.861  1.00  0.00     0.034 A 
ATOM     42  C   UNL     1      -1.592 -12.797   1.640  1.00  0.00     0.049 A 
ATOM     43  C   UNL     1       2.542 -11.002   5.000  1.00  0.00     0.074 A 
ATOM     44  C   UNL     1      -2.020 -14.099   1.832  1.00  0.00     0.029 A 
ATOM     45  N   UNL     1      -0.597 -12.563   2.581  1.00  0.00    -0.354 N 
ATOM     46  N   UNL     1       1.585 -11.554   4.290  1.00  0.00    -0.248 NA
ATOM     47  C   UNL     1       3.073 -11.861   6.066  1.00  0.00     0.031 C 
ATOM     48  C   UNL     1      -1.331 -14.630   2.928  1.00  0.00     0.029 A 
ATOM     49  C   UNL     1      -0.418 -13.687   3.372  1.00  0.00     0.049 A 
ATOM     50  H   UNL     1      -0.094 -11.722   2.673  1.00  0.00     0.167 HD
ATOM     51  C   UNL     1       1.423 -12.837   4.806  1.00  0.00     0.074 A 
ATOM     52  C   UNL     1       2.394 -12.981   5.871  1.00  0.00     0.031 C 
ATOM     53  C   UNL     1       0.553 -13.810   4.433  1.00  0.00     0.034 A 
BRANCH  40  54
ATOM     54  C   UNL     1      -3.212 -12.198  -0.227  1.00  0.00     0.023 A 
ATOM     55  C   UNL     1      -3.079 -12.261  -1.625  1.00  0.00     0.031 A 
ATOM     56  C   UNL     1      -4.479 -12.462   0.323  1.00  0.00     0.131 A 
ATOM     57  C   UNL     1      -4.206 -12.496  -2.428  1.00  0.00     0.055 A 
ATOM     58  C   UNL     1      -5.578 -12.784  -0.477  1.00  0.00     0.041 A 
ATOM     59  F   UNL     1      -4.676 -12.399   1.650  1.00  0.00    -0.206 F 
ATOM     60  C   UNL     1      -5.449 -12.785  -1.863  1.00  0.00     0.022 A 
BRANCH  57  61
ATOM     61  S   UNL     1      -4.051 -12.271  -4.221  1.00  0.00     0.124 S 
ATOM     62  O   UNL     1      -3.652 -10.867  -4.306  1.00  0.00    -0.237 OA
ATOM     63  O   UNL     1      -3.028 -13.248  -4.575  1.00  0.00    -0.237 OA
ATOM     64  O   UNL     1      -5.393 -12.561  -4.720  1.00  0.00    -0.744 OA
ENDBRANCH  57  61
ENDBRANCH  40  54
BRANCH  41  65
ATOM     65  C   UNL     1       4.211  -9.169   5.812  1.00  0.00     0.023 A 
ATOM     66  C   UNL     1       5.455  -9.816   5.879  1.00  0.00     0.031 A 
ATOM     67  C   UNL     1       3.976  -8.104   6.700  1.00  0.00     0.131 A 
ATOM     68  C   UNL     1       6.396  -9.431   6.848  1.00  0.00     0.055 A 
ATOM     69  C   UNL     1       4.936  -7.687   7.623  1.00  0.00     0.041 A 
ATOM     70  F   UNL     1       2.807  -7.445   6.675  1.00  0.00    -0.206 F 
ATOM     71  C   UNL     1       6.150  -8.362   7.711  1.00  0.00     0.022 A 
BRANCH  68  72
ATOM     72  S   UNL     1       7.910 -10.413   7.027  1.00  0.00     0.124 S 
ATOM     73  O   UNL     1       7.372 -11.746   7.276  1.00  0.00    -0.237 OA
ATOM     74  O   UNL     1       8.554 -10.213   5.733  1.00  0.00    -0.237 OA
ATOM     75  O   UNL     1       8.587  -9.790   8.162  1.00  0.00    -0.744 OA
ENDBRANCH  68  72
ENDBRANCH  41  65
BRANCH  53  76
ATOM     76  C   UNL     1       0.652 -15.130   5.156  1.00  0.00     0.023 A 
ATOM     77  C   UNL     1       0.331 -15.254   6.518  1.00  0.00     0.031 A 
ATOM     78  C   UNL     1       1.082 -16.280   4.469  1.00  0.00     0.131 A 
ATOM     79  C   UNL     1       0.501 -16.486   7.166  1.00  0.00     0.055 A 
ATOM     80  C   UNL     1       1.187 -17.518   5.104  1.00  0.00     0.041 A 
ATOM     81  F   UNL     1       1.403 -16.219   3.167  1.00  0.00    -0.206 F 
ATOM     82  C   UNL     1       0.908 -17.623   6.463  1.00  0.00     0.022 A 
BRANCH  79  83
ATOM     83  S   UNL     1       0.271 -16.562   8.963  1.00  0.00     0.124 S 
ATOM     84  O   UNL     1       1.249 -15.586   9.435  1.00  0.00    -0.237 OA
ATOM     85  O   UNL     1      -1.130 -16.185   9.116  1.00  0.00    -0.237 OA
ATOM     86  O   UNL     1       0.577 -17.954   9.290  1.00  0.00    -0.744 OA
ENDBRANCH  79  83
ENDBRANCH  53  76
ENDBRANCH  27  28
ENDBRANCH  19  22
ENDBRANCH  17  18
ENDBRANCH   1  17
TORSDOF 15
