REMARK SMILES CC(C)[NH2+][C@]1(C(=O)NCCCNC(=O)c2ccc(-c3c4nc(c(-c5cc(S(=O)(=O)[O-])ccc5F)c5ccc([nH]5)c(-c5cc(S(=O)(=O)[O-])ccc5F)c5nc(c(-c6cc(S(=O)(=O)[O-])ccc6F)c6ccc3[nH]6)C=C5)C=C4)cc2)CCC[C@H]([N@H+](C)C2CCCCC2)C1
REMARK SMILES IDX 10 1 9 2 8 3 6 4 7 5 5 7 78 8 90 9 79 10 81 11 80 12 4 13
REMARK SMILES IDX 2 16 1 17 3 18 82 19 83 20 84 22 85 23 89 24 86 25 88 26
REMARK SMILES IDX 87 27 11 28 12 29 13 30 14 32 15 33 16 34 77 35 17 36 76 37
REMARK SMILES IDX 18 38 19 39 20 40 70 41 21 42 75 43 69 44 71 45 22 46 74 47
REMARK SMILES IDX 68 48 67 49 23 51 55 52 35 53 54 54 36 55 39 56 53 57 72 58
REMARK SMILES IDX 37 59 38 60 52 62 73 63 40 64 24 65 25 66 33 67 26 68 32 69
REMARK SMILES IDX 34 70 31 71 27 72 28 73 29 74 30 75 56 76 57 77 65 78 58 79
REMARK SMILES IDX 64 80 66 81 63 82 59 83 60 84 61 85 62 86 41 87 42 88 50 89
REMARK SMILES IDX 43 90 49 91 51 92 48 93 44 94 45 95 46 96 47 97
REMARK H PARENT 8 6 4 14 4 15 82 21 12 31 71 50 39 61
REMARK Flexibility Score: inf
ROOT
ATOM      1  C   UNL     1       1.961  -2.915   0.406  1.00  0.00     0.042 C 
ENDROOT
BRANCH   1   2
ATOM      2  C   UNL     1       0.799  -2.378   1.240  1.00  0.00     0.118 C 
BRANCH   2   3
ATOM      3  N   UNL     1      -0.035  -1.411   0.538  1.00  0.00    -0.351 N 
ATOM      4  C   UNL     1      -1.195  -1.523  -0.171  1.00  0.00     0.281 C 
ATOM      5  O   UNL     1      -1.917  -0.516  -0.085  1.00  0.00    -0.268 OA
ATOM      6  H   UNL     1       0.308  -0.489   0.585  1.00  0.00     0.163 HD
BRANCH   4   7
ATOM      7  C   UNL     1      -1.624  -2.734  -1.129  1.00  0.00     0.181 C 
ATOM      8  C   UNL     1      -0.678  -3.981  -1.030  1.00  0.00     0.079 C 
ATOM      9  C   UNL     1      -3.046  -3.170  -0.709  1.00  0.00     0.144 C 
ATOM     10  C   UNL     1      -1.190  -5.424  -1.139  1.00  0.00     0.013 C 
ATOM     11  C   UNL     1      -3.564  -4.546  -1.180  1.00  0.00     0.190 C 
ATOM     12  C   UNL     1      -2.606  -5.610  -0.639  1.00  0.00     0.065 C 
BRANCH   7  13
ATOM     13  N   UNL     1      -1.553  -2.223  -2.541  1.00  0.00    -0.331 N 
ATOM     14  H   UNL     1      -0.564  -2.075  -2.741  1.00  0.00     0.347 HD
ATOM     15  H   UNL     1      -2.062  -2.942  -3.054  1.00  0.00     0.347 HD
BRANCH  13  16
ATOM     16  C   UNL     1      -2.251  -0.986  -2.967  1.00  0.00     0.176 C 
ATOM     17  C   UNL     1      -1.934  -0.793  -4.462  1.00  0.00     0.075 C 
ATOM     18  C   UNL     1      -3.776  -0.912  -2.819  1.00  0.00     0.075 C 
ENDBRANCH  13  16
ENDBRANCH   7  13
BRANCH  11  19
ATOM     19  N   UNL     1      -3.911  -4.825  -2.586  1.00  0.00    -0.332 N 
ATOM     20  C   UNL     1      -2.959  -4.558  -3.647  1.00  0.00     0.333 C 
ATOM     21  H   UNL     1      -3.762  -5.832  -2.530  1.00  0.00     0.348 HD
BRANCH  19  22
ATOM     22  C   UNL     1      -5.332  -4.662  -2.952  1.00  0.00     0.184 C 
ATOM     23  C   UNL     1      -5.589  -4.534  -4.478  1.00  0.00     0.065 C 
ATOM     24  C   UNL     1      -6.117  -5.872  -2.397  1.00  0.00     0.065 C 
ATOM     25  C   UNL     1      -7.065  -4.529  -4.848  1.00  0.00     0.006 C 
ATOM     26  C   UNL     1      -7.590  -5.859  -2.798  1.00  0.00     0.006 C 
ATOM     27  C   UNL     1      -7.760  -5.768  -4.308  1.00  0.00     0.000 C 
ENDBRANCH  19  22
ENDBRANCH  11  19
ENDBRANCH   4   7
ENDBRANCH   2   3
ENDBRANCH   1   2
BRANCH   1  28
ATOM     28  C   UNL     1       3.271  -2.175   0.631  1.00  0.00     0.118 C 
BRANCH  28  29
ATOM     29  N   UNL     1       3.815  -2.427   1.958  1.00  0.00    -0.352 N 
ATOM     30  C   UNL     1       4.917  -3.143   2.347  1.00  0.00     0.251 C 
ATOM     31  H   UNL     1       3.308  -2.017   2.696  1.00  0.00     0.163 HD
ATOM     32  O   UNL     1       5.021  -3.459   3.538  1.00  0.00    -0.269 OA
BRANCH  30  33
ATOM     33  C   UNL     1       5.968  -3.539   1.384  1.00  0.00     0.039 A 
ATOM     34  C   UNL     1       6.649  -4.745   1.580  1.00  0.00     0.014 A 
ATOM     35  C   UNL     1       6.344  -2.701   0.331  1.00  0.00     0.014 A 
ATOM     36  C   UNL     1       7.672  -5.124   0.704  1.00  0.00     0.010 A 
ATOM     37  C   UNL     1       7.296  -3.121  -0.594  1.00  0.00     0.010 A 
ATOM     38  C   UNL     1       7.989  -4.325  -0.405  1.00  0.00    -0.014 A 
BRANCH  38  39
ATOM     39  C   UNL     1       9.074  -4.697  -1.351  1.00  0.00     0.031 A 
ATOM     40  C   UNL     1      10.273  -3.795  -1.501  1.00  0.00     0.074 A 
ATOM     41  C   UNL     1       8.949  -5.799  -2.117  1.00  0.00     0.049 A 
ATOM     42  N   UNL     1      11.267  -3.869  -2.348  1.00  0.00    -0.248 NA
ATOM     43  C   UNL     1      10.341  -2.632  -0.601  1.00  0.00     0.031 C 
ATOM     44  C   UNL     1       7.816  -6.726  -2.086  1.00  0.00     0.029 A 
ATOM     45  N   UNL     1       9.776  -6.322  -3.079  1.00  0.00    -0.354 N 
ATOM     46  C   UNL     1      12.059  -2.751  -2.104  1.00  0.00     0.074 A 
ATOM     47  C   UNL     1      11.398  -1.987  -1.069  1.00  0.00     0.031 C 
ATOM     48  C   UNL     1       8.030  -7.714  -2.970  1.00  0.00     0.029 A 
ATOM     49  C   UNL     1       9.288  -7.468  -3.666  1.00  0.00     0.049 A 
ATOM     50  H   UNL     1      10.638  -5.915  -3.327  1.00  0.00     0.167 HD
ATOM     51  C   UNL     1      13.240  -2.406  -2.675  1.00  0.00     0.034 A 
ATOM     52  C   UNL     1       9.794  -8.225  -4.660  1.00  0.00     0.034 A 
ATOM     53  C   UNL     1      13.902  -3.203  -3.678  1.00  0.00     0.049 A 
ATOM     54  C   UNL     1      11.114  -7.825  -5.272  1.00  0.00     0.074 A 
ATOM     55  C   UNL     1      15.129  -2.988  -4.280  1.00  0.00     0.029 A 
ATOM     56  N   UNL     1      13.390  -4.373  -4.226  1.00  0.00    -0.354 N 
ATOM     57  N   UNL     1      11.872  -6.788  -4.997  1.00  0.00    -0.248 NA
ATOM     58  C   UNL     1      11.652  -8.704  -6.318  1.00  0.00     0.031 C 
ATOM     59  C   UNL     1      15.333  -3.993  -5.232  1.00  0.00     0.029 A 
ATOM     60  C   UNL     1      14.267  -4.876  -5.175  1.00  0.00     0.049 A 
ATOM     61  H   UNL     1      12.531  -4.784  -3.978  1.00  0.00     0.167 HD
ATOM     62  C   UNL     1      12.992  -6.911  -5.813  1.00  0.00     0.074 A 
ATOM     63  C   UNL     1      12.818  -8.130  -6.576  1.00  0.00     0.031 C 
ATOM     64  C   UNL     1      14.071  -6.094  -5.924  1.00  0.00     0.034 A 
BRANCH  51  65
ATOM     65  C   UNL     1      13.876  -1.105  -2.242  1.00  0.00     0.023 A 
ATOM     66  C   UNL     1      14.306  -0.895  -0.920  1.00  0.00     0.031 A 
ATOM     67  C   UNL     1      14.039  -0.053  -3.161  1.00  0.00     0.131 A 
ATOM     68  C   UNL     1      14.811   0.357  -0.537  1.00  0.00     0.055 A 
ATOM     69  C   UNL     1      14.617   1.164  -2.793  1.00  0.00     0.041 A 
ATOM     70  F   UNL     1      13.629  -0.186  -4.432  1.00  0.00    -0.206 F 
ATOM     71  C   UNL     1      14.994   1.380  -1.471  1.00  0.00     0.022 A 
BRANCH  68  72
ATOM     72  S   UNL     1      15.103   0.673   1.224  1.00  0.00     0.124 S 
ATOM     73  O   UNL     1      13.762   0.503   1.779  1.00  0.00    -0.237 OA
ATOM     74  O   UNL     1      16.074  -0.358   1.574  1.00  0.00    -0.237 OA
ATOM     75  O   UNL     1      15.611   2.043   1.248  1.00  0.00    -0.744 OA
ENDBRANCH  68  72
ENDBRANCH  51  65
BRANCH  52  76
ATOM     76  C   UNL     1       9.061  -9.429  -5.149  1.00  0.00     0.023 A 
ATOM     77  C   UNL     1       9.615 -10.712  -5.019  1.00  0.00     0.031 A 
ATOM     78  C   UNL     1       7.821  -9.311  -5.801  1.00  0.00     0.131 A 
ATOM     79  C   UNL     1       8.960 -11.819  -5.581  1.00  0.00     0.055 A 
ATOM     80  C   UNL     1       7.145 -10.423  -6.308  1.00  0.00     0.041 A 
ATOM     81  F   UNL     1       7.241  -8.109  -5.948  1.00  0.00    -0.206 F 
ATOM     82  C   UNL     1       7.723 -11.685  -6.214  1.00  0.00     0.022 A 
BRANCH  79  83
ATOM     83  S   UNL     1       9.803 -13.425  -5.563  1.00  0.00     0.124 S 
ATOM     84  O   UNL     1      11.065 -13.107  -6.221  1.00  0.00    -0.237 OA
ATOM     85  O   UNL     1       9.878 -13.710  -4.134  1.00  0.00    -0.237 OA
ATOM     86  O   UNL     1       8.903 -14.290  -6.324  1.00  0.00    -0.744 OA
ENDBRANCH  79  83
ENDBRANCH  52  76
BRANCH  64  87
ATOM     87  C   UNL     1      15.162  -6.529  -6.869  1.00  0.00     0.023 A 
ATOM     88  C   UNL     1      14.963  -6.568  -8.259  1.00  0.00     0.031 A 
ATOM     89  C   UNL     1      16.415  -6.922  -6.365  1.00  0.00     0.131 A 
ATOM     90  C   UNL     1      15.983  -7.045  -9.096  1.00  0.00     0.055 A 
ATOM     91  C   UNL     1      17.446  -7.338  -7.207  1.00  0.00     0.041 A 
ATOM     92  F   UNL     1      16.657  -6.904  -5.045  1.00  0.00    -0.206 F 
ATOM     93  C   UNL     1      17.229  -7.414  -8.580  1.00  0.00     0.022 A 
BRANCH  90  94
ATOM     94  S   UNL     1      15.629  -7.262 -10.861  1.00  0.00     0.124 S 
ATOM     95  O   UNL     1      14.509  -8.197 -10.833  1.00  0.00    -0.237 OA
ATOM     96  O   UNL     1      15.313  -5.902 -11.285  1.00  0.00    -0.237 OA
ATOM     97  O   UNL     1      16.876  -7.804 -11.397  1.00  0.00    -0.744 OA
ENDBRANCH  90  94
ENDBRANCH  64  87
ENDBRANCH  38  39
ENDBRANCH  30  33
ENDBRANCH  28  29
ENDBRANCH   1  28
TORSDOF 17
