REMARK SMILES O=C(NCCCNC(=O)c1sccc1S(=O)(=O)NC[C@H](O)c1ccccc1)c1ccc(-c2c3nc(c(-c4cc(S(=O)(=O)[O-])ccc4F)c4ccc([nH]4)c(-c4cc(S(=O)(=O)[O-])ccc4F)c4nc(c(-c5cc(S(=O)(=O)[O-])ccc5F)c5ccc2[nH]5)C=C4)C=C3)cc1
REMARK SMILES IDX 6 1 5 2 4 3 3 4 1 5 2 6 28 8 29 9 90 10 30 11 89 12 31 13
REMARK SMILES IDX 32 14 33 15 83 16 34 17 88 18 82 19 84 20 35 21 87 22 81 23
REMARK SMILES IDX 80 24 36 26 68 27 48 28 67 29 49 30 52 31 66 32 85 33 50 34
REMARK SMILES IDX 51 35 65 37 86 38 53 39 37 40 38 41 46 42 39 43 45 44 47 45
REMARK SMILES IDX 44 46 40 47 41 48 42 49 43 50 69 51 70 52 78 53 71 54 77 55
REMARK SMILES IDX 79 56 76 57 72 58 73 59 74 60 75 61 54 62 55 63 63 64 56 65
REMARK SMILES IDX 62 66 64 67 61 68 57 69 58 70 59 71 60 72 7 73 8 74 9 76
REMARK SMILES IDX 10 77 11 78 14 79 12 80 13 81 15 82 16 83 17 84 18 85 19 87
REMARK SMILES IDX 20 88 22 89 23 90 27 91 24 92 26 93 25 94 21 95
REMARK H PARENT 3 7 84 25 52 36 7 75 18 86 21 96
REMARK Flexibility Score: inf
ROOT
ATOM      1  C   UNL     1      -2.231  -5.172   5.155  1.00  0.00     0.118 C 
ENDROOT
BRANCH   1   2
ATOM      2  C   UNL     1      -3.391  -5.483   4.223  1.00  0.00     0.042 C 
BRANCH   2   3
ATOM      3  C   UNL     1      -3.071  -5.350   2.738  1.00  0.00     0.118 C 
BRANCH   3   4
ATOM      4  N   UNL     1      -2.076  -6.299   2.255  1.00  0.00    -0.352 N 
ATOM      5  O   UNL     1      -1.265  -8.114   1.191  1.00  0.00    -0.269 OA
ATOM      6  C   UNL     1      -2.215  -7.363   1.391  1.00  0.00     0.251 C 
ATOM      7  H   UNL     1      -1.164  -6.159   2.599  1.00  0.00     0.163 HD
BRANCH   6   8
ATOM      8  C   UNL     1      -3.519  -7.615   0.739  1.00  0.00     0.039 A 
ATOM      9  C   UNL     1      -4.235  -6.571   0.152  1.00  0.00     0.014 A 
ATOM     10  C   UNL     1      -4.047  -8.908   0.747  1.00  0.00     0.014 A 
ATOM     11  C   UNL     1      -5.553  -6.773  -0.241  1.00  0.00     0.010 A 
ATOM     12  C   UNL     1      -5.334  -9.131   0.250  1.00  0.00     0.010 A 
ATOM     13  C   UNL     1      -6.117  -8.057  -0.203  1.00  0.00    -0.014 A 
BRANCH  13  14
ATOM     14  C   UNL     1      -7.516  -8.267  -0.660  1.00  0.00     0.031 A 
ATOM     15  C   UNL     1      -8.562  -8.796   0.284  1.00  0.00     0.074 A 
ATOM     16  C   UNL     1      -7.840  -7.983  -1.936  1.00  0.00     0.049 A 
ATOM     17  N   UNL     1      -9.799  -9.143   0.039  1.00  0.00    -0.248 NA
ATOM     18  C   UNL     1      -8.155  -8.970   1.685  1.00  0.00     0.031 C 
ATOM     19  C   UNL     1      -6.915  -7.450  -2.939  1.00  0.00     0.029 A 
ATOM     20  N   UNL     1      -9.026  -8.108  -2.612  1.00  0.00    -0.354 N 
ATOM     21  C   UNL     1     -10.313  -9.607   1.246  1.00  0.00     0.074 A 
ATOM     22  C   UNL     1      -9.237  -9.524   2.213  1.00  0.00     0.031 C 
ATOM     23  C   UNL     1      -7.569  -7.282  -4.095  1.00  0.00     0.029 A 
ATOM     24  C   UNL     1      -8.933  -7.774  -3.942  1.00  0.00     0.049 A 
ATOM     25  H   UNL     1      -9.862  -8.409  -2.187  1.00  0.00     0.167 HD
ATOM     26  C   UNL     1     -11.565 -10.057   1.518  1.00  0.00     0.034 A 
ATOM     27  C   UNL     1      -9.823  -7.897  -4.945  1.00  0.00     0.034 A 
ATOM     28  C   UNL     1     -12.620 -10.127   0.533  1.00  0.00     0.049 A 
ATOM     29  C   UNL     1     -11.185  -8.454  -4.642  1.00  0.00     0.074 A 
ATOM     30  C   UNL     1     -13.934 -10.529   0.702  1.00  0.00     0.029 A 
ATOM     31  N   UNL     1     -12.479  -9.800  -0.811  1.00  0.00    -0.354 N 
ATOM     32  N   UNL     1     -11.658  -8.889  -3.497  1.00  0.00    -0.248 NA
ATOM     33  C   UNL     1     -12.132  -8.536  -5.759  1.00  0.00     0.031 C 
ATOM     34  C   UNL     1     -14.562 -10.518  -0.549  1.00  0.00     0.029 A 
ATOM     35  C   UNL     1     -13.668 -10.027  -1.488  1.00  0.00     0.049 A 
ATOM     36  H   UNL     1     -11.653  -9.457  -1.223  1.00  0.00     0.167 HD
ATOM     37  C   UNL     1     -12.969  -9.275  -3.752  1.00  0.00     0.074 A 
ATOM     38  C   UNL     1     -13.210  -9.020  -5.159  1.00  0.00     0.031 C 
ATOM     39  C   UNL     1     -13.892  -9.781  -2.895  1.00  0.00     0.034 A 
BRANCH  26  40
ATOM     40  C   UNL     1     -11.832 -10.564   2.918  1.00  0.00     0.023 A 
ATOM     41  C   UNL     1     -11.713  -9.734   4.047  1.00  0.00     0.031 A 
ATOM     42  C   UNL     1     -12.159 -11.916   3.134  1.00  0.00     0.131 A 
ATOM     43  C   UNL     1     -11.820 -10.280   5.336  1.00  0.00     0.055 A 
ATOM     44  C   UNL     1     -12.355 -12.434   4.416  1.00  0.00     0.041 A 
ATOM     45  F   UNL     1     -12.270 -12.766   2.100  1.00  0.00    -0.206 F 
ATOM     46  C   UNL     1     -12.164 -11.620   5.528  1.00  0.00     0.022 A 
BRANCH  43  47
ATOM     47  S   UNL     1     -11.317  -9.261   6.750  1.00  0.00     0.124 S 
ATOM     48  O   UNL     1      -9.967  -8.857   6.361  1.00  0.00    -0.237 OA
ATOM     49  O   UNL     1     -12.323  -8.206   6.752  1.00  0.00    -0.237 OA
ATOM     50  O   UNL     1     -11.379 -10.187   7.880  1.00  0.00    -0.744 OA
ENDBRANCH  43  47
ENDBRANCH  26  40
BRANCH  27  51
ATOM     51  C   UNL     1      -9.412  -7.540  -6.330  1.00  0.00     0.023 A 
ATOM     52  C   UNL     1      -9.954  -6.428  -6.989  1.00  0.00     0.031 A 
ATOM     53  C   UNL     1      -8.427  -8.293  -6.996  1.00  0.00     0.131 A 
ATOM     54  C   UNL     1      -9.516  -6.107  -8.283  1.00  0.00     0.055 A 
ATOM     55  C   UNL     1      -7.962  -7.943  -8.263  1.00  0.00     0.041 A 
ATOM     56  F   UNL     1      -7.869  -9.359  -6.400  1.00  0.00    -0.206 F 
ATOM     57  C   UNL     1      -8.512  -6.846  -8.917  1.00  0.00     0.022 A 
BRANCH  54  58
ATOM     58  S   UNL     1     -10.299  -4.718  -9.146  1.00  0.00     0.124 S 
ATOM     59  O   UNL     1     -11.688  -5.159  -9.219  1.00  0.00    -0.237 OA
ATOM     60  O   UNL     1     -10.025  -3.605  -8.243  1.00  0.00    -0.237 OA
ATOM     61  O   UNL     1      -9.591  -4.668 -10.424  1.00  0.00    -0.744 OA
ENDBRANCH  54  58
ENDBRANCH  27  51
BRANCH  39  62
ATOM     62  C   UNL     1     -15.271 -10.041  -3.445  1.00  0.00     0.023 A 
ATOM     63  C   UNL     1     -15.528 -11.088  -4.346  1.00  0.00     0.031 A 
ATOM     64  C   UNL     1     -16.348  -9.234  -3.038  1.00  0.00     0.131 A 
ATOM     65  C   UNL     1     -16.829 -11.279  -4.837  1.00  0.00     0.055 A 
ATOM     66  C   UNL     1     -17.648  -9.461  -3.489  1.00  0.00     0.041 A 
ATOM     67  F   UNL     1     -16.154  -8.218  -2.181  1.00  0.00    -0.206 F 
ATOM     68  C   UNL     1     -17.893 -10.484  -4.400  1.00  0.00     0.022 A 
BRANCH  65  69
ATOM     69  S   UNL     1     -17.112 -12.553  -6.098  1.00  0.00     0.124 S 
ATOM     70  O   UNL     1     -16.289 -12.071  -7.203  1.00  0.00    -0.237 OA
ATOM     71  O   UNL     1     -16.642 -13.763  -5.433  1.00  0.00    -0.237 OA
ATOM     72  O   UNL     1     -18.555 -12.494  -6.327  1.00  0.00    -0.744 OA
ENDBRANCH  65  69
ENDBRANCH  39  62
ENDBRANCH  13  14
ENDBRANCH   6   8
ENDBRANCH   3   4
ENDBRANCH   2   3
ENDBRANCH   1   2
BRANCH   1  73
ATOM     73  N   UNL     1      -1.663  -3.852   4.927  1.00  0.00    -0.351 N 
ATOM     74  C   UNL     1      -1.015  -3.020   5.802  1.00  0.00     0.262 C 
ATOM     75  H   UNL     1      -1.758  -3.506   4.011  1.00  0.00     0.163 HD
ATOM     76  O   UNL     1      -0.525  -1.985   5.351  1.00  0.00    -0.268 OA
BRANCH  74  77
ATOM     77  C   UNL     1      -0.929  -3.386   7.191  1.00  0.00     0.112 A 
ATOM     78  S   UNL     1      -1.816  -2.443   8.318  1.00  0.00    -0.137 S 
ATOM     79  C   UNL     1      -0.175  -4.350   7.826  1.00  0.00     0.106 A 
ATOM     80  C   UNL     1      -1.247  -3.361   9.642  1.00  0.00     0.067 A 
ATOM     81  C   UNL     1      -0.383  -4.354   9.243  1.00  0.00     0.034 A 
BRANCH  79  82
ATOM     82  S   UNL     1       0.925  -5.450   7.080  1.00  0.00     0.242 S 
ATOM     83  O   UNL     1       2.209  -5.074   7.632  1.00  0.00    -0.207 OA
ATOM     84  O   UNL     1       0.317  -6.733   7.329  1.00  0.00    -0.207 OA
BRANCH  82  85
ATOM     85  N   UNL     1       0.968  -5.269   5.422  1.00  0.00    -0.208 NA
ATOM     86  H   UNL     1       0.030  -4.993   5.132  1.00  0.00     0.141 HD
BRANCH  85  87
ATOM     87  C   UNL     1       1.904  -4.308   4.804  1.00  0.00     0.135 C 
BRANCH  87  88
ATOM     88  C   UNL     1       3.393  -4.742   4.808  1.00  0.00     0.159 C 
BRANCH  88  89
ATOM     89  C   UNL     1       3.604  -6.242   4.791  1.00  0.00    -0.018 A 
ATOM     90  C   UNL     1       3.029  -7.059   3.805  1.00  0.00     0.006 A 
ATOM     91  C   UNL     1       4.306  -6.848   5.844  1.00  0.00     0.006 A 
ATOM     92  C   UNL     1       3.075  -8.449   3.926  1.00  0.00     0.000 A 
ATOM     93  C   UNL     1       4.371  -8.237   5.950  1.00  0.00     0.000 A 
ATOM     94  C   UNL     1       3.737  -9.036   5.003  1.00  0.00     0.000 A 
ENDBRANCH  88  89
BRANCH  88  95
ATOM     95  O   UNL     1       4.056  -4.191   3.667  1.00  0.00    -0.387 OA
ATOM     96  H   UNL     1       3.659  -4.551   2.857  1.00  0.00     0.211 HD
ENDBRANCH  88  95
ENDBRANCH  87  88
ENDBRANCH  85  87
ENDBRANCH  82  85
ENDBRANCH  79  82
ENDBRANCH  74  77
ENDBRANCH   1  73
TORSDOF 19
