REMARK SMILES CCOC(=O)c1c(NC(=O)c2ncccc2C(=O)NCCCNC(=O)c2ccc(-c3c4nc(c(-c5cc(S(=O)(=O)[O-])ccc5F)c5ccc([nH]5)c(-c5cc(S(=O)(=O)[O-])ccc5F)c5nc(c(-c6cc(S(=O)(=O)[O-])ccc6F)c6ccc3[nH]6)C=C5)C=C4)cc2)sc2c1CC[C@H](C)C2
REMARK SMILES IDX 20 1 19 2 17 3 18 4 16 6 11 7 12 8 13 9 15 10 14 11 9 12
REMARK SMILES IDX 8 13 10 15 7 16 6 17 91 18 89 19 90 20 92 21 96 22 93 23
REMARK SMILES IDX 94 24 95 25 4 26 5 27 3 28 2 29 1 30 21 31 22 32 23 33 24 34
REMARK SMILES IDX 25 36 26 37 27 38 88 39 28 40 87 41 29 42 30 43 31 44 81 45
REMARK SMILES IDX 32 46 86 47 80 48 82 49 33 50 85 51 79 52 78 53 34 55 66 56
REMARK SMILES IDX 46 57 65 58 47 59 50 60 64 61 83 62 48 63 49 64 63 66 84 67
REMARK SMILES IDX 51 68 35 69 36 70 44 71 37 72 43 73 45 74 42 75 38 76 39 77
REMARK SMILES IDX 40 78 41 79 67 80 68 81 76 82 69 83 75 84 77 85 74 86 70 87
REMARK SMILES IDX 71 88 72 89 73 90 52 91 53 92 61 93 54 94 60 95 62 96 59 97
REMARK SMILES IDX 55 98 56 99 57 100 58 101
REMARK H PARENT 19 5 8 14 23 35 82 54 50 65
REMARK Flexibility Score: inf
ROOT
ATOM      1  C   UNL     1       4.873   2.552  -1.182  1.00  0.00     0.118 C 
ENDROOT
BRANCH   1   2
ATOM      2  N   UNL     1       4.445   3.308  -2.358  1.00  0.00    -0.352 N 
ATOM      3  C   UNL     1       3.204   3.747  -2.760  1.00  0.00     0.253 C 
ATOM      4  O   UNL     1       3.106   4.404  -3.791  1.00  0.00    -0.269 OA
ATOM      5  H   UNL     1       5.176   3.546  -2.973  1.00  0.00     0.163 HD
BRANCH   3   6
ATOM      6  C   UNL     1       1.990   3.474  -1.968  1.00  0.00     0.071 A 
ATOM      7  C   UNL     1       0.768   3.149  -2.554  1.00  0.00     0.141 A 
ATOM      8  N   UNL     1      -0.385   2.984  -1.826  1.00  0.00    -0.250 NA
ATOM      9  C   UNL     1      -0.325   3.169  -0.494  1.00  0.00     0.112 A 
ATOM     10  C   UNL     1       1.997   3.677  -0.580  1.00  0.00     0.018 A 
ATOM     11  C   UNL     1       0.837   3.497   0.171  1.00  0.00     0.021 A 
BRANCH   7  12
ATOM     12  C   UNL     1       0.507   3.166  -4.011  1.00  0.00     0.275 C 
ATOM     13  N   UNL     1       1.153   2.403  -4.941  1.00  0.00    -0.311 N 
ATOM     14  H   UNL     1       0.901   2.648  -5.860  1.00  0.00     0.171 HD
ATOM     15  O   UNL     1      -0.356   3.951  -4.422  1.00  0.00    -0.267 OA
BRANCH  13  16
ATOM     16  C   UNL     1       2.065   1.383  -4.912  1.00  0.00     0.110 A 
ATOM     17  C   UNL     1       2.592   0.441  -4.041  1.00  0.00     0.098 A 
ATOM     18  C   UNL     1       3.702  -0.262  -4.686  1.00  0.00    -0.017 A 
ATOM     19  S   UNL     1       2.747   1.288  -6.480  1.00  0.00    -0.122 S 
ATOM     20  C   UNL     1       3.887   0.151  -5.992  1.00  0.00     0.011 A 
ATOM     21  C   UNL     1       4.563  -1.360  -4.113  1.00  0.00     0.038 C 
ATOM     22  C   UNL     1       4.963  -0.310  -6.926  1.00  0.00     0.050 C 
ATOM     23  C   UNL     1       5.868  -1.546  -4.919  1.00  0.00     0.008 C 
ATOM     24  C   UNL     1       5.568  -1.635  -6.431  1.00  0.00    -0.009 C 
ATOM     25  C   UNL     1       6.806  -1.981  -7.252  1.00  0.00     0.008 C 
BRANCH  17  26
ATOM     26  C   UNL     1       2.147   0.175  -2.683  1.00  0.00     0.341 C 
ATOM     27  O   UNL     1       2.911   0.242  -1.716  1.00  0.00    -0.246 OA
BRANCH  26  28
ATOM     28  O   UNL     1       0.845  -0.188  -2.587  1.00  0.00    -0.462 OA
BRANCH  28  29
ATOM     29  C   UNL     1       0.270  -0.347  -1.275  1.00  0.00     0.230 C 
ATOM     30  C   UNL     1       0.993  -1.276  -0.309  1.00  0.00     0.049 C 
ENDBRANCH  28  29
ENDBRANCH  26  28
ENDBRANCH  17  26
ENDBRANCH  13  16
ENDBRANCH   7  12
ENDBRANCH   3   6
ENDBRANCH   1   2
BRANCH   1  31
ATOM     31  C   UNL     1       5.712   1.317  -1.496  1.00  0.00     0.042 C 
BRANCH  31  32
ATOM     32  C   UNL     1       7.077   1.613  -2.069  1.00  0.00     0.118 C 
BRANCH  32  33
ATOM     33  N   UNL     1       8.005   2.208  -1.114  1.00  0.00    -0.352 N 
ATOM     34  C   UNL     1       9.358   2.436  -1.302  1.00  0.00     0.251 C 
ATOM     35  H   UNL     1       7.630   2.475  -0.244  1.00  0.00     0.163 HD
ATOM     36  O   UNL     1      10.089   2.652  -0.343  1.00  0.00    -0.269 OA
BRANCH  34  37
ATOM     37  C   UNL     1       9.896   2.372  -2.678  1.00  0.00     0.039 A 
ATOM     38  C   UNL     1      11.100   1.721  -2.954  1.00  0.00     0.014 A 
ATOM     39  C   UNL     1       9.130   2.903  -3.711  1.00  0.00     0.014 A 
ATOM     40  C   UNL     1      11.470   1.530  -4.286  1.00  0.00     0.010 A 
ATOM     41  C   UNL     1       9.402   2.556  -5.011  1.00  0.00     0.010 A 
ATOM     42  C   UNL     1      10.598   1.919  -5.318  1.00  0.00    -0.014 A 
BRANCH  42  43
ATOM     43  C   UNL     1      10.881   1.567  -6.712  1.00  0.00     0.031 A 
ATOM     44  C   UNL     1      11.235   0.138  -6.951  1.00  0.00     0.074 A 
ATOM     45  C   UNL     1      10.643   2.392  -7.758  1.00  0.00     0.049 A 
ATOM     46  N   UNL     1      12.329  -0.336  -7.443  1.00  0.00    -0.248 NA
ATOM     47  C   UNL     1      10.300  -0.902  -6.494  1.00  0.00     0.031 C 
ATOM     48  C   UNL     1      10.029   3.725  -7.746  1.00  0.00     0.029 A 
ATOM     49  N   UNL     1      10.803   2.155  -9.091  1.00  0.00    -0.354 N 
ATOM     50  C   UNL     1      12.149  -1.712  -7.563  1.00  0.00     0.074 A 
ATOM     51  C   UNL     1      10.943  -2.019  -6.841  1.00  0.00     0.031 C 
ATOM     52  C   UNL     1       9.650   4.066  -8.997  1.00  0.00     0.029 A 
ATOM     53  C   UNL     1      10.163   3.073  -9.920  1.00  0.00     0.049 A 
ATOM     54  H   UNL     1      11.326   1.397  -9.439  1.00  0.00     0.167 HD
ATOM     55  C   UNL     1      12.916  -2.454  -8.409  1.00  0.00     0.034 A 
ATOM     56  C   UNL     1      10.052   3.037 -11.273  1.00  0.00     0.034 A 
ATOM     57  C   UNL     1      14.129  -1.750  -8.760  1.00  0.00     0.049 A 
ATOM     58  C   UNL     1      11.159   2.186 -11.767  1.00  0.00     0.074 A 
ATOM     59  C   UNL     1      15.173  -1.220  -8.023  1.00  0.00     0.029 A 
ATOM     60  N   UNL     1      14.202  -1.133  -9.988  1.00  0.00    -0.354 N 
ATOM     61  N   UNL     1      12.418   2.503 -11.636  1.00  0.00    -0.248 NA
ATOM     62  C   UNL     1      10.898   0.771 -11.974  1.00  0.00     0.031 C 
ATOM     63  C   UNL     1      15.445   0.039  -8.638  1.00  0.00     0.029 A 
ATOM     64  C   UNL     1      14.626   0.156  -9.764  1.00  0.00     0.049 A 
ATOM     65  H   UNL     1      13.990  -1.537 -10.860  1.00  0.00     0.167 HD
ATOM     66  C   UNL     1      13.052   1.319 -11.296  1.00  0.00     0.074 A 
ATOM     67  C   UNL     1      12.087   0.271 -11.626  1.00  0.00     0.031 C 
ATOM     68  C   UNL     1      14.181   1.310 -10.526  1.00  0.00     0.034 A 
BRANCH  55  69
ATOM     69  C   UNL     1      12.442  -3.675  -9.162  1.00  0.00     0.023 A 
ATOM     70  C   UNL     1      13.377  -4.360  -9.964  1.00  0.00     0.031 A 
ATOM     71  C   UNL     1      11.088  -4.032  -9.357  1.00  0.00     0.131 A 
ATOM     72  C   UNL     1      12.956  -5.273 -10.948  1.00  0.00     0.055 A 
ATOM     73  C   UNL     1      10.680  -4.991 -10.289  1.00  0.00     0.041 A 
ATOM     74  F   UNL     1      10.082  -3.410  -8.730  1.00  0.00    -0.206 F 
ATOM     75  C   UNL     1      11.613  -5.597 -11.113  1.00  0.00     0.022 A 
BRANCH  72  76
ATOM     76  S   UNL     1      14.181  -5.896 -12.130  1.00  0.00     0.124 S 
ATOM     77  O   UNL     1      14.758  -4.657 -12.639  1.00  0.00    -0.237 OA
ATOM     78  O   UNL     1      15.043  -6.703 -11.271  1.00  0.00    -0.237 OA
ATOM     79  O   UNL     1      13.376  -6.649 -13.088  1.00  0.00    -0.744 OA
ENDBRANCH  72  76
ENDBRANCH  55  69
BRANCH  56  80
ATOM     80  C   UNL     1       8.888   3.457 -12.099  1.00  0.00     0.023 A 
ATOM     81  C   UNL     1       8.989   3.733 -13.479  1.00  0.00     0.031 A 
ATOM     82  C   UNL     1       7.583   3.354 -11.566  1.00  0.00     0.131 A 
ATOM     83  C   UNL     1       7.819   3.888 -14.261  1.00  0.00     0.055 A 
ATOM     84  C   UNL     1       6.432   3.513 -12.341  1.00  0.00     0.041 A 
ATOM     85  F   UNL     1       7.382   3.004 -10.285  1.00  0.00    -0.206 F 
ATOM     86  C   UNL     1       6.546   3.772 -13.697  1.00  0.00     0.022 A 
BRANCH  83  87
ATOM     87  S   UNL     1       7.940   4.142 -16.062  1.00  0.00     0.124 S 
ATOM     88  O   UNL     1       8.474   5.496 -16.150  1.00  0.00    -0.237 OA
ATOM     89  O   UNL     1       8.833   3.063 -16.471  1.00  0.00    -0.237 OA
ATOM     90  O   UNL     1       6.558   3.995 -16.521  1.00  0.00    -0.744 OA
ENDBRANCH  83  87
ENDBRANCH  56  80
BRANCH  68  91
ATOM     91  C   UNL     1      14.898   2.626 -10.266  1.00  0.00     0.023 A 
ATOM     92  C   UNL     1      14.307   3.776  -9.691  1.00  0.00     0.031 A 
ATOM     93  C   UNL     1      16.284   2.664 -10.505  1.00  0.00     0.131 A 
ATOM     94  C   UNL     1      15.098   4.905  -9.391  1.00  0.00     0.055 A 
ATOM     95  C   UNL     1      17.067   3.772 -10.185  1.00  0.00     0.041 A 
ATOM     96  F   UNL     1      16.915   1.597 -11.026  1.00  0.00    -0.206 F 
ATOM     97  C   UNL     1      16.476   4.901  -9.632  1.00  0.00     0.022 A 
BRANCH  94  98
ATOM     98  S   UNL     1      14.348   6.415  -8.695  1.00  0.00     0.124 S 
ATOM     99  O   UNL     1      13.187   6.645  -9.546  1.00  0.00    -0.237 OA
ATOM    100  O   UNL     1      14.065   6.023  -7.317  1.00  0.00    -0.237 OA
ATOM    101  O   UNL     1      15.409   7.416  -8.834  1.00  0.00    -0.744 OA
ENDBRANCH  94  98
ENDBRANCH  68  91
ENDBRANCH  42  43
ENDBRANCH  34  37
ENDBRANCH  32  33
ENDBRANCH  31  32
ENDBRANCH   1  31
TORSDOF 18
