REMARK SMILES Cc1c(Cl)cccc1NC(=O)C[C@](C)(C(=O)NCCCNC(=O)c1ccc(-c2c3nc(c(-c4cc(S(=O)(=O)[O-])ccc4F)c4ccc([nH]4)c(-c4cc(S(=O)(=O)[O-])ccc4F)c4nc(c(-c5cc(S(=O)(=O)[O-])ccc5F)c5ccc2[nH]5)C=C4)C=C3)cc1)c1ccccc1
REMARK SMILES IDX 19 1 18 2 17 3 15 4 16 5 13 7 14 8 12 9 10 10 9 11 11 13
REMARK SMILES IDX 8 14 1 15 2 16 3 17 4 18 5 19 7 20 6 21 87 22 88 23 92 24
REMARK SMILES IDX 89 25 91 26 90 27 20 28 21 29 22 30 23 32 24 33 25 34 86 35
REMARK SMILES IDX 26 36 85 37 27 38 28 39 29 40 79 41 30 42 84 43 78 44 80 45
REMARK SMILES IDX 31 46 83 47 77 48 76 49 32 51 64 52 44 53 63 54 45 55 48 56
REMARK SMILES IDX 62 57 81 58 46 59 47 60 61 62 82 63 49 64 33 65 34 66 42 67
REMARK SMILES IDX 35 68 41 69 43 70 40 71 36 72 37 73 38 74 39 75 65 76 66 77
REMARK SMILES IDX 74 78 67 79 73 80 75 81 72 82 68 83 69 84 70 85 71 86 50 87
REMARK SMILES IDX 51 88 59 89 52 90 58 91 60 92 57 93 53 94 54 95 55 96 56 97
REMARK H PARENT 17 6 9 12 21 31 80 50 48 61
REMARK Flexibility Score: inf
ROOT
ATOM      1  C   UNL     1      -4.456  -1.815   3.279  1.00  0.00     0.042 C 
ENDROOT
BRANCH   1   2
ATOM      2  C   UNL     1      -4.288  -2.216   1.630  1.00  0.00     0.117 C 
BRANCH   2   3
ATOM      3  N   UNL     1      -5.144  -1.461  -0.122  1.00  0.00    -0.355 N 
ATOM      4  C   UNL     1      -5.170  -0.603  -1.274  1.00  0.00     0.230 C 
ATOM      5  O   UNL     1      -6.157  -0.893  -1.977  1.00  0.00    -0.274 OA
ATOM      6  H   UNL     1      -5.984  -1.969  -0.200  1.00  0.00     0.163 HD
BRANCH   4   7
ATOM      7  C   UNL     1      -4.225   0.648  -1.705  1.00  0.00     0.080 C 
ATOM      8  C   UNL     1      -4.559   1.817  -0.702  1.00  0.00     0.027 C 
BRANCH   7   9
ATOM      9  C   UNL     1      -2.683   0.371  -1.829  1.00  0.00     0.121 C 
BRANCH   9  10
ATOM     10  C   UNL     1      -2.196  -1.026  -2.165  1.00  0.00     0.225 C 
ATOM     11  N   UNL     1      -2.319  -2.043  -1.268  1.00  0.00    -0.326 N 
ATOM     12  H   UNL     1      -1.739  -2.832  -1.374  1.00  0.00     0.169 HD
ATOM     13  O   UNL     1      -1.639  -1.263  -3.240  1.00  0.00    -0.275 OA
BRANCH  11  14
ATOM     14  C   UNL     1      -3.220  -2.027  -0.210  1.00  0.00     0.045 A 
ATOM     15  C   UNL     1      -3.942  -4.787  -0.544  1.00  0.00     0.048 C 
ATOM     16  C   UNL     1      -4.403  -3.399  -0.191  1.00  0.00    -0.009 A 
ATOM     17  C   UNL     1      -5.967  -3.226   0.699  1.00  0.00     0.046 A 
ATOM     18  Cl  UNL     1      -7.034  -4.561   0.875  1.00  0.00    -0.084 Cl
ATOM     19  C   UNL     1      -6.380  -1.678   1.513  1.00  0.00     0.021 A 
ATOM     20  C   UNL     1      -3.581  -0.491   0.725  1.00  0.00     0.026 A 
ATOM     21  C   UNL     1      -5.202  -0.302   1.524  1.00  0.00     0.004 A 
ENDBRANCH  11  14
ENDBRANCH   9  10
ENDBRANCH   7   9
BRANCH   7  22
ATOM     22  C   UNL     1      -4.569   1.341  -3.091  1.00  0.00    -0.032 A 
ATOM     23  C   UNL     1      -4.090   2.667  -3.313  1.00  0.00     0.005 A 
ATOM     24  C   UNL     1      -5.309   0.765  -4.124  1.00  0.00     0.005 A 
ATOM     25  C   UNL     1      -4.443   3.417  -4.430  1.00  0.00     0.000 A 
ATOM     26  C   UNL     1      -5.655   1.516  -5.259  1.00  0.00     0.000 A 
ATOM     27  C   UNL     1      -5.246   2.843  -5.400  1.00  0.00     0.000 A 
ENDBRANCH   7  22
ENDBRANCH   4   7
ENDBRANCH   2   3
ENDBRANCH   1   2
BRANCH   1  28
ATOM     28  C   UNL     1      -4.933  -3.018   4.072  1.00  0.00     0.118 C 
BRANCH  28  29
ATOM     29  N   UNL     1      -4.141  -4.226   3.883  1.00  0.00    -0.352 N 
ATOM     30  C   UNL     1      -4.411  -5.449   4.453  1.00  0.00     0.251 C 
ATOM     31  H   UNL     1      -3.349  -4.163   3.301  1.00  0.00     0.163 HD
ATOM     32  O   UNL     1      -3.761  -6.449   4.192  1.00  0.00    -0.269 OA
BRANCH  30  33
ATOM     33  C   UNL     1      -5.448  -5.426   5.494  1.00  0.00     0.039 A 
ATOM     34  C   UNL     1      -4.994  -5.321   6.808  1.00  0.00     0.014 A 
ATOM     35  C   UNL     1      -6.763  -5.117   5.139  1.00  0.00     0.014 A 
ATOM     36  C   UNL     1      -5.868  -4.864   7.782  1.00  0.00     0.010 A 
ATOM     37  C   UNL     1      -7.590  -4.542   6.093  1.00  0.00     0.010 A 
ATOM     38  C   UNL     1      -7.159  -4.442   7.426  1.00  0.00    -0.014 A 
BRANCH  38  39
ATOM     39  C   UNL     1      -8.094  -4.001   8.484  1.00  0.00     0.031 A 
ATOM     40  C   UNL     1      -9.312  -4.838   8.748  1.00  0.00     0.074 A 
ATOM     41  C   UNL     1      -7.814  -2.910   9.223  1.00  0.00     0.049 A 
ATOM     42  N   UNL     1     -10.221  -4.702   9.675  1.00  0.00    -0.248 NA
ATOM     43  C   UNL     1      -9.556  -5.968   7.833  1.00  0.00     0.031 C 
ATOM     44  C   UNL     1      -6.668  -2.018   9.019  1.00  0.00     0.029 A 
ATOM     45  N   UNL     1      -8.452  -2.378  10.314  1.00  0.00    -0.354 N 
ATOM     46  C   UNL     1     -11.137  -5.722   9.449  1.00  0.00     0.074 A 
ATOM     47  C   UNL     1     -10.729  -6.410   8.249  1.00  0.00     0.031 C 
ATOM     48  C   UNL     1      -6.655  -1.087   9.987  1.00  0.00     0.029 A 
ATOM     49  C   UNL     1      -7.814  -1.283  10.852  1.00  0.00     0.049 A 
ATOM     50  H   UNL     1      -9.289  -2.746  10.679  1.00  0.00     0.167 HD
ATOM     51  C   UNL     1     -12.203  -6.078  10.202  1.00  0.00     0.034 A 
ATOM     52  C   UNL     1      -8.134  -0.530  11.924  1.00  0.00     0.034 A 
ATOM     53  C   UNL     1     -12.578  -5.379  11.401  1.00  0.00     0.049 A 
ATOM     54  C   UNL     1      -9.355  -0.921  12.723  1.00  0.00     0.074 A 
ATOM     55  C   UNL     1     -13.615  -5.660  12.270  1.00  0.00     0.029 A 
ATOM     56  N   UNL     1     -11.935  -4.249  11.893  1.00  0.00    -0.354 N 
ATOM     57  N   UNL     1     -10.181  -1.925  12.530  1.00  0.00    -0.248 NA
ATOM     58  C   UNL     1      -9.678  -0.091  13.889  1.00  0.00     0.031 C 
ATOM     59  C   UNL     1     -13.658  -4.646  13.230  1.00  0.00     0.029 A 
ATOM     60  C   UNL     1     -12.582  -3.794  13.028  1.00  0.00     0.049 A 
ATOM     61  H   UNL     1     -11.137  -3.834  11.492  1.00  0.00     0.167 HD
ATOM     62  C   UNL     1     -11.105  -1.863  13.570  1.00  0.00     0.074 A 
ATOM     63  C   UNL     1     -10.717  -0.737  14.396  1.00  0.00     0.031 C 
ATOM     64  C   UNL     1     -12.175  -2.660  13.825  1.00  0.00     0.034 A 
BRANCH  51  65
ATOM     65  C   UNL     1     -13.042  -7.234   9.718  1.00  0.00     0.023 A 
ATOM     66  C   UNL     1     -12.514  -8.531   9.575  1.00  0.00     0.031 A 
ATOM     67  C   UNL     1     -14.382  -7.025   9.351  1.00  0.00     0.131 A 
ATOM     68  C   UNL     1     -13.298  -9.547   9.009  1.00  0.00     0.055 A 
ATOM     69  C   UNL     1     -15.184  -8.063   8.875  1.00  0.00     0.041 A 
ATOM     70  F   UNL     1     -14.929  -5.802   9.430  1.00  0.00    -0.206 F 
ATOM     71  C   UNL     1     -14.640  -9.330   8.688  1.00  0.00     0.022 A 
BRANCH  68  72
ATOM     72  S   UNL     1     -12.497 -11.109   8.552  1.00  0.00     0.124 S 
ATOM     73  O   UNL     1     -11.475 -10.652   7.613  1.00  0.00    -0.237 OA
ATOM     74  O   UNL     1     -12.011 -11.602   9.835  1.00  0.00    -0.237 OA
ATOM     75  O   UNL     1     -13.579 -11.886   7.952  1.00  0.00    -0.744 OA
ENDBRANCH  68  72
ENDBRANCH  51  65
BRANCH  52  76
ATOM     76  C   UNL     1      -7.318   0.666  12.293  1.00  0.00     0.023 A 
ATOM     77  C   UNL     1      -6.685   0.769  13.543  1.00  0.00     0.031 A 
ATOM     78  C   UNL     1      -7.209   1.759  11.414  1.00  0.00     0.131 A 
ATOM     79  C   UNL     1      -6.024   1.956  13.900  1.00  0.00     0.055 A 
ATOM     80  C   UNL     1      -6.493   2.911  11.747  1.00  0.00     0.041 A 
ATOM     81  F   UNL     1      -7.795   1.722  10.207  1.00  0.00    -0.206 F 
ATOM     82  C   UNL     1      -5.909   3.021  13.003  1.00  0.00     0.022 A 
BRANCH  79  83
ATOM     83  S   UNL     1      -5.415   2.139  15.600  1.00  0.00     0.124 S 
ATOM     84  O   UNL     1      -6.630   1.915  16.374  1.00  0.00    -0.237 OA
ATOM     85  O   UNL     1      -4.403   1.090  15.672  1.00  0.00    -0.237 OA
ATOM     86  O   UNL     1      -4.897   3.505  15.630  1.00  0.00    -0.744 OA
ENDBRANCH  79  83
ENDBRANCH  52  76
BRANCH  64  87
ATOM     87  C   UNL     1     -12.969  -2.365  15.073  1.00  0.00     0.023 A 
ATOM     88  C   UNL     1     -13.676  -1.162  15.233  1.00  0.00     0.031 A 
ATOM     89  C   UNL     1     -13.017  -3.306  16.118  1.00  0.00     0.131 A 
ATOM     90  C   UNL     1     -14.340  -0.900  16.439  1.00  0.00     0.055 A 
ATOM     91  C   UNL     1     -13.751  -3.075  17.280  1.00  0.00     0.041 A 
ATOM     92  F   UNL     1     -12.357  -4.471  16.020  1.00  0.00    -0.206 F 
ATOM     93  C   UNL     1     -14.404  -1.859  17.453  1.00  0.00     0.022 A 
BRANCH  90  94
ATOM     94  S   UNL     1     -15.011   0.761  16.713  1.00  0.00     0.124 S 
ATOM     95  O   UNL     1     -13.826   1.596  16.543  1.00  0.00    -0.237 OA
ATOM     96  O   UNL     1     -16.021   0.867  15.665  1.00  0.00    -0.237 OA
ATOM     97  O   UNL     1     -15.535   0.697  18.076  1.00  0.00    -0.744 OA
ENDBRANCH  90  94
ENDBRANCH  64  87
ENDBRANCH  38  39
ENDBRANCH  30  33
ENDBRANCH  28  29
ENDBRANCH   1  28
TORSDOF 17
