REMARK SMILES C[C@@H](C(=O)NCCCNC(=O)c1ccc(-c2c3nc(c(-c4cc(S(=O)(=O)[O-])ccc4F)c4ccc([nH]4)c(-c4cc(S(=O)(=O)[O-])ccc4F)c4nc(c(-c5cc(S(=O)(=O)[O-])ccc5F)c5ccc2[nH]5)C=C4)C=C3)cc1)c1ccc(-c2ccccc2)cc1
REMARK SMILES IDX 7 1 6 2 5 3 3 4 4 5 2 7 1 8 75 9 76 10 86 11 77 12 85 13
REMARK SMILES IDX 78 14 79 15 80 16 84 17 81 18 83 19 82 20 8 21 9 22 10 23
REMARK SMILES IDX 11 25 12 26 13 27 74 28 14 29 73 30 15 31 16 32 17 33 67 34
REMARK SMILES IDX 18 35 72 36 66 37 68 38 19 39 71 40 65 41 64 42 20 44 52 45
REMARK SMILES IDX 32 46 51 47 33 48 36 49 50 50 69 51 34 52 35 53 49 55 70 56
REMARK SMILES IDX 37 57 21 58 22 59 30 60 23 61 29 62 31 63 28 64 24 65 25 66
REMARK SMILES IDX 26 67 27 68 53 69 54 70 62 71 55 72 61 73 63 74 60 75 56 76
REMARK SMILES IDX 57 77 58 78 59 79 38 80 39 81 47 82 40 83 46 84 48 85 45 86
REMARK SMILES IDX 41 87 42 88 43 89 44 90
REMARK H PARENT 5 6 9 24 68 43 36 54
REMARK Flexibility Score: inf
ROOT
ATOM      1  C   UNL     1       4.378   0.825   1.019  1.00  0.00     0.042 C 
ENDROOT
BRANCH   1   2
ATOM      2  C   UNL     1       3.509   0.115   2.054  1.00  0.00     0.117 C 
BRANCH   2   3
ATOM      3  N   UNL     1       2.485   0.987   2.594  1.00  0.00    -0.356 N 
ATOM      4  C   UNL     1       1.143   1.048   2.361  1.00  0.00     0.227 C 
ATOM      5  O   UNL     1       0.536   1.936   2.964  1.00  0.00    -0.274 OA
ATOM      6  H   UNL     1       2.816   1.651   3.241  1.00  0.00     0.163 HD
BRANCH   4   7
ATOM      7  C   UNL     1       0.466   0.028   1.426  1.00  0.00     0.105 C 
ATOM      8  C   UNL     1       0.835   0.248  -0.043  1.00  0.00     0.023 C 
BRANCH   7   9
ATOM      9  C   UNL     1      -1.058   0.007   1.538  1.00  0.00    -0.036 A 
ATOM     10  C   UNL     1      -1.815   1.181   1.419  1.00  0.00     0.005 A 
ATOM     11  C   UNL     1      -1.739  -1.208   1.693  1.00  0.00     0.005 A 
ATOM     12  C   UNL     1      -3.208   1.147   1.491  1.00  0.00     0.009 A 
ATOM     13  C   UNL     1      -3.139  -1.240   1.750  1.00  0.00     0.009 A 
ATOM     14  C   UNL     1      -3.897  -0.062   1.656  1.00  0.00    -0.018 A 
BRANCH  14  15
ATOM     15  C   UNL     1      -5.367  -0.079   1.729  1.00  0.00    -0.018 A 
ATOM     16  C   UNL     1      -6.145   0.585   0.765  1.00  0.00     0.009 A 
ATOM     17  C   UNL     1      -6.036  -0.730   2.778  1.00  0.00     0.009 A 
ATOM     18  C   UNL     1      -7.539   0.610   0.852  1.00  0.00     0.001 A 
ATOM     19  C   UNL     1      -7.431  -0.708   2.867  1.00  0.00     0.001 A 
ATOM     20  C   UNL     1      -8.181  -0.035   1.905  1.00  0.00     0.000 A 
ENDBRANCH  14  15
ENDBRANCH   7   9
ENDBRANCH   4   7
ENDBRANCH   2   3
ENDBRANCH   1   2
BRANCH   1  21
ATOM     21  C   UNL     1       5.103   2.061   1.543  1.00  0.00     0.118 C 
BRANCH  21  22
ATOM     22  N   UNL     1       6.100   1.746   2.555  1.00  0.00    -0.352 N 
ATOM     23  C   UNL     1       7.454   1.987   2.548  1.00  0.00     0.251 C 
ATOM     24  H   UNL     1       5.756   1.296   3.360  1.00  0.00     0.163 HD
ATOM     25  O   UNL     1       8.164   1.489   3.418  1.00  0.00    -0.269 OA
BRANCH  23  26
ATOM     26  C   UNL     1       8.051   2.818   1.480  1.00  0.00     0.039 A 
ATOM     27  C   UNL     1       9.205   2.368   0.832  1.00  0.00     0.014 A 
ATOM     28  C   UNL     1       7.467   4.032   1.112  1.00  0.00     0.014 A 
ATOM     29  C   UNL     1       9.727   3.097  -0.241  1.00  0.00     0.010 A 
ATOM     30  C   UNL     1       7.946   4.719   0.000  1.00  0.00     0.010 A 
ATOM     31  C   UNL     1       9.078   4.257  -0.691  1.00  0.00    -0.014 A 
BRANCH  31  32
ATOM     32  C   UNL     1       9.553   5.021  -1.874  1.00  0.00     0.031 A 
ATOM     33  C   UNL     1      10.000   6.446  -1.704  1.00  0.00     0.074 A 
ATOM     34  C   UNL     1       9.466   4.482  -3.105  1.00  0.00     0.049 A 
ATOM     35  N   UNL     1      10.253   7.353  -2.612  1.00  0.00    -0.248 NA
ATOM     36  C   UNL     1      10.137   6.920  -0.320  1.00  0.00     0.031 C 
ATOM     37  C   UNL     1       9.016   3.121  -3.402  1.00  0.00     0.029 A 
ATOM     38  N   UNL     1       9.718   5.026  -4.340  1.00  0.00    -0.354 N 
ATOM     39  C   UNL     1      10.549   8.517  -1.909  1.00  0.00     0.074 A 
ATOM     40  C   UNL     1      10.386   8.207  -0.503  1.00  0.00     0.031 C 
ATOM     41  C   UNL     1       9.011   2.941  -4.732  1.00  0.00     0.029 A 
ATOM     42  C   UNL     1       9.407   4.186  -5.384  1.00  0.00     0.049 A 
ATOM     43  H   UNL     1      10.085   5.931  -4.467  1.00  0.00     0.167 HD
ATOM     44  C   UNL     1      10.935   9.725  -2.392  1.00  0.00     0.034 A 
ATOM     45  C   UNL     1       9.404   4.403  -6.715  1.00  0.00     0.034 A 
ATOM     46  C   UNL     1      11.101  10.007  -3.797  1.00  0.00     0.049 A 
ATOM     47  C   UNL     1       9.817   5.753  -7.239  1.00  0.00     0.074 A 
ATOM     48  C   UNL     1      11.548  11.170  -4.399  1.00  0.00     0.029 A 
ATOM     49  N   UNL     1      10.814   9.115  -4.825  1.00  0.00    -0.354 N 
ATOM     50  N   UNL     1      10.136   6.834  -6.566  1.00  0.00    -0.248 NA
ATOM     51  C   UNL     1       9.879   5.911  -8.697  1.00  0.00     0.031 C 
ATOM     52  C   UNL     1      11.470  11.006  -5.787  1.00  0.00     0.029 A 
ATOM     53  C   UNL     1      11.046   9.713  -6.054  1.00  0.00     0.049 A 
ATOM     54  H   UNL     1      10.493   8.193  -4.699  1.00  0.00     0.167 HD
ATOM     55  C   UNL     1      10.464   7.793  -7.520  1.00  0.00     0.074 A 
ATOM     56  C   UNL     1      10.303   7.162  -8.815  1.00  0.00     0.031 C 
ATOM     57  C   UNL     1      10.874   9.074  -7.339  1.00  0.00     0.034 A 
BRANCH  44  58
ATOM     58  C   UNL     1      11.162  10.829  -1.384  1.00  0.00     0.023 A 
ATOM     59  C   UNL     1      12.127  10.711  -0.367  1.00  0.00     0.031 A 
ATOM     60  C   UNL     1      10.359  11.983  -1.395  1.00  0.00     0.131 A 
ATOM     61  C   UNL     1      12.186  11.668   0.657  1.00  0.00     0.055 A 
ATOM     62  C   UNL     1      10.492  12.982  -0.427  1.00  0.00     0.041 A 
ATOM     63  F   UNL     1       9.410  12.148  -2.329  1.00  0.00    -0.206 F 
ATOM     64  C   UNL     1      11.393  12.816   0.621  1.00  0.00     0.022 A 
BRANCH  61  65
ATOM     65  S   UNL     1      13.172  11.289   2.132  1.00  0.00     0.124 S 
ATOM     66  O   UNL     1      12.595  10.014   2.553  1.00  0.00    -0.237 OA
ATOM     67  O   UNL     1      14.528  11.231   1.598  1.00  0.00    -0.237 OA
ATOM     68  O   UNL     1      12.898  12.412   3.026  1.00  0.00    -0.744 OA
ENDBRANCH  61  65
ENDBRANCH  44  58
BRANCH  45  69
ATOM     69  C   UNL     1       8.959   3.322  -7.638  1.00  0.00     0.023 A 
ATOM     70  C   UNL     1       9.865   2.673  -8.490  1.00  0.00     0.031 A 
ATOM     71  C   UNL     1       7.612   2.916  -7.670  1.00  0.00     0.131 A 
ATOM     72  C   UNL     1       9.409   1.667  -9.357  1.00  0.00     0.055 A 
ATOM     73  C   UNL     1       7.172   1.887  -8.504  1.00  0.00     0.041 A 
ATOM     74  F   UNL     1       6.709   3.497  -6.864  1.00  0.00    -0.206 F 
ATOM     75  C   UNL     1       8.072   1.261  -9.360  1.00  0.00     0.022 A 
BRANCH  72  76
ATOM     76  S   UNL     1      10.587   0.916 -10.514  1.00  0.00     0.124 S 
ATOM     77  O   UNL     1      10.989   2.066 -11.316  1.00  0.00    -0.237 OA
ATOM     78  O   UNL     1      11.598   0.377  -9.611  1.00  0.00    -0.237 OA
ATOM     79  O   UNL     1       9.784  -0.085 -11.214  1.00  0.00    -0.744 OA
ENDBRANCH  72  76
ENDBRANCH  45  69
BRANCH  57  80
ATOM     80  C   UNL     1      11.234   9.866  -8.571  1.00  0.00     0.023 A 
ATOM     81  C   UNL     1      10.261  10.315  -9.479  1.00  0.00     0.031 A 
ATOM     82  C   UNL     1      12.578  10.200  -8.816  1.00  0.00     0.131 A 
ATOM     83  C   UNL     1      10.651  11.052 -10.609  1.00  0.00     0.055 A 
ATOM     84  C   UNL     1      12.954  10.972  -9.915  1.00  0.00     0.041 A 
ATOM     85  F   UNL     1      13.546   9.793  -7.979  1.00  0.00    -0.206 F 
ATOM     86  C   UNL     1      11.989  11.397 -10.823  1.00  0.00     0.022 A 
BRANCH  83  87
ATOM     87  S   UNL     1       9.391  11.520 -11.828  1.00  0.00     0.124 S 
ATOM     88  O   UNL     1       8.923  10.219 -12.293  1.00  0.00    -0.237 OA
ATOM     89  O   UNL     1       8.446  12.288 -11.024  1.00  0.00    -0.237 OA
ATOM     90  O   UNL     1      10.139  12.298 -12.813  1.00  0.00    -0.744 OA
ENDBRANCH  83  87
ENDBRANCH  57  80
ENDBRANCH  31  32
ENDBRANCH  23  26
ENDBRANCH  21  22
ENDBRANCH   1  21
TORSDOF 15
