REMARK SMILES C[N@H+]1CCO[C@@H](CNS(=O)(=O)N2CCC(C(=O)NCCCNC(=O)c3ccc(-c4c5nc(c(-c6cc(S(=O)(=O)[O-])ccc6F)c6ccc([nH]6)c(-c6cc(S(=O)(=O)[O-])ccc6F)c6nc(c(-c7cc(S(=O)(=O)[O-])ccc7F)c7ccc4[nH]7)C=C6)C=C5)cc3)CC2)C1
REMARK SMILES IDX 19 1 18 2 16 3 17 4 15 6 12 7 13 8 89 9 14 10 88 11 9 12
REMARK SMILES IDX 10 13 11 14 8 15 7 17 6 18 1 19 2 20 3 21 90 22 4 24 5 25
REMARK SMILES IDX 20 26 21 27 22 28 23 29 24 31 25 32 26 33 87 34 27 35 86 36
REMARK SMILES IDX 28 37 29 38 30 39 80 40 31 41 85 42 79 43 81 44 32 45 84 46
REMARK SMILES IDX 78 47 77 48 33 50 65 51 45 52 64 53 46 54 49 55 63 56 82 57
REMARK SMILES IDX 47 58 48 59 62 61 83 62 50 63 34 64 35 65 43 66 36 67 42 68
REMARK SMILES IDX 44 69 41 70 37 71 38 72 39 73 40 74 66 75 67 76 75 77 68 78
REMARK SMILES IDX 74 79 76 80 73 81 69 82 70 83 71 84 72 85 51 86 52 87 60 88
REMARK SMILES IDX 53 89 59 90 61 91 58 92 54 93 55 94 56 95 57 96
REMARK H PARENT 18 5 8 16 2 23 22 30 81 49 49 60
REMARK Flexibility Score: inf
ROOT
ATOM      1  C   UNL     1      -3.075  -1.440  -2.628  1.00  0.00     0.117 C 
ENDROOT
BRANCH   1   2
ATOM      2  N   UNL     1      -3.508  -0.758  -3.841  1.00  0.00    -0.356 N 
ATOM      3  C   UNL     1      -2.975  -0.639  -5.086  1.00  0.00     0.223 C 
ATOM      4  O   UNL     1      -3.634   0.010  -5.907  1.00  0.00    -0.275 OA
ATOM      5  H   UNL     1      -4.364  -0.284  -3.736  1.00  0.00     0.163 HD
BRANCH   3   6
ATOM      6  C   UNL     1      -1.605  -1.177  -5.501  1.00  0.00     0.081 C 
ATOM      7  N   UNL     1       0.881  -2.049  -4.444  1.00  0.00    -0.189 NA
ATOM      8  C   UNL     1       0.091  -3.075  -5.132  1.00  0.00     0.104 C 
ATOM      9  C   UNL     1       0.887  -0.778  -5.154  1.00  0.00     0.104 C 
ATOM     10  C   UNL     1      -1.373  -2.669  -5.199  1.00  0.00     0.030 C 
ATOM     11  C   UNL     1      -0.513  -0.189  -5.054  1.00  0.00     0.030 C 
BRANCH   7  12
ATOM     12  S   UNL     1       1.302  -2.194  -2.842  1.00  0.00     0.279 S 
ATOM     13  O   UNL     1       2.703  -1.874  -2.697  1.00  0.00    -0.195 OA
ATOM     14  O   UNL     1       0.742  -3.416  -2.323  1.00  0.00    -0.195 OA
BRANCH  12  15
ATOM     15  N   UNL     1       0.427  -0.954  -2.103  1.00  0.00    -0.199 NA
ATOM     16  H   UNL     1      -0.420  -0.801  -2.650  1.00  0.00     0.142 HD
BRANCH  15  17
ATOM     17  C   UNL     1       1.132   0.358  -1.975  1.00  0.00     0.138 C 
BRANCH  17  18
ATOM     18  C   UNL     1       0.206   1.504  -1.523  1.00  0.00     0.188 C 
ATOM     19  C   UNL     1       1.515   0.493   1.266  1.00  0.00     0.332 C 
ATOM     20  N   UNL     1       0.662   1.635   0.974  1.00  0.00    -0.333 N 
ATOM     21  C   UNL     1       1.403   2.878   0.694  1.00  0.00     0.290 C 
ATOM     22  C   UNL     1      -0.327   1.403  -0.080  1.00  0.00     0.295 C 
ATOM     23  H   UNL     1       0.152   1.760   1.848  1.00  0.00     0.348 HD
ATOM     24  C   UNL     1       1.879   3.030  -0.765  1.00  0.00     0.222 C 
ATOM     25  O   UNL     1       0.840   2.784  -1.722  1.00  0.00    -0.365 OA
ENDBRANCH  17  18
ENDBRANCH  15  17
ENDBRANCH  12  15
ENDBRANCH   7  12
ENDBRANCH   3   6
ENDBRANCH   1   2
BRANCH   1  26
ATOM     26  C   UNL     1      -2.848  -0.497  -1.462  1.00  0.00     0.042 C 
BRANCH  26  27
ATOM     27  C   UNL     1      -4.078   0.100  -0.798  1.00  0.00     0.118 C 
BRANCH  27  28
ATOM     28  N   UNL     1      -4.641  -0.790   0.199  1.00  0.00    -0.352 N 
ATOM     29  C   UNL     1      -4.646  -0.747   1.573  1.00  0.00     0.251 C 
ATOM     30  H   UNL     1      -5.106  -1.571  -0.179  1.00  0.00     0.163 HD
ATOM     31  O   UNL     1      -4.968  -1.781   2.162  1.00  0.00    -0.269 OA
BRANCH  29  32
ATOM     32  C   UNL     1      -4.286   0.463   2.370  1.00  0.00     0.039 A 
ATOM     33  C   UNL     1      -3.857   0.268   3.691  1.00  0.00     0.014 A 
ATOM     34  C   UNL     1      -4.463   1.773   1.919  1.00  0.00     0.014 A 
ATOM     35  C   UNL     1      -3.617   1.360   4.535  1.00  0.00     0.010 A 
ATOM     36  C   UNL     1      -4.122   2.864   2.729  1.00  0.00     0.010 A 
ATOM     37  C   UNL     1      -3.735   2.676   4.063  1.00  0.00    -0.014 A 
BRANCH  37  38
ATOM     38  C   UNL     1      -3.530   3.837   4.980  1.00  0.00     0.031 A 
ATOM     39  C   UNL     1      -4.663   4.795   5.271  1.00  0.00     0.074 A 
ATOM     40  C   UNL     1      -2.332   4.029   5.569  1.00  0.00     0.049 A 
ATOM     41  N   UNL     1      -4.683   5.845   6.056  1.00  0.00    -0.248 NA
ATOM     42  C   UNL     1      -5.933   4.556   4.570  1.00  0.00     0.031 C 
ATOM     43  C   UNL     1      -1.145   3.200   5.353  1.00  0.00     0.029 A 
ATOM     44  N   UNL     1      -1.914   4.971   6.478  1.00  0.00    -0.354 N 
ATOM     45  C   UNL     1      -5.958   6.392   5.935  1.00  0.00     0.074 A 
ATOM     46  C   UNL     1      -6.657   5.598   4.948  1.00  0.00     0.031 C 
ATOM     47  C   UNL     1      -0.151   3.638   6.142  1.00  0.00     0.029 A 
ATOM     48  C   UNL     1      -0.607   4.812   6.882  1.00  0.00     0.049 A 
ATOM     49  H   UNL     1      -2.495   5.693   6.811  1.00  0.00     0.167 HD
ATOM     50  C   UNL     1      -6.509   7.438   6.603  1.00  0.00     0.034 A 
ATOM     51  C   UNL     1       0.144   5.530   7.742  1.00  0.00     0.034 A 
ATOM     52  C   UNL     1      -5.807   8.218   7.595  1.00  0.00     0.049 A 
ATOM     53  C   UNL     1      -0.478   6.713   8.444  1.00  0.00     0.074 A 
ATOM     54  C   UNL     1      -6.286   9.266   8.363  1.00  0.00     0.029 A 
ATOM     55  N   UNL     1      -4.475   8.046   7.950  1.00  0.00    -0.354 N 
ATOM     56  N   UNL     1      -1.703   7.179   8.355  1.00  0.00    -0.248 NA
ATOM     57  C   UNL     1       0.383   7.457   9.371  1.00  0.00     0.031 C 
ATOM     58  C   UNL     1      -5.225   9.780   9.116  1.00  0.00     0.029 A 
ATOM     59  C   UNL     1      -4.106   8.994   8.893  1.00  0.00     0.049 A 
ATOM     60  H   UNL     1      -3.880   7.352   7.585  1.00  0.00     0.167 HD
ATOM     61  C   UNL     1      -1.764   8.255   9.238  1.00  0.00     0.074 A 
ATOM     62  C   UNL     1      -0.463   8.346   9.868  1.00  0.00     0.031 C 
ATOM     63  C   UNL     1      -2.800   9.093   9.503  1.00  0.00     0.034 A 
BRANCH  50  64
ATOM     64  C   UNL     1      -7.934   7.815   6.260  1.00  0.00     0.023 A 
ATOM     65  C   UNL     1      -9.006   6.925   6.456  1.00  0.00     0.031 A 
ATOM     66  C   UNL     1      -8.226   9.078   5.713  1.00  0.00     0.131 A 
ATOM     67  C   UNL     1     -10.298   7.277   6.035  1.00  0.00     0.055 A 
ATOM     68  C   UNL     1      -9.529   9.457   5.380  1.00  0.00     0.041 A 
ATOM     69  F   UNL     1      -7.246   9.966   5.481  1.00  0.00    -0.206 F 
ATOM     70  C   UNL     1     -10.572   8.548   5.526  1.00  0.00     0.022 A 
BRANCH  67  71
ATOM     71  S   UNL     1     -11.583   5.996   6.018  1.00  0.00     0.124 S 
ATOM     72  O   UNL     1     -10.981   4.988   5.148  1.00  0.00    -0.237 OA
ATOM     73  O   UNL     1     -11.693   5.641   7.428  1.00  0.00    -0.237 OA
ATOM     74  O   UNL     1     -12.743   6.682   5.454  1.00  0.00    -0.744 OA
ENDBRANCH  67  71
ENDBRANCH  50  64
BRANCH  51  75
ATOM     75  C   UNL     1       1.574   5.171   7.984  1.00  0.00     0.023 A 
ATOM     76  C   UNL     1       2.027   4.800   9.261  1.00  0.00     0.031 A 
ATOM     77  C   UNL     1       2.524   5.253   6.949  1.00  0.00     0.131 A 
ATOM     78  C   UNL     1       3.395   4.577   9.482  1.00  0.00     0.055 A 
ATOM     79  C   UNL     1       3.874   4.965   7.160  1.00  0.00     0.041 A 
ATOM     80  F   UNL     1       2.151   5.607   5.709  1.00  0.00    -0.206 F 
ATOM     81  C   UNL     1       4.319   4.640   8.437  1.00  0.00     0.022 A 
BRANCH  78  82
ATOM     82  S   UNL     1       3.969   4.306  11.182  1.00  0.00     0.124 S 
ATOM     83  O   UNL     1       3.507   5.518  11.847  1.00  0.00    -0.237 OA
ATOM     84  O   UNL     1       3.279   3.072  11.542  1.00  0.00    -0.237 OA
ATOM     85  O   UNL     1       5.419   4.186  11.036  1.00  0.00    -0.744 OA
ENDBRANCH  78  82
ENDBRANCH  51  75
BRANCH  63  86
ATOM     86  C   UNL     1      -2.569  10.160  10.549  1.00  0.00     0.023 A 
ATOM     87  C   UNL     1      -1.609  11.173  10.374  1.00  0.00     0.031 A 
ATOM     88  C   UNL     1      -3.295  10.145  11.754  1.00  0.00     0.131 A 
ATOM     89  C   UNL     1      -1.344  12.075  11.415  1.00  0.00     0.055 A 
ATOM     90  C   UNL     1      -3.082  11.095  12.755  1.00  0.00     0.041 A 
ATOM     91  F   UNL     1      -4.222   9.201  11.983  1.00  0.00    -0.206 F 
ATOM     92  C   UNL     1      -2.088  12.056  12.596  1.00  0.00     0.022 A 
BRANCH  89  93
ATOM     93  S   UNL     1       0.081  13.188  11.257  1.00  0.00     0.124 S 
ATOM     94  O   UNL     1       1.175  12.248  11.038  1.00  0.00    -0.237 OA
ATOM     95  O   UNL     1      -0.292  14.011  10.111  1.00  0.00    -0.237 OA
ATOM     96  O   UNL     1       0.112  13.889  12.540  1.00  0.00    -0.744 OA
ENDBRANCH  89  93
ENDBRANCH  63  86
ENDBRANCH  37  38
ENDBRANCH  29  32
ENDBRANCH  27  28
ENDBRANCH  26  27
ENDBRANCH   1  26
TORSDOF 17
