REMARK SMILES O=C(NCCCNC(=O)[C@H](CO)NC(=O)[C@H](Cc1c[nH]c2ccccc12)NC(=O)[C@H](Cc1ccc(O)cc1)NC(=O)c1ccc(F)cc1)c1ccc(-c2c3nc(c(-c4cc(S(=O)(=O)[O-])ccc4F)c4ccc([nH]4)c(-c4cc(S(=O)(=O)[O-])ccc4F)c4nc(c(-c5cc(S(=O)(=O)[O-])ccc5F)c5ccc2[nH]5)C=C4)C=C3)cc1
REMARK SMILES IDX 7 1 8 2 9 3 6 5 5 6 4 7 3 8 1 9 2 10 49 12 50 13 111 14
REMARK SMILES IDX 51 15 110 16 52 17 53 18 54 19 104 20 55 21 109 22 103 23
REMARK SMILES IDX 105 24 56 25 108 26 102 27 101 28 57 30 89 31 69 32 88 33
REMARK SMILES IDX 70 34 73 35 87 36 106 37 71 38 72 39 86 41 107 42 74 43
REMARK SMILES IDX 58 44 59 45 67 46 60 47 66 48 68 49 65 50 61 51 62 52 63 53
REMARK SMILES IDX 64 54 90 55 91 56 99 57 92 58 98 59 100 60 97 61 93 62 94 63
REMARK SMILES IDX 95 64 96 65 75 66 76 67 84 68 77 69 83 70 85 71 82 72 78 73
REMARK SMILES IDX 79 74 80 75 81 76 10 77 13 78 14 79 15 81 16 82 27 83 28 84
REMARK SMILES IDX 29 86 30 87 39 88 40 89 41 91 42 92 43 93 48 94 44 95 47 96
REMARK SMILES IDX 45 97 46 98 31 99 32 100 33 101 38 102 34 103 37 104 35 105
REMARK SMILES IDX 36 106 17 108 18 109 19 110 26 111 20 112 21 113 25 114
REMARK SMILES IDX 22 116 24 117 23 118 11 119 12 120
REMARK H PARENT 7 4 3 11 105 29 73 40 13 80 27 85 39 90 36 107 20 115 12 121
REMARK Flexibility Score: inf
ROOT
ATOM      1  N   UNL     1       5.562  12.157   3.297  1.00  0.00    -0.354 N 
ATOM      2  C   UNL     1       5.984  12.451   2.045  1.00  0.00     0.244 C 
ATOM      3  O   UNL     1       6.837  11.709   1.551  1.00  0.00    -0.273 OA
ATOM      4  H   UNL     1       6.170  11.583   3.818  1.00  0.00     0.163 HD
ENDROOT
BRANCH   1   5
ATOM      5  C   UNL     1       4.354  12.557   3.986  1.00  0.00     0.117 C 
BRANCH   5   6
ATOM      6  C   UNL     1       3.350  11.415   4.023  1.00  0.00     0.042 C 
BRANCH   6   7
ATOM      7  C   UNL     1       3.864  10.207   4.791  1.00  0.00     0.118 C 
BRANCH   7   8
ATOM      8  N   UNL     1       4.110  10.519   6.196  1.00  0.00    -0.352 N 
ATOM      9  O   UNL     1       3.565  10.815   8.364  1.00  0.00    -0.269 OA
ATOM     10  C   UNL     1       3.340  10.244   7.299  1.00  0.00     0.251 C 
ATOM     11  H   UNL     1       4.951  10.997   6.379  1.00  0.00     0.163 HD
BRANCH  10  12
ATOM     12  C   UNL     1       2.242   9.265   7.190  1.00  0.00     0.039 A 
ATOM     13  C   UNL     1       2.438   8.088   6.469  1.00  0.00     0.014 A 
ATOM     14  C   UNL     1       1.017   9.513   7.816  1.00  0.00     0.014 A 
ATOM     15  C   UNL     1       1.367   7.247   6.221  1.00  0.00     0.010 A 
ATOM     16  C   UNL     1      -0.026   8.593   7.674  1.00  0.00     0.010 A 
ATOM     17  C   UNL     1       0.136   7.463   6.858  1.00  0.00    -0.014 A 
BRANCH  17  18
ATOM     18  C   UNL     1      -0.915   6.426   6.733  1.00  0.00     0.031 A 
ATOM     19  C   UNL     1      -2.236   6.721   6.086  1.00  0.00     0.074 A 
ATOM     20  C   UNL     1      -0.629   5.184   7.173  1.00  0.00     0.049 A 
ATOM     21  N   UNL     1      -3.251   5.918   5.896  1.00  0.00    -0.248 NA
ATOM     22  C   UNL     1      -2.452   8.090   5.595  1.00  0.00     0.031 C 
ATOM     23  C   UNL     1       0.635   4.789   7.805  1.00  0.00     0.029 A 
ATOM     24  N   UNL     1      -1.349   4.021   7.127  1.00  0.00    -0.354 N 
ATOM     25  C   UNL     1      -4.233   6.683   5.278  1.00  0.00     0.074 A 
ATOM     26  C   UNL     1      -3.700   8.024   5.151  1.00  0.00     0.031 C 
ATOM     27  C   UNL     1       0.632   3.466   8.011  1.00  0.00     0.029 A 
ATOM     28  C   UNL     1      -0.667   2.935   7.623  1.00  0.00     0.049 A 
ATOM     29  H   UNL     1      -2.267   3.967   6.774  1.00  0.00     0.167 HD
ATOM     30  C   UNL     1      -5.460   6.292   4.853  1.00  0.00     0.034 A 
ATOM     31  C   UNL     1      -1.048   1.653   7.777  1.00  0.00     0.034 A 
ATOM     32  C   UNL     1      -5.964   4.947   4.991  1.00  0.00     0.049 A 
ATOM     33  C   UNL     1      -2.435   1.264   7.365  1.00  0.00     0.074 A 
ATOM     34  C   UNL     1      -7.188   4.441   4.586  1.00  0.00     0.029 A 
ATOM     35  N   UNL     1      -5.278   3.893   5.584  1.00  0.00    -0.354 N 
ATOM     36  N   UNL     1      -3.365   2.008   6.816  1.00  0.00    -0.248 NA
ATOM     37  C   UNL     1      -2.830  -0.128   7.605  1.00  0.00     0.031 C 
ATOM     38  C   UNL     1      -7.269   3.107   4.995  1.00  0.00     0.029 A 
ATOM     39  C   UNL     1      -6.066   2.752   5.584  1.00  0.00     0.049 A 
ATOM     40  H   UNL     1      -4.366   3.949   5.949  1.00  0.00     0.167 HD
ATOM     41  C   UNL     1      -4.458   1.171   6.633  1.00  0.00     0.074 A 
ATOM     42  C   UNL     1      -4.067  -0.137   7.124  1.00  0.00     0.031 C 
ATOM     43  C   UNL     1      -5.671   1.461   6.099  1.00  0.00     0.034 A 
BRANCH  30  44
ATOM     44  C   UNL     1      -6.357   7.340   4.243  1.00  0.00     0.023 A 
ATOM     45  C   UNL     1      -6.054   7.953   3.015  1.00  0.00     0.031 A 
ATOM     46  C   UNL     1      -7.545   7.720   4.895  1.00  0.00     0.131 A 
ATOM     47  C   UNL     1      -6.902   8.947   2.502  1.00  0.00     0.055 A 
ATOM     48  C   UNL     1      -8.418   8.661   4.346  1.00  0.00     0.041 A 
ATOM     49  F   UNL     1      -7.875   7.183   6.080  1.00  0.00    -0.206 F 
ATOM     50  C   UNL     1      -8.095   9.287   3.146  1.00  0.00     0.022 A 
BRANCH  47  51
ATOM     51  S   UNL     1      -6.377   9.863   1.027  1.00  0.00     0.124 S 
ATOM     52  O   UNL     1      -5.149  10.499   1.498  1.00  0.00    -0.237 OA
ATOM     53  O   UNL     1      -6.210   8.803   0.039  1.00  0.00    -0.237 OA
ATOM     54  O   UNL     1      -7.489  10.778   0.777  1.00  0.00    -0.744 OA
ENDBRANCH  47  51
ENDBRANCH  30  44
BRANCH  31  55
ATOM     55  C   UNL     1      -0.098   0.680   8.377  1.00  0.00     0.023 A 
ATOM     56  C   UNL     1       0.484  -0.332   7.601  1.00  0.00     0.031 A 
ATOM     57  C   UNL     1       0.296   0.798   9.723  1.00  0.00     0.131 A 
ATOM     58  C   UNL     1       1.432  -1.190   8.179  1.00  0.00     0.055 A 
ATOM     59  C   UNL     1       1.267  -0.033  10.281  1.00  0.00     0.041 A 
ATOM     60  F   UNL     1      -0.221   1.764  10.499  1.00  0.00    -0.206 F 
ATOM     61  C   UNL     1       1.840  -1.037   9.507  1.00  0.00     0.022 A 
BRANCH  58  62
ATOM     62  S   UNL     1       2.135  -2.518   7.164  1.00  0.00     0.124 S 
ATOM     63  O   UNL     1       0.964  -3.350   6.911  1.00  0.00    -0.237 OA
ATOM     64  O   UNL     1       2.660  -1.782   6.018  1.00  0.00    -0.237 OA
ATOM     65  O   UNL     1       3.148  -3.111   8.035  1.00  0.00    -0.744 OA
ENDBRANCH  58  62
ENDBRANCH  31  55
BRANCH  43  66
ATOM     66  C   UNL     1      -6.661   0.332   5.992  1.00  0.00     0.023 A 
ATOM     67  C   UNL     1      -7.288  -0.207   7.127  1.00  0.00     0.031 A 
ATOM     68  C   UNL     1      -7.007  -0.182   4.730  1.00  0.00     0.131 A 
ATOM     69  C   UNL     1      -8.215  -1.250   6.979  1.00  0.00     0.055 A 
ATOM     70  C   UNL     1      -7.966  -1.184   4.585  1.00  0.00     0.041 A 
ATOM     71  F   UNL     1      -6.433   0.300   3.616  1.00  0.00    -0.206 F 
ATOM     72  C   UNL     1      -8.572  -1.728   5.715  1.00  0.00     0.022 A 
BRANCH  69  73
ATOM     73  S   UNL     1      -8.925  -2.004   8.467  1.00  0.00     0.124 S 
ATOM     74  O   UNL     1      -7.749  -2.601   9.093  1.00  0.00    -0.237 OA
ATOM     75  O   UNL     1      -9.502  -0.857   9.159  1.00  0.00    -0.237 OA
ATOM     76  O   UNL     1      -9.897  -2.959   7.937  1.00  0.00    -0.744 OA
ENDBRANCH  69  73
ENDBRANCH  43  66
ENDBRANCH  17  18
ENDBRANCH  10  12
ENDBRANCH   7   8
ENDBRANCH   6   7
ENDBRANCH   5   6
ENDBRANCH   1   5
BRANCH   2  77
ATOM     77  C   UNL     1       5.394  13.605   1.222  1.00  0.00     0.197 C 
BRANCH  77  78
ATOM     78  N   UNL     1       4.042  13.309   0.738  1.00  0.00    -0.340 N 
ATOM     79  C   UNL     1       3.656  12.865  -0.501  1.00  0.00     0.243 C 
ATOM     80  H   UNL     1       3.315  13.447   1.388  1.00  0.00     0.164 HD
ATOM     81  O   UNL     1       2.513  12.424  -0.625  1.00  0.00    -0.273 OA
BRANCH  79  82
ATOM     82  C   UNL     1       4.611  12.985  -1.708  1.00  0.00     0.175 C 
BRANCH  82  83
ATOM     83  N   UNL     1       4.589  11.753  -2.482  1.00  0.00    -0.342 N 
ATOM     84  C   UNL     1       5.505  10.744  -2.600  1.00  0.00     0.243 C 
ATOM     85  H   UNL     1       3.771  11.623  -3.015  1.00  0.00     0.164 HD
ATOM     86  O   UNL     1       5.115   9.734  -3.200  1.00  0.00    -0.273 OA
BRANCH  84  87
ATOM     87  C   UNL     1       7.034  10.932  -2.305  1.00  0.00     0.176 C 
BRANCH  87  88
ATOM     88  N   UNL     1       7.422  11.840  -1.215  1.00  0.00    -0.340 N 
ATOM     89  C   UNL     1       8.232  12.941  -1.151  1.00  0.00     0.251 C 
ATOM     90  H   UNL     1       7.013  11.607  -0.350  1.00  0.00     0.164 HD
ATOM     91  O   UNL     1       8.458  13.477  -0.067  1.00  0.00    -0.269 OA
BRANCH  89  92
ATOM     92  C   UNL     1       8.838  13.571  -2.338  1.00  0.00     0.040 A 
ATOM     93  C   UNL     1       8.122  13.817  -3.510  1.00  0.00     0.017 A 
ATOM     94  C   UNL     1      10.135  14.085  -2.196  1.00  0.00     0.017 A 
ATOM     95  C   UNL     1       8.717  14.519  -4.559  1.00  0.00     0.040 A 
ATOM     96  C   UNL     1      10.726  14.797  -3.237  1.00  0.00     0.040 A 
ATOM     97  C   UNL     1      10.014  14.999  -4.414  1.00  0.00     0.123 A 
ATOM     98  F   UNL     1      10.578  15.689  -5.413  1.00  0.00    -0.207 F 
ENDBRANCH  89  92
ENDBRANCH  87  88
BRANCH  87  99
ATOM     99  C   UNL     1       7.738   9.556  -2.143  1.00  0.00     0.070 C 
BRANCH  99 100
ATOM    100  C   UNL     1       7.577   8.929  -0.773  1.00  0.00    -0.045 A 
ATOM    101  C   UNL     1       6.529   8.040  -0.501  1.00  0.00     0.007 A 
ATOM    102  C   UNL     1       8.449   9.288   0.267  1.00  0.00     0.007 A 
ATOM    103  C   UNL     1       6.337   7.548   0.794  1.00  0.00     0.046 A 
ATOM    104  C   UNL     1       8.244   8.815   1.562  1.00  0.00     0.046 A 
ATOM    105  C   UNL     1       7.185   7.956   1.819  1.00  0.00     0.115 A 
BRANCH 105 106
ATOM    106  O   UNL     1       6.999   7.544   3.106  1.00  0.00    -0.508 OA
ATOM    107  H   UNL     1       6.294   6.963   3.315  1.00  0.00     0.293 HD
ENDBRANCH 105 106
ENDBRANCH  99 100
ENDBRANCH  87  99
ENDBRANCH  84  87
ENDBRANCH  82  83
BRANCH  82 108
ATOM    108  C   UNL     1       4.381  14.316  -2.443  1.00  0.00     0.072 C 
BRANCH 108 109
ATOM    109  C   UNL     1       3.596  14.377  -3.720  1.00  0.00    -0.020 A 
ATOM    110  C   UNL     1       2.488  15.184  -3.913  1.00  0.00     0.087 A 
ATOM    111  C   UNL     1       3.904  13.803  -5.003  1.00  0.00     0.003 A 
ATOM    112  N   UNL     1       2.132  15.137  -5.232  1.00  0.00    -0.361 N 
ATOM    113  C   UNL     1       2.993  14.323  -5.926  1.00  0.00     0.046 A 
ATOM    114  C   UNL     1       4.885  12.915  -5.492  1.00  0.00     0.010 A 
ATOM    115  H   UNL     1       1.369  15.617  -5.627  1.00  0.00     0.166 HD
ATOM    116  C   UNL     1       3.030  14.016  -7.294  1.00  0.00     0.026 A 
ATOM    117  C   UNL     1       4.926  12.577  -6.849  1.00  0.00     0.001 A 
ATOM    118  C   UNL     1       4.013  13.129  -7.738  1.00  0.00     0.002 A 
ENDBRANCH 108 109
ENDBRANCH  82 108
ENDBRANCH  79  82
ENDBRANCH  77  78
BRANCH  77 119
ATOM    119  C   UNL     1       5.603  14.997   1.824  1.00  0.00     0.191 C 
BRANCH 119 120
ATOM    120  O   UNL     1       4.614  15.392   2.764  1.00  0.00    -0.394 OA
ATOM    121  H   UNL     1       3.751  15.441   2.323  1.00  0.00     0.210 HD
ENDBRANCH 119 120
ENDBRANCH  77 119
ENDBRANCH   2  77
TORSDOF 26
