REMARK SMILES Cc1ccc(CN(CC(=O)NCCCNC(=O)c2ccc(-c3c4nc(c(-c5cc(S(=O)(=O)[O-])ccc5F)c5ccc([nH]5)c(-c5cc(S(=O)(=O)[O-])ccc5F)c5nc(c(-c6cc(S(=O)(=O)[O-])ccc6F)c6ccc3[nH]6)C=C5)C=C4)cc2)C(=O)c2cc3c(s2)CCOC3)cc1
REMARK SMILES IDX 13 1 12 2 11 3 9 4 10 5 8 7 7 8 6 9 5 10 1 11 2 12 3 13
REMARK SMILES IDX 93 14 4 15 92 16 81 17 82 18 83 19 84 20 87 21 85 22 86 23
REMARK SMILES IDX 91 24 88 25 90 26 89 27 14 28 15 29 16 30 17 32 18 33 19 34
REMARK SMILES IDX 80 35 20 36 79 37 21 38 22 39 23 40 73 41 24 42 78 43 72 44
REMARK SMILES IDX 74 45 25 46 77 47 71 48 70 49 26 51 58 52 38 53 57 54 39 55
REMARK SMILES IDX 42 56 56 57 75 58 40 59 41 60 55 62 76 63 43 64 27 65 28 66
REMARK SMILES IDX 36 67 29 68 35 69 37 70 34 71 30 72 31 73 32 74 33 75 59 76
REMARK SMILES IDX 60 77 68 78 61 79 67 80 69 81 66 82 62 83 63 84 64 85 65 86
REMARK SMILES IDX 44 87 45 88 53 89 46 90 52 91 54 92 51 93 47 94 48 95 49 96
REMARK SMILES IDX 50 97
REMARK H PARENT 11 6 15 31 74 50 42 61
REMARK Flexibility Score: inf
ROOT
ATOM      1  C   UNL     1      -5.891   1.517  -0.150  1.00  0.00     0.042 C 
ENDROOT
BRANCH   1   2
ATOM      2  C   UNL     1      -6.236   0.162   0.448  1.00  0.00     0.117 C 
BRANCH   2   3
ATOM      3  N   UNL     1      -6.647  -0.822  -0.536  1.00  0.00    -0.354 N 
ATOM      4  C   UNL     1      -5.923  -1.767  -1.199  1.00  0.00     0.239 C 
ATOM      5  O   UNL     1      -6.528  -2.672  -1.786  1.00  0.00    -0.273 OA
ATOM      6  H   UNL     1      -7.606  -0.804  -0.761  1.00  0.00     0.163 HD
BRANCH   4   7
ATOM      7  C   UNL     1      -4.378  -1.833  -1.127  1.00  0.00     0.220 C 
BRANCH   7   8
ATOM      8  N   UNL     1      -3.610  -0.599  -1.336  1.00  0.00    -0.324 N 
BRANCH   8   9
ATOM      9  C   UNL     1      -2.983   0.018  -0.174  1.00  0.00     0.156 C 
BRANCH   9  10
ATOM     10  C   UNL     1      -1.476  -0.057  -0.148  1.00  0.00    -0.029 A 
ATOM     11  C   UNL     1       2.832  -0.139   0.047  1.00  0.00     0.044 C 
ATOM     12  C   UNL     1       1.335  -0.107  -0.008  1.00  0.00    -0.051 A 
ATOM     13  C   UNL     1       0.601  -1.301  -0.031  1.00  0.00     0.004 A 
ATOM     14  C   UNL     1       0.654   1.112  -0.058  1.00  0.00     0.004 A 
ATOM     15  C   UNL     1      -0.795  -1.278  -0.098  1.00  0.00     0.006 A 
ATOM     16  C   UNL     1      -0.736   1.135  -0.126  1.00  0.00     0.006 A 
ENDBRANCH   9  10
ENDBRANCH   8   9
BRANCH   8  17
ATOM     17  C   UNL     1      -3.395   0.000  -2.591  1.00  0.00     0.264 C 
ATOM     18  O   UNL     1      -2.860   1.108  -2.673  1.00  0.00    -0.268 OA
BRANCH  17  19
ATOM     19  C   UNL     1      -3.752  -0.758  -3.779  1.00  0.00     0.093 A 
ATOM     20  C   UNL     1      -4.979  -1.216  -4.224  1.00  0.00     0.032 A 
ATOM     21  S   UNL     1      -2.493  -1.190  -4.870  1.00  0.00    -0.135 S 
ATOM     22  C   UNL     1      -4.849  -2.106  -5.332  1.00  0.00    -0.008 A 
ATOM     23  C   UNL     1      -3.549  -2.141  -5.787  1.00  0.00     0.013 A 
ATOM     24  C   UNL     1      -5.913  -2.972  -5.941  1.00  0.00     0.196 C 
ATOM     25  C   UNL     1      -3.136  -2.971  -6.956  1.00  0.00     0.075 C 
ATOM     26  O   UNL     1      -5.479  -3.638  -7.151  1.00  0.00    -0.376 OA
ATOM     27  C   UNL     1      -4.134  -4.134  -7.066  1.00  0.00     0.166 C 
ENDBRANCH  17  19
ENDBRANCH   8  17
ENDBRANCH   7   8
ENDBRANCH   4   7
ENDBRANCH   2   3
ENDBRANCH   1   2
BRANCH   1  28
ATOM     28  C   UNL     1      -7.088   2.421  -0.407  1.00  0.00     0.118 C 
BRANCH  28  29
ATOM     29  N   UNL     1      -7.289   3.419   0.649  1.00  0.00    -0.352 N 
ATOM     30  C   UNL     1      -8.002   4.607   0.594  1.00  0.00     0.251 C 
ATOM     31  H   UNL     1      -6.859   3.219   1.512  1.00  0.00     0.163 HD
ATOM     32  O   UNL     1      -8.121   5.345   1.555  1.00  0.00    -0.269 OA
BRANCH  30  33
ATOM     33  C   UNL     1      -8.738   4.894  -0.657  1.00  0.00     0.039 A 
ATOM     34  C   UNL     1     -10.130   4.793  -0.602  1.00  0.00     0.014 A 
ATOM     35  C   UNL     1      -8.060   4.897  -1.872  1.00  0.00     0.014 A 
ATOM     36  C   UNL     1     -10.822   4.421  -1.749  1.00  0.00     0.010 A 
ATOM     37  C   UNL     1      -8.735   4.442  -2.991  1.00  0.00     0.010 A 
ATOM     38  C   UNL     1     -10.097   4.125  -2.906  1.00  0.00    -0.014 A 
BRANCH  38  39
ATOM     39  C   UNL     1     -10.655   3.300  -3.975  1.00  0.00     0.031 A 
ATOM     40  C   UNL     1     -11.027   3.879  -5.277  1.00  0.00     0.074 A 
ATOM     41  C   UNL     1     -10.875   1.979  -3.785  1.00  0.00     0.049 A 
ATOM     42  N   UNL     1     -12.024   3.458  -5.985  1.00  0.00    -0.248 NA
ATOM     43  C   UNL     1     -10.316   5.003  -5.873  1.00  0.00     0.031 C 
ATOM     44  C   UNL     1     -11.241   0.994  -4.799  1.00  0.00     0.029 A 
ATOM     45  N   UNL     1     -11.046   1.311  -2.576  1.00  0.00    -0.354 N 
ATOM     46  C   UNL     1     -11.911   4.036  -7.223  1.00  0.00     0.074 A 
ATOM     47  C   UNL     1     -10.886   5.049  -7.082  1.00  0.00     0.031 C 
ATOM     48  C   UNL     1     -11.828  -0.050  -4.197  1.00  0.00     0.029 A 
ATOM     49  C   UNL     1     -11.970   0.273  -2.790  1.00  0.00     0.049 A 
ATOM     50  H   UNL     1     -10.601   1.527  -1.725  1.00  0.00     0.167 HD
ATOM     51  C   UNL     1     -12.573   3.520  -8.295  1.00  0.00     0.034 A 
ATOM     52  C   UNL     1     -13.123   0.197  -2.065  1.00  0.00     0.034 A 
ATOM     53  C   UNL     1     -13.341   2.320  -7.976  1.00  0.00     0.049 A 
ATOM     54  C   UNL     1     -14.389   0.318  -2.886  1.00  0.00     0.074 A 
ATOM     55  C   UNL     1     -13.140   0.965  -8.187  1.00  0.00     0.029 A 
ATOM     56  N   UNL     1     -14.414   2.411  -7.105  1.00  0.00    -0.354 N 
ATOM     57  N   UNL     1     -14.428   0.442  -4.184  1.00  0.00    -0.248 NA
ATOM     58  C   UNL     1     -15.714   0.427  -2.276  1.00  0.00     0.031 C 
ATOM     59  C   UNL     1     -14.114   0.245  -7.438  1.00  0.00     0.029 A 
ATOM     60  C   UNL     1     -14.916   1.162  -6.784  1.00  0.00     0.049 A 
ATOM     61  H   UNL     1     -14.774   3.258  -6.757  1.00  0.00     0.167 HD
ATOM     62  C   UNL     1     -15.710   0.749  -4.570  1.00  0.00     0.074 A 
ATOM     63  C   UNL     1     -16.480   0.716  -3.339  1.00  0.00     0.031 C 
ATOM     64  C   UNL     1     -16.035   1.071  -5.859  1.00  0.00     0.034 A 
BRANCH  51  65
ATOM     65  C   UNL     1     -12.263   3.975  -9.694  1.00  0.00     0.023 A 
ATOM     66  C   UNL     1     -12.190   3.036 -10.739  1.00  0.00     0.031 A 
ATOM     67  C   UNL     1     -11.998   5.313 -10.043  1.00  0.00     0.131 A 
ATOM     68  C   UNL     1     -11.765   3.413 -12.023  1.00  0.00     0.055 A 
ATOM     69  C   UNL     1     -11.514   5.680 -11.305  1.00  0.00     0.041 A 
ATOM     70  F   UNL     1     -12.204   6.312  -9.169  1.00  0.00    -0.206 F 
ATOM     71  C   UNL     1     -11.380   4.723 -12.300  1.00  0.00     0.022 A 
BRANCH  68  72
ATOM     72  S   UNL     1     -11.724   2.159 -13.332  1.00  0.00     0.124 S 
ATOM     73  O   UNL     1     -10.864   1.132 -12.753  1.00  0.00    -0.237 OA
ATOM     74  O   UNL     1     -13.135   1.816 -13.470  1.00  0.00    -0.237 OA
ATOM     75  O   UNL     1     -11.148   2.875 -14.469  1.00  0.00    -0.744 OA
ENDBRANCH  68  72
ENDBRANCH  51  65
BRANCH  52  76
ATOM     76  C   UNL     1     -12.956   0.686  -0.669  1.00  0.00     0.023 A 
ATOM     77  C   UNL     1     -12.028  -0.001   0.138  1.00  0.00     0.031 A 
ATOM     78  C   UNL     1     -13.342   1.975  -0.279  1.00  0.00     0.131 A 
ATOM     79  C   UNL     1     -11.385   0.664   1.189  1.00  0.00     0.055 A 
ATOM     80  C   UNL     1     -12.754   2.607   0.821  1.00  0.00     0.041 A 
ATOM     81  F   UNL     1     -14.190   2.693  -1.030  1.00  0.00    -0.206 F 
ATOM     82  C   UNL     1     -11.735   1.971   1.530  1.00  0.00     0.022 A 
BRANCH  79  83
ATOM     83  S   UNL     1      -9.887  -0.086   1.879  1.00  0.00     0.124 S 
ATOM     84  O   UNL     1     -10.421  -0.967   2.909  1.00  0.00    -0.237 OA
ATOM     85  O   UNL     1      -9.296  -0.745   0.713  1.00  0.00    -0.237 OA
ATOM     86  O   UNL     1      -9.118   1.059   2.363  1.00  0.00    -0.744 OA
ENDBRANCH  79  83
ENDBRANCH  52  76
BRANCH  64  87
ATOM     87  C   UNL     1     -17.441   1.378  -6.327  1.00  0.00     0.023 A 
ATOM     88  C   UNL     1     -18.573   0.803  -5.728  1.00  0.00     0.031 A 
ATOM     89  C   UNL     1     -17.694   2.216  -7.438  1.00  0.00     0.131 A 
ATOM     90  C   UNL     1     -19.871   1.154  -6.141  1.00  0.00     0.055 A 
ATOM     91  C   UNL     1     -18.983   2.498  -7.901  1.00  0.00     0.041 A 
ATOM     92  F   UNL     1     -16.705   2.819  -8.112  1.00  0.00    -0.206 F 
ATOM     93  C   UNL     1     -20.085   1.986  -7.237  1.00  0.00     0.022 A 
BRANCH  90  94
ATOM     94  S   UNL     1     -21.277   0.556  -5.167  1.00  0.00     0.124 S 
ATOM     95  O   UNL     1     -21.057  -0.886  -5.141  1.00  0.00    -0.237 OA
ATOM     96  O   UNL     1     -21.075   1.252  -3.899  1.00  0.00    -0.237 OA
ATOM     97  O   UNL     1     -22.441   0.995  -5.936  1.00  0.00    -0.744 OA
ENDBRANCH  90  94
ENDBRANCH  64  87
ENDBRANCH  38  39
ENDBRANCH  30  33
ENDBRANCH  28  29
ENDBRANCH   1  28
TORSDOF 18
