REMARK SMILES CN(C)C(=O)CCNC(=O)NC[C@H]1CC[C@@H](C(=O)NCCCNC(=O)c2ccc(-c3c4nc(c(-c5cc(S(=O)(=O)[O-])ccc5F)c5ccc([nH]5)c(-c5cc(S(=O)(=O)[O-])ccc5F)c5nc(c(-c6cc(S(=O)(=O)[O-])ccc6F)c6ccc3[nH]6)C=C5)C=C4)cc2)CC1
REMARK SMILES IDX 20 1 19 2 17 3 18 4 16 6 13 7 14 8 90 9 15 10 89 11 12 12
REMARK SMILES IDX 11 13 8 14 9 15 10 17 7 19 6 20 4 21 1 22 2 23 3 24 5 25
REMARK SMILES IDX 21 26 22 27 23 28 24 29 25 31 26 32 27 33 88 34 28 35 87 36
REMARK SMILES IDX 29 37 30 38 31 39 81 40 32 41 86 42 80 43 82 44 33 45 85 46
REMARK SMILES IDX 79 47 78 48 34 50 66 51 46 52 65 53 47 54 50 55 64 56 83 57
REMARK SMILES IDX 48 58 49 59 63 61 84 62 51 63 35 64 36 65 44 66 37 67 43 68
REMARK SMILES IDX 45 69 42 70 38 71 39 72 40 73 41 74 67 75 68 76 76 77 69 78
REMARK SMILES IDX 75 79 77 80 74 81 70 82 71 83 72 84 73 85 52 86 53 87 61 88
REMARK SMILES IDX 54 89 60 90 62 91 59 92 55 93 56 94 57 95 58 96
REMARK H PARENT 19 5 8 16 11 18 23 30 82 49 50 60
REMARK Flexibility Score: inf
ROOT
ATOM      1  C   UNL     1       1.672  -6.114  -3.261  1.00  0.00     0.117 C 
ENDROOT
BRANCH   1   2
ATOM      2  N   UNL     1       2.655  -7.118  -3.581  1.00  0.00    -0.356 N 
ATOM      3  C   UNL     1       3.043  -7.635  -4.771  1.00  0.00     0.223 C 
ATOM      4  O   UNL     1       3.929  -8.498  -4.726  1.00  0.00    -0.275 OA
ATOM      5  H   UNL     1       3.124  -7.493  -2.801  1.00  0.00     0.163 HD
BRANCH   3   6
ATOM      6  C   UNL     1       2.484  -7.198  -6.136  1.00  0.00     0.078 C 
ATOM      7  C   UNL     1       0.493  -5.004  -6.721  1.00  0.00     0.008 C 
ATOM      8  C   UNL     1       1.950  -4.672  -6.371  1.00  0.00     0.006 C 
ATOM      9  C   UNL     1       0.011  -6.386  -6.245  1.00  0.00     0.006 C 
ATOM     10  C   UNL     1       2.928  -5.815  -6.612  1.00  0.00     0.014 C 
ATOM     11  C   UNL     1       1.018  -7.521  -6.421  1.00  0.00     0.014 C 
BRANCH   7  12
ATOM     12  C   UNL     1      -0.469  -3.853  -6.321  1.00  0.00     0.121 C 
BRANCH  12  13
ATOM     13  N   UNL     1      -1.060  -3.929  -4.994  1.00  0.00    -0.338 N 
ATOM     14  N   UNL     1       0.387  -2.958  -3.394  1.00  0.00    -0.338 N 
ATOM     15  C   UNL     1      -0.730  -3.602  -3.744  1.00  0.00     0.314 C 
ATOM     16  H   UNL     1       0.762  -3.238  -2.528  1.00  0.00     0.165 HD
ATOM     17  O   UNL     1      -1.491  -3.963  -2.844  1.00  0.00    -0.249 OA
ATOM     18  H   UNL     1      -1.956  -4.338  -5.027  1.00  0.00     0.165 HD
BRANCH  14  19
ATOM     19  C   UNL     1       1.145  -1.920  -4.064  1.00  0.00     0.127 C 
BRANCH  19  20
ATOM     20  C   UNL     1       0.521  -0.544  -3.844  1.00  0.00     0.121 C 
BRANCH  20  21
ATOM     21  C   UNL     1       1.142   0.105  -2.619  1.00  0.00     0.223 C 
ATOM     22  C   UNL     1       1.186   0.374  -0.185  1.00  0.00     0.146 C 
ATOM     23  N   UNL     1       0.497  -0.021  -1.402  1.00  0.00    -0.349 N 
ATOM     24  C   UNL     1      -0.859  -0.516  -1.239  1.00  0.00     0.146 C 
ATOM     25  O   UNL     1       2.233   0.670  -2.735  1.00  0.00    -0.275 OA
ENDBRANCH  20  21
ENDBRANCH  19  20
ENDBRANCH  14  19
ENDBRANCH  12  13
ENDBRANCH   7  12
ENDBRANCH   3   6
ENDBRANCH   1   2
BRANCH   1  26
ATOM     26  C   UNL     1       0.468  -6.684  -2.533  1.00  0.00     0.042 C 
BRANCH  26  27
ATOM     27  C   UNL     1       0.578  -6.623  -1.018  1.00  0.00     0.118 C 
BRANCH  27  28
ATOM     28  N   UNL     1       0.836  -5.284  -0.496  1.00  0.00    -0.352 N 
ATOM     29  C   UNL     1       0.020  -4.338   0.080  1.00  0.00     0.251 C 
ATOM     30  H   UNL     1       1.777  -5.003  -0.571  1.00  0.00     0.163 HD
ATOM     31  O   UNL     1       0.471  -3.205   0.233  1.00  0.00    -0.269 OA
BRANCH  29  32
ATOM     32  C   UNL     1      -1.370  -4.647   0.492  1.00  0.00     0.039 A 
ATOM     33  C   UNL     1      -2.338  -3.635   0.447  1.00  0.00     0.014 A 
ATOM     34  C   UNL     1      -1.724  -5.899   0.985  1.00  0.00     0.014 A 
ATOM     35  C   UNL     1      -3.659  -3.897   0.817  1.00  0.00     0.010 A 
ATOM     36  C   UNL     1      -3.055  -6.197   1.242  1.00  0.00     0.010 A 
ATOM     37  C   UNL     1      -4.031  -5.191   1.191  1.00  0.00    -0.014 A 
BRANCH  37  38
ATOM     38  C   UNL     1      -5.396  -5.509   1.671  1.00  0.00     0.031 A 
ATOM     39  C   UNL     1      -5.556  -5.999   3.085  1.00  0.00     0.074 A 
ATOM     40  C   UNL     1      -6.453  -5.434   0.842  1.00  0.00     0.049 A 
ATOM     41  N   UNL     1      -6.588  -6.549   3.665  1.00  0.00    -0.248 NA
ATOM     42  C   UNL     1      -4.364  -5.901   3.943  1.00  0.00     0.031 C 
ATOM     43  C   UNL     1      -6.415  -4.962  -0.543  1.00  0.00     0.029 A 
ATOM     44  N   UNL     1      -7.767  -5.772   1.043  1.00  0.00    -0.354 N 
ATOM     45  C   UNL     1      -6.155  -6.903   4.939  1.00  0.00     0.074 A 
ATOM     46  C   UNL     1      -4.750  -6.570   5.016  1.00  0.00     0.031 C 
ATOM     47  C   UNL     1      -7.652  -5.026  -1.061  1.00  0.00     0.029 A 
ATOM     48  C   UNL     1      -8.556  -5.602  -0.071  1.00  0.00     0.049 A 
ATOM     49  H   UNL     1      -8.113  -6.104   1.903  1.00  0.00     0.167 HD
ATOM     50  C   UNL     1      -6.872  -7.436   5.958  1.00  0.00     0.034 A 
ATOM     51  C   UNL     1      -9.854  -5.907  -0.271  1.00  0.00     0.034 A 
ATOM     52  C   UNL     1      -8.280  -7.727   5.859  1.00  0.00     0.049 A 
ATOM     53  C   UNL     1     -10.628  -6.535   0.863  1.00  0.00     0.074 A 
ATOM     54  C   UNL     1      -9.129  -8.230   6.828  1.00  0.00     0.029 A 
ATOM     55  N   UNL     1      -9.050  -7.536   4.716  1.00  0.00    -0.354 N 
ATOM     56  N   UNL     1     -10.213  -6.865   2.066  1.00  0.00    -0.248 NA
ATOM     57  C   UNL     1     -12.044  -6.825   0.614  1.00  0.00     0.031 C 
ATOM     58  C   UNL     1     -10.390  -8.411   6.251  1.00  0.00     0.029 A 
ATOM     59  C   UNL     1     -10.355  -7.938   4.947  1.00  0.00     0.049 A 
ATOM     60  H   UNL     1      -8.715  -7.170   3.865  1.00  0.00     0.167 HD
ATOM     61  C   UNL     1     -11.330  -7.368   2.729  1.00  0.00     0.074 A 
ATOM     62  C   UNL     1     -12.434  -7.286   1.794  1.00  0.00     0.031 C 
ATOM     63  C   UNL     1     -11.438  -7.849   3.995  1.00  0.00     0.034 A 
BRANCH  50  64
ATOM     64  C   UNL     1      -6.128  -7.763   7.232  1.00  0.00     0.023 A 
ATOM     65  C   UNL     1      -5.452  -6.776   7.972  1.00  0.00     0.031 A 
ATOM     66  C   UNL     1      -6.034  -9.093   7.679  1.00  0.00     0.131 A 
ATOM     67  C   UNL     1      -4.632  -7.144   9.049  1.00  0.00     0.055 A 
ATOM     68  C   UNL     1      -5.297  -9.440   8.814  1.00  0.00     0.041 A 
ATOM     69  F   UNL     1      -6.635 -10.086   7.004  1.00  0.00    -0.206 F 
ATOM     70  C   UNL     1      -4.573  -8.466   9.494  1.00  0.00     0.022 A 
BRANCH  67  71
ATOM     71  S   UNL     1      -3.504  -5.901   9.739  1.00  0.00     0.124 S 
ATOM     72  O   UNL     1      -2.715  -5.536   8.564  1.00  0.00    -0.237 OA
ATOM     73  O   UNL     1      -4.421  -4.882  10.234  1.00  0.00    -0.237 OA
ATOM     74  O   UNL     1      -2.771  -6.636  10.767  1.00  0.00    -0.744 OA
ENDBRANCH  67  71
ENDBRANCH  50  64
BRANCH  51  75
ATOM     75  C   UNL     1     -10.501  -5.642  -1.588  1.00  0.00     0.023 A 
ATOM     76  C   UNL     1     -11.557  -4.723  -1.700  1.00  0.00     0.031 A 
ATOM     77  C   UNL     1     -10.099  -6.325  -2.750  1.00  0.00     0.131 A 
ATOM     78  C   UNL     1     -12.203  -4.544  -2.933  1.00  0.00     0.055 A 
ATOM     79  C   UNL     1     -10.708  -6.102  -3.986  1.00  0.00     0.041 A 
ATOM     80  F   UNL     1      -9.093  -7.214  -2.702  1.00  0.00    -0.206 F 
ATOM     81  C   UNL     1     -11.776  -5.216  -4.081  1.00  0.00     0.022 A 
BRANCH  78  82
ATOM     82  S   UNL     1     -13.668  -3.477  -2.999  1.00  0.00     0.124 S 
ATOM     83  O   UNL     1     -14.553  -4.129  -2.041  1.00  0.00    -0.237 OA
ATOM     84  O   UNL     1     -13.122  -2.186  -2.594  1.00  0.00    -0.237 OA
ATOM     85  O   UNL     1     -14.088  -3.562  -4.396  1.00  0.00    -0.744 OA
ENDBRANCH  78  82
ENDBRANCH  51  75
BRANCH  63  86
ATOM     86  C   UNL     1     -12.815  -8.264   4.456  1.00  0.00     0.023 A 
ATOM     87  C   UNL     1     -13.489  -9.359   3.889  1.00  0.00     0.031 A 
ATOM     88  C   UNL     1     -13.459  -7.548   5.480  1.00  0.00     0.131 A 
ATOM     89  C   UNL     1     -14.792  -9.668   4.308  1.00  0.00     0.055 A 
ATOM     90  C   UNL     1     -14.726  -7.904   5.942  1.00  0.00     0.041 A 
ATOM     91  F   UNL     1     -12.862  -6.491   6.055  1.00  0.00    -0.206 F 
ATOM     92  C   UNL     1     -15.406  -8.961   5.345  1.00  0.00     0.022 A 
BRANCH  89  93
ATOM     93  S   UNL     1     -15.716 -10.941   3.406  1.00  0.00     0.124 S 
ATOM     94  O   UNL     1     -15.701 -10.418   2.044  1.00  0.00    -0.237 OA
ATOM     95  O   UNL     1     -14.912 -12.135   3.639  1.00  0.00    -0.237 OA
ATOM     96  O   UNL     1     -17.026 -10.939   4.056  1.00  0.00    -0.744 OA
ENDBRANCH  89  93
ENDBRANCH  63  86
ENDBRANCH  37  38
ENDBRANCH  29  32
ENDBRANCH  27  28
ENDBRANCH  26  27
ENDBRANCH   1  26
TORSDOF 18
