REMARK SMILES C[N@@H+]1CCC[C@@H](NC(=O)N(CC(=O)NCCCNC(=O)c2ccc(-c3c4nc(c(-c5cc(S(=O)(=O)[O-])ccc5F)c5ccc([nH]5)c(-c5cc(S(=O)(=O)[O-])ccc5F)c5nc(c(-c6cc(S(=O)(=O)[O-])ccc6F)c6ccc3[nH]6)C=C5)C=C4)cc2)C(C)(C)C)C1
REMARK SMILES IDX 16 1 15 2 14 3 12 4 13 5 11 7 10 8 8 9 7 10 9 12 6 13 1 14
REMARK SMILES IDX 2 15 3 16 88 17 4 19 5 20 84 21 85 22 86 23 87 24 17 25
REMARK SMILES IDX 18 26 19 27 20 29 21 30 22 31 83 32 23 33 82 34 24 35 25 36
REMARK SMILES IDX 26 37 76 38 27 39 81 40 75 41 77 42 28 43 80 44 74 45 73 46
REMARK SMILES IDX 29 48 61 49 41 50 60 51 42 52 45 53 59 54 78 55 43 56 44 57
REMARK SMILES IDX 58 59 79 60 46 61 30 62 31 63 39 64 32 65 38 66 40 67 37 68
REMARK SMILES IDX 33 69 34 70 35 71 36 72 62 73 63 74 71 75 64 76 70 77 72 78
REMARK SMILES IDX 69 79 65 80 66 81 67 82 68 83 47 84 48 85 56 86 49 87 55 88
REMARK SMILES IDX 57 89 54 90 50 91 51 92 52 93 53 94
REMARK H PARENT 14 6 7 11 2 18 18 28 77 47 45 58
REMARK Flexibility Score: inf
ROOT
ATOM      1  C   UNL     1       5.300  -1.155   1.626  1.00  0.00     0.042 C 
ENDROOT
BRANCH   1   2
ATOM      2  C   UNL     1       4.522  -1.412   0.351  1.00  0.00     0.117 C 
BRANCH   2   3
ATOM      3  N   UNL     1       4.808  -2.646  -0.339  1.00  0.00    -0.354 N 
ATOM      4  C   UNL     1       3.953  -3.649  -0.687  1.00  0.00     0.239 C 
ATOM      5  O   UNL     1       4.280  -4.338  -1.661  1.00  0.00    -0.273 OA
ATOM      6  H   UNL     1       5.750  -2.782  -0.593  1.00  0.00     0.163 HD
BRANCH   4   7
ATOM      7  C   UNL     1       2.573  -3.872  -0.030  1.00  0.00     0.221 C 
BRANCH   7   8
ATOM      8  N   UNL     1       2.437  -3.677   1.415  1.00  0.00    -0.311 N 
BRANCH   8   9
ATOM      9  C   UNL     1       1.803  -2.609   2.021  1.00  0.00     0.318 C 
ATOM     10  N   UNL     1       1.236  -1.562   1.383  1.00  0.00    -0.330 N 
ATOM     11  H   UNL     1       0.833  -0.959   2.049  1.00  0.00     0.165 HD
ATOM     12  O   UNL     1       1.715  -2.521   3.251  1.00  0.00    -0.249 OA
BRANCH  10  13
ATOM     13  C   UNL     1       1.010  -1.008   0.032  1.00  0.00     0.139 C 
ATOM     14  C   UNL     1      -2.657   0.046  -0.056  1.00  0.00     0.332 C 
ATOM     15  N   UNL     1      -1.241   0.107   0.308  1.00  0.00    -0.336 N 
ATOM     16  C   UNL     1      -0.677   1.401  -0.090  1.00  0.00     0.262 C 
ATOM     17  C   UNL     1      -0.499  -1.008  -0.314  1.00  0.00     0.287 C 
ATOM     18  H   UNL     1      -1.155   0.014   1.321  1.00  0.00     0.347 HD
ATOM     19  C   UNL     1       0.753   1.520   0.413  1.00  0.00     0.064 C 
ATOM     20  C   UNL     1       1.621   0.399  -0.134  1.00  0.00     0.037 C 
ENDBRANCH  10  13
ENDBRANCH   8   9
BRANCH   8  21
ATOM     21  C   UNL     1       3.008  -4.795   2.301  1.00  0.00     0.037 C 
ATOM     22  C   UNL     1       4.169  -4.291   3.183  1.00  0.00     0.034 C 
ATOM     23  C   UNL     1       1.908  -5.407   3.200  1.00  0.00     0.034 C 
ATOM     24  C   UNL     1       3.603  -6.003   1.515  1.00  0.00     0.034 C 
ENDBRANCH   8  21
ENDBRANCH   7   8
ENDBRANCH   4   7
ENDBRANCH   2   3
ENDBRANCH   1   2
BRANCH   1  25
ATOM     25  C   UNL     1       6.792  -1.002   1.411  1.00  0.00     0.118 C 
BRANCH  25  26
ATOM     26  N   UNL     1       7.116   0.242   0.729  1.00  0.00    -0.352 N 
ATOM     27  C   UNL     1       7.906   1.285   1.149  1.00  0.00     0.251 C 
ATOM     28  H   UNL     1       6.712   0.352  -0.162  1.00  0.00     0.163 HD
ATOM     29  O   UNL     1       7.867   2.350   0.542  1.00  0.00    -0.269 OA
BRANCH  27  30
ATOM     30  C   UNL     1       8.777   1.126   2.337  1.00  0.00     0.039 A 
ATOM     31  C   UNL     1       8.906   2.191   3.232  1.00  0.00     0.014 A 
ATOM     32  C   UNL     1       9.470  -0.066   2.567  1.00  0.00     0.014 A 
ATOM     33  C   UNL     1       9.681   2.037   4.384  1.00  0.00     0.010 A 
ATOM     34  C   UNL     1      10.159  -0.251   3.761  1.00  0.00     0.010 A 
ATOM     35  C   UNL     1      10.285   0.803   4.678  1.00  0.00    -0.014 A 
BRANCH  35  36
ATOM     36  C   UNL     1      11.070   0.602   5.925  1.00  0.00     0.031 A 
ATOM     37  C   UNL     1      12.533   0.254   5.845  1.00  0.00     0.074 A 
ATOM     38  C   UNL     1      10.456   0.682   7.122  1.00  0.00     0.049 A 
ATOM     39  N   UNL     1      13.373  -0.022   6.810  1.00  0.00    -0.248 NA
ATOM     40  C   UNL     1      13.122   0.174   4.499  1.00  0.00     0.031 C 
ATOM     41  C   UNL     1       9.034   0.971   7.325  1.00  0.00     0.029 A 
ATOM     42  N   UNL     1      10.944   0.523   8.395  1.00  0.00    -0.354 N 
ATOM     43  C   UNL     1      14.582  -0.319   6.189  1.00  0.00     0.074 A 
ATOM     44  C   UNL     1      14.345  -0.258   4.763  1.00  0.00     0.031 C 
ATOM     45  C   UNL     1       8.775   1.003   8.641  1.00  0.00     0.029 A 
ATOM     46  C   UNL     1       9.994   0.685   9.377  1.00  0.00     0.049 A 
ATOM     47  H   UNL     1      11.887   0.314   8.588  1.00  0.00     0.167 HD
ATOM     48  C   UNL     1      15.784  -0.589   6.755  1.00  0.00     0.034 A 
ATOM     49  C   UNL     1      10.091   0.577  10.718  1.00  0.00     0.034 A 
ATOM     50  C   UNL     1      16.004  -0.634   8.180  1.00  0.00     0.049 A 
ATOM     51  C   UNL     1      11.431   0.243  11.323  1.00  0.00     0.074 A 
ATOM     52  C   UNL     1      17.189  -0.848   8.862  1.00  0.00     0.029 A 
ATOM     53  N   UNL     1      15.016  -0.472   9.144  1.00  0.00    -0.354 N 
ATOM     54  N   UNL     1      12.578   0.017  10.722  1.00  0.00    -0.248 NA
ATOM     55  C   UNL     1      11.494   0.160  12.788  1.00  0.00     0.031 C 
ATOM     56  C   UNL     1      16.905  -0.892  10.231  1.00  0.00     0.029 A 
ATOM     57  C   UNL     1      15.559  -0.616  10.412  1.00  0.00     0.049 A 
ATOM     58  H   UNL     1      14.069  -0.283   8.954  1.00  0.00     0.167 HD
ATOM     59  C   UNL     1      13.503  -0.199  11.740  1.00  0.00     0.074 A 
ATOM     60  C   UNL     1      12.784  -0.059  12.989  1.00  0.00     0.031 C 
ATOM     61  C   UNL     1      14.828  -0.483  11.651  1.00  0.00     0.034 A 
BRANCH  48  62
ATOM     62  C   UNL     1      16.942  -0.878   5.828  1.00  0.00     0.023 A 
ATOM     63  C   UNL     1      17.413   0.078   4.910  1.00  0.00     0.031 A 
ATOM     64  C   UNL     1      17.572  -2.136   5.844  1.00  0.00     0.131 A 
ATOM     65  C   UNL     1      18.424  -0.262   3.998  1.00  0.00     0.055 A 
ATOM     66  C   UNL     1      18.638  -2.438   4.994  1.00  0.00     0.041 A 
ATOM     67  F   UNL     1      17.154  -3.099   6.681  1.00  0.00    -0.206 F 
ATOM     68  C   UNL     1      19.059  -1.504   4.052  1.00  0.00     0.022 A 
BRANCH  65  69
ATOM     69  S   UNL     1      18.792   0.888   2.645  1.00  0.00     0.124 S 
ATOM     70  O   UNL     1      17.492   0.990   1.984  1.00  0.00    -0.237 OA
ATOM     71  O   UNL     1      19.242   2.079   3.355  1.00  0.00    -0.237 OA
ATOM     72  O   UNL     1      19.821   0.194   1.874  1.00  0.00    -0.744 OA
ENDBRANCH  65  69
ENDBRANCH  48  62
BRANCH  49  73
ATOM     73  C   UNL     1       8.892   0.774  11.584  1.00  0.00     0.023 A 
ATOM     74  C   UNL     1       8.840   1.817  12.523  1.00  0.00     0.031 A 
ATOM     75  C   UNL     1       7.798  -0.108  11.522  1.00  0.00     0.131 A 
ATOM     76  C   UNL     1       7.747   1.920  13.397  1.00  0.00     0.055 A 
ATOM     77  C   UNL     1       6.685   0.035  12.351  1.00  0.00     0.041 A 
ATOM     78  F   UNL     1       7.793  -1.123  10.642  1.00  0.00    -0.206 F 
ATOM     79  C   UNL     1       6.662   1.045  13.308  1.00  0.00     0.022 A 
BRANCH  76  80
ATOM     80  S   UNL     1       7.811   3.153  14.726  1.00  0.00     0.124 S 
ATOM     81  O   UNL     1       9.034   2.774  15.424  1.00  0.00    -0.237 OA
ATOM     82  O   UNL     1       7.862   4.404  13.976  1.00  0.00    -0.237 OA
ATOM     83  O   UNL     1       6.572   2.922  15.465  1.00  0.00    -0.744 OA
ENDBRANCH  76  80
ENDBRANCH  49  73
BRANCH  61  84
ATOM     84  C   UNL     1      15.593  -0.611  12.947  1.00  0.00     0.023 A 
ATOM     85  C   UNL     1      15.331  -1.641  13.866  1.00  0.00     0.031 A 
ATOM     86  C   UNL     1      16.591   0.325  13.272  1.00  0.00     0.131 A 
ATOM     87  C   UNL     1      16.014  -1.675  15.092  1.00  0.00     0.055 A 
ATOM     88  C   UNL     1      17.316   0.246  14.461  1.00  0.00     0.041 A 
ATOM     89  F   UNL     1      16.882   1.334  12.434  1.00  0.00    -0.206 F 
ATOM     90  C   UNL     1      17.019  -0.750  15.386  1.00  0.00     0.022 A 
BRANCH  87  91
ATOM     91  S   UNL     1      15.498  -2.884  16.343  1.00  0.00     0.124 S 
ATOM     92  O   UNL     1      14.090  -2.547  16.526  1.00  0.00    -0.237 OA
ATOM     93  O   UNL     1      15.769  -4.155  15.679  1.00  0.00    -0.237 OA
ATOM     94  O   UNL     1      16.361  -2.585  17.484  1.00  0.00    -0.744 OA
ENDBRANCH  87  91
ENDBRANCH  61  84
ENDBRANCH  35  36
ENDBRANCH  27  30
ENDBRANCH  25  26
ENDBRANCH   1  25
TORSDOF 17
