REMARK SMILES CCCc1cc2c(cc1Cl)C=C(C(=O)NCCCNC(=O)c1ccc(-c3c4nc(c(-c5cc(S(=O)(=O)[O-])ccc5F)c5ccc([nH]5)c(-c5cc(S(=O)(=O)[O-])ccc5F)c5nc(c(-c6cc(S(=O)(=O)[O-])ccc6F)c6ccc3[nH]6)C=C5)C=C4)cc1)[C@@H](C(F)(F)F)O2
REMARK SMILES IDX 17 1 16 2 15 3 13 4 14 5 12 7 4 8 5 9 9 10 6 11 8 12 10 13
REMARK SMILES IDX 7 14 90 15 11 16 85 17 3 18 2 19 1 20 86 21 87 22 88 23
REMARK SMILES IDX 89 24 18 25 19 26 20 27 21 29 22 30 23 31 84 32 24 33 83 34
REMARK SMILES IDX 25 35 26 36 27 37 77 38 28 39 82 40 76 41 78 42 29 43 81 44
REMARK SMILES IDX 75 45 74 46 30 48 62 49 42 50 61 51 43 52 46 53 60 54 79 55
REMARK SMILES IDX 44 56 45 57 59 59 80 60 47 61 31 62 32 63 40 64 33 65 39 66
REMARK SMILES IDX 41 67 38 68 34 69 35 70 36 71 37 72 63 73 64 74 72 75 65 76
REMARK SMILES IDX 71 77 73 78 70 79 66 80 67 81 68 82 69 83 48 84 49 85 57 86
REMARK SMILES IDX 50 87 56 88 58 89 55 90 51 91 52 92 53 93 54 94
REMARK H PARENT 15 6 19 28 78 47 46 58
REMARK Flexibility Score: inf
ROOT
ATOM      1  C   UNL     1       0.320  -7.754  -3.908  1.00  0.00     0.042 C 
ENDROOT
BRANCH   1   2
ATOM      2  C   UNL     1       1.105  -6.923  -4.910  1.00  0.00     0.118 C 
BRANCH   2   3
ATOM      3  N   UNL     1       0.237  -6.186  -5.816  1.00  0.00    -0.352 N 
ATOM      4  C   UNL     1      -0.180  -4.907  -5.969  1.00  0.00     0.251 C 
ATOM      5  O   UNL     1      -0.934  -4.707  -6.927  1.00  0.00    -0.270 OA
ATOM      6  H   UNL     1      -0.151  -6.775  -6.503  1.00  0.00     0.163 HD
BRANCH   4   7
ATOM      7  C   UNL     1       0.208  -3.768  -5.087  1.00  0.00     0.067 C 
ATOM      8  C   UNL     1       0.623   0.742  -2.845  1.00  0.00    -0.026 A 
ATOM      9  C   UNL     1       1.108  -0.548  -2.594  1.00  0.00     0.052 A 
ATOM     10  C   UNL     1      -0.208   0.923  -3.964  1.00  0.00     0.045 A 
ATOM     11  C   UNL     1       0.745  -1.621  -3.397  1.00  0.00     0.128 A 
ATOM     12  C   UNL     1      -0.543  -0.159  -4.795  1.00  0.00     0.032 A 
ATOM     13  Cl  UNL     1      -0.860   2.469  -4.381  1.00  0.00    -0.084 Cl
ATOM     14  C   UNL     1      -0.069  -1.441  -4.509  1.00  0.00     0.019 A 
ATOM     15  O   UNL     1       1.189  -2.843  -2.990  1.00  0.00    -0.475 OA
ATOM     16  C   UNL     1      -0.422  -2.600  -5.319  1.00  0.00     0.025 C 
ATOM     17  C   UNL     1       1.253  -3.868  -4.011  1.00  0.00     0.314 C 
BRANCH   8  18
ATOM     18  C   UNL     1       1.024   1.844  -1.891  1.00  0.00     0.037 C 
BRANCH  18  19
ATOM     19  C   UNL     1       0.317   1.793  -0.529  1.00  0.00     0.001 C 
ATOM     20  C   UNL     1       0.763   0.651   0.378  1.00  0.00     0.004 C 
ENDBRANCH  18  19
ENDBRANCH   8  18
BRANCH  17  21
ATOM     21  C   UNL     1       2.689  -3.904  -4.566  1.00  0.00     0.429 C 
ATOM     22  F   UNL     1       3.551  -4.353  -3.619  1.00  0.00    -0.167 F 
ATOM     23  F   UNL     1       2.824  -4.730  -5.630  1.00  0.00    -0.167 F 
ATOM     24  F   UNL     1       3.125  -2.686  -4.962  1.00  0.00    -0.167 F 
ENDBRANCH  17  21
ENDBRANCH   4   7
ENDBRANCH   2   3
ENDBRANCH   1   2
BRANCH   1  25
ATOM     25  C   UNL     1      -0.136  -9.083  -4.494  1.00  0.00     0.118 C 
BRANCH  25  26
ATOM     26  N   UNL     1       0.988  -9.967  -4.799  1.00  0.00    -0.352 N 
ATOM     27  C   UNL     1       1.312 -11.202  -4.288  1.00  0.00     0.251 C 
ATOM     28  H   UNL     1       1.613  -9.623  -5.478  1.00  0.00     0.163 HD
ATOM     29  O   UNL     1       2.417 -11.683  -4.525  1.00  0.00    -0.269 OA
BRANCH  27  30
ATOM     30  C   UNL     1       0.344 -11.925  -3.439  1.00  0.00     0.039 A 
ATOM     31  C   UNL     1      -1.013 -11.905  -3.756  1.00  0.00     0.014 A 
ATOM     32  C   UNL     1       0.790 -12.610  -2.306  1.00  0.00     0.014 A 
ATOM     33  C   UNL     1      -1.937 -12.372  -2.834  1.00  0.00     0.010 A 
ATOM     34  C   UNL     1      -0.140 -13.192  -1.440  1.00  0.00     0.010 A 
ATOM     35  C   UNL     1      -1.514 -13.026  -1.665  1.00  0.00    -0.014 A 
BRANCH  35  36
ATOM     36  C   UNL     1      -2.543 -13.536  -0.722  1.00  0.00     0.031 A 
ATOM     37  C   UNL     1      -2.637 -13.017   0.685  1.00  0.00     0.074 A 
ATOM     38  C   UNL     1      -3.449 -14.425  -1.177  1.00  0.00     0.049 A 
ATOM     39  N   UNL     1      -3.528 -13.293   1.602  1.00  0.00    -0.248 NA
ATOM     40  C   UNL     1      -1.596 -12.076   1.129  1.00  0.00     0.031 C 
ATOM     41  C   UNL     1      -3.439 -15.002  -2.522  1.00  0.00     0.029 A 
ATOM     42  N   UNL     1      -4.565 -14.964  -0.591  1.00  0.00    -0.354 N 
ATOM     43  C   UNL     1      -3.139 -12.592   2.738  1.00  0.00     0.074 A 
ATOM     44  C   UNL     1      -1.916 -11.897   2.403  1.00  0.00     0.031 C 
ATOM     45  C   UNL     1      -4.540 -15.743  -2.688  1.00  0.00     0.029 A 
ATOM     46  C   UNL     1      -5.292 -15.770  -1.436  1.00  0.00     0.049 A 
ATOM     47  H   UNL     1      -4.821 -14.791   0.344  1.00  0.00     0.167 HD
ATOM     48  C   UNL     1      -3.754 -12.530   3.943  1.00  0.00     0.034 A 
ATOM     49  C   UNL     1      -6.431 -16.462  -1.234  1.00  0.00     0.034 A 
ATOM     50  C   UNL     1      -4.993 -13.203   4.244  1.00  0.00     0.049 A 
ATOM     51  C   UNL     1      -7.107 -16.362   0.105  1.00  0.00     0.074 A 
ATOM     52  C   UNL     1      -5.725 -13.157   5.417  1.00  0.00     0.029 A 
ATOM     53  N   UNL     1      -5.682 -14.039   3.376  1.00  0.00    -0.354 N 
ATOM     54  N   UNL     1      -6.754 -15.651   1.151  1.00  0.00    -0.248 NA
ATOM     55  C   UNL     1      -8.327 -17.154   0.301  1.00  0.00     0.031 C 
ATOM     56  C   UNL     1      -6.819 -14.012   5.282  1.00  0.00     0.029 A 
ATOM     57  C   UNL     1      -6.814 -14.539   3.999  1.00  0.00     0.049 A 
ATOM     58  H   UNL     1      -5.407 -14.246   2.454  1.00  0.00     0.167 HD
ATOM     59  C   UNL     1      -7.708 -15.908   2.129  1.00  0.00     0.074 A 
ATOM     60  C   UNL     1      -8.674 -16.813   1.537  1.00  0.00     0.031 C 
ATOM     61  C   UNL     1      -7.771 -15.443   3.403  1.00  0.00     0.034 A 
BRANCH  48  62
ATOM     62  C   UNL     1      -3.114 -11.714   5.040  1.00  0.00     0.023 A 
ATOM     63  C   UNL     1      -2.674 -12.349   6.217  1.00  0.00     0.031 A 
ATOM     64  C   UNL     1      -3.033 -10.312   4.972  1.00  0.00     0.131 A 
ATOM     65  C   UNL     1      -2.194 -11.582   7.286  1.00  0.00     0.055 A 
ATOM     66  C   UNL     1      -2.519  -9.555   6.026  1.00  0.00     0.041 A 
ATOM     67  F   UNL     1      -3.440  -9.658   3.872  1.00  0.00    -0.206 F 
ATOM     68  C   UNL     1      -2.108 -10.189   7.194  1.00  0.00     0.022 A 
BRANCH  65  69
ATOM     69  S   UNL     1      -1.723 -12.353   8.859  1.00  0.00     0.124 S 
ATOM     70  O   UNL     1      -0.302 -12.024   8.937  1.00  0.00    -0.237 OA
ATOM     71  O   UNL     1      -2.579 -11.651   9.812  1.00  0.00    -0.237 OA
ATOM     72  O   UNL     1      -2.026 -13.766   8.662  1.00  0.00    -0.744 OA
ENDBRANCH  65  69
ENDBRANCH  48  62
BRANCH  49  73
ATOM     73  C   UNL     1      -6.996 -17.251  -2.367  1.00  0.00     0.023 A 
ATOM     74  C   UNL     1      -6.250 -18.290  -2.956  1.00  0.00     0.031 A 
ATOM     75  C   UNL     1      -8.197 -16.867  -2.984  1.00  0.00     0.131 A 
ATOM     76  C   UNL     1      -6.658 -18.830  -4.182  1.00  0.00     0.055 A 
ATOM     77  C   UNL     1      -8.644 -17.470  -4.162  1.00  0.00     0.041 A 
ATOM     78  F   UNL     1      -8.936 -15.873  -2.466  1.00  0.00    -0.206 F 
ATOM     79  C   UNL     1      -7.859 -18.439  -4.780  1.00  0.00     0.022 A 
BRANCH  76  80
ATOM     80  S   UNL     1      -5.555 -19.923  -5.123  1.00  0.00     0.124 S 
ATOM     81  O   UNL     1      -6.380 -21.115  -5.293  1.00  0.00    -0.237 OA
ATOM     82  O   UNL     1      -5.322 -19.137  -6.332  1.00  0.00    -0.237 OA
ATOM     83  O   UNL     1      -4.396 -20.077  -4.251  1.00  0.00    -0.744 OA
ENDBRANCH  76  80
ENDBRANCH  49  73
BRANCH  61  84
ATOM     84  C   UNL     1      -8.909 -15.905   4.280  1.00  0.00     0.023 A 
ATOM     85  C   UNL     1      -9.839 -14.973   4.777  1.00  0.00     0.031 A 
ATOM     86  C   UNL     1      -8.979 -17.230   4.745  1.00  0.00     0.131 A 
ATOM     87  C   UNL     1     -10.771 -15.368   5.745  1.00  0.00     0.055 A 
ATOM     88  C   UNL     1      -9.940 -17.629   5.674  1.00  0.00     0.041 A 
ATOM     89  F   UNL     1      -8.108 -18.153   4.306  1.00  0.00    -0.206 F 
ATOM     90  C   UNL     1     -10.831 -16.692   6.190  1.00  0.00     0.022 A 
BRANCH  87  91
ATOM     91  S   UNL     1     -11.873 -14.159   6.529  1.00  0.00     0.124 S 
ATOM     92  O   UNL     1     -13.191 -14.656   6.138  1.00  0.00    -0.237 OA
ATOM     93  O   UNL     1     -11.543 -14.313   7.943  1.00  0.00    -0.237 OA
ATOM     94  O   UNL     1     -11.486 -12.887   5.929  1.00  0.00    -0.744 OA
ENDBRANCH  87  91
ENDBRANCH  61  84
ENDBRANCH  35  36
ENDBRANCH  27  30
ENDBRANCH  25  26
ENDBRANCH   1  25
TORSDOF 16
