REMARK SMILES CCOc1cccc(C(=O)Nc2ccc(Cl)c(C(=O)NCCCNC(=O)c3ccc(-c4c5nc(c(-c6cc(S(=O)(=O)[O-])ccc6F)c6ccc([nH]6)c(-c6cc(S(=O)(=O)[O-])ccc6F)c6nc(c(-c7cc(S(=O)(=O)[O-])ccc7F)c7ccc4[nH]7)C=C6)C=C5)cc3)c2)c1
REMARK SMILES IDX 21 1 20 2 18 3 19 4 17 6 12 7 13 8 90 9 14 10 15 11 16 12
REMARK SMILES IDX 11 13 9 14 10 15 8 17 4 18 5 19 91 20 6 21 7 22 3 23 2 24
REMARK SMILES IDX 1 25 22 26 23 27 24 28 25 29 26 31 27 32 28 33 89 34 29 35
REMARK SMILES IDX 88 36 30 37 31 38 32 39 82 40 33 41 87 42 81 43 83 44 34 45
REMARK SMILES IDX 86 46 80 47 79 48 35 50 67 51 47 52 66 53 48 54 51 55 65 56
REMARK SMILES IDX 84 57 49 58 50 59 64 61 85 62 52 63 36 64 37 65 45 66 38 67
REMARK SMILES IDX 44 68 46 69 43 70 39 71 40 72 41 73 42 74 68 75 69 76 77 77
REMARK SMILES IDX 70 78 76 79 78 80 75 81 71 82 72 83 73 84 74 85 53 86 54 87
REMARK SMILES IDX 62 88 55 89 61 90 63 91 60 92 56 93 57 94 58 95 59 96
REMARK H PARENT 20 5 11 16 24 30 83 49 51 60
REMARK Flexibility Score: inf
ROOT
ATOM      1  C   UNL     1       1.492  -1.312   3.349  1.00  0.00     0.118 C 
ENDROOT
BRANCH   1   2
ATOM      2  N   UNL     1       0.414  -0.354   3.226  1.00  0.00    -0.352 N 
ATOM      3  C   UNL     1       0.295   0.862   2.601  1.00  0.00     0.252 C 
ATOM      4  O   UNL     1      -0.743   1.478   2.840  1.00  0.00    -0.269 OA
ATOM      5  H   UNL     1      -0.409  -0.634   3.688  1.00  0.00     0.163 HD
BRANCH   3   6
ATOM      6  C   UNL     1       1.317   1.438   1.665  1.00  0.00     0.060 A 
ATOM      7  C   UNL     1       3.607   1.581   0.806  1.00  0.00     0.042 A 
ATOM      8  C   UNL     1       3.218   2.541  -0.120  1.00  0.00     0.028 A 
ATOM      9  C   UNL     1       2.684   1.118   1.752  1.00  0.00     0.041 A 
ATOM     10  C   UNL     1       1.879   2.908  -0.204  1.00  0.00     0.023 A 
ATOM     11  C   UNL     1       0.924   2.336   0.650  1.00  0.00     0.053 A 
ATOM     12  Cl  UNL     1      -0.717   2.759   0.288  1.00  0.00    -0.083 Cl
BRANCH   7  13
ATOM     13  N   UNL     1       4.921   1.102   0.720  1.00  0.00    -0.322 N 
ATOM     14  C   UNL     1       5.452  -0.161   0.902  1.00  0.00     0.255 C 
ATOM     15  O   UNL     1       6.677  -0.267   0.985  1.00  0.00    -0.269 OA
ATOM     16  H   UNL     1       5.586   1.790   0.488  1.00  0.00     0.170 HD
BRANCH  14  17
ATOM     17  C   UNL     1       4.633  -1.411   0.885  1.00  0.00     0.043 A 
ATOM     18  C   UNL     1       2.638  -2.685   0.343  1.00  0.00     0.120 A 
ATOM     19  C   UNL     1       3.147  -3.780   1.040  1.00  0.00     0.046 A 
ATOM     20  C   UNL     1       3.407  -1.526   0.210  1.00  0.00     0.060 A 
ATOM     21  C   UNL     1       4.417  -3.722   1.610  1.00  0.00     0.005 A 
ATOM     22  C   UNL     1       5.149  -2.535   1.548  1.00  0.00     0.014 A 
BRANCH  18  23
ATOM     23  O   UNL     1       1.310  -2.762   0.026  1.00  0.00    -0.494 OA
BRANCH  23  24
ATOM     24  C   UNL     1       0.897  -2.288  -1.253  1.00  0.00     0.226 C 
ATOM     25  C   UNL     1       0.402  -0.852  -1.214  1.00  0.00     0.049 C 
ENDBRANCH  23  24
ENDBRANCH  18  23
ENDBRANCH  14  17
ENDBRANCH   7  13
ENDBRANCH   3   6
ENDBRANCH   1   2
BRANCH   1  26
ATOM     26  C   UNL     1       2.307  -1.057   4.612  1.00  0.00     0.042 C 
BRANCH  26  27
ATOM     27  C   UNL     1       1.657  -1.672   5.841  1.00  0.00     0.118 C 
BRANCH  27  28
ATOM     28  N   UNL     1       1.803  -3.122   5.848  1.00  0.00    -0.352 N 
ATOM     29  C   UNL     1       2.306  -3.938   6.824  1.00  0.00     0.251 C 
ATOM     30  H   UNL     1       1.497  -3.580   5.032  1.00  0.00     0.163 HD
ATOM     31  O   UNL     1       2.572  -5.113   6.543  1.00  0.00    -0.269 OA
BRANCH  29  32
ATOM     32  C   UNL     1       2.550  -3.425   8.189  1.00  0.00     0.039 A 
ATOM     33  C   UNL     1       3.665  -3.886   8.895  1.00  0.00     0.014 A 
ATOM     34  C   UNL     1       1.674  -2.515   8.790  1.00  0.00     0.014 A 
ATOM     35  C   UNL     1       3.917  -3.409  10.183  1.00  0.00     0.010 A 
ATOM     36  C   UNL     1       1.976  -1.972  10.034  1.00  0.00     0.010 A 
ATOM     37  C   UNL     1       3.087  -2.432  10.755  1.00  0.00    -0.014 A 
BRANCH  37  38
ATOM     38  C   UNL     1       3.343  -1.918  12.126  1.00  0.00     0.031 A 
ATOM     39  C   UNL     1       2.330  -2.151  13.216  1.00  0.00     0.074 A 
ATOM     40  C   UNL     1       4.462  -1.211  12.375  1.00  0.00     0.049 A 
ATOM     41  N   UNL     1       2.349  -1.757  14.463  1.00  0.00    -0.248 NA
ATOM     42  C   UNL     1       1.117  -2.895  12.842  1.00  0.00     0.031 C 
ATOM     43  C   UNL     1       5.488  -0.876  11.383  1.00  0.00     0.029 A 
ATOM     44  N   UNL     1       4.928  -0.647  13.535  1.00  0.00    -0.354 N 
ATOM     45  C   UNL     1       1.147  -2.189  15.016  1.00  0.00     0.074 A 
ATOM     46  C   UNL     1       0.395  -2.811  13.948  1.00  0.00     0.031 C 
ATOM     47  C   UNL     1       6.476  -0.195  11.986  1.00  0.00     0.029 A 
ATOM     48  C   UNL     1       6.139  -0.012  13.394  1.00  0.00     0.049 A 
ATOM     49  H   UNL     1       4.440  -0.693  14.389  1.00  0.00     0.167 HD
ATOM     50  C   UNL     1       0.722  -2.102  16.302  1.00  0.00     0.034 A 
ATOM     51  C   UNL     1       6.892   0.644  14.298  1.00  0.00     0.034 A 
ATOM     52  C   UNL     1       1.498  -1.496  17.357  1.00  0.00     0.049 A 
ATOM     53  C   UNL     1       6.409   0.715  15.724  1.00  0.00     0.074 A 
ATOM     54  C   UNL     1       1.198  -1.398  18.704  1.00  0.00     0.029 A 
ATOM     55  N   UNL     1       2.732  -0.880  17.181  1.00  0.00    -0.354 N 
ATOM     56  N   UNL     1       5.296   0.250  16.245  1.00  0.00    -0.248 NA
ATOM     57  C   UNL     1       7.294   1.381  16.687  1.00  0.00     0.031 C 
ATOM     58  C   UNL     1       2.217  -0.671  19.330  1.00  0.00     0.029 A 
ATOM     59  C   UNL     1       3.193  -0.380  18.390  1.00  0.00     0.049 A 
ATOM     60  H   UNL     1       3.209  -0.809  16.323  1.00  0.00     0.167 HD
ATOM     61  C   UNL     1       5.363   0.543  17.604  1.00  0.00     0.074 A 
ATOM     62  C   UNL     1       6.634   1.204  17.822  1.00  0.00     0.031 C 
ATOM     63  C   UNL     1       4.458   0.290  18.585  1.00  0.00     0.034 A 
BRANCH  50  64
ATOM     64  C   UNL     1      -0.648  -2.656  16.619  1.00  0.00     0.023 A 
ATOM     65  C   UNL     1      -0.958  -4.016  16.436  1.00  0.00     0.031 A 
ATOM     66  C   UNL     1      -1.674  -1.807  17.072  1.00  0.00     0.131 A 
ATOM     67  C   UNL     1      -2.274  -4.469  16.619  1.00  0.00     0.055 A 
ATOM     68  C   UNL     1      -2.961  -2.281  17.337  1.00  0.00     0.041 A 
ATOM     69  F   UNL     1      -1.449  -0.495  17.247  1.00  0.00    -0.206 F 
ATOM     70  C   UNL     1      -3.272  -3.616  17.093  1.00  0.00     0.022 A 
BRANCH  67  71
ATOM     71  S   UNL     1      -2.695  -6.148  16.077  1.00  0.00     0.124 S 
ATOM     72  O   UNL     1      -2.354  -6.094  14.658  1.00  0.00    -0.237 OA
ATOM     73  O   UNL     1      -1.830  -6.975  16.911  1.00  0.00    -0.237 OA
ATOM     74  O   UNL     1      -4.124  -6.253  16.363  1.00  0.00    -0.744 OA
ENDBRANCH  67  71
ENDBRANCH  50  64
BRANCH  51  75
ATOM     75  C   UNL     1       8.180   1.276  13.893  1.00  0.00     0.023 A 
ATOM     76  C   UNL     1       9.405   0.816  14.403  1.00  0.00     0.031 A 
ATOM     77  C   UNL     1       8.202   2.374  13.015  1.00  0.00     0.131 A 
ATOM     78  C   UNL     1      10.596   1.480  14.069  1.00  0.00     0.055 A 
ATOM     79  C   UNL     1       9.395   2.998  12.644  1.00  0.00     0.041 A 
ATOM     80  F   UNL     1       7.060   2.848  12.491  1.00  0.00    -0.206 F 
ATOM     81  C   UNL     1      10.600   2.560  13.183  1.00  0.00     0.022 A 
BRANCH  78  82
ATOM     82  S   UNL     1      12.136   0.959  14.873  1.00  0.00     0.124 S 
ATOM     83  O   UNL     1      11.807   1.130  16.284  1.00  0.00    -0.237 OA
ATOM     84  O   UNL     1      12.270  -0.417  14.408  1.00  0.00    -0.237 OA
ATOM     85  O   UNL     1      13.128   1.893  14.345  1.00  0.00    -0.744 OA
ENDBRANCH  78  82
ENDBRANCH  51  75
BRANCH  63  86
ATOM     86  C   UNL     1       4.843   0.698  19.986  1.00  0.00     0.023 A 
ATOM     87  C   UNL     1       5.015   2.047  20.343  1.00  0.00     0.031 A 
ATOM     88  C   UNL     1       5.075  -0.281  20.970  1.00  0.00     0.131 A 
ATOM     89  C   UNL     1       5.476   2.377  21.626  1.00  0.00     0.055 A 
ATOM     90  C   UNL     1       5.468   0.058  22.265  1.00  0.00     0.041 A 
ATOM     91  F   UNL     1       4.928  -1.584  20.685  1.00  0.00    -0.206 F 
ATOM     92  C   UNL     1       5.687   1.393  22.594  1.00  0.00     0.022 A 
BRANCH  89  93
ATOM     93  S   UNL     1       5.909   4.104  21.975  1.00  0.00     0.124 S 
ATOM     94  O   UNL     1       6.892   4.386  20.934  1.00  0.00    -0.237 OA
ATOM     95  O   UNL     1       4.624   4.781  21.840  1.00  0.00    -0.237 OA
ATOM     96  O   UNL     1       6.444   4.054  23.335  1.00  0.00    -0.744 OA
ENDBRANCH  89  93
ENDBRANCH  63  86
ENDBRANCH  37  38
ENDBRANCH  29  32
ENDBRANCH  27  28
ENDBRANCH  26  27
ENDBRANCH   1  26
TORSDOF 17
