REMARK SMILES CCC[NH2+]C[C@H]1CCC[N@@H+](Cc2ccc(C(=O)NCCCNC(=O)c3ccc(-c4c5nc(c(-c6cc(S(=O)(=O)[O-])ccc6F)c6ccc([nH]6)c(-c6cc(S(=O)(=O)[O-])ccc6F)c6nc(c(-c7cc(S(=O)(=O)[O-])ccc7F)c7ccc4[nH]7)C=C6)C=C5)cc3)cc2)C1
REMARK SMILES IDX 16 1 17 2 18 3 15 5 12 6 13 7 89 8 14 9 88 10 11 11 10 12
REMARK SMILES IDX 6 13 7 14 90 15 8 16 9 17 5 19 4 20 3 23 2 24 1 25 19 26
REMARK SMILES IDX 20 27 21 28 22 29 23 30 24 32 25 33 26 34 87 35 27 36 86 37
REMARK SMILES IDX 28 38 29 39 30 40 80 41 31 42 85 43 79 44 81 45 32 46 84 47
REMARK SMILES IDX 78 48 77 49 33 51 65 52 45 53 64 54 46 55 49 56 63 57 82 58
REMARK SMILES IDX 47 59 48 60 62 62 83 63 50 64 34 65 35 66 43 67 36 68 42 69
REMARK SMILES IDX 44 70 41 71 37 72 38 73 39 74 40 75 66 76 67 77 75 78 68 79
REMARK SMILES IDX 74 80 76 81 73 82 69 83 70 84 71 85 72 86 51 87 52 88 60 89
REMARK SMILES IDX 53 90 59 91 61 92 58 93 54 94 55 95 56 96 57 97
REMARK H PARENT 18 4 10 18 4 21 4 22 22 31 81 50 49 61
REMARK Flexibility Score: inf
ROOT
ATOM      1  C   UNL     1       8.749   4.635  -2.706  1.00  0.00     0.251 C 
ATOM      2  O   UNL     1       9.368   5.193  -1.801  1.00  0.00    -0.269 OA
ATOM      3  N   UNL     1       9.461   4.019  -3.706  1.00  0.00    -0.352 N 
ATOM      4  H   UNL     1      10.431   4.185  -3.681  1.00  0.00     0.163 HD
ENDROOT
BRANCH   1   5
ATOM      5  C   UNL     1       7.264   4.585  -2.646  1.00  0.00     0.039 A 
ATOM      6  C   UNL     1       4.469   4.310  -2.400  1.00  0.00     0.006 A 
ATOM      7  C   UNL     1       5.282   4.336  -1.259  1.00  0.00     0.010 A 
ATOM      8  C   UNL     1       5.064   4.521  -3.653  1.00  0.00     0.010 A 
ATOM      9  C   UNL     1       6.668   4.475  -1.383  1.00  0.00     0.014 A 
ATOM     10  C   UNL     1       6.446   4.668  -3.774  1.00  0.00     0.014 A 
BRANCH   6  11
ATOM     11  C   UNL     1       2.983   4.026  -2.302  1.00  0.00     0.299 C 
BRANCH  11  12
ATOM     12  N   UNL     1       2.574   2.614  -2.457  1.00  0.00    -0.331 N 
ATOM     13  C   UNL     1       2.522   0.577  -3.927  1.00  0.00     0.099 C 
ATOM     14  C   UNL     1       2.765  -0.288  -2.685  1.00  0.00     0.021 C 
ATOM     15  C   UNL     1       3.052   2.007  -3.711  1.00  0.00     0.271 C 
ATOM     16  C   UNL     1       2.279   0.412  -1.422  1.00  0.00     0.062 C 
ATOM     17  C   UNL     1       2.924   1.792  -1.296  1.00  0.00     0.262 C 
ATOM     18  H   UNL     1       1.556   2.636  -2.513  1.00  0.00     0.348 HD
BRANCH  13  19
ATOM     19  C   UNL     1       3.060  -0.055  -5.240  1.00  0.00     0.269 C 
BRANCH  19  20
ATOM     20  N   UNL     1       4.508  -0.103  -5.453  1.00  0.00    -0.346 N 
ATOM     21  H   UNL     1       4.679  -0.094  -6.458  1.00  0.00     0.346 HD
ATOM     22  H   UNL     1       4.892   0.707  -4.966  1.00  0.00     0.346 HD
BRANCH  20  23
ATOM     23  C   UNL     1       5.181  -1.268  -4.892  1.00  0.00     0.260 C 
BRANCH  23  24
ATOM     24  C   UNL     1       6.705  -1.206  -5.050  1.00  0.00     0.058 C 
ATOM     25  C   UNL     1       7.332   0.043  -4.451  1.00  0.00     0.010 C 
ENDBRANCH  23  24
ENDBRANCH  20  23
ENDBRANCH  19  20
ENDBRANCH  13  19
ENDBRANCH  11  12
ENDBRANCH   6  11
ENDBRANCH   1   5
BRANCH   3  26
ATOM     26  C   UNL     1       9.022   3.164  -4.793  1.00  0.00     0.118 C 
BRANCH  26  27
ATOM     27  C   UNL     1       9.094   3.870  -6.142  1.00  0.00     0.042 C 
BRANCH  27  28
ATOM     28  C   UNL     1      10.516   4.024  -6.665  1.00  0.00     0.118 C 
BRANCH  28  29
ATOM     29  N   UNL     1      11.094   2.752  -7.076  1.00  0.00    -0.352 N 
ATOM     30  C   UNL     1      11.613   2.379  -8.295  1.00  0.00     0.251 C 
ATOM     31  H   UNL     1      11.118   2.057  -6.379  1.00  0.00     0.163 HD
ATOM     32  O   UNL     1      11.864   1.200  -8.510  1.00  0.00    -0.269 OA
BRANCH  30  33
ATOM     33  C   UNL     1      11.839   3.399  -9.343  1.00  0.00     0.039 A 
ATOM     34  C   UNL     1      11.477   3.113 -10.662  1.00  0.00     0.014 A 
ATOM     35  C   UNL     1      12.402   4.637  -9.024  1.00  0.00     0.014 A 
ATOM     36  C   UNL     1      11.611   4.097 -11.646  1.00  0.00     0.010 A 
ATOM     37  C   UNL     1      12.456   5.641  -9.985  1.00  0.00     0.010 A 
ATOM     38  C   UNL     1      12.062   5.383 -11.307  1.00  0.00    -0.014 A 
BRANCH  38  39
ATOM     39  C   UNL     1      12.136   6.478 -12.309  1.00  0.00     0.031 A 
ATOM     40  C   UNL     1      13.464   7.110 -12.628  1.00  0.00     0.074 A 
ATOM     41  C   UNL     1      11.005   6.961 -12.862  1.00  0.00     0.049 A 
ATOM     42  N   UNL     1      13.728   8.164 -13.356  1.00  0.00    -0.248 NA
ATOM     43  C   UNL     1      14.649   6.490 -12.016  1.00  0.00     0.031 C 
ATOM     44  C   UNL     1       9.656   6.447 -12.612  1.00  0.00     0.029 A 
ATOM     45  N   UNL     1      10.804   8.002 -13.734  1.00  0.00    -0.354 N 
ATOM     46  C   UNL     1      15.105   8.345 -13.275  1.00  0.00     0.074 A 
ATOM     47  C   UNL     1      15.609   7.328 -12.377  1.00  0.00     0.031 C 
ATOM     48  C   UNL     1       8.774   7.161 -13.327  1.00  0.00     0.029 A 
ATOM     49  C   UNL     1       9.480   8.222 -14.039  1.00  0.00     0.049 A 
ATOM     50  H   UNL     1      11.539   8.542 -14.106  1.00  0.00     0.167 HD
ATOM     51  C   UNL     1      15.878   9.262 -13.908  1.00  0.00     0.034 A 
ATOM     52  C   UNL     1       8.898   9.182 -14.786  1.00  0.00     0.034 A 
ATOM     53  C   UNL     1      15.355  10.264 -14.805  1.00  0.00     0.049 A 
ATOM     54  C   UNL     1       9.773  10.221 -15.444  1.00  0.00     0.074 A 
ATOM     55  C   UNL     1      16.049  11.213 -15.534  1.00  0.00     0.029 A 
ATOM     56  N   UNL     1      14.008  10.453 -15.091  1.00  0.00    -0.354 N 
ATOM     57  N   UNL     1      11.078  10.359 -15.385  1.00  0.00    -0.248 NA
ATOM     58  C   UNL     1       9.100  11.227 -16.275  1.00  0.00     0.031 C 
ATOM     59  C   UNL     1      15.121  12.024 -16.195  1.00  0.00     0.029 A 
ATOM     60  C   UNL     1      13.851  11.523 -15.958  1.00  0.00     0.049 A 
ATOM     61  H   UNL     1      13.273   9.907 -14.729  1.00  0.00     0.167 HD
ATOM     62  C   UNL     1      11.383  11.441 -16.208  1.00  0.00     0.074 A 
ATOM     63  C   UNL     1      10.127  11.915 -16.751  1.00  0.00     0.031 C 
ATOM     64  C   UNL     1      12.592  11.984 -16.496  1.00  0.00     0.034 A 
BRANCH  51  65
ATOM     65  C   UNL     1      17.361   9.241 -13.623  1.00  0.00     0.023 A 
ATOM     66  C   UNL     1      18.158   8.124 -13.932  1.00  0.00     0.031 A 
ATOM     67  C   UNL     1      17.987  10.343 -13.013  1.00  0.00     0.131 A 
ATOM     68  C   UNL     1      19.511   8.102 -13.559  1.00  0.00     0.055 A 
ATOM     69  C   UNL     1      19.353  10.350 -12.726  1.00  0.00     0.041 A 
ATOM     70  F   UNL     1      17.276  11.430 -12.672  1.00  0.00    -0.206 F 
ATOM     71  C   UNL     1      20.121   9.219 -12.984  1.00  0.00     0.022 A 
BRANCH  68  72
ATOM     72  S   UNL     1      20.419   6.538 -13.695  1.00  0.00     0.124 S 
ATOM     73  O   UNL     1      19.614   5.656 -12.853  1.00  0.00    -0.237 OA
ATOM     74  O   UNL     1      20.375   6.271 -15.128  1.00  0.00    -0.237 OA
ATOM     75  O   UNL     1      21.740   6.862 -13.160  1.00  0.00    -0.744 OA
ENDBRANCH  68  72
ENDBRANCH  51  65
BRANCH  52  76
ATOM     76  C   UNL     1       7.415   9.224 -14.943  1.00  0.00     0.023 A 
ATOM     77  C   UNL     1       6.817   9.060 -16.203  1.00  0.00     0.031 A 
ATOM     78  C   UNL     1       6.574   9.473 -13.844  1.00  0.00     0.131 A 
ATOM     79  C   UNL     1       5.427   9.197 -16.341  1.00  0.00     0.055 A 
ATOM     80  C   UNL     1       5.186   9.548 -13.977  1.00  0.00     0.041 A 
ATOM     81  F   UNL     1       7.091   9.636 -12.615  1.00  0.00    -0.206 F 
ATOM     82  C   UNL     1       4.606   9.425 -15.235  1.00  0.00     0.022 A 
BRANCH  79  83
ATOM     83  S   UNL     1       4.715   9.175 -18.010  1.00  0.00     0.124 S 
ATOM     84  O   UNL     1       5.434  10.270 -18.652  1.00  0.00    -0.237 OA
ATOM     85  O   UNL     1       5.053   7.831 -18.465  1.00  0.00    -0.237 OA
ATOM     86  O   UNL     1       3.293   9.413 -17.776  1.00  0.00    -0.744 OA
ENDBRANCH  79  83
ENDBRANCH  52  76
BRANCH  64  87
ATOM     87  C   UNL     1      12.626  13.109 -17.503  1.00  0.00     0.023 A 
ATOM     88  C   UNL     1      12.057  14.367 -17.241  1.00  0.00     0.031 A 
ATOM     89  C   UNL     1      13.258  12.914 -18.745  1.00  0.00     0.131 A 
ATOM     90  C   UNL     1      12.092  15.367 -18.226  1.00  0.00     0.055 A 
ATOM     91  C   UNL     1      13.345  13.932 -19.695  1.00  0.00     0.041 A 
ATOM     92  F   UNL     1      13.813  11.730 -19.051  1.00  0.00    -0.206 F 
ATOM     93  C   UNL     1      12.751  15.164 -19.442  1.00  0.00     0.022 A 
BRANCH  90  94
ATOM     94  S   UNL     1      11.194  16.915 -17.931  1.00  0.00     0.124 S 
ATOM     95  O   UNL     1       9.828  16.440 -17.735  1.00  0.00    -0.237 OA
ATOM     96  O   UNL     1      11.861  17.443 -16.746  1.00  0.00    -0.237 OA
ATOM     97  O   UNL     1      11.415  17.679 -19.157  1.00  0.00    -0.744 OA
ENDBRANCH  90  94
ENDBRANCH  64  87
ENDBRANCH  38  39
ENDBRANCH  30  33
ENDBRANCH  28  29
ENDBRANCH  27  28
ENDBRANCH  26  27
ENDBRANCH   3  26
TORSDOF 19
