REMARK SMILES CC(C)[C@H]([NH2+][C@@H](C)C[C@@H]1CCCC[NH2+]1)C(=O)NCCCNC(=O)c1ccc(-c2c3nc(c(-c4cc(S(=O)(=O)[O-])ccc4F)c4ccc([nH]4)c(-c4cc(S(=O)(=O)[O-])ccc4F)c4nc(c(-c5cc(S(=O)(=O)[O-])ccc5F)c5ccc2[nH]5)C=C4)C=C3)cc1
REMARK SMILES IDX 18 1 17 2 15 3 16 4 4 6 2 7 1 8 3 9 5 10 6 13 7 14 8 15 9 16
REMARK SMILES IDX 10 17 14 18 11 19 13 20 12 23 19 24 20 25 21 26 22 27 23 29
REMARK SMILES IDX 24 30 25 31 86 32 26 33 85 34 27 35 28 36 29 37 79 38 30 39
REMARK SMILES IDX 84 40 78 41 80 42 31 43 83 44 77 45 76 46 32 48 64 49 44 50
REMARK SMILES IDX 63 51 45 52 48 53 62 54 81 55 46 56 47 57 61 59 82 60 49 61
REMARK SMILES IDX 33 62 34 63 42 64 35 65 41 66 43 67 40 68 36 69 37 70 38 71
REMARK SMILES IDX 39 72 65 73 66 74 74 75 67 76 73 77 75 78 72 79 68 80 69 81
REMARK SMILES IDX 70 82 71 83 50 84 51 85 59 86 52 87 58 88 60 89 57 90 53 91
REMARK SMILES IDX 54 92 55 93 56 94
REMARK H PARENT 17 5 5 11 5 12 14 21 14 22 21 28 80 47 48 58
REMARK Flexibility Score: inf
ROOT
ATOM      1  C   UNL     1      -0.904   1.410   5.221  1.00  0.00     0.118 C 
ENDROOT
BRANCH   1   2
ATOM      2  N   UNL     1      -1.667   2.307   4.026  1.00  0.00    -0.351 N 
ATOM      3  C   UNL     1      -2.253   2.144   2.225  1.00  0.00     0.278 C 
ATOM      4  O   UNL     1      -3.162   2.820   1.690  1.00  0.00    -0.268 OA
ATOM      5  H   UNL     1      -1.879   3.206   4.367  1.00  0.00     0.163 HD
BRANCH   3   6
ATOM      6  C   UNL     1      -1.483   1.023   0.867  1.00  0.00     0.275 C 
BRANCH   6   7
ATOM      7  C   UNL     1      -1.831  -0.525   0.731  1.00  0.00     0.051 C 
ATOM      8  C   UNL     1      -3.324  -0.840   0.529  1.00  0.00     0.014 C 
ATOM      9  C   UNL     1      -1.112  -1.195  -0.460  1.00  0.00     0.014 C 
ENDBRANCH   6   7
BRANCH   6  10
ATOM     10  N   UNL     1       0.059   1.255   0.342  1.00  0.00    -0.333 N 
ATOM     11  H   UNL     1       0.097   2.182  -0.081  1.00  0.00     0.347 HD
ATOM     12  H   UNL     1       0.230   0.467  -0.284  1.00  0.00     0.347 HD
BRANCH  10  13
ATOM     13  C   UNL     1       1.181   1.177   1.343  1.00  0.00     0.185 C 
ATOM     14  C   UNL     1       2.592   1.016   0.780  1.00  0.00     0.075 C 
BRANCH  13  15
ATOM     15  C   UNL     1       1.198   2.436   2.236  1.00  0.00     0.129 C 
BRANCH  15  16
ATOM     16  C   UNL     1      -0.228   2.514   2.679  1.00  0.00     0.188 C 
ATOM     17  C   UNL     1      -1.232   4.116   3.030  1.00  0.00     0.065 C 
ATOM     18  N   UNL     1      -0.940   0.748   2.970  1.00  0.00    -0.344 N 
ATOM     19  C   UNL     1      -3.035   3.970   3.642  1.00  0.00     0.012 C 
ATOM     20  C   UNL     1      -2.709   0.622   3.641  1.00  0.00     0.260 C 
ATOM     21  H   UNL     1      -0.327   0.275   3.634  1.00  0.00     0.346 HD
ATOM     22  H   UNL     1      -0.982   0.327   2.042  1.00  0.00     0.346 HD
ATOM     23  C   UNL     1      -3.745   2.221   4.015  1.00  0.00     0.062 C 
ENDBRANCH  15  16
ENDBRANCH  13  15
ENDBRANCH  10  13
ENDBRANCH   6  10
ENDBRANCH   3   6
ENDBRANCH   1   2
BRANCH   1  24
ATOM     24  C   UNL     1       0.518   1.816   5.542  1.00  0.00     0.042 C 
BRANCH  24  25
ATOM     25  C   UNL     1       0.549   3.216   6.086  1.00  0.00     0.118 C 
BRANCH  25  26
ATOM     26  N   UNL     1      -0.248   3.249   7.308  1.00  0.00    -0.352 N 
ATOM     27  C   UNL     1       0.266   2.962   8.548  1.00  0.00     0.251 C 
ATOM     28  H   UNL     1      -1.201   3.488   7.240  1.00  0.00     0.163 HD
ATOM     29  O   UNL     1      -0.361   2.302   9.364  1.00  0.00    -0.269 OA
BRANCH  27  30
ATOM     30  C   UNL     1       1.602   3.514   8.810  1.00  0.00     0.039 A 
ATOM     31  C   UNL     1       2.550   2.799   9.534  1.00  0.00     0.014 A 
ATOM     32  C   UNL     1       1.904   4.754   8.230  1.00  0.00     0.014 A 
ATOM     33  C   UNL     1       3.819   3.350   9.678  1.00  0.00     0.010 A 
ATOM     34  C   UNL     1       3.199   5.212   8.238  1.00  0.00     0.010 A 
ATOM     35  C   UNL     1       4.146   4.553   9.024  1.00  0.00    -0.014 A 
BRANCH  35  36
ATOM     36  C   UNL     1       5.442   5.225   9.228  1.00  0.00     0.031 A 
ATOM     37  C   UNL     1       5.453   6.602   9.837  1.00  0.00     0.074 A 
ATOM     38  C   UNL     1       6.572   4.627   8.817  1.00  0.00     0.049 A 
ATOM     39  N   UNL     1       6.461   7.406  10.043  1.00  0.00    -0.248 NA
ATOM     40  C   UNL     1       4.148   7.171  10.218  1.00  0.00     0.031 C 
ATOM     41  C   UNL     1       6.651   3.313   8.174  1.00  0.00     0.029 A 
ATOM     42  N   UNL     1       7.872   5.044   8.889  1.00  0.00    -0.354 N 
ATOM     43  C   UNL     1       5.907   8.570  10.565  1.00  0.00     0.074 A 
ATOM     44  C   UNL     1       4.473   8.412  10.531  1.00  0.00     0.031 C 
ATOM     45  C   UNL     1       7.941   3.006   7.969  1.00  0.00     0.029 A 
ATOM     46  C   UNL     1       8.770   4.122   8.410  1.00  0.00     0.049 A 
ATOM     47  H   UNL     1       8.139   5.920   9.250  1.00  0.00     0.167 HD
ATOM     48  C   UNL     1       6.541   9.652  11.075  1.00  0.00     0.034 A 
ATOM     49  C   UNL     1      10.112   4.182   8.342  1.00  0.00     0.034 A 
ATOM     50  C   UNL     1       7.975   9.774  11.102  1.00  0.00     0.049 A 
ATOM     51  C   UNL     1      10.798   5.421   8.861  1.00  0.00     0.074 A 
ATOM     52  C   UNL     1       8.744  10.800  11.616  1.00  0.00     0.029 A 
ATOM     53  N   UNL     1       8.857   8.833  10.582  1.00  0.00    -0.354 N 
ATOM     54  N   UNL     1      10.269   6.497   9.399  1.00  0.00    -0.248 NA
ATOM     55  C   UNL     1      12.261   5.446   8.771  1.00  0.00     0.031 C 
ATOM     56  C   UNL     1      10.085  10.520  11.332  1.00  0.00     0.029 A 
ATOM     57  C   UNL     1      10.161   9.273  10.730  1.00  0.00     0.049 A 
ATOM     58  H   UNL     1       8.592   7.979  10.170  1.00  0.00     0.167 HD
ATOM     59  C   UNL     1      11.342   7.312   9.749  1.00  0.00     0.074 A 
ATOM     60  C   UNL     1      12.543   6.593   9.371  1.00  0.00     0.031 C 
ATOM     61  C   UNL     1      11.341   8.538  10.335  1.00  0.00     0.034 A 
BRANCH  48  62
ATOM     62  C   UNL     1       5.677  10.769  11.612  1.00  0.00     0.023 A 
ATOM     63  C   UNL     1       4.751  10.552  12.650  1.00  0.00     0.031 A 
ATOM     64  C   UNL     1       5.721  12.049  11.034  1.00  0.00     0.131 A 
ATOM     65  C   UNL     1       3.840  11.558  13.001  1.00  0.00     0.055 A 
ATOM     66  C   UNL     1       4.882  13.080  11.463  1.00  0.00     0.041 A 
ATOM     67  F   UNL     1       6.560  12.314  10.021  1.00  0.00    -0.206 F 
ATOM     68  C   UNL     1       3.919  12.832  12.437  1.00  0.00     0.022 A 
BRANCH  65  69
ATOM     69  S   UNL     1       2.430  11.114  14.054  1.00  0.00     0.124 S 
ATOM     70  O   UNL     1       1.805  10.047  13.274  1.00  0.00    -0.237 OA
ATOM     71  O   UNL     1       3.078  10.703  15.293  1.00  0.00    -0.237 OA
ATOM     72  O   UNL     1       1.657  12.352  14.131  1.00  0.00    -0.744 OA
ENDBRANCH  65  69
ENDBRANCH  48  62
BRANCH  49  73
ATOM     73  C   UNL     1      10.891   3.040   7.790  1.00  0.00     0.023 A 
ATOM     74  C   UNL     1      11.797   2.335   8.598  1.00  0.00     0.031 A 
ATOM     75  C   UNL     1      10.768   2.652   6.444  1.00  0.00     0.131 A 
ATOM     76  C   UNL     1      12.584   1.317   8.041  1.00  0.00     0.055 A 
ATOM     77  C   UNL     1      11.509   1.596   5.910  1.00  0.00     0.041 A 
ATOM     78  F   UNL     1       9.911   3.288   5.629  1.00  0.00    -0.206 F 
ATOM     79  C   UNL     1      12.435   0.932   6.708  1.00  0.00     0.022 A 
BRANCH  76  80
ATOM     80  S   UNL     1      13.880   0.571   9.066  1.00  0.00     0.124 S 
ATOM     81  O   UNL     1      14.681   1.736   9.424  1.00  0.00    -0.237 OA
ATOM     82  O   UNL     1      13.104  -0.031  10.145  1.00  0.00    -0.237 OA
ATOM     83  O   UNL     1      14.525  -0.377   8.160  1.00  0.00    -0.744 OA
ENDBRANCH  76  80
ENDBRANCH  49  73
BRANCH  61  84
ATOM     84  C   UNL     1      12.685   9.149  10.647  1.00  0.00     0.023 A 
ATOM     85  C   UNL     1      13.587   9.513   9.634  1.00  0.00     0.031 A 
ATOM     86  C   UNL     1      13.066   9.366  11.983  1.00  0.00     0.131 A 
ATOM     87  C   UNL     1      14.852  10.013   9.975  1.00  0.00     0.055 A 
ATOM     88  C   UNL     1      14.294   9.938  12.313  1.00  0.00     0.041 A 
ATOM     89  F   UNL     1      12.245   9.033  12.992  1.00  0.00    -0.206 F 
ATOM     90  C   UNL     1      15.202  10.250  11.306  1.00  0.00     0.022 A 
BRANCH  87  91
ATOM     91  S   UNL     1      16.077  10.242   8.658  1.00  0.00     0.124 S 
ATOM     92  O   UNL     1      16.163   8.901   8.089  1.00  0.00    -0.237 OA
ATOM     93  O   UNL     1      15.444  11.252   7.815  1.00  0.00    -0.237 OA
ATOM     94  O   UNL     1      17.269  10.691   9.374  1.00  0.00    -0.744 OA
ENDBRANCH  87  91
ENDBRANCH  61  84
ENDBRANCH  35  36
ENDBRANCH  27  30
ENDBRANCH  25  26
ENDBRANCH  24  25
ENDBRANCH   1  24
TORSDOF 18
