REMARK SMILES CCCOC(=O)c1c(NC(=O)[C@@H]2CC=CC[C@H]2C(=O)NCCCNC(=O)c2ccc(-c3c4nc(c(-c5cc(S(=O)(=O)[O-])ccc5F)c5ccc([nH]5)c(-c5cc(S(=O)(=O)[O-])ccc5F)c5nc(c(-c6cc(S(=O)(=O)[O-])ccc6F)c6ccc3[nH]6)C=C5)C=C4)cc2)sc2c1CCCC2
REMARK SMILES IDX 18 1 19 2 20 3 17 5 12 6 13 7 14 8 16 9 15 10 10 11 9 12
REMARK SMILES IDX 11 14 8 15 7 16 92 17 90 18 91 19 93 20 96 21 94 22 95 23
REMARK SMILES IDX 5 24 6 25 4 26 3 27 2 28 1 29 21 30 22 31 23 32 24 33 25 34
REMARK SMILES IDX 26 36 27 37 28 38 89 39 29 40 88 41 30 42 31 43 32 44 82 45
REMARK SMILES IDX 33 46 87 47 81 48 83 49 34 50 86 51 80 52 79 53 35 55 67 56
REMARK SMILES IDX 47 57 66 58 48 59 51 60 65 61 84 62 49 63 50 64 64 66 85 67
REMARK SMILES IDX 52 68 36 69 37 70 45 71 38 72 44 73 46 74 43 75 39 76 40 77
REMARK SMILES IDX 41 78 42 79 68 80 69 81 77 82 70 83 76 84 78 85 75 86 71 87
REMARK SMILES IDX 72 88 73 89 74 90 53 91 54 92 62 93 55 94 61 95 63 96 60 97
REMARK SMILES IDX 56 98 57 99 58 100 59 101
REMARK H PARENT 20 4 9 13 24 35 83 54 51 65
REMARK Flexibility Score: inf
ROOT
ATOM      1  C   UNL     1      -0.700  -1.510  -0.266  1.00  0.00     0.224 C 
ATOM      2  O   UNL     1      -1.413  -1.040  -1.154  1.00  0.00    -0.275 OA
ATOM      3  N   UNL     1      -1.264  -1.958   0.888  1.00  0.00    -0.356 N 
ATOM      4  H   UNL     1      -2.200  -1.666   0.979  1.00  0.00     0.163 HD
ENDROOT
BRANCH   1   5
ATOM      5  C   UNL     1       0.748  -1.532  -0.589  1.00  0.00     0.095 C 
ATOM      6  C   UNL     1       1.528  -0.936   0.565  1.00  0.00     0.095 C 
ATOM      7  C   UNL     1       2.901  -1.640   0.714  1.00  0.00     0.041 C 
ATOM      8  C   UNL     1       2.860  -3.132   0.531  1.00  0.00    -0.030 C 
ATOM      9  C   UNL     1       1.088  -2.908  -1.166  1.00  0.00     0.041 C 
ATOM     10  C   UNL     1       2.030  -3.711  -0.344  1.00  0.00    -0.030 C 
BRANCH   6  11
ATOM     11  C   UNL     1       1.702   0.555   0.312  1.00  0.00     0.229 C 
ATOM     12  N   UNL     1       0.821   1.559   0.508  1.00  0.00    -0.317 N 
ATOM     13  H   UNL     1       1.309   2.386   0.290  1.00  0.00     0.170 HD
ATOM     14  O   UNL     1       2.815   0.958  -0.072  1.00  0.00    -0.274 OA
BRANCH  12  15
ATOM     15  C   UNL     1      -0.450   1.962   0.873  1.00  0.00     0.110 A 
ATOM     16  C   UNL     1      -1.820   1.687   1.008  1.00  0.00     0.098 A 
ATOM     17  C   UNL     1      -2.481   2.762   1.770  1.00  0.00    -0.017 A 
ATOM     18  S   UNL     1      -0.130   3.605   1.399  1.00  0.00    -0.122 S 
ATOM     19  C   UNL     1      -1.623   3.767   2.141  1.00  0.00     0.011 A 
ATOM     20  C   UNL     1      -3.926   2.774   2.213  1.00  0.00     0.038 C 
ATOM     21  C   UNL     1      -1.951   4.924   3.033  1.00  0.00     0.047 C 
ATOM     22  C   UNL     1      -4.338   4.117   2.840  1.00  0.00     0.005 C 
ATOM     23  C   UNL     1      -3.259   4.652   3.788  1.00  0.00     0.006 C 
BRANCH  16  24
ATOM     24  C   UNL     1      -2.680   0.558   0.639  1.00  0.00     0.341 C 
ATOM     25  O   UNL     1      -3.063  -0.247   1.500  1.00  0.00    -0.246 OA
BRANCH  24  26
ATOM     26  O   UNL     1      -3.256   0.593  -0.603  1.00  0.00    -0.462 OA
BRANCH  26  27
ATOM     27  C   UNL     1      -4.375  -0.320  -0.804  1.00  0.00     0.233 C 
BRANCH  27  28
ATOM     28  C   UNL     1      -4.140  -1.509  -1.762  1.00  0.00     0.038 C 
ATOM     29  C   UNL     1      -3.796  -2.850  -1.103  1.00  0.00     0.007 C 
ENDBRANCH  27  28
ENDBRANCH  26  27
ENDBRANCH  24  26
ENDBRANCH  16  24
ENDBRANCH  12  15
ENDBRANCH   6  11
ENDBRANCH   1   5
BRANCH   3  30
ATOM     30  C   UNL     1      -0.830  -2.759   2.022  1.00  0.00     0.117 C 
BRANCH  30  31
ATOM     31  C   UNL     1      -0.730  -2.054   3.390  1.00  0.00     0.042 C 
BRANCH  31  32
ATOM     32  C   UNL     1      -1.927  -1.336   4.034  1.00  0.00     0.118 C 
BRANCH  32  33
ATOM     33  N   UNL     1      -3.182  -2.062   4.088  1.00  0.00    -0.352 N 
ATOM     34  C   UNL     1      -4.204  -1.956   5.012  1.00  0.00     0.251 C 
ATOM     35  H   UNL     1      -3.324  -2.720   3.369  1.00  0.00     0.163 HD
ATOM     36  O   UNL     1      -5.202  -2.663   4.888  1.00  0.00    -0.269 OA
BRANCH  34  37
ATOM     37  C   UNL     1      -4.099  -1.035   6.178  1.00  0.00     0.039 A 
ATOM     38  C   UNL     1      -4.410  -1.528   7.450  1.00  0.00     0.014 A 
ATOM     39  C   UNL     1      -3.730   0.306   6.037  1.00  0.00     0.014 A 
ATOM     40  C   UNL     1      -4.268  -0.710   8.579  1.00  0.00     0.010 A 
ATOM     41  C   UNL     1      -3.549   1.112   7.172  1.00  0.00     0.010 A 
ATOM     42  C   UNL     1      -3.796   0.609   8.459  1.00  0.00    -0.014 A 
BRANCH  42  43
ATOM     43  C   UNL     1      -3.520   1.428   9.678  1.00  0.00     0.031 A 
ATOM     44  C   UNL     1      -4.333   2.654  10.002  1.00  0.00     0.074 A 
ATOM     45  C   UNL     1      -2.502   1.081  10.493  1.00  0.00     0.049 A 
ATOM     46  N   UNL     1      -4.246   3.457  11.035  1.00  0.00    -0.248 NA
ATOM     47  C   UNL     1      -5.360   3.041   9.027  1.00  0.00     0.031 C 
ATOM     48  C   UNL     1      -1.592  -0.045  10.272  1.00  0.00     0.029 A 
ATOM     49  N   UNL     1      -2.060   1.634  11.672  1.00  0.00    -0.354 N 
ATOM     50  C   UNL     1      -5.208   4.443  10.839  1.00  0.00     0.074 A 
ATOM     51  C   UNL     1      -5.819   4.168   9.553  1.00  0.00     0.031 C 
ATOM     52  C   UNL     1      -0.725  -0.119  11.295  1.00  0.00     0.029 A 
ATOM     53  C   UNL     1      -0.995   0.967  12.233  1.00  0.00     0.049 A 
ATOM     54  H   UNL     1      -2.468   2.433  12.077  1.00  0.00     0.167 HD
ATOM     55  C   UNL     1      -5.567   5.466  11.659  1.00  0.00     0.034 A 
ATOM     56  C   UNL     1      -0.315   1.192  13.376  1.00  0.00     0.034 A 
ATOM     57  C   UNL     1      -4.955   5.736  12.940  1.00  0.00     0.049 A 
ATOM     58  C   UNL     1      -0.732   2.331  14.272  1.00  0.00     0.074 A 
ATOM     59  C   UNL     1      -5.282   6.715  13.864  1.00  0.00     0.029 A 
ATOM     60  N   UNL     1      -3.884   5.034  13.477  1.00  0.00    -0.354 N 
ATOM     61  N   UNL     1      -1.692   3.209  14.101  1.00  0.00    -0.248 NA
ATOM     62  C   UNL     1       0.016   2.493  15.526  1.00  0.00     0.031 C 
ATOM     63  C   UNL     1      -4.375   6.642  14.929  1.00  0.00     0.029 A 
ATOM     64  C   UNL     1      -3.523   5.574  14.705  1.00  0.00     0.049 A 
ATOM     65  H   UNL     1      -3.444   4.264  13.050  1.00  0.00     0.167 HD
ATOM     66  C   UNL     1      -1.679   4.009  15.241  1.00  0.00     0.074 A 
ATOM     67  C   UNL     1      -0.632   3.496  16.098  1.00  0.00     0.031 C 
ATOM     68  C   UNL     1      -2.466   5.072  15.550  1.00  0.00     0.034 A 
BRANCH  55  69
ATOM     69  C   UNL     1      -6.671   6.380  11.177  1.00  0.00     0.023 A 
ATOM     70  C   UNL     1      -7.975   5.903  10.956  1.00  0.00     0.031 A 
ATOM     71  C   UNL     1      -6.415   7.737  10.911  1.00  0.00     0.131 A 
ATOM     72  C   UNL     1      -8.948   6.750  10.405  1.00  0.00     0.055 A 
ATOM     73  C   UNL     1      -7.411   8.597  10.442  1.00  0.00     0.041 A 
ATOM     74  F   UNL     1      -5.187   8.249  11.089  1.00  0.00    -0.206 F 
ATOM     75  C   UNL     1      -8.683   8.101  10.169  1.00  0.00     0.022 A 
BRANCH  72  76
ATOM     76  S   UNL     1     -10.518   6.023   9.860  1.00  0.00     0.124 S 
ATOM     77  O   UNL     1     -10.062   5.043   8.877  1.00  0.00    -0.237 OA
ATOM     78  O   UNL     1     -11.061   5.480  11.099  1.00  0.00    -0.237 OA
ATOM     79  O   UNL     1     -11.247   7.160   9.303  1.00  0.00    -0.744 OA
ENDBRANCH  72  76
ENDBRANCH  55  69
BRANCH  56  80
ATOM     80  C   UNL     1       0.832   0.320  13.758  1.00  0.00     0.023 A 
ATOM     81  C   UNL     1       0.766  -0.507  14.891  1.00  0.00     0.031 A 
ATOM     82  C   UNL     1       2.032   0.341  13.025  1.00  0.00     0.131 A 
ATOM     83  C   UNL     1       1.894  -1.241  15.289  1.00  0.00     0.055 A 
ATOM     84  C   UNL     1       3.136  -0.428  13.397  1.00  0.00     0.041 A 
ATOM     85  F   UNL     1       2.144   1.109  11.930  1.00  0.00    -0.206 F 
ATOM     86  C   UNL     1       3.075  -1.215  14.543  1.00  0.00     0.022 A 
BRANCH  83  87
ATOM     87  S   UNL     1       1.821  -2.169  16.845  1.00  0.00     0.124 S 
ATOM     88  O   UNL     1       1.510  -1.117  17.806  1.00  0.00    -0.237 OA
ATOM     89  O   UNL     1       0.755  -3.128  16.575  1.00  0.00    -0.237 OA
ATOM     90  O   UNL     1       3.160  -2.745  16.960  1.00  0.00    -0.744 OA
ENDBRANCH  83  87
ENDBRANCH  56  80
BRANCH  68  91
ATOM     91  C   UNL     1      -2.237   5.721  16.895  1.00  0.00     0.023 A 
ATOM     92  C   UNL     1      -1.041   6.399  17.195  1.00  0.00     0.031 A 
ATOM     93  C   UNL     1      -3.212   5.626  17.903  1.00  0.00     0.131 A 
ATOM     94  C   UNL     1      -0.823   6.896  18.489  1.00  0.00     0.055 A 
ATOM     95  C   UNL     1      -3.014   6.174  19.172  1.00  0.00     0.041 A 
ATOM     96  F   UNL     1      -4.372   4.990  17.675  1.00  0.00    -0.206 F 
ATOM     97  C   UNL     1      -1.808   6.800  19.476  1.00  0.00     0.022 A 
BRANCH  94  98
ATOM     98  S   UNL     1       0.808   7.577  18.899  1.00  0.00     0.124 S 
ATOM     99  O   UNL     1       1.694   6.464  18.574  1.00  0.00    -0.237 OA
ATOM    100  O   UNL     1       0.892   8.736  18.016  1.00  0.00    -0.237 OA
ATOM    101  O   UNL     1       0.702   7.890  20.323  1.00  0.00    -0.744 OA
ENDBRANCH  94  98
ENDBRANCH  68  91
ENDBRANCH  42  43
ENDBRANCH  34  37
ENDBRANCH  32  33
ENDBRANCH  31  32
ENDBRANCH  30  31
ENDBRANCH   3  30
TORSDOF 19
