REMARK SMILES Cc1cc(C(=O)N[C@H](C(=O)NCCCNC(=O)c2ccc(-c3c4nc(c(-c5cc(S(=O)(=O)[O-])ccc5F)c5ccc([nH]5)c(-c5cc(S(=O)(=O)[O-])ccc5F)c5nc(c(-c6cc(S(=O)(=O)[O-])ccc6F)c6ccc3[nH]6)C=C5)C=C4)cc2)C(C)C)c(C)s1
REMARK SMILES IDX 13 1 12 2 11 3 9 4 10 5 8 7 7 8 5 9 6 10 4 12 1 13 2 14 3 15
REMARK SMILES IDX 86 16 84 17 85 18 81 19 82 20 83 21 14 22 15 23 16 24 17 26
REMARK SMILES IDX 18 27 19 28 80 29 20 30 79 31 21 32 22 33 23 34 73 35 24 36
REMARK SMILES IDX 78 37 72 38 74 39 25 40 77 41 71 42 70 43 26 45 58 46 38 47
REMARK SMILES IDX 57 48 39 49 42 50 56 51 75 52 40 53 41 54 55 56 76 57 43 58
REMARK SMILES IDX 27 59 28 60 36 61 29 62 35 63 37 64 34 65 30 66 31 67 32 68
REMARK SMILES IDX 33 69 59 70 60 71 68 72 61 73 67 74 69 75 66 76 62 77 63 78
REMARK SMILES IDX 64 79 65 80 44 81 45 82 53 83 46 84 52 85 54 86 51 87 47 88
REMARK SMILES IDX 48 89 49 90 50 91
REMARK H PARENT 11 6 7 11 15 25 74 44 42 55
REMARK Flexibility Score: inf
ROOT
ATOM      1  C   UNL     1       1.094  -2.242  -3.349  1.00  0.00     0.042 C 
ENDROOT
BRANCH   1   2
ATOM      2  C   UNL     1       0.732  -3.492  -2.557  1.00  0.00     0.117 C 
BRANCH   2   3
ATOM      3  N   UNL     1       1.248  -3.451  -1.198  1.00  0.00    -0.354 N 
ATOM      4  C   UNL     1       0.639  -3.706  -0.000  1.00  0.00     0.242 C 
ATOM      5  O   UNL     1       1.291  -3.417   1.005  1.00  0.00    -0.273 OA
ATOM      6  H   UNL     1       2.196  -3.196  -1.128  1.00  0.00     0.163 HD
BRANCH   4   7
ATOM      7  C   UNL     1      -0.842  -4.188   0.053  1.00  0.00     0.174 C 
BRANCH   7   8
ATOM      8  N   UNL     1      -1.074  -5.228  -0.962  1.00  0.00    -0.340 N 
ATOM      9  C   UNL     1      -0.668  -6.524  -1.147  1.00  0.00     0.253 C 
ATOM     10  O   UNL     1      -0.988  -7.003  -2.234  1.00  0.00    -0.269 OA
ATOM     11  H   UNL     1      -1.667  -4.917  -1.683  1.00  0.00     0.164 HD
BRANCH   9  12
ATOM     12  C   UNL     1       0.037  -7.308  -0.120  1.00  0.00     0.053 A 
ATOM     13  C   UNL     1       1.671  -7.638   3.290  1.00  0.00     0.056 C 
ATOM     14  C   UNL     1       1.107  -7.816   1.923  1.00  0.00     0.003 A 
ATOM     15  C   UNL     1       0.783  -6.837   1.013  1.00  0.00     0.029 A 
ATOM     16  S   UNL     1       0.785  -9.357   1.298  1.00  0.00    -0.145 S 
ATOM     17  C   UNL     1       0.083  -8.705  -0.132  1.00  0.00     0.014 A 
ATOM     18  C   UNL     1      -0.403  -9.698  -1.144  1.00  0.00     0.057 C 
ENDBRANCH   9  12
ENDBRANCH   7   8
BRANCH   7  19
ATOM     19  C   UNL     1      -1.499  -4.533   1.419  1.00  0.00     0.015 C 
ATOM     20  C   UNL     1      -1.054  -3.657   2.592  1.00  0.00     0.010 C 
ATOM     21  C   UNL     1      -3.029  -4.451   1.303  1.00  0.00     0.010 C 
ENDBRANCH   7  19
ENDBRANCH   4   7
ENDBRANCH   2   3
ENDBRANCH   1   2
BRANCH   1  22
ATOM     22  C   UNL     1       2.585  -2.044  -3.585  1.00  0.00     0.118 C 
BRANCH  22  23
ATOM     23  N   UNL     1       3.151  -3.017  -4.507  1.00  0.00    -0.352 N 
ATOM     24  C   UNL     1       3.783  -2.818  -5.714  1.00  0.00     0.251 C 
ATOM     25  H   UNL     1       3.071  -3.957  -4.226  1.00  0.00     0.163 HD
ATOM     26  O   UNL     1       4.058  -3.786  -6.417  1.00  0.00    -0.269 OA
BRANCH  24  27
ATOM     27  C   UNL     1       4.094  -1.447  -6.181  1.00  0.00     0.039 A 
ATOM     28  C   UNL     1       3.829  -1.111  -7.512  1.00  0.00     0.014 A 
ATOM     29  C   UNL     1       4.639  -0.492  -5.319  1.00  0.00     0.014 A 
ATOM     30  C   UNL     1       4.030   0.201  -7.952  1.00  0.00     0.010 A 
ATOM     31  C   UNL     1       4.761   0.832  -5.736  1.00  0.00     0.010 A 
ATOM     32  C   UNL     1       4.454   1.196  -7.056  1.00  0.00    -0.014 A 
BRANCH  32  33
ATOM     33  C   UNL     1       4.575   2.619  -7.474  1.00  0.00     0.031 A 
ATOM     34  C   UNL     1       5.914   3.308  -7.427  1.00  0.00     0.074 A 
ATOM     35  C   UNL     1       3.469   3.313  -7.813  1.00  0.00     0.049 A 
ATOM     36  N   UNL     1       6.205   4.566  -7.640  1.00  0.00    -0.248 NA
ATOM     37  C   UNL     1       7.072   2.479  -7.059  1.00  0.00     0.031 C 
ATOM     38  C   UNL     1       2.107   2.772  -7.848  1.00  0.00     0.029 A 
ATOM     39  N   UNL     1       3.307   4.629  -8.173  1.00  0.00    -0.354 N 
ATOM     40  C   UNL     1       7.570   4.686  -7.404  1.00  0.00     0.074 A 
ATOM     41  C   UNL     1       8.041   3.381  -6.992  1.00  0.00     0.031 C 
ATOM     42  C   UNL     1       1.255   3.742  -8.217  1.00  0.00     0.029 A 
ATOM     43  C   UNL     1       1.997   4.986  -8.401  1.00  0.00     0.049 A 
ATOM     44  H   UNL     1       4.059   5.259  -8.259  1.00  0.00     0.167 HD
ATOM     45  C   UNL     1       8.360   5.780  -7.533  1.00  0.00     0.034 A 
ATOM     46  C   UNL     1       1.450   6.181  -8.704  1.00  0.00     0.034 A 
ATOM     47  C   UNL     1       7.886   7.065  -7.985  1.00  0.00     0.049 A 
ATOM     48  C   UNL     1       2.356   7.377  -8.861  1.00  0.00     0.074 A 
ATOM     49  C   UNL     1       8.619   8.211  -8.242  1.00  0.00     0.029 A 
ATOM     50  N   UNL     1       6.558   7.378  -8.244  1.00  0.00    -0.354 N 
ATOM     51  N   UNL     1       3.658   7.453  -8.704  1.00  0.00    -0.248 NA
ATOM     52  C   UNL     1       1.723   8.645  -9.249  1.00  0.00     0.031 C 
ATOM     53  C   UNL     1       7.731   9.232  -8.594  1.00  0.00     0.029 A 
ATOM     54  C   UNL     1       6.449   8.706  -8.626  1.00  0.00     0.049 A 
ATOM     55  H   UNL     1       5.805   6.749  -8.167  1.00  0.00     0.167 HD
ATOM     56  C   UNL     1       3.999   8.769  -9.004  1.00  0.00     0.074 A 
ATOM     57  C   UNL     1       2.772   9.445  -9.368  1.00  0.00     0.031 C 
ATOM     58  C   UNL     1       5.217   9.366  -8.983  1.00  0.00     0.034 A 
BRANCH  45  59
ATOM     59  C   UNL     1       9.815   5.646  -7.161  1.00  0.00     0.023 A 
ATOM     60  C   UNL     1      10.695   4.827  -7.888  1.00  0.00     0.031 A 
ATOM     61  C   UNL     1      10.332   6.360  -6.065  1.00  0.00     0.131 A 
ATOM     62  C   UNL     1      12.032   4.701  -7.479  1.00  0.00     0.055 A 
ATOM     63  C   UNL     1      11.678   6.284  -5.705  1.00  0.00     0.041 A 
ATOM     64  F   UNL     1       9.533   7.143  -5.322  1.00  0.00    -0.206 F 
ATOM     65  C   UNL     1      12.535   5.443  -6.408  1.00  0.00     0.022 A 
BRANCH  62  66
ATOM     66  S   UNL     1      13.081   3.474  -8.306  1.00  0.00     0.124 S 
ATOM     67  O   UNL     1      12.384   2.230  -7.989  1.00  0.00    -0.237 OA
ATOM     68  O   UNL     1      13.026   3.899  -9.700  1.00  0.00    -0.237 OA
ATOM     69  O   UNL     1      14.379   3.638  -7.655  1.00  0.00    -0.744 OA
ENDBRANCH  62  66
ENDBRANCH  45  59
BRANCH  46  70
ATOM     70  C   UNL     1      -0.027   6.328  -8.855  1.00  0.00     0.023 A 
ATOM     71  C   UNL     1      -0.596   6.705 -10.082  1.00  0.00     0.031 A 
ATOM     72  C   UNL     1      -0.886   6.159  -7.755  1.00  0.00     0.131 A 
ATOM     73  C   UNL     1      -1.974   6.962 -10.165  1.00  0.00     0.055 A 
ATOM     74  C   UNL     1      -2.264   6.360  -7.857  1.00  0.00     0.041 A 
ATOM     75  F   UNL     1      -0.396   5.793  -6.559  1.00  0.00    -0.206 F 
ATOM     76  C   UNL     1      -2.813   6.781  -9.063  1.00  0.00     0.022 A 
BRANCH  73  77
ATOM     77  S   UNL     1      -2.637   7.648 -11.708  1.00  0.00     0.124 S 
ATOM     78  O   UNL     1      -1.799   8.827 -11.894  1.00  0.00    -0.237 OA
ATOM     79  O   UNL     1      -2.417   6.550 -12.643  1.00  0.00    -0.237 OA
ATOM     80  O   UNL     1      -4.036   7.920 -11.385  1.00  0.00    -0.744 OA
ENDBRANCH  73  77
ENDBRANCH  46  70
BRANCH  58  81
ATOM     81  C   UNL     1       5.280  10.810  -9.414  1.00  0.00     0.023 A 
ATOM     82  C   UNL     1       4.701  11.836  -8.648  1.00  0.00     0.031 A 
ATOM     83  C   UNL     1       5.922  11.160 -10.615  1.00  0.00     0.131 A 
ATOM     84  C   UNL     1       4.728  13.157  -9.117  1.00  0.00     0.055 A 
ATOM     85  C   UNL     1       5.995  12.484 -11.049  1.00  0.00     0.041 A 
ATOM     86  F   UNL     1       6.491  10.219 -11.386  1.00  0.00    -0.206 F 
ATOM     87  C   UNL     1       5.385  13.490 -10.305  1.00  0.00     0.022 A 
BRANCH  84  88
ATOM     88  S   UNL     1       3.821  14.428  -8.195  1.00  0.00     0.124 S 
ATOM     89  O   UNL     1       2.456  13.911  -8.227  1.00  0.00    -0.237 OA
ATOM     90  O   UNL     1       4.481  14.402  -6.894  1.00  0.00    -0.237 OA
ATOM     91  O   UNL     1       4.042  15.643  -8.976  1.00  0.00    -0.744 OA
ENDBRANCH  84  88
ENDBRANCH  58  81
ENDBRANCH  32  33
ENDBRANCH  24  27
ENDBRANCH  22  23
ENDBRANCH   1  22
TORSDOF 16
