REMARK SMILES CC[C@@H](C)[C@H](NC(=O)CCc1ccc(F)c(F)c1)C(=O)NCCCNC(=O)c1ccc(-c2c3nc(c(-c4cc(S(=O)(=O)[O-])ccc4F)c4ccc([nH]4)c(-c4cc(S(=O)(=O)[O-])ccc4F)c4nc(c(-c5cc(S(=O)(=O)[O-])ccc5F)c5ccc2[nH]5)C=C4)C=C3)cc1
REMARK SMILES IDX 22 1 21 2 19 3 20 4 5 6 3 7 4 8 2 9 1 10 6 11 7 12 8 14 9 15
REMARK SMILES IDX 10 16 11 17 12 18 18 19 13 20 16 21 14 22 17 23 15 24 23 25
REMARK SMILES IDX 24 26 25 27 26 28 27 30 28 31 29 32 90 33 30 34 89 35 31 36
REMARK SMILES IDX 32 37 33 38 83 39 34 40 88 41 82 42 84 43 35 44 87 45 81 46
REMARK SMILES IDX 80 47 36 49 68 50 48 51 67 52 49 53 52 54 66 55 85 56 50 57
REMARK SMILES IDX 51 58 65 60 86 61 53 62 37 63 38 64 46 65 39 66 45 67 47 68
REMARK SMILES IDX 44 69 40 70 41 71 42 72 43 73 69 74 70 75 78 76 71 77 77 78
REMARK SMILES IDX 79 79 76 80 72 81 73 82 74 83 75 84 54 85 55 86 63 87 56 88
REMARK SMILES IDX 62 89 64 90 61 91 57 92 58 93 59 94 60 95
REMARK H PARENT 21 5 6 13 25 29 84 48 52 59
REMARK Flexibility Score: inf
ROOT
ATOM      1  C   UNL     1       4.427  -2.245  -3.393  1.00  0.00     0.117 C 
ENDROOT
BRANCH   1   2
ATOM      2  N   UNL     1       3.515  -3.074  -4.144  1.00  0.00    -0.354 N 
ATOM      3  C   UNL     1       2.167  -3.088  -4.186  1.00  0.00     0.242 C 
ATOM      4  O   UNL     1       1.644  -3.965  -4.882  1.00  0.00    -0.273 OA
ATOM      5  H   UNL     1       3.950  -3.742  -4.722  1.00  0.00     0.163 HD
BRANCH   3   6
ATOM      6  C   UNL     1       1.313  -2.010  -3.497  1.00  0.00     0.174 C 
BRANCH   6   7
ATOM      7  C   UNL     1       1.296  -0.653  -4.288  1.00  0.00     0.018 C 
ATOM      8  C   UNL     1       1.554  -0.869  -5.790  1.00  0.00     0.010 C 
BRANCH   7   9
ATOM      9  C   UNL     1       2.089   0.523  -3.660  1.00  0.00     0.002 C 
ATOM     10  C   UNL     1       2.868   1.409  -4.622  1.00  0.00     0.004 C 
ENDBRANCH   7   9
ENDBRANCH   6   7
BRANCH   6  11
ATOM     11  N   UNL     1       1.494  -1.889  -2.045  1.00  0.00    -0.344 N 
ATOM     12  C   UNL     1       1.207  -2.807  -1.072  1.00  0.00     0.220 C 
ATOM     13  H   UNL     1       1.872  -1.036  -1.731  1.00  0.00     0.164 HD
ATOM     14  O   UNL     1       0.995  -2.389   0.068  1.00  0.00    -0.275 OA
BRANCH  12  15
ATOM     15  C   UNL     1       1.186  -4.297  -1.367  1.00  0.00     0.105 C 
BRANCH  15  16
ATOM     16  C   UNL     1      -0.213  -4.917  -1.412  1.00  0.00     0.045 C 
BRANCH  16  17
ATOM     17  C   UNL     1      -1.120  -4.286  -2.440  1.00  0.00    -0.044 A 
ATOM     18  C   UNL     1      -1.848  -3.131  -2.105  1.00  0.00     0.007 A 
ATOM     19  C   UNL     1      -1.151  -4.757  -3.762  1.00  0.00     0.046 A 
ATOM     20  C   UNL     1      -2.532  -2.415  -3.089  1.00  0.00     0.043 A 
ATOM     21  C   UNL     1      -1.845  -4.041  -4.736  1.00  0.00     0.159 A 
ATOM     22  C   UNL     1      -2.514  -2.869  -4.404  1.00  0.00     0.158 A 
ATOM     23  F   UNL     1      -1.820  -4.462  -6.008  1.00  0.00    -0.204 F 
ATOM     24  F   UNL     1      -3.116  -2.141  -5.355  1.00  0.00    -0.204 F 
ENDBRANCH  16  17
ENDBRANCH  15  16
ENDBRANCH  12  15
ENDBRANCH   6  11
ENDBRANCH   3   6
ENDBRANCH   1   2
BRANCH   1  25
ATOM     25  C   UNL     1       4.941  -2.941  -2.145  1.00  0.00     0.042 C 
BRANCH  25  26
ATOM     26  C   UNL     1       5.385  -4.373  -2.409  1.00  0.00     0.118 C 
BRANCH  26  27
ATOM     27  N   UNL     1       6.271  -4.464  -3.567  1.00  0.00    -0.352 N 
ATOM     28  C   UNL     1       7.632  -4.574  -3.620  1.00  0.00     0.251 C 
ATOM     29  H   UNL     1       5.819  -4.443  -4.441  1.00  0.00     0.163 HD
ATOM     30  O   UNL     1       8.225  -4.293  -4.663  1.00  0.00    -0.269 OA
BRANCH  28  31
ATOM     31  C   UNL     1       8.364  -5.009  -2.424  1.00  0.00     0.039 A 
ATOM     32  C   UNL     1       9.568  -4.391  -2.092  1.00  0.00     0.014 A 
ATOM     33  C   UNL     1       7.839  -6.027  -1.624  1.00  0.00     0.014 A 
ATOM     34  C   UNL     1      10.219  -4.764  -0.919  1.00  0.00     0.010 A 
ATOM     35  C   UNL     1       8.419  -6.304  -0.398  1.00  0.00     0.010 A 
ATOM     36  C   UNL     1       9.631  -5.697  -0.048  1.00  0.00    -0.014 A 
BRANCH  36  37
ATOM     37  C   UNL     1      10.296  -6.086   1.217  1.00  0.00     0.031 A 
ATOM     38  C   UNL     1      10.704  -7.519   1.432  1.00  0.00     0.074 A 
ATOM     39  C   UNL     1      10.493  -5.158   2.172  1.00  0.00     0.049 A 
ATOM     40  N   UNL     1      11.269  -8.068   2.475  1.00  0.00    -0.248 NA
ATOM     41  C   UNL     1      10.399  -8.467   0.348  1.00  0.00     0.031 C 
ATOM     42  C   UNL     1      10.075  -3.756   2.088  1.00  0.00     0.029 A 
ATOM     43  N   UNL     1      11.095  -5.250   3.399  1.00  0.00    -0.354 N 
ATOM     44  C   UNL     1      11.381  -9.421   2.172  1.00  0.00     0.074 A 
ATOM     45  C   UNL     1      10.740  -9.623   0.893  1.00  0.00     0.031 C 
ATOM     46  C   UNL     1      10.475  -3.110   3.194  1.00  0.00     0.029 A 
ATOM     47  C   UNL     1      11.133  -4.059   4.086  1.00  0.00     0.049 A 
ATOM     48  H   UNL     1      11.467  -6.089   3.755  1.00  0.00     0.167 HD
ATOM     49  C   UNL     1      12.000 -10.398   2.879  1.00  0.00     0.034 A 
ATOM     50  C   UNL     1      11.640  -3.770   5.300  1.00  0.00     0.034 A 
ATOM     51  C   UNL     1      12.643 -10.168   4.148  1.00  0.00     0.049 A 
ATOM     52  C   UNL     1      12.315  -4.874   6.073  1.00  0.00     0.074 A 
ATOM     53  C   UNL     1      13.334 -11.065   4.941  1.00  0.00     0.029 A 
ATOM     54  N   UNL     1      12.669  -8.947   4.812  1.00  0.00    -0.354 N 
ATOM     55  N   UNL     1      12.466  -6.139   5.747  1.00  0.00    -0.248 NA
ATOM     56  C   UNL     1      12.905  -4.509   7.365  1.00  0.00     0.031 C 
ATOM     57  C   UNL     1      13.718 -10.406   6.114  1.00  0.00     0.029 A 
ATOM     58  C   UNL     1      13.342  -9.075   6.017  1.00  0.00     0.049 A 
ATOM     59  H   UNL     1      12.269  -8.113   4.476  1.00  0.00     0.167 HD
ATOM     60  C   UNL     1      13.193  -6.713   6.786  1.00  0.00     0.074 A 
ATOM     61  C   UNL     1      13.472  -5.649   7.730  1.00  0.00     0.031 C 
ATOM     62  C   UNL     1      13.595  -8.000   6.950  1.00  0.00     0.034 A 
BRANCH  49  63
ATOM     63  C   UNL     1      11.991 -11.790   2.292  1.00  0.00     0.023 A 
ATOM     64  C   UNL     1      12.586 -12.069   1.046  1.00  0.00     0.031 A 
ATOM     65  C   UNL     1      11.348 -12.846   2.960  1.00  0.00     0.131 A 
ATOM     66  C   UNL     1      12.453 -13.342   0.473  1.00  0.00     0.055 A 
ATOM     67  C   UNL     1      11.299 -14.135   2.425  1.00  0.00     0.041 A 
ATOM     68  F   UNL     1      10.740 -12.640   4.139  1.00  0.00    -0.206 F 
ATOM     69  C   UNL     1      11.838 -14.385   1.166  1.00  0.00     0.022 A 
BRANCH  66  70
ATOM     70  S   UNL     1      12.957 -13.569  -1.255  1.00  0.00     0.124 S 
ATOM     71  O   UNL     1      12.103 -12.601  -1.940  1.00  0.00    -0.237 OA
ATOM     72  O   UNL     1      14.379 -13.250  -1.214  1.00  0.00    -0.237 OA
ATOM     73  O   UNL     1      12.638 -14.970  -1.523  1.00  0.00    -0.744 OA
ENDBRANCH  66  70
ENDBRANCH  49  63
BRANCH  50  74
ATOM     74  C   UNL     1      11.534  -2.390   5.856  1.00  0.00     0.023 A 
ATOM     75  C   UNL     1      12.678  -1.624   6.126  1.00  0.00     0.031 A 
ATOM     76  C   UNL     1      10.280  -1.831   6.163  1.00  0.00     0.131 A 
ATOM     77  C   UNL     1      12.551  -0.366   6.735  1.00  0.00     0.055 A 
ATOM     78  C   UNL     1      10.156  -0.554   6.714  1.00  0.00     0.041 A 
ATOM     79  F   UNL     1       9.152  -2.516   5.919  1.00  0.00    -0.206 F 
ATOM     80  C   UNL     1      11.297   0.180   7.018  1.00  0.00     0.022 A 
BRANCH  77  81
ATOM     81  S   UNL     1      14.057   0.509   7.244  1.00  0.00     0.124 S 
ATOM     82  O   UNL     1      14.688  -0.472   8.120  1.00  0.00    -0.237 OA
ATOM     83  O   UNL     1      14.716   0.745   5.964  1.00  0.00    -0.237 OA
ATOM     84  O   UNL     1      13.546   1.705   7.910  1.00  0.00    -0.744 OA
ENDBRANCH  77  81
ENDBRANCH  50  74
BRANCH  62  85
ATOM     85  C   UNL     1      14.412  -8.306   8.181  1.00  0.00     0.023 A 
ATOM     86  C   UNL     1      13.874  -8.181   9.474  1.00  0.00     0.031 A 
ATOM     87  C   UNL     1      15.756  -8.702   8.059  1.00  0.00     0.131 A 
ATOM     88  C   UNL     1      14.696  -8.377  10.593  1.00  0.00     0.055 A 
ATOM     89  C   UNL     1      16.548  -8.968   9.176  1.00  0.00     0.041 A 
ATOM     90  F   UNL     1      16.323  -8.835   6.849  1.00  0.00    -0.206 F 
ATOM     91  C   UNL     1      16.024  -8.789  10.453  1.00  0.00     0.022 A 
BRANCH  88  92
ATOM     92  S   UNL     1      14.039  -7.966  12.232  1.00  0.00     0.124 S 
ATOM     93  O   UNL     1      13.658  -6.567  12.063  1.00  0.00    -0.237 OA
ATOM     94  O   UNL     1      12.939  -8.914  12.374  1.00  0.00    -0.237 OA
ATOM     95  O   UNL     1      15.174  -8.196  13.124  1.00  0.00    -0.744 OA
ENDBRANCH  88  92
ENDBRANCH  62  85
ENDBRANCH  36  37
ENDBRANCH  28  31
ENDBRANCH  26  27
ENDBRANCH  25  26
ENDBRANCH   1  25
TORSDOF 19
