REMARK SMILES O=C(C[C@H]1C[N@@H+](Cc2c(F)cccc2F)CCO1)NCCCNC(=O)c1ccc(-c2c3nc(c(-c4cc(S(=O)(=O)[O-])ccc4F)c4ccc([nH]4)c(-c4cc(S(=O)(=O)[O-])ccc4F)c4nc(c(-c5cc(S(=O)(=O)[O-])ccc5F)c5ccc2[nH]5)C=C4)C=C3)cc1
REMARK SMILES IDX 21 1 20 2 19 3 1 4 2 5 3 7 4 8 5 9 18 10 6 11 17 12 16 13
REMARK SMILES IDX 7 15 8 16 9 17 14 18 10 19 11 20 13 21 15 22 12 23 22 24
REMARK SMILES IDX 23 25 24 26 25 28 26 29 27 30 88 31 28 32 87 33 29 34 30 35
REMARK SMILES IDX 31 36 81 37 32 38 86 39 80 40 82 41 33 42 85 43 79 44 78 45
REMARK SMILES IDX 34 47 66 48 46 49 65 50 47 51 50 52 64 53 83 54 48 55 49 56
REMARK SMILES IDX 63 58 84 59 51 60 35 61 36 62 44 63 37 64 43 65 45 66 42 67
REMARK SMILES IDX 38 68 39 69 40 70 41 71 67 72 68 73 76 74 69 75 75 76 77 77
REMARK SMILES IDX 74 78 70 79 71 80 72 81 73 82 52 83 53 84 61 85 54 86 60 87
REMARK SMILES IDX 62 88 59 89 55 90 56 91 57 92 58 93
REMARK H PARENT 19 6 6 14 23 27 82 46 50 57
REMARK Flexibility Score: inf
ROOT
ATOM      1  C   UNL     1       8.680   3.553   2.765  1.00  0.00     0.042 C 
ENDROOT
BRANCH   1   2
ATOM      2  C   UNL     1       7.903   2.212   2.863  1.00  0.00     0.117 C 
BRANCH   2   3
ATOM      3  N   UNL     1       7.329   1.683   1.625  1.00  0.00    -0.356 N 
ATOM      4  O   UNL     1       6.243  -0.113   2.536  1.00  0.00    -0.275 OA
ATOM      5  C   UNL     1       6.418   0.644   1.582  1.00  0.00     0.222 C 
ATOM      6  H   UNL     1       7.608   2.091   0.773  1.00  0.00     0.163 HD
BRANCH   5   7
ATOM      7  C   UNL     1       5.517   0.542   0.335  1.00  0.00     0.138 C 
BRANCH   7   8
ATOM      8  C   UNL     1       4.118   1.208   0.489  1.00  0.00     0.182 C 
ATOM      9  C   UNL     1       3.936   2.004   1.794  1.00  0.00     0.295 C 
ATOM     10  O   UNL     1       3.792   2.025  -0.670  1.00  0.00    -0.366 OA
ATOM     11  N   UNL     1       3.959   3.460   1.624  1.00  0.00    -0.327 N 
ATOM     12  C   UNL     1       2.706   2.969  -0.468  1.00  0.00     0.222 C 
ATOM     13  C   UNL     1       2.799   3.810   0.824  1.00  0.00     0.291 C 
ATOM     14  H   UNL     1       3.912   3.876   2.554  1.00  0.00     0.348 HD
BRANCH  11  15
ATOM     15  C   UNL     1       5.219   4.078   1.161  1.00  0.00     0.305 C 
BRANCH  15  16
ATOM     16  C   UNL     1       5.545   4.355  -0.298  1.00  0.00     0.078 A 
ATOM     17  C   UNL     1       5.037   5.500  -0.908  1.00  0.00     0.135 A 
ATOM     18  C   UNL     1       6.401   3.590  -1.103  1.00  0.00     0.135 A 
ATOM     19  F   UNL     1       4.337   6.380  -0.181  1.00  0.00    -0.206 F 
ATOM     20  C   UNL     1       5.251   5.789  -2.259  1.00  0.00     0.040 A 
ATOM     21  C   UNL     1       6.587   3.825  -2.466  1.00  0.00     0.040 A 
ATOM     22  F   UNL     1       7.171   2.633  -0.588  1.00  0.00    -0.206 F 
ATOM     23  C   UNL     1       5.994   4.926  -3.056  1.00  0.00     0.006 A 
ENDBRANCH  15  16
ENDBRANCH  11  15
ENDBRANCH   7   8
ENDBRANCH   5   7
ENDBRANCH   2   3
ENDBRANCH   1   2
BRANCH   1  24
ATOM     24  C   UNL     1       7.982   4.937   2.775  1.00  0.00     0.118 C 
BRANCH  24  25
ATOM     25  N   UNL     1       6.991   5.164   3.816  1.00  0.00    -0.352 N 
ATOM     26  C   UNL     1       6.682   6.319   4.518  1.00  0.00     0.251 C 
ATOM     27  H   UNL     1       6.457   4.374   4.060  1.00  0.00     0.163 HD
ATOM     28  O   UNL     1       5.810   6.287   5.375  1.00  0.00    -0.269 OA
BRANCH  26  29
ATOM     29  C   UNL     1       7.422   7.590   4.288  1.00  0.00     0.039 A 
ATOM     30  C   UNL     1       8.009   8.227   5.388  1.00  0.00     0.014 A 
ATOM     31  C   UNL     1       7.506   8.186   3.027  1.00  0.00     0.014 A 
ATOM     32  C   UNL     1       8.775   9.389   5.209  1.00  0.00     0.010 A 
ATOM     33  C   UNL     1       8.296   9.334   2.845  1.00  0.00     0.010 A 
ATOM     34  C   UNL     1       8.979   9.922   3.925  1.00  0.00    -0.014 A 
BRANCH  34  35
ATOM     35  C   UNL     1       9.996  10.995   3.692  1.00  0.00     0.031 A 
ATOM     36  C   UNL     1       9.612  12.371   3.216  1.00  0.00     0.074 A 
ATOM     37  C   UNL     1      11.305  10.698   3.850  1.00  0.00     0.049 A 
ATOM     38  N   UNL     1      10.384  13.378   2.885  1.00  0.00    -0.248 NA
ATOM     39  C   UNL     1       8.176  12.647   3.086  1.00  0.00     0.031 C 
ATOM     40  C   UNL     1      11.823   9.401   4.293  1.00  0.00     0.029 A 
ATOM     41  N   UNL     1      12.438  11.450   3.647  1.00  0.00    -0.354 N 
ATOM     42  C   UNL     1       9.532  14.410   2.502  1.00  0.00     0.074 A 
ATOM     43  C   UNL     1       8.183  13.884   2.604  1.00  0.00     0.031 C 
ATOM     44  C   UNL     1      13.162   9.454   4.341  1.00  0.00     0.029 A 
ATOM     45  C   UNL     1      13.609  10.763   3.877  1.00  0.00     0.049 A 
ATOM     46  H   UNL     1      12.414  12.393   3.363  1.00  0.00     0.167 HD
ATOM     47  C   UNL     1       9.842  15.674   2.113  1.00  0.00     0.034 A 
ATOM     48  C   UNL     1      14.899  11.124   3.710  1.00  0.00     0.034 A 
ATOM     49  C   UNL     1      11.191  16.187   2.004  1.00  0.00     0.049 A 
ATOM     50  C   UNL     1      15.217  12.508   3.203  1.00  0.00     0.074 A 
ATOM     51  C   UNL     1      11.602  17.467   1.666  1.00  0.00     0.029 A 
ATOM     52  N   UNL     1      12.350  15.449   2.210  1.00  0.00    -0.354 N 
ATOM     53  N   UNL     1      14.395  13.482   2.888  1.00  0.00    -0.248 NA
ATOM     54  C   UNL     1      16.637  12.843   3.034  1.00  0.00     0.031 C 
ATOM     55  C   UNL     1      12.998  17.479   1.582  1.00  0.00     0.029 A 
ATOM     56  C   UNL     1      13.470  16.233   1.958  1.00  0.00     0.049 A 
ATOM     57  H   UNL     1      12.375  14.507   2.493  1.00  0.00     0.167 HD
ATOM     58  C   UNL     1      15.203  14.552   2.510  1.00  0.00     0.074 A 
ATOM     59  C   UNL     1      16.573  14.111   2.658  1.00  0.00     0.031 C 
ATOM     60  C   UNL     1      14.839  15.788   2.082  1.00  0.00     0.034 A 
BRANCH  47  61
ATOM     61  C   UNL     1       8.700  16.592   1.735  1.00  0.00     0.023 A 
ATOM     62  C   UNL     1       7.721  16.978   2.667  1.00  0.00     0.031 A 
ATOM     63  C   UNL     1       8.587  17.090   0.423  1.00  0.00     0.131 A 
ATOM     64  C   UNL     1       6.639  17.774   2.259  1.00  0.00     0.055 A 
ATOM     65  C   UNL     1       7.553  17.949   0.045  1.00  0.00     0.041 A 
ATOM     66  F   UNL     1       9.481  16.745  -0.518  1.00  0.00    -0.206 F 
ATOM     67  C   UNL     1       6.562  18.283   0.961  1.00  0.00     0.022 A 
BRANCH  64  68
ATOM     68  S   UNL     1       5.257  18.011   3.410  1.00  0.00     0.124 S 
ATOM     69  O   UNL     1       4.863  16.632   3.687  1.00  0.00    -0.237 OA
ATOM     70  O   UNL     1       5.885  18.730   4.513  1.00  0.00    -0.237 OA
ATOM     71  O   UNL     1       4.290  18.783   2.631  1.00  0.00    -0.744 OA
ENDBRANCH  64  68
ENDBRANCH  47  61
BRANCH  48  72
ATOM     72  C   UNL     1      15.998  10.151   3.984  1.00  0.00     0.023 A 
ATOM     73  C   UNL     1      16.954  10.399   4.982  1.00  0.00     0.031 A 
ATOM     74  C   UNL     1      16.141   8.983   3.213  1.00  0.00     0.131 A 
ATOM     75  C   UNL     1      18.036   9.520   5.149  1.00  0.00     0.055 A 
ATOM     76  C   UNL     1      17.183   8.079   3.426  1.00  0.00     0.041 A 
ATOM     77  F   UNL     1      15.258   8.697   2.242  1.00  0.00    -0.206 F 
ATOM     78  C   UNL     1      18.148   8.354   4.390  1.00  0.00     0.022 A 
BRANCH  75  79
ATOM     79  S   UNL     1      19.354   9.976   6.309  1.00  0.00     0.124 S 
ATOM     80  O   UNL     1      19.793  11.258   5.769  1.00  0.00    -0.237 OA
ATOM     81  O   UNL     1      18.637  10.025   7.579  1.00  0.00    -0.237 OA
ATOM     82  O   UNL     1      20.314   8.882   6.179  1.00  0.00    -0.744 OA
ENDBRANCH  75  79
ENDBRANCH  48  72
BRANCH  60  83
ATOM     83  C   UNL     1      15.951  16.766   1.774  1.00  0.00     0.023 A 
ATOM     84  C   UNL     1      16.856  16.552   0.719  1.00  0.00     0.031 A 
ATOM     85  C   UNL     1      16.120  17.920   2.561  1.00  0.00     0.131 A 
ATOM     86  C   UNL     1      17.920  17.445   0.514  1.00  0.00     0.055 A 
ATOM     87  C   UNL     1      17.141  18.840   2.311  1.00  0.00     0.041 A 
ATOM     88  F   UNL     1      15.294  18.176   3.587  1.00  0.00    -0.206 F 
ATOM     89  C   UNL     1      18.057  18.598   1.291  1.00  0.00     0.022 A 
BRANCH  86  90
ATOM     90  S   UNL     1      19.185  17.028  -0.718  1.00  0.00     0.124 S 
ATOM     91  O   UNL     1      19.675  15.745  -0.227  1.00  0.00    -0.237 OA
ATOM     92  O   UNL     1      18.413  16.984  -1.956  1.00  0.00    -0.237 OA
ATOM     93  O   UNL     1      20.136  18.134  -0.622  1.00  0.00    -0.744 OA
ENDBRANCH  86  90
ENDBRANCH  60  83
ENDBRANCH  34  35
ENDBRANCH  26  29
ENDBRANCH  24  25
ENDBRANCH   1  24
TORSDOF 16
