REMARK SMILES C[C@H]1C[C@H]1CN(C)c1cccc(F)c1C(=O)NCCCNC(=O)c1ccc(-c2c3nc(c(-c4cc(S(=O)(=O)[O-])ccc4F)c4ccc([nH]4)c(-c4cc(S(=O)(=O)[O-])ccc4F)c4nc(c(-c5cc(S(=O)(=O)[O-])ccc5F)c5ccc2[nH]5)C=C4)C=C3)cc1
REMARK SMILES IDX 19 1 18 2 17 3 15 4 16 5 14 7 8 8 9 9 10 10 12 11 11 12
REMARK SMILES IDX 13 13 6 14 7 15 5 16 4 17 1 18 2 19 3 20 20 21 21 22 22 23
REMARK SMILES IDX 23 25 24 26 25 27 86 28 26 29 85 30 27 31 28 32 29 33 79 34
REMARK SMILES IDX 30 35 84 36 78 37 80 38 31 39 83 40 77 41 76 42 32 44 64 45
REMARK SMILES IDX 44 46 63 47 45 48 48 49 62 50 81 51 46 52 47 53 61 55 82 56
REMARK SMILES IDX 49 57 33 58 34 59 42 60 35 61 41 62 43 63 40 64 36 65 37 66
REMARK SMILES IDX 38 67 39 68 65 69 66 70 74 71 67 72 73 73 75 74 72 75 68 76
REMARK SMILES IDX 69 77 70 78 71 79 50 80 51 81 59 82 52 83 58 84 60 85 57 86
REMARK SMILES IDX 53 87 54 88 55 89 56 90
REMARK H PARENT 17 6 21 24 80 43 48 54
REMARK Flexibility Score: inf
ROOT
ATOM      1  C   UNL     1      -1.000   8.458  -2.029  1.00  0.00     0.042 C 
ENDROOT
BRANCH   1   2
ATOM      2  C   UNL     1      -1.700   7.155  -2.375  1.00  0.00     0.118 C 
BRANCH   2   3
ATOM      3  N   UNL     1      -1.067   6.347  -3.414  1.00  0.00    -0.352 N 
ATOM      4  C   UNL     1      -0.773   4.990  -3.455  1.00  0.00     0.256 C 
ATOM      5  O   UNL     1      -0.471   4.497  -4.540  1.00  0.00    -0.269 OA
ATOM      6  H   UNL     1      -0.804   6.848  -4.220  1.00  0.00     0.163 HD
BRANCH   4   7
ATOM      7  C   UNL     1      -0.748   4.175  -2.210  1.00  0.00     0.098 A 
ATOM      8  C   UNL     1       0.340   3.342  -1.868  1.00  0.00     0.052 A 
ATOM      9  C   UNL     1       0.411   2.873  -0.541  1.00  0.00     0.027 A 
ATOM     10  C   UNL     1      -0.611   3.095   0.379  1.00  0.00     0.005 A 
ATOM     11  C   UNL     1      -1.834   4.244  -1.332  1.00  0.00     0.138 A 
ATOM     12  C   UNL     1      -1.765   3.737  -0.038  1.00  0.00     0.040 A 
ATOM     13  F   UNL     1      -2.991   4.811  -1.712  1.00  0.00    -0.206 F 
BRANCH   8  14
ATOM     14  N   UNL     1       1.274   2.826  -2.758  1.00  0.00    -0.374 N 
ATOM     15  C   UNL     1       2.343   3.647  -3.288  1.00  0.00     0.143 C 
BRANCH  14  16
ATOM     16  C   UNL     1       0.996   1.506  -3.332  1.00  0.00     0.120 C 
BRANCH  16  17
ATOM     17  C   UNL     1       1.522   0.424  -2.423  1.00  0.00     0.011 C 
ATOM     18  C   UNL     1      -0.812  -0.282  -1.321  1.00  0.00     0.008 C 
ATOM     19  C   UNL     1       0.668  -0.395  -1.462  1.00  0.00    -0.009 C 
ATOM     20  C   UNL     1       1.229  -1.033  -2.703  1.00  0.00     0.009 C 
ENDBRANCH  16  17
ENDBRANCH  14  16
ENDBRANCH   8  14
ENDBRANCH   4   7
ENDBRANCH   2   3
ENDBRANCH   1   2
BRANCH   1  21
ATOM     21  C   UNL     1      -0.915   9.482  -3.146  1.00  0.00     0.118 C 
BRANCH  21  22
ATOM     22  N   UNL     1      -2.214   9.913  -3.642  1.00  0.00    -0.352 N 
ATOM     23  C   UNL     1      -2.861  11.127  -3.565  1.00  0.00     0.251 C 
ATOM     24  H   UNL     1      -2.720   9.214  -4.116  1.00  0.00     0.163 HD
ATOM     25  O   UNL     1      -4.031  11.197  -3.929  1.00  0.00    -0.269 OA
BRANCH  23  26
ATOM     26  C   UNL     1      -2.180  12.330  -3.030  1.00  0.00     0.039 A 
ATOM     27  C   UNL     1      -2.917  13.253  -2.280  1.00  0.00     0.014 A 
ATOM     28  C   UNL     1      -0.832  12.579  -3.288  1.00  0.00     0.014 A 
ATOM     29  C   UNL     1      -2.286  14.381  -1.744  1.00  0.00     0.010 A 
ATOM     30  C   UNL     1      -0.180  13.630  -2.654  1.00  0.00     0.010 A 
ATOM     31  C   UNL     1      -0.903  14.562  -1.898  1.00  0.00    -0.014 A 
BRANCH  31  32
ATOM     32  C   UNL     1      -0.198  15.748  -1.343  1.00  0.00     0.031 A 
ATOM     33  C   UNL     1       0.520  16.689  -2.276  1.00  0.00     0.074 A 
ATOM     34  C   UNL     1      -0.158  15.953  -0.012  1.00  0.00     0.049 A 
ATOM     35  N   UNL     1       1.273  17.721  -1.994  1.00  0.00    -0.248 NA
ATOM     36  C   UNL     1       0.408  16.410  -3.718  1.00  0.00     0.031 C 
ATOM     37  C   UNL     1      -0.788  15.097   0.996  1.00  0.00     0.029 A 
ATOM     38  N   UNL     1       0.435  16.948   0.724  1.00  0.00    -0.354 N 
ATOM     39  C   UNL     1       1.735  18.197  -3.217  1.00  0.00     0.074 A 
ATOM     40  C   UNL     1       1.243  17.297  -4.235  1.00  0.00     0.031 C 
ATOM     41  C   UNL     1      -0.590  15.630   2.212  1.00  0.00     0.029 A 
ATOM     42  C   UNL     1       0.224  16.835   2.079  1.00  0.00     0.049 A 
ATOM     43  H   UNL     1       0.963  17.674   0.321  1.00  0.00     0.167 HD
ATOM     44  C   UNL     1       2.469  19.306  -3.474  1.00  0.00     0.034 A 
ATOM     45  C   UNL     1       0.641  17.610   3.099  1.00  0.00     0.034 A 
ATOM     46  C   UNL     1       2.917  20.218  -2.454  1.00  0.00     0.049 A 
ATOM     47  C   UNL     1       1.488  18.818   2.798  1.00  0.00     0.074 A 
ATOM     48  C   UNL     1       3.614  21.402  -2.608  1.00  0.00     0.029 A 
ATOM     49  N   UNL     1       2.710  20.048  -1.092  1.00  0.00    -0.354 N 
ATOM     50  N   UNL     1       1.898  19.265   1.634  1.00  0.00    -0.248 NA
ATOM     51  C   UNL     1       1.933  19.622   3.944  1.00  0.00     0.031 C 
ATOM     52  C   UNL     1       3.886  21.915  -1.336  1.00  0.00     0.029 A 
ATOM     53  C   UNL     1       3.299  21.087  -0.392  1.00  0.00     0.049 A 
ATOM     54  H   UNL     1       2.218  19.299  -0.685  1.00  0.00     0.167 HD
ATOM     55  C   UNL     1       2.639  20.410   1.907  1.00  0.00     0.074 A 
ATOM     56  C   UNL     1       2.613  20.591   3.344  1.00  0.00     0.031 C 
ATOM     57  C   UNL     1       3.280  21.238   1.044  1.00  0.00     0.034 A 
BRANCH  44  58
ATOM     58  C   UNL     1       2.831  19.587  -4.910  1.00  0.00     0.023 A 
ATOM     59  C   UNL     1       1.848  19.877  -5.872  1.00  0.00     0.031 A 
ATOM     60  C   UNL     1       4.173  19.558  -5.326  1.00  0.00     0.131 A 
ATOM     61  C   UNL     1       2.214  20.065  -7.213  1.00  0.00     0.055 A 
ATOM     62  C   UNL     1       4.539  19.821  -6.648  1.00  0.00     0.041 A 
ATOM     63  F   UNL     1       5.153  19.268  -4.455  1.00  0.00    -0.206 F 
ATOM     64  C   UNL     1       3.555  20.065  -7.603  1.00  0.00     0.022 A 
BRANCH  61  65
ATOM     65  S   UNL     1       0.904  20.202  -8.457  1.00  0.00     0.124 S 
ATOM     66  O   UNL     1       0.263  18.893  -8.354  1.00  0.00    -0.237 OA
ATOM     67  O   UNL     1       0.123  21.335  -7.973  1.00  0.00    -0.237 OA
ATOM     68  O   UNL     1       1.635  20.435  -9.701  1.00  0.00    -0.744 OA
ENDBRANCH  61  65
ENDBRANCH  44  58
BRANCH  45  69
ATOM     69  C   UNL     1       0.255  17.264   4.495  1.00  0.00     0.023 A 
ATOM     70  C   UNL     1      -0.672  18.048   5.199  1.00  0.00     0.031 A 
ATOM     71  C   UNL     1       0.776  16.122   5.129  1.00  0.00     0.131 A 
ATOM     72  C   UNL     1      -1.046  17.684   6.503  1.00  0.00     0.055 A 
ATOM     73  C   UNL     1       0.376  15.746   6.412  1.00  0.00     0.041 A 
ATOM     74  F   UNL     1       1.656  15.335   4.491  1.00  0.00    -0.206 F 
ATOM     75  C   UNL     1      -0.539  16.530   7.107  1.00  0.00     0.022 A 
BRANCH  72  76
ATOM     76  S   UNL     1      -2.208  18.744   7.406  1.00  0.00     0.124 S 
ATOM     77  O   UNL     1      -1.430  19.967   7.566  1.00  0.00    -0.237 OA
ATOM     78  O   UNL     1      -3.337  18.816   6.485  1.00  0.00    -0.237 OA
ATOM     79  O   UNL     1      -2.460  17.998   8.638  1.00  0.00    -0.744 OA
ENDBRANCH  72  76
ENDBRANCH  45  69
BRANCH  57  80
ATOM     80  C   UNL     1       4.006  22.423   1.622  1.00  0.00     0.023 A 
ATOM     81  C   UNL     1       5.207  22.265   2.331  1.00  0.00     0.031 A 
ATOM     82  C   UNL     1       3.533  23.727   1.391  1.00  0.00     0.131 A 
ATOM     83  C   UNL     1       5.891  23.395   2.802  1.00  0.00     0.055 A 
ATOM     84  C   UNL     1       4.241  24.849   1.821  1.00  0.00     0.041 A 
ATOM     85  F   UNL     1       2.392  23.929   0.713  1.00  0.00    -0.206 F 
ATOM     86  C   UNL     1       5.426  24.686   2.534  1.00  0.00     0.022 A 
BRANCH  83  87
ATOM     87  S   UNL     1       7.392  23.157   3.790  1.00  0.00     0.124 S 
ATOM     88  O   UNL     1       6.867  22.494   4.979  1.00  0.00    -0.237 OA
ATOM     89  O   UNL     1       8.220  22.334   2.914  1.00  0.00    -0.237 OA
ATOM     90  O   UNL     1       7.881  24.518   4.003  1.00  0.00    -0.744 OA
ENDBRANCH  83  87
ENDBRANCH  57  80
ENDBRANCH  31  32
ENDBRANCH  23  26
ENDBRANCH  21  22
ENDBRANCH   1  21
TORSDOF 16
