REMARK SMILES C[C@@H](C(=O)NCCCNC(=O)c1ccc(-c2c3nc(c(-c4cc(S(=O)(=O)[O-])ccc4F)c4ccc([nH]4)c(-c4cc(S(=O)(=O)[O-])ccc4F)c4nc(c(-c5cc(S(=O)(=O)[O-])ccc5F)c5ccc2[nH]5)C=C4)C=C3)cc1)N(C)C(=O)NC[C@H]1C[N@@H+]2CCC[C@@H]2CO1
REMARK SMILES IDX 6 1 5 2 3 3 4 4 2 6 1 7 75 8 76 9 77 10 78 11 79 12 80 14
REMARK SMILES IDX 81 15 82 16 89 17 83 18 88 19 84 20 87 21 85 23 86 24 7 25
REMARK SMILES IDX 8 26 9 27 10 28 11 30 12 31 13 32 74 33 14 34 73 35 15 36
REMARK SMILES IDX 16 37 17 38 67 39 18 40 72 41 66 42 68 43 19 44 71 45 65 46
REMARK SMILES IDX 64 47 20 49 52 50 32 51 51 52 33 53 36 54 50 55 69 56 34 57
REMARK SMILES IDX 35 58 49 60 70 61 37 62 21 63 22 64 30 65 23 66 29 67 31 68
REMARK SMILES IDX 28 69 24 70 25 71 26 72 27 73 53 74 54 75 62 76 55 77 61 78
REMARK SMILES IDX 63 79 60 80 56 81 57 82 58 83 59 84 38 85 39 86 47 87 40 88
REMARK SMILES IDX 46 89 48 90 45 91 41 92 42 93 43 94 44 95
REMARK H PARENT 5 5 79 13 83 22 9 29 68 48 36 59
REMARK Flexibility Score: inf
ROOT
ATOM      1  C   UNL     1       3.273  -0.140   1.987  1.00  0.00     0.117 C 
ENDROOT
BRANCH   1   2
ATOM      2  N   UNL     1       2.176   0.617   2.556  1.00  0.00    -0.354 N 
ATOM      3  C   UNL     1       0.834   0.554   2.302  1.00  0.00     0.242 C 
ATOM      4  O   UNL     1       0.100   1.168   3.082  1.00  0.00    -0.273 OA
ATOM      5  H   UNL     1       2.439   1.282   3.233  1.00  0.00     0.163 HD
BRANCH   3   6
ATOM      6  C   UNL     1       0.294  -0.339   1.150  1.00  0.00     0.172 C 
ATOM      7  C   UNL     1       0.806   0.043  -0.243  1.00  0.00     0.042 C 
BRANCH   6   8
ATOM      8  N   UNL     1      -1.189  -0.426   1.214  1.00  0.00    -0.316 N 
ATOM      9  C   UNL     1      -1.721  -1.644   1.792  1.00  0.00     0.149 C 
BRANCH   8  10
ATOM     10  C   UNL     1      -1.911   0.658   0.793  1.00  0.00     0.317 C 
ATOM     11  O   UNL     1      -1.373   1.690   0.383  1.00  0.00    -0.249 OA
ATOM     12  N   UNL     1      -3.252   0.685   0.759  1.00  0.00    -0.335 N 
ATOM     13  H   UNL     1      -3.577   1.530   0.374  1.00  0.00     0.165 HD
BRANCH  12  14
ATOM     14  C   UNL     1      -4.360  -0.178   1.128  1.00  0.00     0.155 C 
BRANCH  14  15
ATOM     15  C   UNL     1      -4.871   0.023   2.569  1.00  0.00     0.192 C 
ATOM     16  C   UNL     1      -5.086   1.510   2.954  1.00  0.00     0.296 C 
ATOM     17  O   UNL     1      -6.053  -0.803   2.724  1.00  0.00    -0.364 OA
ATOM     18  N   UNL     1      -6.297   2.082   2.352  1.00  0.00    -0.328 N 
ATOM     19  C   UNL     1      -7.160  -0.107   3.307  1.00  0.00     0.225 C 
ATOM     20  C   UNL     1      -6.611   3.409   2.895  1.00  0.00     0.262 C 
ATOM     21  C   UNL     1      -7.467   1.199   2.555  1.00  0.00     0.210 C 
ATOM     22  H   UNL     1      -6.102   2.171   1.355  1.00  0.00     0.348 HD
ATOM     23  C   UNL     1      -8.127   3.471   2.878  1.00  0.00     0.068 C 
ATOM     24  C   UNL     1      -8.520   2.055   3.254  1.00  0.00     0.073 C 
ENDBRANCH  14  15
ENDBRANCH  12  14
ENDBRANCH   8  10
ENDBRANCH   6   8
ENDBRANCH   3   6
ENDBRANCH   1   2
BRANCH   1  25
ATOM     25  C   UNL     1       4.146   0.701   1.063  1.00  0.00     0.042 C 
BRANCH  25  26
ATOM     26  C   UNL     1       4.908   1.816   1.772  1.00  0.00     0.118 C 
BRANCH  26  27
ATOM     27  N   UNL     1       5.923   1.311   2.688  1.00  0.00    -0.352 N 
ATOM     28  C   UNL     1       7.282   1.526   2.695  1.00  0.00     0.251 C 
ATOM     29  H   UNL     1       5.587   0.731   3.409  1.00  0.00     0.163 HD
ATOM     30  O   UNL     1       7.996   0.863   3.442  1.00  0.00    -0.269 OA
BRANCH  28  31
ATOM     31  C   UNL     1       7.877   2.529   1.786  1.00  0.00     0.039 A 
ATOM     32  C   UNL     1       9.027   2.200   1.062  1.00  0.00     0.014 A 
ATOM     33  C   UNL     1       7.297   3.792   1.646  1.00  0.00     0.014 A 
ATOM     34  C   UNL     1       9.547   3.108   0.134  1.00  0.00     0.010 A 
ATOM     35  C   UNL     1       7.770   4.663   0.671  1.00  0.00     0.010 A 
ATOM     36  C   UNL     1       8.897   4.330  -0.099  1.00  0.00    -0.014 A 
BRANCH  36  37
ATOM     37  C   UNL     1       9.367   5.297  -1.125  1.00  0.00     0.031 A 
ATOM     38  C   UNL     1       9.803   6.671  -0.699  1.00  0.00     0.074 A 
ATOM     39  C   UNL     1       9.279   4.990  -2.433  1.00  0.00     0.049 A 
ATOM     40  N   UNL     1      10.033   7.734  -1.425  1.00  0.00    -0.248 NA
ATOM     41  C   UNL     1       9.953   6.881   0.747  1.00  0.00     0.031 C 
ATOM     42  C   UNL     1       8.843   3.701  -2.972  1.00  0.00     0.029 A 
ATOM     43  N   UNL     1       9.517   5.754  -3.549  1.00  0.00    -0.354 N 
ATOM     44  C   UNL     1      10.323   8.751  -0.521  1.00  0.00     0.074 A 
ATOM     45  C   UNL     1      10.180   8.183   0.804  1.00  0.00     0.031 C 
ATOM     46  C   UNL     1       8.833   3.767  -4.313  1.00  0.00     0.029 A 
ATOM     47  C   UNL     1       9.208   5.116  -4.728  1.00  0.00     0.049 A 
ATOM     48  H   UNL     1       9.873   6.671  -3.510  1.00  0.00     0.167 HD
ATOM     49  C   UNL     1      10.689  10.033  -0.775  1.00  0.00     0.034 A 
ATOM     50  C   UNL     1       9.191   5.573  -5.996  1.00  0.00     0.034 A 
ATOM     51  C   UNL     1      10.833  10.572  -2.106  1.00  0.00     0.049 A 
ATOM     52  C   UNL     1       9.578   7.004  -6.264  1.00  0.00     0.074 A 
ATOM     53  C   UNL     1      11.253  11.835  -2.486  1.00  0.00     0.029 A 
ATOM     54  N   UNL     1      10.549   9.881  -3.278  1.00  0.00    -0.354 N 
ATOM     55  N   UNL     1       9.886   7.949  -5.405  1.00  0.00    -0.248 NA
ATOM     56  C   UNL     1       9.623   7.429  -7.669  1.00  0.00     0.031 C 
ATOM     57  C   UNL     1      11.159  11.928  -3.879  1.00  0.00     0.029 A 
ATOM     58  C   UNL     1      10.758  10.699  -4.378  1.00  0.00     0.049 A 
ATOM     59  H   UNL     1      10.245   8.945  -3.321  1.00  0.00     0.167 HD
ATOM     60  C   UNL     1      10.192   9.071  -6.169  1.00  0.00     0.074 A 
ATOM     61  C   UNL     1      10.029   8.687  -7.556  1.00  0.00     0.031 C 
ATOM     62  C   UNL     1      10.587  10.303  -5.757  1.00  0.00     0.034 A 
BRANCH  49  63
ATOM     63  C   UNL     1      10.914  10.934   0.419  1.00  0.00     0.023 A 
ATOM     64  C   UNL     1      11.886  10.639   1.393  1.00  0.00     0.031 A 
ATOM     65  C   UNL     1      10.100  12.060   0.629  1.00  0.00     0.131 A 
ATOM     66  C   UNL     1      11.940  11.386   2.579  1.00  0.00     0.055 A 
ATOM     67  C   UNL     1      10.228  12.861   1.766  1.00  0.00     0.041 A 
ATOM     68  F   UNL     1       9.143  12.387  -0.254  1.00  0.00    -0.206 F 
ATOM     69  C   UNL     1      11.136  12.511   2.762  1.00  0.00     0.022 A 
BRANCH  66  70
ATOM     70  S   UNL     1      12.932  10.742   3.955  1.00  0.00     0.124 S 
ATOM     71  O   UNL     1      12.366   9.406   4.128  1.00  0.00    -0.237 OA
ATOM     72  O   UNL     1      14.287  10.797   3.420  1.00  0.00    -0.237 OA
ATOM     73  O   UNL     1      12.651  11.674   5.045  1.00  0.00    -0.744 OA
ENDBRANCH  66  70
ENDBRANCH  49  63
BRANCH  50  74
ATOM     74  C   UNL     1       8.760   4.672  -7.101  1.00  0.00     0.023 A 
ATOM     75  C   UNL     1       9.673   4.210  -8.061  1.00  0.00     0.031 A 
ATOM     76  C   UNL     1       7.422   4.248  -7.202  1.00  0.00     0.131 A 
ATOM     77  C   UNL     1       9.232   3.370  -9.096  1.00  0.00     0.055 A 
ATOM     78  C   UNL     1       6.997   3.380  -8.208  1.00  0.00     0.041 A 
ATOM     79  F   UNL     1       6.513   4.652  -6.300  1.00  0.00    -0.206 F 
ATOM     80  C   UNL     1       7.904   2.942  -9.168  1.00  0.00     0.022 A 
BRANCH  77  81
ATOM     81  S   UNL     1      10.416   2.871 -10.376  1.00  0.00     0.124 S 
ATOM     82  O   UNL     1      10.784   4.157 -10.958  1.00  0.00    -0.237 OA
ATOM     83  O   UNL     1      11.448   2.203  -9.591  1.00  0.00    -0.237 OA
ATOM     84  O   UNL     1       9.631   1.994 -11.242  1.00  0.00    -0.744 OA
ENDBRANCH  77  81
ENDBRANCH  50  74
BRANCH  62  85
ATOM     85  C   UNL     1      10.934  11.312  -6.824  1.00  0.00     0.023 A 
ATOM     86  C   UNL     1       9.956  11.903  -7.641  1.00  0.00     0.031 A 
ATOM     87  C   UNL     1      12.273  11.708  -6.997  1.00  0.00     0.131 A 
ATOM     88  C   UNL     1      10.337  12.840  -8.615  1.00  0.00     0.055 A 
ATOM     89  C   UNL     1      12.639  12.675  -7.933  1.00  0.00     0.041 A 
ATOM     90  F   UNL     1      13.246  11.171  -6.242  1.00  0.00    -0.206 F 
ATOM     91  C   UNL     1      11.669  13.242  -8.754  1.00  0.00     0.022 A 
BRANCH  88  92
ATOM     92  S   UNL     1       9.075  13.498  -9.740  1.00  0.00     0.124 S 
ATOM     93  O   UNL     1       8.623  12.292 -10.427  1.00  0.00    -0.237 OA
ATOM     94  O   UNL     1       8.119  14.104  -8.819  1.00  0.00    -0.237 OA
ATOM     95  O   UNL     1       9.816  14.444 -10.572  1.00  0.00    -0.744 OA
ENDBRANCH  88  92
ENDBRANCH  62  85
ENDBRANCH  36  37
ENDBRANCH  28  31
ENDBRANCH  26  27
ENDBRANCH  25  26
ENDBRANCH   1  25
TORSDOF 17
