REMARK SMILES O=C(NCCCNC(=O)C1(CCc2ccccn2)CCCCC1)c1ccc(-c2c3nc(c(-c4cc(S(=O)(=O)[O-])ccc4F)c4ccc([nH]4)c(-c4cc(S(=O)(=O)[O-])ccc4F)c4nc(c(-c5cc(S(=O)(=O)[O-])ccc5F)c5ccc2[nH]5)C=C4)C=C3)cc1
REMARK SMILES IDX 5 1 4 2 3 3 1 4 2 5 24 7 25 8 86 9 26 10 85 11 27 12 28 13
REMARK SMILES IDX 29 14 79 15 30 16 84 17 78 18 80 19 31 20 83 21 77 22 76 23
REMARK SMILES IDX 32 25 64 26 44 27 63 28 45 29 48 30 62 31 81 32 46 33 47 34
REMARK SMILES IDX 61 36 82 37 49 38 33 39 34 40 42 41 35 42 41 43 43 44 40 45
REMARK SMILES IDX 36 46 37 47 38 48 39 49 65 50 66 51 74 52 67 53 73 54 75 55
REMARK SMILES IDX 72 56 68 57 69 58 70 59 71 60 50 61 51 62 59 63 52 64 58 65
REMARK SMILES IDX 60 66 57 67 53 68 54 69 55 70 56 71 6 72 7 73 8 74 9 76
REMARK SMILES IDX 10 77 19 78 23 79 20 80 22 81 21 82 11 83 12 84 13 85 14 86
REMARK SMILES IDX 18 87 15 88 17 89 16 90
REMARK H PARENT 3 6 80 24 48 35 7 75
REMARK Flexibility Score: inf
ROOT
ATOM      1  C   UNL     1       5.083   0.863  -2.332  1.00  0.00     0.042 C 
ENDROOT
BRANCH   1   2
ATOM      2  C   UNL     1       4.668   0.621  -0.892  1.00  0.00     0.118 C 
BRANCH   2   3
ATOM      3  N   UNL     1       3.213   0.633  -0.701  1.00  0.00    -0.352 N 
ATOM      4  O   UNL     1       1.215  -0.124   0.040  1.00  0.00    -0.269 OA
ATOM      5  C   UNL     1       2.439  -0.209   0.060  1.00  0.00     0.251 C 
ATOM      6  H   UNL     1       2.726   1.339  -1.184  1.00  0.00     0.163 HD
BRANCH   5   7
ATOM      7  C   UNL     1       3.118  -1.234   0.870  1.00  0.00     0.039 A 
ATOM      8  C   UNL     1       4.233  -0.870   1.624  1.00  0.00     0.014 A 
ATOM      9  C   UNL     1       2.713  -2.568   0.786  1.00  0.00     0.014 A 
ATOM     10  C   UNL     1       5.061  -1.858   2.120  1.00  0.00     0.010 A 
ATOM     11  C   UNL     1       3.484  -3.555   1.403  1.00  0.00     0.010 A 
ATOM     12  C   UNL     1       4.686  -3.210   2.038  1.00  0.00    -0.014 A 
BRANCH  12  13
ATOM     13  C   UNL     1       5.561  -4.213   2.690  1.00  0.00     0.031 A 
ATOM     14  C   UNL     1       6.263  -5.276   1.893  1.00  0.00     0.074 A 
ATOM     15  C   UNL     1       5.778  -4.080   4.013  1.00  0.00     0.049 A 
ATOM     16  N   UNL     1       7.092  -6.198   2.309  1.00  0.00    -0.248 NA
ATOM     17  C   UNL     1       5.995  -5.320   0.447  1.00  0.00     0.031 C 
ATOM     18  C   UNL     1       5.136  -3.075   4.869  1.00  0.00     0.029 A 
ATOM     19  N   UNL     1       6.622  -4.742   4.862  1.00  0.00    -0.354 N 
ATOM     20  C   UNL     1       7.426  -6.949   1.187  1.00  0.00     0.074 A 
ATOM     21  C   UNL     1       6.692  -6.385   0.073  1.00  0.00     0.031 C 
ATOM     22  C   UNL     1       5.673  -3.129   6.094  1.00  0.00     0.029 A 
ATOM     23  C   UNL     1       6.621  -4.233   6.140  1.00  0.00     0.049 A 
ATOM     24  H   UNL     1       7.176  -5.507   4.586  1.00  0.00     0.167 HD
ATOM     25  C   UNL     1       8.267  -8.010   1.105  1.00  0.00     0.034 A 
ATOM     26  C   UNL     1       7.293  -4.625   7.238  1.00  0.00     0.034 A 
ATOM     27  C   UNL     1       8.992  -8.544   2.236  1.00  0.00     0.049 A 
ATOM     28  C   UNL     1       8.224  -5.796   7.111  1.00  0.00     0.074 A 
ATOM     29  C   UNL     1       9.857  -9.623   2.279  1.00  0.00     0.029 A 
ATOM     30  N   UNL     1       8.940  -8.029   3.527  1.00  0.00    -0.354 N 
ATOM     31  N   UNL     1       8.498  -6.516   6.047  1.00  0.00    -0.248 NA
ATOM     32  C   UNL     1       8.930  -6.208   8.326  1.00  0.00     0.031 C 
ATOM     33  C   UNL     1      10.288  -9.791   3.601  1.00  0.00     0.029 A 
ATOM     34  C   UNL     1       9.743  -8.778   4.374  1.00  0.00     0.049 A 
ATOM     35  H   UNL     1       8.409  -7.247   3.800  1.00  0.00     0.167 HD
ATOM     36  C   UNL     1       9.404  -7.480   6.470  1.00  0.00     0.074 A 
ATOM     37  C   UNL     1       9.667  -7.210   7.872  1.00  0.00     0.031 C 
ATOM     38  C   UNL     1       9.957  -8.506   5.775  1.00  0.00     0.034 A 
BRANCH  25  39
ATOM     39  C   UNL     1       8.405  -8.693  -0.236  1.00  0.00     0.023 A 
ATOM     40  C   UNL     1       8.998  -8.055  -1.339  1.00  0.00     0.031 A 
ATOM     41  C   UNL     1       7.926 -10.004  -0.414  1.00  0.00     0.131 A 
ATOM     42  C   UNL     1       9.053  -8.709  -2.582  1.00  0.00     0.055 A 
ATOM     43  C   UNL     1       8.043 -10.674  -1.634  1.00  0.00     0.041 A 
ATOM     44  F   UNL     1       7.330 -10.655   0.597  1.00  0.00    -0.206 F 
ATOM     45  C   UNL     1       8.601 -10.023  -2.730  1.00  0.00     0.022 A 
BRANCH  42  46
ATOM     46  S   UNL     1       9.626  -7.782  -4.032  1.00  0.00     0.124 S 
ATOM     47  O   UNL     1       8.639  -6.707  -4.105  1.00  0.00    -0.237 OA
ATOM     48  O   UNL     1      10.974  -7.384  -3.641  1.00  0.00    -0.237 OA
ATOM     49  O   UNL     1       9.554  -8.759  -5.116  1.00  0.00    -0.744 OA
ENDBRANCH  42  46
ENDBRANCH  25  39
BRANCH  26  50
ATOM     50  C   UNL     1       7.064  -3.942   8.541  1.00  0.00     0.023 A 
ATOM     51  C   UNL     1       8.098  -3.261   9.201  1.00  0.00     0.031 A 
ATOM     52  C   UNL     1       5.797  -3.971   9.155  1.00  0.00     0.131 A 
ATOM     53  C   UNL     1       7.857  -2.667  10.450  1.00  0.00     0.055 A 
ATOM     54  C   UNL     1       5.548  -3.329  10.368  1.00  0.00     0.041 A 
ATOM     55  F   UNL     1       4.771  -4.604   8.565  1.00  0.00    -0.206 F 
ATOM     56  C   UNL     1       6.586  -2.683  11.029  1.00  0.00     0.022 A 
BRANCH  53  57
ATOM     57  S   UNL     1       9.254  -1.946  11.353  1.00  0.00     0.124 S 
ATOM     58  O   UNL     1      10.199  -3.057  11.381  1.00  0.00    -0.237 OA
ATOM     59  O   UNL     1       9.614  -0.819  10.499  1.00  0.00    -0.237 OA
ATOM     60  O   UNL     1       8.674  -1.588  12.645  1.00  0.00    -0.744 OA
ENDBRANCH  53  57
ENDBRANCH  26  50
BRANCH  38  61
ATOM     61  C   UNL     1      10.893  -9.396   6.550  1.00  0.00     0.023 A 
ATOM     62  C   UNL     1      10.421 -10.215   7.590  1.00  0.00     0.031 A 
ATOM     63  C   UNL     1      12.274  -9.373   6.293  1.00  0.00     0.131 A 
ATOM     64  C   UNL     1      11.331 -10.921   8.387  1.00  0.00     0.055 A 
ATOM     65  C   UNL     1      13.170 -10.127   7.052  1.00  0.00     0.041 A 
ATOM     66  F   UNL     1      12.774  -8.604   5.312  1.00  0.00    -0.206 F 
ATOM     67  C   UNL     1      12.702 -10.892   8.117  1.00  0.00     0.022 A 
BRANCH  64  68
ATOM     68  S   UNL     1      10.708 -11.781   9.857  1.00  0.00     0.124 S 
ATOM     69  O   UNL     1      10.064 -10.698  10.593  1.00  0.00    -0.237 OA
ATOM     70  O   UNL     1       9.814 -12.779   9.279  1.00  0.00    -0.237 OA
ATOM     71  O   UNL     1      11.918 -12.319  10.478  1.00  0.00    -0.744 OA
ENDBRANCH  64  68
ENDBRANCH  38  61
ENDBRANCH  12  13
ENDBRANCH   5   7
ENDBRANCH   2   3
ENDBRANCH   1   2
BRANCH   1  72
ATOM     72  C   UNL     1       4.675   2.244  -2.793  1.00  0.00     0.117 C 
BRANCH  72  73
ATOM     73  N   UNL     1       5.661   3.262  -2.532  1.00  0.00    -0.356 N 
ATOM     74  C   UNL     1       6.311   4.123  -3.356  1.00  0.00     0.226 C 
ATOM     75  H   UNL     1       5.909   3.349  -1.583  1.00  0.00     0.163 HD
ATOM     76  O   UNL     1       6.903   5.048  -2.786  1.00  0.00    -0.274 OA
BRANCH  74  77
ATOM     77  C   UNL     1       6.345   3.970  -4.906  1.00  0.00     0.050 C 
ATOM     78  C   UNL     1       7.655   4.740  -5.324  1.00  0.00     0.017 C 
ATOM     79  C   UNL     1       6.521   2.487  -5.340  1.00  0.00     0.017 C 
ATOM     80  C   UNL     1       8.129   4.506  -6.753  1.00  0.00     0.001 C 
ATOM     81  C   UNL     1       7.073   2.254  -6.747  1.00  0.00     0.001 C 
ATOM     82  C   UNL     1       8.353   3.026  -7.003  1.00  0.00     0.000 C 
BRANCH  77  83
ATOM     83  C   UNL     1       5.148   4.697  -5.611  1.00  0.00     0.023 C 
BRANCH  83  84
ATOM     84  C   UNL     1       3.681   4.316  -5.314  1.00  0.00     0.057 C 
BRANCH  84  85
ATOM     85  C   UNL     1       3.112   4.789  -3.995  1.00  0.00     0.040 A 
ATOM     86  C   UNL     1       2.031   4.123  -3.412  1.00  0.00     0.024 A 
ATOM     87  N   UNL     1       3.697   5.851  -3.399  1.00  0.00    -0.261 NA
ATOM     88  C   UNL     1       1.621   4.492  -2.131  1.00  0.00     0.003 A 
ATOM     89  C   UNL     1       3.283   6.188  -2.158  1.00  0.00     0.111 A 
ATOM     90  C   UNL     1       2.269   5.534  -1.482  1.00  0.00     0.020 A 
ENDBRANCH  84  85
ENDBRANCH  83  84
ENDBRANCH  77  83
ENDBRANCH  74  77
ENDBRANCH  72  73
ENDBRANCH   1  72
TORSDOF 16
