REMARK SMILES O=C(/C=C/C(=O)Nc1ccc2[nH]ncc2c1)NCCCNC(=O)c1ccc(-c2c3nc(c(-c4cc(S(=O)(=O)[O-])ccc4F)c4ccc([nH]4)c(-c4cc(S(=O)(=O)[O-])ccc4F)c4nc(c(-c5cc(S(=O)(=O)[O-])ccc5F)c5ccc2[nH]5)C=C4)C=C3)cc1
REMARK SMILES IDX 19 1 18 2 17 3 1 4 2 5 3 7 4 8 5 9 6 10 7 11 8 13 9 14 16 15
REMARK SMILES IDX 10 16 15 17 11 18 14 19 12 20 13 21 20 23 21 24 22 25 23 27
REMARK SMILES IDX 24 28 25 29 86 30 26 31 85 32 27 33 28 34 29 35 79 36 30 37
REMARK SMILES IDX 84 38 78 39 80 40 31 41 83 42 77 43 76 44 32 46 64 47 44 48
REMARK SMILES IDX 63 49 45 50 48 51 62 52 81 53 46 54 47 55 61 57 82 58 49 59
REMARK SMILES IDX 33 60 34 61 42 62 35 63 41 64 43 65 40 66 36 67 37 68 38 69
REMARK SMILES IDX 39 70 65 71 66 72 74 73 67 74 73 75 75 76 72 77 68 78 69 79
REMARK SMILES IDX 70 80 71 81 50 82 51 83 59 84 52 85 58 86 60 87 57 88 53 89
REMARK SMILES IDX 54 90 55 91 56 92
REMARK H PARENT 17 6 7 12 12 22 21 26 80 45 48 56
REMARK Flexibility Score: inf
ROOT
ATOM      1  C   UNL     1       2.443   3.405   1.118  1.00  0.00     0.042 C 
ENDROOT
BRANCH   1   2
ATOM      2  C   UNL     1       2.293   2.578  -0.156  1.00  0.00     0.118 C 
BRANCH   2   3
ATOM      3  N   UNL     1       3.038   1.338  -0.090  1.00  0.00    -0.352 N 
ATOM      4  O   UNL     1       1.309   0.109   0.784  1.00  0.00    -0.270 OA
ATOM      5  C   UNL     1       2.472   0.197   0.400  1.00  0.00     0.244 C 
ATOM      6  H   UNL     1       3.970   1.318  -0.406  1.00  0.00     0.163 HD
BRANCH   5   7
ATOM      7  C   UNL     1       3.357  -0.980   0.493  1.00  0.00     0.077 C 
ATOM      8  C   UNL     1       4.339  -1.267  -0.376  1.00  0.00     0.077 C 
BRANCH   8   9
ATOM      9  C   UNL     1       5.043  -2.570  -0.300  1.00  0.00     0.248 C 
ATOM     10  O   UNL     1       6.271  -2.587  -0.280  1.00  0.00    -0.270 OA
ATOM     11  N   UNL     1       4.319  -3.731  -0.200  1.00  0.00    -0.322 N 
ATOM     12  H   UNL     1       4.833  -4.529   0.060  1.00  0.00     0.170 HD
BRANCH  11  13
ATOM     13  C   UNL     1       2.944  -3.942  -0.417  1.00  0.00     0.042 A 
ATOM     14  C   UNL     1       2.216  -3.208  -1.362  1.00  0.00     0.028 A 
ATOM     15  C   UNL     1       2.298  -4.879   0.401  1.00  0.00     0.038 A 
ATOM     16  C   UNL     1       0.822  -3.274  -1.425  1.00  0.00     0.030 A 
ATOM     17  C   UNL     1       0.893  -4.933   0.373  1.00  0.00     0.022 A 
ATOM     18  C   UNL     1       0.194  -4.121  -0.513  1.00  0.00     0.065 A 
ATOM     19  C   UNL     1      -0.115  -5.620   1.086  1.00  0.00     0.143 A 
ATOM     20  N   UNL     1      -1.130  -4.348  -0.246  1.00  0.00    -0.278 N 
ATOM     21  N   UNL     1      -1.347  -5.280   0.700  1.00  0.00    -0.183 NA
ATOM     22  H   UNL     1      -1.859  -3.871  -0.705  1.00  0.00     0.190 HD
ENDBRANCH  11  13
ENDBRANCH   8   9
ENDBRANCH   5   7
ENDBRANCH   2   3
ENDBRANCH   1   2
BRANCH   1  23
ATOM     23  C   UNL     1       3.884   3.782   1.451  1.00  0.00     0.118 C 
BRANCH  23  24
ATOM     24  N   UNL     1       4.517   4.569   0.406  1.00  0.00    -0.352 N 
ATOM     25  C   UNL     1       5.261   5.718   0.493  1.00  0.00     0.251 C 
ATOM     26  H   UNL     1       4.392   4.224  -0.508  1.00  0.00     0.163 HD
ATOM     27  O   UNL     1       5.569   6.303  -0.544  1.00  0.00    -0.269 OA
BRANCH  25  28
ATOM     28  C   UNL     1       5.667   6.268   1.807  1.00  0.00     0.039 A 
ATOM     29  C   UNL     1       5.633   7.654   1.986  1.00  0.00     0.014 A 
ATOM     30  C   UNL     1       6.117   5.444   2.843  1.00  0.00     0.014 A 
ATOM     31  C   UNL     1       6.007   8.208   3.212  1.00  0.00     0.010 A 
ATOM     32  C   UNL     1       6.425   5.993   4.088  1.00  0.00     0.010 A 
ATOM     33  C   UNL     1       6.384   7.382   4.282  1.00  0.00    -0.014 A 
BRANCH  33  34
ATOM     34  C   UNL     1       6.757   7.966   5.598  1.00  0.00     0.031 A 
ATOM     35  C   UNL     1       8.166   7.835   6.114  1.00  0.00     0.074 A 
ATOM     36  C   UNL     1       5.820   8.586   6.341  1.00  0.00     0.049 A 
ATOM     37  N   UNL     1       8.678   8.255   7.243  1.00  0.00    -0.248 NA
ATOM     38  C   UNL     1       9.115   7.109   5.258  1.00  0.00     0.031 C 
ATOM     39  C   UNL     1       4.411   8.736   5.971  1.00  0.00     0.029 A 
ATOM     40  N   UNL     1       5.909   9.204   7.563  1.00  0.00    -0.354 N 
ATOM     41  C   UNL     1      10.004   7.836   7.238  1.00  0.00     0.074 A 
ATOM     42  C   UNL     1      10.196   7.074   6.022  1.00  0.00     0.031 C 
ATOM     43  C   UNL     1       3.775   9.426   6.931  1.00  0.00     0.029 A 
ATOM     44  C   UNL     1       4.719   9.738   8.000  1.00  0.00     0.049 A 
ATOM     45  H   UNL     1       6.745   9.260   8.079  1.00  0.00     0.167 HD
ATOM     46  C   UNL     1      10.978   8.084   8.151  1.00  0.00     0.034 A 
ATOM     47  C   UNL     1       4.421  10.404   9.133  1.00  0.00     0.034 A 
ATOM     48  C   UNL     1      10.774   8.854   9.354  1.00  0.00     0.049 A 
ATOM     49  C   UNL     1       5.521  10.676  10.127  1.00  0.00     0.074 A 
ATOM     50  C   UNL     1      11.697   9.199  10.327  1.00  0.00     0.029 A 
ATOM     51  N   UNL     1       9.559   9.399   9.754  1.00  0.00    -0.354 N 
ATOM     52  N   UNL     1       6.783  10.315  10.085  1.00  0.00    -0.248 NA
ATOM     53  C   UNL     1       5.158  11.466  11.311  1.00  0.00     0.031 C 
ATOM     54  C   UNL     1      11.030   9.901  11.339  1.00  0.00     0.029 A 
ATOM     55  C   UNL     1       9.705  10.059  10.965  1.00  0.00     0.049 A 
ATOM     56  H   UNL     1       8.716   9.327   9.250  1.00  0.00     0.167 HD
ATOM     57  C   UNL     1       7.371  10.864  11.222  1.00  0.00     0.074 A 
ATOM     58  C   UNL     1       6.329  11.594  11.915  1.00  0.00     0.031 C 
ATOM     59  C   UNL     1       8.656  10.775  11.653  1.00  0.00     0.034 A 
BRANCH  46  60
ATOM     60  C   UNL     1      12.342   7.489   7.884  1.00  0.00     0.023 A 
ATOM     61  C   UNL     1      13.097   7.851   6.754  1.00  0.00     0.031 A 
ATOM     62  C   UNL     1      12.882   6.521   8.749  1.00  0.00     0.131 A 
ATOM     63  C   UNL     1      14.303   7.191   6.474  1.00  0.00     0.055 A 
ATOM     64  C   UNL     1      14.124   5.929   8.511  1.00  0.00     0.041 A 
ATOM     65  F   UNL     1      12.201   6.119   9.835  1.00  0.00    -0.206 F 
ATOM     66  C   UNL     1      14.835   6.250   7.358  1.00  0.00     0.022 A 
BRANCH  63  67
ATOM     67  S   UNL     1      15.090   7.470   4.863  1.00  0.00     0.124 S 
ATOM     68  O   UNL     1      14.038   7.041   3.944  1.00  0.00    -0.237 OA
ATOM     69  O   UNL     1      15.369   8.901   4.892  1.00  0.00    -0.237 OA
ATOM     70  O   UNL     1      16.265   6.603   4.901  1.00  0.00    -0.744 OA
ENDBRANCH  63  67
ENDBRANCH  46  60
BRANCH  47  71
ATOM     71  C   UNL     1       3.030  10.871   9.391  1.00  0.00     0.023 A 
ATOM     72  C   UNL     1       2.726  12.241   9.452  1.00  0.00     0.031 A 
ATOM     73  C   UNL     1       1.991   9.953   9.623  1.00  0.00     0.131 A 
ATOM     74  C   UNL     1       1.428  12.655   9.787  1.00  0.00     0.055 A 
ATOM     75  C   UNL     1       0.689  10.370   9.907  1.00  0.00     0.041 A 
ATOM     76  F   UNL     1       2.227   8.633   9.568  1.00  0.00    -0.206 F 
ATOM     77  C   UNL     1       0.405  11.729  10.004  1.00  0.00     0.022 A 
BRANCH  74  78
ATOM     78  S   UNL     1       1.114  14.426  10.016  1.00  0.00     0.124 S 
ATOM     79  O   UNL     1       2.066  14.764  11.068  1.00  0.00    -0.237 OA
ATOM     80  O   UNL     1       1.407  14.959   8.689  1.00  0.00    -0.237 OA
ATOM     81  O   UNL     1      -0.293  14.475  10.407  1.00  0.00    -0.744 OA
ENDBRANCH  74  78
ENDBRANCH  47  71
BRANCH  59  82
ATOM     82  C   UNL     1       9.006  11.534  12.911  1.00  0.00     0.023 A 
ATOM     83  C   UNL     1       8.454  11.195  14.159  1.00  0.00     0.031 A 
ATOM     84  C   UNL     1       9.873  12.639  12.850  1.00  0.00     0.131 A 
ATOM     85  C   UNL     1       8.717  11.996  15.280  1.00  0.00     0.055 A 
ATOM     86  C   UNL     1      10.183  13.393  13.983  1.00  0.00     0.041 A 
ATOM     87  F   UNL     1      10.429  13.009  11.685  1.00  0.00    -0.206 F 
ATOM     88  C   UNL     1       9.590  13.084  15.203  1.00  0.00     0.022 A 
BRANCH  85  89
ATOM     89  S   UNL     1       7.808  11.668  16.816  1.00  0.00     0.124 S 
ATOM     90  O   UNL     1       6.421  11.733  16.369  1.00  0.00    -0.237 OA
ATOM     91  O   UNL     1       8.296  10.345  17.189  1.00  0.00    -0.237 OA
ATOM     92  O   UNL     1       8.226  12.755  17.701  1.00  0.00    -0.744 OA
ENDBRANCH  85  89
ENDBRANCH  59  82
ENDBRANCH  33  34
ENDBRANCH  25  28
ENDBRANCH  23  24
ENDBRANCH   1  23
TORSDOF 15
