REMARK SMILES O=C(/C=N/O)Nc1cccc(C(=O)NCCCNC(=O)c2ccc(-c3c4nc(c(-c5cc(S(=O)(=O)[O-])ccc5F)c5ccc([nH]5)c(-c5cc(S(=O)(=O)[O-])ccc5F)c5nc(c(-c6cc(S(=O)(=O)[O-])ccc6F)c6ccc3[nH]6)C=C5)C=C4)cc2)c1
REMARK SMILES IDX 16 1 15 2 14 3 12 4 13 5 11 7 7 8 8 9 84 10 9 11 10 12 6 13
REMARK SMILES IDX 1 14 2 15 3 17 4 18 5 19 17 21 18 22 19 23 20 25 21 26 22 27
REMARK SMILES IDX 83 28 23 29 82 30 24 31 25 32 26 33 76 34 27 35 81 36 75 37
REMARK SMILES IDX 77 38 28 39 80 40 74 41 73 42 29 44 61 45 41 46 60 47 42 48
REMARK SMILES IDX 45 49 59 50 78 51 43 52 44 53 58 55 79 56 46 57 30 58 31 59
REMARK SMILES IDX 39 60 32 61 38 62 40 63 37 64 33 65 34 66 35 67 36 68 62 69
REMARK SMILES IDX 63 70 71 71 64 72 70 73 72 74 69 75 65 76 66 77 67 78 68 79
REMARK SMILES IDX 47 80 48 81 56 82 49 83 55 84 57 85 54 86 50 87 51 88 52 89
REMARK SMILES IDX 53 90
REMARK H PARENT 14 6 6 16 5 20 18 24 77 43 45 54
REMARK Flexibility Score: inf
ROOT
ATOM      1  C   UNL     1       0.223  -3.583  -1.994  1.00  0.00     0.042 C 
ENDROOT
BRANCH   1   2
ATOM      2  C   UNL     1      -0.243  -2.866  -0.736  1.00  0.00     0.118 C 
BRANCH   2   3
ATOM      3  N   UNL     1      -0.751  -3.743   0.318  1.00  0.00    -0.352 N 
ATOM      4  C   UNL     1      -0.419  -3.890   1.650  1.00  0.00     0.251 C 
ATOM      5  O   UNL     1      -1.032  -4.721   2.320  1.00  0.00    -0.269 OA
ATOM      6  H   UNL     1      -1.471  -4.346   0.020  1.00  0.00     0.163 HD
BRANCH   4   7
ATOM      7  C   UNL     1       0.702  -3.143   2.283  1.00  0.00     0.041 A 
ATOM      8  C   UNL     1       2.331  -1.359   2.167  1.00  0.00     0.042 A 
ATOM      9  C   UNL     1       3.098  -2.001   3.142  1.00  0.00     0.026 A 
ATOM     10  C   UNL     1       1.067  -1.864   1.870  1.00  0.00     0.040 A 
ATOM     11  C   UNL     1       2.633  -3.177   3.740  1.00  0.00     0.003 A 
ATOM     12  C   UNL     1       1.458  -3.773   3.277  1.00  0.00     0.014 A 
BRANCH   8  13
ATOM     13  N   UNL     1       2.921  -0.326   1.407  1.00  0.00    -0.321 N 
ATOM     14  O   UNL     1       1.167   0.351  -0.005  1.00  0.00    -0.268 OA
ATOM     15  C   UNL     1       2.339   0.323   0.330  1.00  0.00     0.270 C 
ATOM     16  H   UNL     1       3.827  -0.041   1.665  1.00  0.00     0.170 HD
BRANCH  15  17
ATOM     17  C   UNL     1       3.311   1.053  -0.558  1.00  0.00     0.225 C 
ATOM     18  N   UNL     1       4.590   0.937  -0.393  1.00  0.00    -0.092 NA
BRANCH  18  19
ATOM     19  O   UNL     1       5.221   1.686  -1.399  1.00  0.00    -0.411 OA
ATOM     20  H   UNL     1       6.156   1.721  -1.440  1.00  0.00     0.330 HD
ENDBRANCH  18  19
ENDBRANCH  15  17
ENDBRANCH   8  13
ENDBRANCH   4   7
ENDBRANCH   2   3
ENDBRANCH   1   2
BRANCH   1  21
ATOM     21  C   UNL     1      -0.877  -4.259  -2.794  1.00  0.00     0.118 C 
BRANCH  21  22
ATOM     22  N   UNL     1      -1.858  -3.321  -3.326  1.00  0.00    -0.352 N 
ATOM     23  C   UNL     1      -2.064  -2.850  -4.603  1.00  0.00     0.251 C 
ATOM     24  H   UNL     1      -2.481  -2.961  -2.655  1.00  0.00     0.163 HD
ATOM     25  O   UNL     1      -2.846  -1.918  -4.775  1.00  0.00    -0.269 OA
BRANCH  23  26
ATOM     26  C   UNL     1      -1.336  -3.424  -5.758  1.00  0.00     0.039 A 
ATOM     27  C   UNL     1      -0.871  -2.567  -6.761  1.00  0.00     0.014 A 
ATOM     28  C   UNL     1      -1.118  -4.798  -5.872  1.00  0.00     0.014 A 
ATOM     29  C   UNL     1      -0.104  -3.076  -7.814  1.00  0.00     0.010 A 
ATOM     30  C   UNL     1      -0.271  -5.289  -6.861  1.00  0.00     0.010 A 
ATOM     31  C   UNL     1       0.255  -4.433  -7.840  1.00  0.00    -0.014 A 
BRANCH  31  32
ATOM     32  C   UNL     1       1.193  -4.975  -8.860  1.00  0.00     0.031 A 
ATOM     33  C   UNL     1       0.749  -6.072  -9.792  1.00  0.00     0.074 A 
ATOM     34  C   UNL     1       2.470  -4.541  -8.886  1.00  0.00     0.049 A 
ATOM     35  N   UNL     1       1.449  -6.752 -10.662  1.00  0.00    -0.248 NA
ATOM     36  C   UNL     1      -0.663  -6.477  -9.710  1.00  0.00     0.031 C 
ATOM     37  C   UNL     1       3.030  -3.512  -8.005  1.00  0.00     0.029 A 
ATOM     38  N   UNL     1       3.535  -4.918  -9.667  1.00  0.00    -0.354 N 
ATOM     39  C   UNL     1       0.571  -7.677 -11.217  1.00  0.00     0.074 A 
ATOM     40  C   UNL     1      -0.698  -7.506 -10.544  1.00  0.00     0.031 C 
ATOM     41  C   UNL     1       4.324  -3.327  -8.310  1.00  0.00     0.029 A 
ATOM     42  C   UNL     1       4.707  -4.262  -9.361  1.00  0.00     0.049 A 
ATOM     43  H   UNL     1       3.467  -5.594 -10.380  1.00  0.00     0.167 HD
ATOM     44  C   UNL     1       0.800  -8.573 -12.210  1.00  0.00     0.034 A 
ATOM     45  C   UNL     1       5.955  -4.414  -9.850  1.00  0.00     0.034 A 
ATOM     46  C   UNL     1       2.069  -8.718 -12.880  1.00  0.00     0.049 A 
ATOM     47  C   UNL     1       6.191  -5.442 -10.928  1.00  0.00     0.074 A 
ATOM     48  C   UNL     1       2.389  -9.540 -13.946  1.00  0.00     0.029 A 
ATOM     49  N   UNL     1       3.233  -8.039 -12.540  1.00  0.00    -0.354 N 
ATOM     50  N   UNL     1       5.332  -6.264 -11.487  1.00  0.00    -0.248 NA
ATOM     51  C   UNL     1       7.560  -5.562 -11.445  1.00  0.00     0.031 C 
ATOM     52  C   UNL     1       3.760  -9.422 -14.195  1.00  0.00     0.029 A 
ATOM     53  C   UNL     1       4.281  -8.459 -13.345  1.00  0.00     0.049 A 
ATOM     54  H   UNL     1       3.303  -7.359 -11.832  1.00  0.00     0.167 HD
ATOM     55  C   UNL     1       6.055  -6.978 -12.439  1.00  0.00     0.074 A 
ATOM     56  C   UNL     1       7.412  -6.476 -12.392  1.00  0.00     0.031 C 
ATOM     57  C   UNL     1       5.634  -7.959 -13.278  1.00  0.00     0.034 A 
BRANCH  44  58
ATOM     58  C   UNL     1      -0.337  -9.484 -12.610  1.00  0.00     0.023 A 
ATOM     59  C   UNL     1      -1.533  -8.986 -13.155  1.00  0.00     0.031 A 
ATOM     60  C   UNL     1      -0.223 -10.876 -12.440  1.00  0.00     0.131 A 
ATOM     61  C   UNL     1      -2.589  -9.862 -13.447  1.00  0.00     0.055 A 
ATOM     62  C   UNL     1      -1.247 -11.751 -12.810  1.00  0.00     0.041 A 
ATOM     63  F   UNL     1       0.886 -11.411 -11.905  1.00  0.00    -0.206 F 
ATOM     64  C   UNL     1      -2.445 -11.243 -13.304  1.00  0.00     0.022 A 
BRANCH  61  65
ATOM     65  S   UNL     1      -4.202  -9.158 -13.885  1.00  0.00     0.124 S 
ATOM     66  O   UNL     1      -4.497  -8.341 -12.710  1.00  0.00    -0.237 OA
ATOM     67  O   UNL     1      -3.905  -8.429 -15.112  1.00  0.00    -0.237 OA
ATOM     68  O   UNL     1      -5.056 -10.333 -14.048  1.00  0.00    -0.744 OA
ENDBRANCH  61  65
ENDBRANCH  44  58
BRANCH  45  69
ATOM     69  C   UNL     1       7.086  -3.603  -9.309  1.00  0.00     0.023 A 
ATOM     70  C   UNL     1       7.799  -2.714 -10.128  1.00  0.00     0.031 A 
ATOM     71  C   UNL     1       7.504  -3.744  -7.973  1.00  0.00     0.131 A 
ATOM     72  C   UNL     1       8.922  -2.040  -9.621  1.00  0.00     0.055 A 
ATOM     73  C   UNL     1       8.583  -3.025  -7.456  1.00  0.00     0.041 A 
ATOM     74  F   UNL     1       6.860  -4.581  -7.143  1.00  0.00    -0.206 F 
ATOM     75  C   UNL     1       9.308  -2.177  -8.286  1.00  0.00     0.022 A 
BRANCH  72  76
ATOM     76  S   UNL     1       9.935  -1.059 -10.761  1.00  0.00     0.124 S 
ATOM     77  O   UNL     1      10.299  -2.054 -11.764  1.00  0.00    -0.237 OA
ATOM     78  O   UNL     1       8.997  -0.028 -11.190  1.00  0.00    -0.237 OA
ATOM     79  O   UNL     1      11.034  -0.589  -9.920  1.00  0.00    -0.744 OA
ENDBRANCH  72  76
ENDBRANCH  45  69
BRANCH  57  80
ATOM     80  C   UNL     1       6.651  -8.527 -14.239  1.00  0.00     0.023 A 
ATOM     81  C   UNL     1       7.757  -9.270 -13.792  1.00  0.00     0.031 A 
ATOM     82  C   UNL     1       6.506  -8.324 -15.623  1.00  0.00     0.131 A 
ATOM     83  C   UNL     1       8.702  -9.741 -14.716  1.00  0.00     0.055 A 
ATOM     84  C   UNL     1       7.413  -8.851 -16.542  1.00  0.00     0.041 A 
ATOM     85  F   UNL     1       5.471  -7.617 -16.106  1.00  0.00    -0.206 F 
ATOM     86  C   UNL     1       8.526  -9.554 -16.090  1.00  0.00     0.022 A 
BRANCH  83  87
ATOM     87  S   UNL     1      10.213 -10.526 -14.094  1.00  0.00     0.124 S 
ATOM     88  O   UNL     1      10.794  -9.463 -13.281  1.00  0.00    -0.237 OA
ATOM     89  O   UNL     1       9.690 -11.675 -13.361  1.00  0.00    -0.237 OA
ATOM     90  O   UNL     1      10.955 -10.854 -15.310  1.00  0.00    -0.744 OA
ENDBRANCH  83  87
ENDBRANCH  57  80
ENDBRANCH  31  32
ENDBRANCH  23  26
ENDBRANCH  21  22
ENDBRANCH   1  21
TORSDOF 16
