REMARK SMILES O=C(CSCc1ccc(C(=O)NCCCNC(=O)c2ccc(-c3c4nc(c(-c5cc(S(=O)(=O)[O-])ccc5F)c5ccc([nH]5)c(-c5cc(S(=O)(=O)[O-])ccc5F)c5nc(c(-c6cc(S(=O)(=O)[O-])ccc6F)c6ccc3[nH]6)C=C5)C=C4)cc2)cc1)Nc1ccc(Cl)cc1
REMARK SMILES IDX 13 1 12 2 10 3 11 4 9 6 6 7 7 8 83 9 8 10 82 11 5 12 4 13
REMARK SMILES IDX 3 14 2 15 1 16 84 17 85 19 86 20 91 21 87 22 90 23 88 24
REMARK SMILES IDX 89 25 14 26 15 27 16 28 17 29 18 31 19 32 20 33 81 34 21 35
REMARK SMILES IDX 80 36 22 37 23 38 24 39 74 40 25 41 79 42 73 43 75 44 26 45
REMARK SMILES IDX 78 46 72 47 71 48 27 50 59 51 39 52 58 53 40 54 43 55 57 56
REMARK SMILES IDX 76 57 41 58 42 59 56 61 77 62 44 63 28 64 29 65 37 66 30 67
REMARK SMILES IDX 36 68 38 69 35 70 31 71 32 72 33 73 34 74 60 75 61 76 69 77
REMARK SMILES IDX 62 78 68 79 70 80 67 81 63 82 64 83 65 84 66 85 45 86 46 87
REMARK SMILES IDX 54 88 47 89 53 90 55 91 52 92 48 93 49 94 50 95 51 96
REMARK H PARENT 12 5 84 18 16 30 75 49 43 60
REMARK Flexibility Score: inf
ROOT
ATOM      1  C   UNL     1      -2.712   3.845   4.023  1.00  0.00     0.118 C 
ENDROOT
BRANCH   1   2
ATOM      2  N   UNL     1      -1.841   4.997   4.176  1.00  0.00    -0.352 N 
ATOM      3  C   UNL     1      -0.481   5.148   4.093  1.00  0.00     0.251 C 
ATOM      4  O   UNL     1      -0.028   6.290   4.188  1.00  0.00    -0.269 OA
ATOM      5  H   UNL     1      -2.321   5.832   4.378  1.00  0.00     0.163 HD
BRANCH   3   6
ATOM      6  C   UNL     1       0.460   4.020   3.843  1.00  0.00     0.039 A 
ATOM      7  C   UNL     1       2.342   1.990   3.221  1.00  0.00    -0.038 A 
ATOM      8  C   UNL     1       2.612   3.331   2.923  1.00  0.00     0.005 A 
ATOM      9  C   UNL     1       1.159   1.699   3.918  1.00  0.00     0.005 A 
ATOM     10  C   UNL     1       1.672   4.328   3.208  1.00  0.00     0.014 A 
ATOM     11  C   UNL     1       0.242   2.704   4.247  1.00  0.00     0.014 A 
BRANCH   7  12
ATOM     12  C   UNL     1       3.297   0.859   2.928  1.00  0.00     0.105 C 
BRANCH  12  13
ATOM     13  S   UNL     1       4.360   1.004   1.455  1.00  0.00    -0.147 SA
BRANCH  13  14
ATOM     14  C   UNL     1       3.125   1.313   0.149  1.00  0.00     0.170 C 
BRANCH  14  15
ATOM     15  C   UNL     1       2.162   0.164  -0.100  1.00  0.00     0.234 C 
ATOM     16  O   UNL     1       1.007   0.395  -0.449  1.00  0.00    -0.274 OA
ATOM     17  N   UNL     1       2.732  -1.092   0.016  1.00  0.00    -0.325 N 
ATOM     18  H   UNL     1       3.643  -1.129   0.386  1.00  0.00     0.169 HD
BRANCH  17  19
ATOM     19  C   UNL     1       2.147  -2.323  -0.337  1.00  0.00     0.041 A 
ATOM     20  C   UNL     1       2.776  -3.492   0.109  1.00  0.00     0.027 A 
ATOM     21  C   UNL     1       0.998  -2.432  -1.126  1.00  0.00     0.027 A 
ATOM     22  C   UNL     1       2.246  -4.748  -0.203  1.00  0.00     0.022 A 
ATOM     23  C   UNL     1       0.475  -3.687  -1.453  1.00  0.00     0.022 A 
ATOM     24  C   UNL     1       1.097  -4.840  -0.985  1.00  0.00     0.041 A 
ATOM     25  Cl  UNL     1       0.449  -6.383  -1.379  1.00  0.00    -0.084 Cl
ENDBRANCH  17  19
ENDBRANCH  14  15
ENDBRANCH  13  14
ENDBRANCH  12  13
ENDBRANCH   7  12
ENDBRANCH   3   6
ENDBRANCH   1   2
BRANCH   1  26
ATOM     26  C   UNL     1      -3.202   3.335   5.379  1.00  0.00     0.042 C 
BRANCH  26  27
ATOM     27  C   UNL     1      -4.267   4.226   6.018  1.00  0.00     0.118 C 
BRANCH  27  28
ATOM     28  N   UNL     1      -5.532   4.158   5.301  1.00  0.00    -0.352 N 
ATOM     29  C   UNL     1      -6.786   3.826   5.749  1.00  0.00     0.251 C 
ATOM     30  H   UNL     1      -5.480   4.386   4.344  1.00  0.00     0.163 HD
ATOM     31  O   UNL     1      -7.670   3.605   4.926  1.00  0.00    -0.269 OA
BRANCH  29  32
ATOM     32  C   UNL     1      -7.078   3.719   7.197  1.00  0.00     0.039 A 
ATOM     33  C   UNL     1      -7.929   2.700   7.636  1.00  0.00     0.014 A 
ATOM     34  C   UNL     1      -6.572   4.645   8.115  1.00  0.00     0.014 A 
ATOM     35  C   UNL     1      -8.234   2.580   8.995  1.00  0.00     0.010 A 
ATOM     36  C   UNL     1      -6.827   4.487   9.478  1.00  0.00     0.010 A 
ATOM     37  C   UNL     1      -7.665   3.457   9.932  1.00  0.00    -0.014 A 
BRANCH  37  38
ATOM     38  C   UNL     1      -7.944   3.316  11.386  1.00  0.00     0.031 A 
ATOM     39  C   UNL     1      -8.693   4.394  12.122  1.00  0.00     0.074 A 
ATOM     40  C   UNL     1      -7.471   2.245  12.053  1.00  0.00     0.049 A 
ATOM     41  N   UNL     1      -8.961   4.493  13.399  1.00  0.00    -0.248 NA
ATOM     42  C   UNL     1      -9.178   5.524  11.316  1.00  0.00     0.031 C 
ATOM     43  C   UNL     1      -6.701   1.151  11.455  1.00  0.00     0.029 A 
ATOM     44  N   UNL     1      -7.555   1.903  13.380  1.00  0.00    -0.354 N 
ATOM     45  C   UNL     1      -9.633   5.702  13.554  1.00  0.00     0.074 A 
ATOM     46  C   UNL     1      -9.680   6.322  12.246  1.00  0.00     0.031 C 
ATOM     47  C   UNL     1      -6.397   0.255  12.408  1.00  0.00     0.029 A 
ATOM     48  C   UNL     1      -6.910   0.728  13.690  1.00  0.00     0.049 A 
ATOM     49  H   UNL     1      -8.031   2.448  14.046  1.00  0.00     0.167 HD
ATOM     50  C   UNL     1     -10.173   6.236  14.678  1.00  0.00     0.034 A 
ATOM     51  C   UNL     1      -6.739   0.108  14.874  1.00  0.00     0.034 A 
ATOM     52  C   UNL     1     -10.128   5.596  15.972  1.00  0.00     0.049 A 
ATOM     53  C   UNL     1      -7.338   0.725  16.112  1.00  0.00     0.074 A 
ATOM     54  C   UNL     1     -10.690   6.019  17.164  1.00  0.00     0.029 A 
ATOM     55  N   UNL     1      -9.475   4.400  16.246  1.00  0.00    -0.354 N 
ATOM     56  N   UNL     1      -8.010   1.846  16.234  1.00  0.00    -0.248 NA
ATOM     57  C   UNL     1      -7.167  -0.015  17.369  1.00  0.00     0.031 C 
ATOM     58  C   UNL     1     -10.325   5.115  18.169  1.00  0.00     0.029 A 
ATOM     59  C   UNL     1      -9.597   4.087  17.592  1.00  0.00     0.049 A 
ATOM     60  H   UNL     1      -8.996   3.854  15.582  1.00  0.00     0.167 HD
ATOM     61  C   UNL     1      -8.366   1.931  17.577  1.00  0.00     0.074 A 
ATOM     62  C   UNL     1      -7.847   0.740  18.219  1.00  0.00     0.031 C 
ATOM     63  C   UNL     1      -9.062   2.902  18.221  1.00  0.00     0.034 A 
BRANCH  50  64
ATOM     64  C   UNL     1     -10.833   7.590  14.558  1.00  0.00     0.023 A 
ATOM     65  C   UNL     1     -11.966   7.792  13.750  1.00  0.00     0.031 A 
ATOM     66  C   UNL     1     -10.306   8.702  15.240  1.00  0.00     0.131 A 
ATOM     67  C   UNL     1     -12.486   9.085  13.581  1.00  0.00     0.055 A 
ATOM     68  C   UNL     1     -10.879   9.971  15.132  1.00  0.00     0.041 A 
ATOM     69  F   UNL     1      -9.216   8.577  16.012  1.00  0.00    -0.206 F 
ATOM     70  C   UNL     1     -11.966  10.172  14.286  1.00  0.00     0.022 A 
BRANCH  67  71
ATOM     71  S   UNL     1     -13.758   9.348  12.316  1.00  0.00     0.124 S 
ATOM     72  O   UNL     1     -13.069   8.900  11.107  1.00  0.00    -0.237 OA
ATOM     73  O   UNL     1     -14.848   8.498  12.782  1.00  0.00    -0.237 OA
ATOM     74  O   UNL     1     -14.015  10.785  12.381  1.00  0.00    -0.744 OA
ENDBRANCH  67  71
ENDBRANCH  50  64
BRANCH  51  75
ATOM     75  C   UNL     1      -5.958  -1.159  14.955  1.00  0.00     0.023 A 
ATOM     76  C   UNL     1      -6.573  -2.366  15.321  1.00  0.00     0.031 A 
ATOM     77  C   UNL     1      -4.575  -1.173  14.700  1.00  0.00     0.131 A 
ATOM     78  C   UNL     1      -5.800  -3.529  15.464  1.00  0.00     0.055 A 
ATOM     79  C   UNL     1      -3.819  -2.343  14.795  1.00  0.00     0.041 A 
ATOM     80  F   UNL     1      -3.939  -0.047  14.339  1.00  0.00    -0.206 F 
ATOM     81  C   UNL     1      -4.430  -3.528  15.192  1.00  0.00     0.022 A 
BRANCH  78  82
ATOM     82  S   UNL     1      -6.601  -5.032  16.088  1.00  0.00     0.124 S 
ATOM     83  O   UNL     1      -7.119  -4.581  17.374  1.00  0.00    -0.237 OA
ATOM     84  O   UNL     1      -7.593  -5.298  15.052  1.00  0.00    -0.237 OA
ATOM     85  O   UNL     1      -5.505  -5.997  16.159  1.00  0.00    -0.744 OA
ENDBRANCH  78  82
ENDBRANCH  51  75
BRANCH  63  86
ATOM     86  C   UNL     1      -9.336   2.686  19.689  1.00  0.00     0.023 A 
ATOM     87  C   UNL     1      -8.304   2.693  20.644  1.00  0.00     0.031 A 
ATOM     88  C   UNL     1     -10.649   2.451  20.135  1.00  0.00     0.131 A 
ATOM     89  C   UNL     1      -8.595   2.415  21.988  1.00  0.00     0.055 A 
ATOM     90  C   UNL     1     -10.940   2.233  21.483  1.00  0.00     0.041 A 
ATOM     91  F   UNL     1     -11.672   2.430  19.266  1.00  0.00    -0.206 F 
ATOM     92  C   UNL     1      -9.908   2.200  22.416  1.00  0.00     0.022 A 
BRANCH  89  93
ATOM     93  S   UNL     1      -7.220   2.244  23.160  1.00  0.00     0.124 S 
ATOM     94  O   UNL     1      -6.444   1.163  22.561  1.00  0.00    -0.237 OA
ATOM     95  O   UNL     1      -6.607   3.568  23.117  1.00  0.00    -0.237 OA
ATOM     96  O   UNL     1      -7.881   1.909  24.419  1.00  0.00    -0.744 OA
ENDBRANCH  89  93
ENDBRANCH  63  86
ENDBRANCH  37  38
ENDBRANCH  29  32
ENDBRANCH  27  28
ENDBRANCH  26  27
ENDBRANCH   1  26
TORSDOF 18
