REMARK SMILES COCC[NH2+]CC(=O)N1C[C@H](OC)C[C@@H]1C(=O)NCCCNC(=O)c1ccc(-c2c3nc(c(-c4cc(S(=O)(=O)[O-])ccc4F)c4ccc([nH]4)c(-c4cc(S(=O)(=O)[O-])ccc4F)c4nc(c(-c5cc(S(=O)(=O)[O-])ccc5F)c5ccc2[nH]5)C=C4)C=C3)cc1
REMARK SMILES IDX 16 1 17 2 18 3 15 5 9 6 10 7 11 8 14 9 7 10 8 11 6 12 5 13
REMARK SMILES IDX 4 16 3 17 2 18 1 19 12 20 13 21 19 22 20 23 21 24 22 25
REMARK SMILES IDX 23 26 24 28 25 29 26 30 87 31 27 32 86 33 28 34 29 35 30 36
REMARK SMILES IDX 80 37 31 38 85 39 79 40 81 41 32 42 84 43 78 44 77 45 33 47
REMARK SMILES IDX 65 48 45 49 64 50 46 51 49 52 63 53 82 54 47 55 48 56 62 58
REMARK SMILES IDX 83 59 50 60 34 61 35 62 43 63 36 64 42 65 44 66 41 67 37 68
REMARK SMILES IDX 38 69 39 70 40 71 66 72 67 73 75 74 68 75 74 76 76 77 73 78
REMARK SMILES IDX 69 79 70 80 71 81 72 82 51 83 52 84 60 85 53 86 59 87 61 88
REMARK SMILES IDX 58 89 54 90 55 91 56 92 57 93
REMARK H PARENT 18 4 5 14 5 15 22 27 81 46 49 57
REMARK Flexibility Score: inf
ROOT
ATOM      1  C   UNL     1      -3.086  -1.746   5.670  1.00  0.00     0.242 C 
ATOM      2  O   UNL     1      -4.046  -2.519   5.747  1.00  0.00    -0.273 OA
ATOM      3  N   UNL     1      -2.238  -1.707   6.737  1.00  0.00    -0.354 N 
ATOM      4  H   UNL     1      -2.486  -2.281   7.497  1.00  0.00     0.163 HD
ENDROOT
BRANCH   1   5
ATOM      5  C   UNL     1      -2.982  -0.746   4.498  1.00  0.00     0.177 C 
ATOM      6  N   UNL     1      -1.701  -0.579   3.800  1.00  0.00    -0.323 N 
ATOM      7  C   UNL     1      -1.692   0.785   3.309  1.00  0.00     0.152 C 
ATOM      8  C   UNL     1      -2.253   1.608   4.446  1.00  0.00     0.139 C 
ATOM      9  C   UNL     1      -3.361   0.685   4.975  1.00  0.00     0.069 C 
BRANCH   6  10
ATOM     10  C   UNL     1      -1.171  -1.589   3.002  1.00  0.00     0.278 C 
ATOM     11  O   UNL     1      -1.872  -2.303   2.288  1.00  0.00    -0.268 OA
BRANCH  10  12
ATOM     12  C   UNL     1       0.360  -1.803   3.124  1.00  0.00     0.362 C 
BRANCH  12  13
ATOM     13  N   UNL     1       1.162  -1.319   1.967  1.00  0.00    -0.337 N 
ATOM     14  H   UNL     1       2.130  -1.619   2.083  1.00  0.00     0.346 HD
ATOM     15  H   UNL     1       0.768  -1.709   1.111  1.00  0.00     0.346 HD
BRANCH  13  16
ATOM     16  C   UNL     1       1.120   0.141   1.879  1.00  0.00     0.289 C 
BRANCH  16  17
ATOM     17  C   UNL     1       2.049   0.886   0.915  1.00  0.00     0.221 C 
BRANCH  17  18
ATOM     18  O   UNL     1       1.436   1.125  -0.354  1.00  0.00    -0.379 OA
ATOM     19  C   UNL     1       1.295  -0.051  -1.132  1.00  0.00     0.195 C 
ENDBRANCH  17  18
ENDBRANCH  16  17
ENDBRANCH  13  16
ENDBRANCH  12  13
ENDBRANCH  10  12
ENDBRANCH   6  10
BRANCH   8  20
ATOM     20  O   UNL     1      -1.330   1.895   5.506  1.00  0.00    -0.380 OA
ATOM     21  C   UNL     1       0.056   1.974   5.176  1.00  0.00     0.195 C 
ENDBRANCH   8  20
ENDBRANCH   1   5
BRANCH   3  22
ATOM     22  C   UNL     1      -1.030  -0.941   6.902  1.00  0.00     0.117 C 
BRANCH  22  23
ATOM     23  C   UNL     1      -1.122   0.108   8.001  1.00  0.00     0.042 C 
BRANCH  23  24
ATOM     24  C   UNL     1      -0.420  -0.297   9.283  1.00  0.00     0.118 C 
BRANCH  24  25
ATOM     25  N   UNL     1       0.989  -0.625   9.082  1.00  0.00    -0.352 N 
ATOM     26  C   UNL     1       2.119  -0.250   9.768  1.00  0.00     0.251 C 
ATOM     27  H   UNL     1       1.160  -1.221   8.318  1.00  0.00     0.163 HD
ATOM     28  O   UNL     1       3.210  -0.575   9.322  1.00  0.00    -0.269 OA
BRANCH  26  29
ATOM     29  C   UNL     1       2.019   0.570  10.995  1.00  0.00     0.039 A 
ATOM     30  C   UNL     1       3.034   1.489  11.273  1.00  0.00     0.014 A 
ATOM     31  C   UNL     1       0.934   0.454  11.862  1.00  0.00     0.014 A 
ATOM     32  C   UNL     1       2.919   2.329  12.381  1.00  0.00     0.010 A 
ATOM     33  C   UNL     1       0.747   1.391  12.867  1.00  0.00     0.010 A 
ATOM     34  C   UNL     1       1.751   2.319  13.161  1.00  0.00    -0.014 A 
BRANCH  34  35
ATOM     35  C   UNL     1       1.581   3.241  14.312  1.00  0.00     0.031 A 
ATOM     36  C   UNL     1       1.325   2.684  15.689  1.00  0.00     0.074 A 
ATOM     37  C   UNL     1       1.599   4.572  14.106  1.00  0.00     0.049 A 
ATOM     38  N   UNL     1       1.105   3.320  16.811  1.00  0.00    -0.248 NA
ATOM     39  C   UNL     1       1.253   1.220  15.810  1.00  0.00     0.031 C 
ATOM     40  C   UNL     1       1.751   5.224  12.803  1.00  0.00     0.029 A 
ATOM     41  N   UNL     1       1.489   5.617  14.987  1.00  0.00    -0.354 N 
ATOM     42  C   UNL     1       0.858   2.333  17.760  1.00  0.00     0.074 A 
ATOM     43  C   UNL     1       0.841   1.070  17.057  1.00  0.00     0.031 C 
ATOM     44  C   UNL     1       1.774   6.554  12.976  1.00  0.00     0.029 A 
ATOM     45  C   UNL     1       1.589   6.853  14.392  1.00  0.00     0.049 A 
ATOM     46  H   UNL     1       1.352   5.494  15.954  1.00  0.00     0.167 HD
ATOM     47  C   UNL     1       0.708   2.460  19.102  1.00  0.00     0.034 A 
ATOM     48  C   UNL     1       1.536   8.088  14.927  1.00  0.00     0.034 A 
ATOM     49  C   UNL     1       0.743   3.731  19.781  1.00  0.00     0.049 A 
ATOM     50  C   UNL     1       1.375   8.216  16.419  1.00  0.00     0.074 A 
ATOM     51  C   UNL     1       0.652   3.990  21.136  1.00  0.00     0.029 A 
ATOM     52  N   UNL     1       0.874   4.963  19.148  1.00  0.00    -0.354 N 
ATOM     53  N   UNL     1       1.212   7.270  17.317  1.00  0.00    -0.248 NA
ATOM     54  C   UNL     1       1.411   9.573  16.974  1.00  0.00     0.031 C 
ATOM     55  C   UNL     1       0.654   5.378  21.316  1.00  0.00     0.029 A 
ATOM     56  C   UNL     1       0.838   5.986  20.083  1.00  0.00     0.049 A 
ATOM     57  H   UNL     1       0.976   5.090  18.178  1.00  0.00     0.167 HD
ATOM     58  C   UNL     1       1.155   7.918  18.547  1.00  0.00     0.074 A 
ATOM     59  C   UNL     1       1.317   9.332  18.273  1.00  0.00     0.031 C 
ATOM     60  C   UNL     1       0.988   7.393  19.789  1.00  0.00     0.034 A 
BRANCH  47  61
ATOM     61  C   UNL     1       0.484   1.190  19.895  1.00  0.00     0.023 A 
ATOM     62  C   UNL     1       1.415   0.134  19.870  1.00  0.00     0.031 A 
ATOM     63  C   UNL     1      -0.700   0.997  20.626  1.00  0.00     0.131 A 
ATOM     64  C   UNL     1       1.097  -1.099  20.458  1.00  0.00     0.055 A 
ATOM     65  C   UNL     1      -0.964  -0.199  21.301  1.00  0.00     0.041 A 
ATOM     66  F   UNL     1      -1.639   1.954  20.674  1.00  0.00    -0.206 F 
ATOM     67  C   UNL     1      -0.074  -1.264  21.199  1.00  0.00     0.022 A 
BRANCH  64  68
ATOM     68  S   UNL     1       2.137  -2.534  20.068  1.00  0.00     0.124 S 
ATOM     69  O   UNL     1       2.051  -2.571  18.609  1.00  0.00    -0.237 OA
ATOM     70  O   UNL     1       3.429  -2.148  20.621  1.00  0.00    -0.237 OA
ATOM     71  O   UNL     1       1.468  -3.639  20.751  1.00  0.00    -0.744 OA
ENDBRANCH  64  68
ENDBRANCH  47  61
BRANCH  48  72
ATOM     72  C   UNL     1       1.641   9.287  14.047  1.00  0.00     0.023 A 
ATOM     73  C   UNL     1       2.739  10.159  14.126  1.00  0.00     0.031 A 
ATOM     74  C   UNL     1       0.637   9.576  13.105  1.00  0.00     0.131 A 
ATOM     75  C   UNL     1       2.790  11.296  13.303  1.00  0.00     0.055 A 
ATOM     76  C   UNL     1       0.718  10.678  12.253  1.00  0.00     0.041 A 
ATOM     77  F   UNL     1      -0.429   8.769  12.981  1.00  0.00    -0.206 F 
ATOM     78  C   UNL     1       1.795  11.552  12.356  1.00  0.00     0.022 A 
BRANCH  75  79
ATOM     79  S   UNL     1       4.148  12.477  13.529  1.00  0.00     0.124 S 
ATOM     80  O   UNL     1       3.979  12.860  14.926  1.00  0.00    -0.237 OA
ATOM     81  O   UNL     1       5.316  11.658  13.224  1.00  0.00    -0.237 OA
ATOM     82  O   UNL     1       3.853  13.525  12.554  1.00  0.00    -0.744 OA
ENDBRANCH  75  79
ENDBRANCH  48  72
BRANCH  60  83
ATOM     83  C   UNL     1       1.019   8.357  20.950  1.00  0.00     0.023 A 
ATOM     84  C   UNL     1       0.030   9.340  21.126  1.00  0.00     0.031 A 
ATOM     85  C   UNL     1       2.060   8.290  21.893  1.00  0.00     0.131 A 
ATOM     86  C   UNL     1       0.137  10.255  22.184  1.00  0.00     0.055 A 
ATOM     87  C   UNL     1       2.122   9.158  22.983  1.00  0.00     0.041 A 
ATOM     88  F   UNL     1       3.034   7.373  21.773  1.00  0.00    -0.206 F 
ATOM     89  C   UNL     1       1.165  10.157  23.125  1.00  0.00     0.022 A 
BRANCH  86  90
ATOM     90  S   UNL     1      -1.028  11.644  22.252  1.00  0.00     0.124 S 
ATOM     91  O   UNL     1      -0.811  12.283  20.959  1.00  0.00    -0.237 OA
ATOM     92  O   UNL     1      -2.309  10.968  22.424  1.00  0.00    -0.237 OA
ATOM     93  O   UNL     1      -0.573  12.415  23.408  1.00  0.00    -0.744 OA
ENDBRANCH  86  90
ENDBRANCH  60  83
ENDBRANCH  34  35
ENDBRANCH  26  29
ENDBRANCH  24  25
ENDBRANCH  23  24
ENDBRANCH  22  23
ENDBRANCH   3  22
TORSDOF 20
