REMARK SMILES CCOc1ccc(-c2c(C)sc3ncnc(N4CCC[C@H]4C(=O)NCCCNC(=O)c4ccc(-c5c6nc(c(-c7cc(S(=O)(=O)[O-])ccc7F)c7ccc([nH]7)c(-c7cc(S(=O)(=O)[O-])ccc7F)c7nc(c(-c8cc(S(=O)(=O)[O-])ccc8F)c8ccc5[nH]8)C=C7)C=C6)cc4)c23)cc1
REMARK SMILES IDX 25 1 24 2 22 3 23 4 21 6 17 7 18 8 19 9 20 10 16 11 8 12
REMARK SMILES IDX 9 13 94 14 10 15 11 16 12 17 13 18 15 19 14 20 7 21 4 22
REMARK SMILES IDX 5 23 96 24 6 25 95 26 3 27 2 28 1 29 26 30 27 31 28 32 29 33
REMARK SMILES IDX 30 35 31 36 32 37 93 38 33 39 92 40 34 41 35 42 36 43 86 44
REMARK SMILES IDX 37 45 91 46 85 47 87 48 38 49 90 50 84 51 83 52 39 54 71 55
REMARK SMILES IDX 51 56 70 57 52 58 55 59 69 60 88 61 53 62 54 63 68 65 89 66
REMARK SMILES IDX 56 67 40 68 41 69 49 70 42 71 48 72 50 73 47 74 43 75 44 76
REMARK SMILES IDX 45 77 46 78 72 79 73 80 81 81 74 82 80 83 82 84 79 85 75 86
REMARK SMILES IDX 76 87 77 88 78 89 57 90 58 91 66 92 59 93 65 94 67 95 64 96
REMARK SMILES IDX 60 97 61 98 62 99 63 100
REMARK H PARENT 24 5 28 34 87 53 55 64
REMARK Flexibility Score: inf
ROOT
ATOM      1  C   UNL     1       6.371   0.039   1.193  1.00  0.00     0.117 C 
ENDROOT
BRANCH   1   2
ATOM      2  N   UNL     1       5.108  -0.639   0.935  1.00  0.00    -0.354 N 
ATOM      3  C   UNL     1       4.537  -1.808   1.358  1.00  0.00     0.242 C 
ATOM      4  O   UNL     1       3.460  -2.051   0.787  1.00  0.00    -0.273 OA
ATOM      5  H   UNL     1       4.532  -0.141   0.312  1.00  0.00     0.163 HD
BRANCH   3   6
ATOM      6  C   UNL     1       5.153  -2.881   2.313  1.00  0.00     0.173 C 
ATOM      7  N   UNL     1       5.382  -2.481   3.724  1.00  0.00    -0.344 N 
ATOM      8  C   UNL     1       4.851  -3.488   4.661  1.00  0.00     0.119 C 
ATOM      9  C   UNL     1       4.525  -4.693   3.803  1.00  0.00     0.024 C 
ATOM     10  C   UNL     1       4.132  -4.042   2.492  1.00  0.00     0.037 C 
BRANCH   7  11
ATOM     11  C   UNL     1       6.675  -2.124   4.068  1.00  0.00     0.142 A 
ATOM     12  C   UNL     1       6.144   0.309   4.923  1.00  0.00     0.009 A 
ATOM     13  C   UNL     1       6.965   1.406   5.174  1.00  0.00     0.012 A 
ATOM     14  C   UNL     1       6.968  -0.865   4.622  1.00  0.00     0.062 A 
ATOM     15  C   UNL     1       6.695   2.868   5.282  1.00  0.00     0.057 C 
ATOM     16  S   UNL     1       8.617   0.947   5.362  1.00  0.00    -0.120 S 
ATOM     17  C   UNL     1       8.308  -0.642   4.880  1.00  0.00     0.129 A 
ATOM     18  N   UNL     1       9.321  -1.516   4.742  1.00  0.00    -0.225 NA
ATOM     19  N   UNL     1       7.668  -3.031   3.910  1.00  0.00    -0.219 NA
ATOM     20  C   UNL     1       8.911  -2.691   4.267  1.00  0.00     0.225 A 
BRANCH  12  21
ATOM     21  C   UNL     1       4.686   0.369   4.664  1.00  0.00    -0.016 A 
ATOM     22  C   UNL     1       2.054  -0.073   3.653  1.00  0.00     0.119 A 
ATOM     23  C   UNL     1       2.450  -0.608   4.877  1.00  0.00     0.047 A 
ATOM     24  C   UNL     1       2.935   0.760   2.998  1.00  0.00     0.047 A 
ATOM     25  C   UNL     1       3.760  -0.397   5.376  1.00  0.00     0.012 A 
ATOM     26  C   UNL     1       4.218   0.994   3.517  1.00  0.00     0.012 A 
BRANCH  22  27
ATOM     27  O   UNL     1       0.775  -0.241   3.207  1.00  0.00    -0.494 OA
BRANCH  27  28
ATOM     28  C   UNL     1       0.623  -0.939   1.956  1.00  0.00     0.226 C 
ATOM     29  C   UNL     1       0.767  -0.078   0.704  1.00  0.00     0.049 C 
ENDBRANCH  27  28
ENDBRANCH  22  27
ENDBRANCH  12  21
ENDBRANCH   7  11
ENDBRANCH   3   6
ENDBRANCH   1   2
BRANCH   1  30
ATOM     30  C   UNL     1       6.565   1.385   0.432  1.00  0.00     0.042 C 
BRANCH  30  31
ATOM     31  C   UNL     1       5.663   2.606   0.748  1.00  0.00     0.118 C 
BRANCH  31  32
ATOM     32  N   UNL     1       6.073   3.401   1.922  1.00  0.00    -0.352 N 
ATOM     33  C   UNL     1       5.522   4.571   2.442  1.00  0.00     0.251 C 
ATOM     34  H   UNL     1       6.853   3.053   2.411  1.00  0.00     0.163 HD
ATOM     35  O   UNL     1       6.118   5.225   3.296  1.00  0.00    -0.269 OA
BRANCH  33  36
ATOM     36  C   UNL     1       4.213   5.038   1.960  1.00  0.00     0.039 A 
ATOM     37  C   UNL     1       4.016   6.329   1.480  1.00  0.00     0.014 A 
ATOM     38  C   UNL     1       3.192   4.108   1.895  1.00  0.00     0.014 A 
ATOM     39  C   UNL     1       2.874   6.589   0.724  1.00  0.00     0.010 A 
ATOM     40  C   UNL     1       2.126   4.313   1.056  1.00  0.00     0.010 A 
ATOM     41  C   UNL     1       1.981   5.544   0.428  1.00  0.00    -0.014 A 
BRANCH  41  42
ATOM     42  C   UNL     1       1.108   5.642  -0.746  1.00  0.00     0.031 A 
ATOM     43  C   UNL     1       1.802   6.083  -1.996  1.00  0.00     0.074 A 
ATOM     44  C   UNL     1      -0.114   5.080  -0.853  1.00  0.00     0.049 A 
ATOM     45  N   UNL     1       1.621   7.173  -2.664  1.00  0.00    -0.248 NA
ATOM     46  C   UNL     1       2.930   5.275  -2.491  1.00  0.00     0.031 C 
ATOM     47  C   UNL     1      -0.836   4.268   0.130  1.00  0.00     0.029 A 
ATOM     48  N   UNL     1      -0.910   5.002  -1.954  1.00  0.00    -0.354 N 
ATOM     49  C   UNL     1       2.447   7.096  -3.784  1.00  0.00     0.074 A 
ATOM     50  C   UNL     1       3.357   6.013  -3.518  1.00  0.00     0.031 C 
ATOM     51  C   UNL     1      -1.819   3.580  -0.491  1.00  0.00     0.029 A 
ATOM     52  C   UNL     1      -1.915   4.049  -1.862  1.00  0.00     0.049 A 
ATOM     53  H   UNL     1      -0.784   5.571  -2.747  1.00  0.00     0.167 HD
ATOM     54  C   UNL     1       2.174   7.801  -4.921  1.00  0.00     0.034 A 
ATOM     55  C   UNL     1      -2.758   3.650  -2.846  1.00  0.00     0.034 A 
ATOM     56  C   UNL     1       1.173   8.816  -4.664  1.00  0.00     0.049 A 
ATOM     57  C   UNL     1      -2.811   4.752  -3.839  1.00  0.00     0.074 A 
ATOM     58  C   UNL     1       1.077   9.881  -3.788  1.00  0.00     0.029 A 
ATOM     59  N   UNL     1      -0.119   8.576  -5.082  1.00  0.00    -0.354 N 
ATOM     60  N   UNL     1      -3.261   5.946  -3.557  1.00  0.00    -0.248 NA
ATOM     61  C   UNL     1      -1.937   4.686  -5.000  1.00  0.00     0.031 C 
ATOM     62  C   UNL     1      -0.272   9.843  -3.321  1.00  0.00     0.029 A 
ATOM     63  C   UNL     1      -0.937   8.823  -4.007  1.00  0.00     0.049 A 
ATOM     64  H   UNL     1      -0.401   8.285  -5.979  1.00  0.00     0.167 HD
ATOM     65  C   UNL     1      -2.398   6.819  -4.202  1.00  0.00     0.074 A 
ATOM     66  C   UNL     1      -1.683   5.988  -5.168  1.00  0.00     0.031 C 
ATOM     67  C   UNL     1      -2.139   8.066  -3.703  1.00  0.00     0.034 A 
BRANCH  54  68
ATOM     68  C   UNL     1       2.524   7.381  -6.337  1.00  0.00     0.023 A 
ATOM     69  C   UNL     1       2.094   8.228  -7.381  1.00  0.00     0.031 A 
ATOM     70  C   UNL     1       2.982   6.109  -6.741  1.00  0.00     0.131 A 
ATOM     71  C   UNL     1       2.004   7.766  -8.706  1.00  0.00     0.055 A 
ATOM     72  C   UNL     1       2.960   5.678  -8.073  1.00  0.00     0.041 A 
ATOM     73  F   UNL     1       3.395   5.176  -5.877  1.00  0.00    -0.206 F 
ATOM     74  C   UNL     1       2.433   6.492  -9.060  1.00  0.00     0.022 A 
BRANCH  71  75
ATOM     75  S   UNL     1       1.126   8.792  -9.915  1.00  0.00     0.124 S 
ATOM     76  O   UNL     1      -0.134   9.045  -9.222  1.00  0.00    -0.237 OA
ATOM     77  O   UNL     1       2.027   9.931 -10.052  1.00  0.00    -0.237 OA
ATOM     78  O   UNL     1       1.030   7.926 -11.087  1.00  0.00    -0.744 OA
ENDBRANCH  71  75
ENDBRANCH  54  68
BRANCH  55  79
ATOM     79  C   UNL     1      -3.257   2.270  -3.074  1.00  0.00     0.023 A 
ATOM     80  C   UNL     1      -4.419   1.993  -3.819  1.00  0.00     0.031 A 
ATOM     81  C   UNL     1      -2.447   1.164  -2.721  1.00  0.00     0.131 A 
ATOM     82  C   UNL     1      -4.733   0.660  -4.173  1.00  0.00     0.055 A 
ATOM     83  C   UNL     1      -2.767  -0.151  -3.066  1.00  0.00     0.041 A 
ATOM     84  F   UNL     1      -1.271   1.335  -2.095  1.00  0.00    -0.206 F 
ATOM     85  C   UNL     1      -3.911  -0.408  -3.803  1.00  0.00     0.022 A 
BRANCH  82  86
ATOM     86  S   UNL     1      -6.180   0.310  -5.221  1.00  0.00     0.124 S 
ATOM     87  O   UNL     1      -7.290   0.587  -4.317  1.00  0.00    -0.237 OA
ATOM     88  O   UNL     1      -5.997   1.240  -6.329  1.00  0.00    -0.237 OA
ATOM     89  O   UNL     1      -6.012  -1.100  -5.574  1.00  0.00    -0.744 OA
ENDBRANCH  82  86
ENDBRANCH  55  79
BRANCH  67  90
ATOM     90  C   UNL     1      -3.019   8.611  -2.593  1.00  0.00     0.023 A 
ATOM     91  C   UNL     1      -3.222   7.986  -1.341  1.00  0.00     0.031 A 
ATOM     92  C   UNL     1      -3.559   9.898  -2.769  1.00  0.00     0.131 A 
ATOM     93  C   UNL     1      -3.946   8.649  -0.328  1.00  0.00     0.055 A 
ATOM     94  C   UNL     1      -4.257  10.559  -1.759  1.00  0.00     0.041 A 
ATOM     95  F   UNL     1      -3.377  10.560  -3.924  1.00  0.00    -0.206 F 
ATOM     96  C   UNL     1      -4.458   9.933  -0.535  1.00  0.00     0.022 A 
BRANCH  93  97
ATOM     97  S   UNL     1      -4.247   7.846   1.281  1.00  0.00     0.124 S 
ATOM     98  O   UNL     1      -4.693   6.506   0.918  1.00  0.00    -0.237 OA
ATOM     99  O   UNL     1      -2.940   7.934   1.927  1.00  0.00    -0.237 OA
ATOM    100  O   UNL     1      -5.281   8.686   1.889  1.00  0.00    -0.744 OA
ENDBRANCH  93  97
ENDBRANCH  67  90
ENDBRANCH  41  42
ENDBRANCH  33  36
ENDBRANCH  31  32
ENDBRANCH  30  31
ENDBRANCH   1  30
TORSDOF 17
