REMARK SMILES O=C(NCCCNC(=O)c1ccc(-c2c3nc(c(-c4cc(S(=O)(=O)[O-])ccc4F)c4ccc([nH]4)c(-c4cc(S(=O)(=O)[O-])ccc4F)c4nc(c(-c5cc(S(=O)(=O)[O-])ccc5F)c5ccc2[nH]5)C=C4)C=C3)cc1)c1ccc(NS(=O)(=O)C2=Cc3ccccc3CC2)cc1
REMARK SMILES IDX 5 1 4 2 3 3 1 4 2 5 73 7 74 8 92 9 75 10 91 11 76 12 77 13
REMARK SMILES IDX 78 15 79 16 80 17 81 18 82 19 90 20 83 21 89 22 84 23 88 24
REMARK SMILES IDX 85 25 87 26 86 27 6 28 7 29 8 30 9 32 10 33 11 34 72 35
REMARK SMILES IDX 12 36 71 37 13 38 14 39 15 40 65 41 16 42 70 43 64 44 66 45
REMARK SMILES IDX 17 46 69 47 63 48 62 49 18 51 50 52 30 53 49 54 31 55 34 56
REMARK SMILES IDX 48 57 67 58 32 59 33 60 47 62 68 63 35 64 19 65 20 66 28 67
REMARK SMILES IDX 21 68 27 69 29 70 26 71 22 72 23 73 24 74 25 75 51 76 52 77
REMARK SMILES IDX 60 78 53 79 59 80 61 81 58 82 54 83 55 84 56 85 57 86 36 87
REMARK SMILES IDX 37 88 45 89 38 90 44 91 46 92 43 93 39 94 40 95 41 96 42 97
REMARK H PARENT 3 6 77 14 7 31 66 50 34 61
REMARK Flexibility Score: inf
ROOT
ATOM      1  C   UNL     1       4.773   2.514   0.100  1.00  0.00     0.042 C 
ENDROOT
BRANCH   1   2
ATOM      2  C   UNL     1       4.260   1.185   0.629  1.00  0.00     0.118 C 
BRANCH   2   3
ATOM      3  N   UNL     1       2.817   1.059   0.481  1.00  0.00    -0.352 N 
ATOM      4  O   UNL     1       0.895   0.278  -0.404  1.00  0.00    -0.269 OA
ATOM      5  C   UNL     1       2.095   0.118  -0.206  1.00  0.00     0.251 C 
ATOM      6  H   UNL     1       2.284   1.747   0.941  1.00  0.00     0.163 HD
BRANCH   5   7
ATOM      7  C   UNL     1       2.754  -1.116  -0.679  1.00  0.00     0.039 A 
ATOM      8  C   UNL     1       3.568  -1.849   0.186  1.00  0.00     0.016 A 
ATOM      9  C   UNL     1       2.465  -1.614  -1.952  1.00  0.00     0.016 A 
ATOM     10  C   UNL     1       4.125  -3.053  -0.234  1.00  0.00     0.027 A 
ATOM     11  C   UNL     1       3.036  -2.823  -2.372  1.00  0.00     0.027 A 
ATOM     12  C   UNL     1       3.886  -3.537  -1.520  1.00  0.00     0.049 A 
BRANCH  12  13
ATOM     13  N   UNL     1       4.299  -4.858  -1.880  1.00  0.00    -0.280 N 
ATOM     14  H   UNL     1       3.618  -5.533  -2.103  1.00  0.00     0.180 HD
BRANCH  13  15
ATOM     15  S   UNL     1       5.946  -5.284  -1.930  1.00  0.00     0.258 S 
ATOM     16  O   UNL     1       5.934  -6.734  -1.849  1.00  0.00    -0.202 OA
ATOM     17  O   UNL     1       6.455  -4.661  -3.135  1.00  0.00    -0.202 OA
BRANCH  15  18
ATOM     18  C   UNL     1       6.773  -4.602  -0.528  1.00  0.00     0.066 C 
ATOM     19  C   UNL     1       7.070  -5.463   0.471  1.00  0.00     0.026 C 
ATOM     20  C   UNL     1       7.820  -3.563  -0.847  1.00  0.00     0.055 C 
ATOM     21  C   UNL     1       8.425  -6.076   0.365  1.00  0.00    -0.021 A 
ATOM     22  C   UNL     1       9.132  -4.245  -1.257  1.00  0.00     0.041 C 
ATOM     23  C   UNL     1       8.709  -7.233   1.097  1.00  0.00     0.008 A 
ATOM     24  C   UNL     1       9.411  -5.508  -0.469  1.00  0.00    -0.040 A 
ATOM     25  C   UNL     1       9.951  -7.854   0.967  1.00  0.00     0.001 A 
ATOM     26  C   UNL     1      10.646  -6.154  -0.607  1.00  0.00     0.004 A 
ATOM     27  C   UNL     1      10.911  -7.325   0.105  1.00  0.00     0.000 A 
ENDBRANCH  15  18
ENDBRANCH  13  15
ENDBRANCH  12  13
ENDBRANCH   5   7
ENDBRANCH   2   3
ENDBRANCH   1   2
BRANCH   1  28
ATOM     28  C   UNL     1       4.270   3.718   0.880  1.00  0.00     0.118 C 
BRANCH  28  29
ATOM     29  N   UNL     1       4.815   3.787   2.232  1.00  0.00    -0.352 N 
ATOM     30  C   UNL     1       5.641   4.736   2.793  1.00  0.00     0.251 C 
ATOM     31  H   UNL     1       4.555   3.049   2.829  1.00  0.00     0.163 HD
ATOM     32  O   UNL     1       6.140   4.537   3.896  1.00  0.00    -0.269 OA
BRANCH  30  33
ATOM     33  C   UNL     1       5.949   5.969   2.037  1.00  0.00     0.039 A 
ATOM     34  C   UNL     1       7.273   6.404   1.939  1.00  0.00     0.014 A 
ATOM     35  C   UNL     1       4.931   6.659   1.376  1.00  0.00     0.014 A 
ATOM     36  C   UNL     1       7.587   7.470   1.091  1.00  0.00     0.010 A 
ATOM     37  C   UNL     1       5.259   7.645   0.456  1.00  0.00     0.010 A 
ATOM     38  C   UNL     1       6.591   8.060   0.298  1.00  0.00    -0.014 A 
BRANCH  38  39
ATOM     39  C   UNL     1       6.883   9.127  -0.695  1.00  0.00     0.031 A 
ATOM     40  C   UNL     1       6.196  10.459  -0.565  1.00  0.00     0.074 A 
ATOM     41  C   UNL     1       7.657   8.867  -1.767  1.00  0.00     0.049 A 
ATOM     42  N   UNL     1       6.110  11.440  -1.424  1.00  0.00    -0.248 NA
ATOM     43  C   UNL     1       5.461  10.687   0.688  1.00  0.00     0.031 C 
ATOM     44  C   UNL     1       8.362   7.609  -2.023  1.00  0.00     0.029 A 
ATOM     45  N   UNL     1       7.962   9.643  -2.857  1.00  0.00    -0.354 N 
ATOM     46  C   UNL     1       5.281  12.387  -0.831  1.00  0.00     0.074 A 
ATOM     47  C   UNL     1       4.840  11.826   0.428  1.00  0.00     0.031 C 
ATOM     48  C   UNL     1       9.033   7.708  -3.182  1.00  0.00     0.029 A 
ATOM     49  C   UNL     1       8.758   9.009  -3.783  1.00  0.00     0.049 A 
ATOM     50  H   UNL     1       7.640  10.567  -2.967  1.00  0.00     0.167 HD
ATOM     51  C   UNL     1       4.938  13.620  -1.284  1.00  0.00     0.034 A 
ATOM     52  C   UNL     1       9.196   9.421  -4.989  1.00  0.00     0.034 A 
ATOM     53  C   UNL     1       5.410  14.171  -2.530  1.00  0.00     0.049 A 
ATOM     54  C   UNL     1       8.785  10.783  -5.488  1.00  0.00     0.074 A 
ATOM     55  C   UNL     1       5.162  15.419  -3.074  1.00  0.00     0.029 A 
ATOM     56  N   UNL     1       6.232  13.503  -3.430  1.00  0.00    -0.354 N 
ATOM     57  N   UNL     1       8.004  11.671  -4.918  1.00  0.00    -0.248 NA
ATOM     58  C   UNL     1       9.315  11.196  -6.794  1.00  0.00     0.031 C 
ATOM     59  C   UNL     1       5.792  15.487  -4.322  1.00  0.00     0.029 A 
ATOM     60  C   UNL     1       6.488  14.307  -4.530  1.00  0.00     0.049 A 
ATOM     61  H   UNL     1       6.583  12.592  -3.304  1.00  0.00     0.167 HD
ATOM     62  C   UNL     1       7.981  12.764  -5.779  1.00  0.00     0.074 A 
ATOM     63  C   UNL     1       8.824  12.421  -6.907  1.00  0.00     0.031 C 
ATOM     64  C   UNL     1       7.331  13.947  -5.645  1.00  0.00     0.034 A 
BRANCH  51  65
ATOM     65  C   UNL     1       3.990  14.425  -0.426  1.00  0.00     0.023 A 
ATOM     66  C   UNL     1       4.322  14.792   0.890  1.00  0.00     0.031 A 
ATOM     67  C   UNL     1       2.711  14.766  -0.899  1.00  0.00     0.131 A 
ATOM     68  C   UNL     1       3.354  15.375   1.721  1.00  0.00     0.055 A 
ATOM     69  C   UNL     1       1.784  15.437  -0.097  1.00  0.00     0.041 A 
ATOM     70  F   UNL     1       2.327  14.428  -2.140  1.00  0.00    -0.206 F 
ATOM     71  C   UNL     1       2.095  15.724   1.230  1.00  0.00     0.022 A 
BRANCH  68  72
ATOM     72  S   UNL     1       3.703  15.490   3.498  1.00  0.00     0.124 S 
ATOM     73  O   UNL     1       3.949  14.091   3.840  1.00  0.00    -0.237 OA
ATOM     74  O   UNL     1       4.864  16.370   3.535  1.00  0.00    -0.237 OA
ATOM     75  O   UNL     1       2.473  16.052   4.053  1.00  0.00    -0.744 OA
ENDBRANCH  68  72
ENDBRANCH  51  65
BRANCH  52  76
ATOM     76  C   UNL     1      10.068   8.541  -5.815  1.00  0.00     0.023 A 
ATOM     77  C   UNL     1      11.406   8.887  -6.060  1.00  0.00     0.031 A 
ATOM     78  C   UNL     1       9.575   7.356  -6.390  1.00  0.00     0.131 A 
ATOM     79  C   UNL     1      12.197   8.079  -6.890  1.00  0.00     0.055 A 
ATOM     80  C   UNL     1      10.379   6.532  -7.180  1.00  0.00     0.041 A 
ATOM     81  F   UNL     1       8.306   6.976  -6.177  1.00  0.00    -0.206 F 
ATOM     82  C   UNL     1      11.696   6.898  -7.442  1.00  0.00     0.022 A 
BRANCH  79  83
ATOM     83  S   UNL     1      13.880   8.627  -7.286  1.00  0.00     0.124 S 
ATOM     84  O   UNL     1      13.629   9.902  -7.947  1.00  0.00    -0.237 OA
ATOM     85  O   UNL     1      14.494   8.698  -5.965  1.00  0.00    -0.237 OA
ATOM     86  O   UNL     1      14.389   7.564  -8.150  1.00  0.00    -0.744 OA
ENDBRANCH  79  83
ENDBRANCH  52  76
BRANCH  64  87
ATOM     87  C   UNL     1       7.566  14.982  -6.716  1.00  0.00     0.023 A 
ATOM     88  C   UNL     1       7.058  14.835  -8.017  1.00  0.00     0.031 A 
ATOM     89  C   UNL     1       8.314  16.136  -6.420  1.00  0.00     0.131 A 
ATOM     90  C   UNL     1       7.340  15.807  -8.989  1.00  0.00     0.055 A 
ATOM     91  C   UNL     1       8.549  17.123  -7.376  1.00  0.00     0.041 A 
ATOM     92  F   UNL     1       8.822  16.323  -5.191  1.00  0.00    -0.206 F 
ATOM     93  C   UNL     1       8.069  16.957  -8.672  1.00  0.00     0.022 A 
BRANCH  90  94
ATOM     94  S   UNL     1       6.796  15.521 -10.695  1.00  0.00     0.124 S 
ATOM     95  O   UNL     1       7.501  14.288 -11.035  1.00  0.00    -0.237 OA
ATOM     96  O   UNL     1       5.349  15.407 -10.548  1.00  0.00    -0.237 OA
ATOM     97  O   UNL     1       7.254  16.713 -11.406  1.00  0.00    -0.744 OA
ENDBRANCH  90  94
ENDBRANCH  64  87
ENDBRANCH  38  39
ENDBRANCH  30  33
ENDBRANCH  28  29
ENDBRANCH   1  28
TORSDOF 16
