REMARK SMILES O=C(NCCCNC(=O)[C@H]1[C@H](C(=O)NC2CC[NH+](Cc3ccccc3)CC2)[C@H]2C=C[C@@H]1C2)c1ccc(-c2c3nc(c(-c4cc(S(=O)(=O)[O-])ccc4F)c4ccc([nH]4)c(-c4cc(S(=O)(=O)[O-])ccc4F)c4nc(c(-c5cc(S(=O)(=O)[O-])ccc5F)c5ccc2[nH]5)C=C4)C=C3)cc1
REMARK SMILES IDX 5 1 4 2 3 3 1 4 2 5 33 7 34 8 95 9 35 10 94 11 36 12 37 13
REMARK SMILES IDX 38 14 88 15 39 16 93 17 87 18 89 19 40 20 92 21 86 22 85 23
REMARK SMILES IDX 41 25 73 26 53 27 72 28 54 29 57 30 71 31 90 32 55 33 56 34
REMARK SMILES IDX 70 36 91 37 58 38 42 39 43 40 51 41 44 42 50 43 52 44 49 45
REMARK SMILES IDX 45 46 46 47 47 48 48 49 74 50 75 51 83 52 76 53 82 54 84 55
REMARK SMILES IDX 81 56 77 57 78 58 79 59 80 60 59 61 60 62 68 63 61 64 67 65
REMARK SMILES IDX 69 66 66 67 62 68 63 69 64 70 65 71 6 72 7 73 8 74 9 76
REMARK SMILES IDX 10 77 11 78 31 79 28 80 30 81 32 82 29 83 12 84 13 85 14 86
REMARK SMILES IDX 15 88 16 89 27 90 17 91 26 92 18 93 19 95 20 96 21 97 25 98
REMARK SMILES IDX 22 99 24 100 23 101
REMARK H PARENT 3 6 89 24 57 35 7 75 14 87 18 94
REMARK Flexibility Score: inf
ROOT
ATOM      1  C   UNL     1       6.791  -2.466  -0.788  1.00  0.00     0.042 C 
ENDROOT
BRANCH   1   2
ATOM      2  C   UNL     1       8.118  -2.358  -0.057  1.00  0.00     0.118 C 
BRANCH   2   3
ATOM      3  N   UNL     1       8.438  -0.985   0.305  1.00  0.00    -0.352 N 
ATOM      4  O   UNL     1       8.522   0.847   1.605  1.00  0.00    -0.269 OA
ATOM      5  C   UNL     1       8.440  -0.372   1.538  1.00  0.00     0.251 C 
ATOM      6  H   UNL     1       8.692  -0.404  -0.449  1.00  0.00     0.163 HD
BRANCH   5   7
ATOM      7  C   UNL     1       8.326  -1.184   2.772  1.00  0.00     0.039 A 
ATOM      8  C   UNL     1       9.003  -2.397   2.893  1.00  0.00     0.014 A 
ATOM      9  C   UNL     1       7.547  -0.714   3.833  1.00  0.00     0.014 A 
ATOM     10  C   UNL     1       8.759  -3.221   3.984  1.00  0.00     0.010 A 
ATOM     11  C   UNL     1       7.401  -1.493   4.987  1.00  0.00     0.010 A 
ATOM     12  C   UNL     1       7.977  -2.770   5.058  1.00  0.00    -0.014 A 
BRANCH  12  13
ATOM     13  C   UNL     1       7.835  -3.638   6.259  1.00  0.00     0.031 A 
ATOM     14  C   UNL     1       6.490  -4.151   6.697  1.00  0.00     0.074 A 
ATOM     15  C   UNL     1       8.948  -3.995   6.930  1.00  0.00     0.049 A 
ATOM     16  N   UNL     1       6.196  -4.942   7.698  1.00  0.00    -0.248 NA
ATOM     17  C   UNL     1       5.324  -3.710   5.920  1.00  0.00     0.031 C 
ATOM     18  C   UNL     1      10.307  -3.555   6.597  1.00  0.00     0.029 A 
ATOM     19  N   UNL     1       9.127  -4.828   8.004  1.00  0.00    -0.354 N 
ATOM     20  C   UNL     1       4.811  -5.077   7.688  1.00  0.00     0.074 A 
ATOM     21  C   UNL     1       4.324  -4.253   6.601  1.00  0.00     0.031 C 
ATOM     22  C   UNL     1      11.181  -4.175   7.401  1.00  0.00     0.029 A 
ATOM     23  C   UNL     1      10.447  -4.988   8.361  1.00  0.00     0.049 A 
ATOM     24  H   UNL     1       8.384  -5.269   8.474  1.00  0.00     0.167 HD
ATOM     25  C   UNL     1       4.025  -5.823   8.506  1.00  0.00     0.034 A 
ATOM     26  C   UNL     1      11.006  -5.694   9.362  1.00  0.00     0.034 A 
ATOM     27  C   UNL     1       4.535  -6.641   9.583  1.00  0.00     0.049 A 
ATOM     28  C   UNL     1      10.107  -6.474  10.281  1.00  0.00     0.074 A 
ATOM     29  C   UNL     1       3.834  -7.466  10.447  1.00  0.00     0.029 A 
ATOM     30  N   UNL     1       5.872  -6.730   9.956  1.00  0.00    -0.354 N 
ATOM     31  N   UNL     1       8.801  -6.607  10.243  1.00  0.00    -0.248 NA
ATOM     32  C   UNL     1      10.759  -7.198  11.378  1.00  0.00     0.031 C 
ATOM     33  C   UNL     1       4.731  -7.987  11.386  1.00  0.00     0.029 A 
ATOM     34  C   UNL     1       6.009  -7.562  11.058  1.00  0.00     0.049 A 
ATOM     35  H   UNL     1       6.615  -6.269   9.503  1.00  0.00     0.167 HD
ATOM     36  C   UNL     1       8.479  -7.456  11.297  1.00  0.00     0.074 A 
ATOM     37  C   UNL     1       9.729  -7.817  11.935  1.00  0.00     0.031 C 
ATOM     38  C   UNL     1       7.260  -7.900  11.699  1.00  0.00     0.034 A 
BRANCH  25  39
ATOM     39  C   UNL     1       2.528  -5.742   8.299  1.00  0.00     0.023 A 
ATOM     40  C   UNL     1       1.917  -6.154   7.101  1.00  0.00     0.031 A 
ATOM     41  C   UNL     1       1.701  -5.215   9.307  1.00  0.00     0.131 A 
ATOM     42  C   UNL     1       0.539  -5.957   6.911  1.00  0.00     0.055 A 
ATOM     43  C   UNL     1       0.318  -5.102   9.146  1.00  0.00     0.041 A 
ATOM     44  F   UNL     1       2.225  -4.784  10.466  1.00  0.00    -0.206 F 
ATOM     45  C   UNL     1      -0.268  -5.458   7.935  1.00  0.00     0.022 A 
BRANCH  42  46
ATOM     46  S   UNL     1      -0.152  -6.211   5.253  1.00  0.00     0.124 S 
ATOM     47  O   UNL     1       0.674  -5.314   4.446  1.00  0.00    -0.237 OA
ATOM     48  O   UNL     1       0.058  -7.638   5.037  1.00  0.00    -0.237 OA
ATOM     49  O   UNL     1      -1.547  -5.798   5.395  1.00  0.00    -0.744 OA
ENDBRANCH  42  46
ENDBRANCH  25  39
BRANCH  26  50
ATOM     50  C   UNL     1      12.483  -5.678   9.560  1.00  0.00     0.023 A 
ATOM     51  C   UNL     1      13.239  -6.855   9.446  1.00  0.00     0.031 A 
ATOM     52  C   UNL     1      13.158  -4.490   9.896  1.00  0.00     0.131 A 
ATOM     53  C   UNL     1      14.617  -6.827   9.707  1.00  0.00     0.055 A 
ATOM     54  C   UNL     1      14.538  -4.457  10.095  1.00  0.00     0.041 A 
ATOM     55  F   UNL     1      12.483  -3.336  10.015  1.00  0.00    -0.206 F 
ATOM     56  C   UNL     1      15.274  -5.634  10.015  1.00  0.00     0.022 A 
BRANCH  53  57
ATOM     57  S   UNL     1      15.527  -8.396   9.723  1.00  0.00     0.124 S 
ATOM     58  O   UNL     1      14.806  -9.147  10.744  1.00  0.00    -0.237 OA
ATOM     59  O   UNL     1      15.361  -8.856   8.349  1.00  0.00    -0.237 OA
ATOM     60  O   UNL     1      16.886  -7.996  10.084  1.00  0.00    -0.744 OA
ENDBRANCH  53  57
ENDBRANCH  26  50
BRANCH  38  61
ATOM     61  C   UNL     1       7.239  -8.865  12.861  1.00  0.00     0.023 A 
ATOM     62  C   UNL     1       7.651  -8.483  14.150  1.00  0.00     0.031 A 
ATOM     63  C   UNL     1       6.839 -10.199  12.663  1.00  0.00     0.131 A 
ATOM     64  C   UNL     1       7.722  -9.441  15.173  1.00  0.00     0.055 A 
ATOM     65  C   UNL     1       6.844 -11.130  13.703  1.00  0.00     0.041 A 
ATOM     66  F   UNL     1       6.441 -10.621  11.453  1.00  0.00    -0.206 F 
ATOM     67  C   UNL     1       7.304 -10.757  14.962  1.00  0.00     0.022 A 
BRANCH  64  68
ATOM     68  S   UNL     1       8.480  -8.972  16.753  1.00  0.00     0.124 S 
ATOM     69  O   UNL     1       9.805  -8.526  16.333  1.00  0.00    -0.237 OA
ATOM     70  O   UNL     1       7.579  -7.929  17.234  1.00  0.00    -0.237 OA
ATOM     71  O   UNL     1       8.459 -10.213  17.526  1.00  0.00    -0.744 OA
ENDBRANCH  64  68
ENDBRANCH  38  61
ENDBRANCH  12  13
ENDBRANCH   5   7
ENDBRANCH   2   3
ENDBRANCH   1   2
BRANCH   1  72
ATOM     72  C   UNL     1       6.808  -1.856  -2.182  1.00  0.00     0.117 C 
BRANCH  72  73
ATOM     73  N   UNL     1       7.807  -2.443  -3.059  1.00  0.00    -0.356 N 
ATOM     74  C   UNL     1       7.672  -3.388  -4.037  1.00  0.00     0.224 C 
ATOM     75  H   UNL     1       8.724  -2.108  -2.929  1.00  0.00     0.163 HD
ATOM     76  O   UNL     1       8.647  -3.626  -4.747  1.00  0.00    -0.275 OA
BRANCH  74  77
ATOM     77  C   UNL     1       6.341  -4.101  -4.174  1.00  0.00     0.098 C 
ATOM     78  C   UNL     1       6.123  -4.833  -5.526  1.00  0.00     0.098 C 
ATOM     79  C   UNL     1       6.236  -5.269  -3.148  1.00  0.00     0.025 C 
ATOM     80  C   UNL     1       5.648  -6.237  -5.074  1.00  0.00     0.025 C 
ATOM     81  C   UNL     1       7.250  -6.355  -3.426  1.00  0.00    -0.027 C 
ATOM     82  C   UNL     1       5.018  -5.994  -3.696  1.00  0.00     0.017 C 
ATOM     83  C   UNL     1       6.886  -6.956  -4.571  1.00  0.00    -0.027 C 
BRANCH  78  84
ATOM     84  C   UNL     1       5.279  -4.133  -6.588  1.00  0.00     0.224 C 
ATOM     85  O   UNL     1       5.774  -3.942  -7.709  1.00  0.00    -0.275 OA
ATOM     86  N   UNL     1       4.009  -3.687  -6.462  1.00  0.00    -0.353 N 
ATOM     87  H   UNL     1       3.696  -3.220  -7.270  1.00  0.00     0.163 HD
BRANCH  86  88
ATOM     88  C   UNL     1       2.986  -3.730  -5.415  1.00  0.00     0.093 C 
ATOM     89  C   UNL     1       2.314  -5.100  -5.326  1.00  0.00     0.086 C 
ATOM     90  C   UNL     1       1.906  -2.656  -5.645  1.00  0.00     0.086 C 
ATOM     91  C   UNL     1       1.413  -5.370  -6.511  1.00  0.00     0.264 C 
ATOM     92  C   UNL     1       0.916  -3.016  -6.766  1.00  0.00     0.264 C 
ATOM     93  N   UNL     1       0.362  -4.364  -6.599  1.00  0.00    -0.331 N 
ATOM     94  H   UNL     1      -0.135  -4.345  -5.709  1.00  0.00     0.348 HD
BRANCH  93  95
ATOM     95  C   UNL     1      -0.653  -4.724  -7.607  1.00  0.00     0.299 C 
BRANCH  95  96
ATOM     96  C   UNL     1      -0.199  -4.675  -9.053  1.00  0.00     0.006 A 
ATOM     97  C   UNL     1      -0.559  -3.590  -9.864  1.00  0.00     0.009 A 
ATOM     98  C   UNL     1       0.630  -5.671  -9.592  1.00  0.00     0.009 A 
ATOM     99  C   UNL     1      -0.055  -3.477 -11.160  1.00  0.00     0.001 A 
ATOM    100  C   UNL     1       1.160  -5.541 -10.875  1.00  0.00     0.001 A 
ATOM    101  C   UNL     1       0.821  -4.441 -11.657  1.00  0.00     0.000 A 
ENDBRANCH  95  96
ENDBRANCH  93  95
ENDBRANCH  86  88
ENDBRANCH  78  84
ENDBRANCH  74  77
ENDBRANCH  72  73
ENDBRANCH   1  72
TORSDOF 17
