REMARK SMILES CC(C)C[C@H](NC(=O)[C@H](Cc1ccccc1)NC(=O)CNC(=O)C[NH3+])C(=O)NCCCNC(=O)c1ccc(-c2c3nc(c(-c4cc(S(=O)(=O)[O-])ccc4F)c4ccc([nH]4)c(-c4cc(S(=O)(=O)[O-])ccc4F)c4nc(c(-c5cc(S(=O)(=O)[O-])ccc5F)c5ccc2[nH]5)C=C4)C=C3)cc1
REMARK SMILES IDX 26 1 27 2 28 3 5 5 4 6 2 7 1 8 3 9 6 10 7 11 8 13 9 14 17 15
REMARK SMILES IDX 18 16 19 18 20 19 21 20 22 21 23 23 24 24 25 25 10 29 11 30
REMARK SMILES IDX 12 31 16 32 13 33 15 34 14 35 29 36 30 37 31 38 32 39 33 40
REMARK SMILES IDX 34 42 35 43 36 44 97 45 37 46 96 47 38 48 39 49 40 50 90 51
REMARK SMILES IDX 41 52 95 53 89 54 91 55 42 56 94 57 88 58 87 59 43 61 75 62
REMARK SMILES IDX 55 63 74 64 56 65 59 66 73 67 92 68 57 69 58 70 72 72 93 73
REMARK SMILES IDX 60 74 44 75 45 76 53 77 46 78 52 79 54 80 51 81 47 82 48 83
REMARK SMILES IDX 49 84 50 85 76 86 77 87 85 88 78 89 84 90 86 91 83 92 79 93
REMARK SMILES IDX 80 94 81 95 82 96 61 97 62 98 70 99 63 100 69 101 71 102
REMARK SMILES IDX 68 103 64 104 65 105 66 106 67 107
REMARK H PARENT 28 4 6 12 17 17 21 22 25 26 25 27 25 28 32 41 91 60 59 71
REMARK Flexibility Score: inf
ROOT
ATOM      1  C   UNL     1      -5.011  -2.802   0.897  1.00  0.00     0.242 C 
ATOM      2  O   UNL     1      -4.527  -3.402  -0.063  1.00  0.00    -0.273 OA
ATOM      3  N   UNL     1      -5.730  -3.504   1.827  1.00  0.00    -0.354 N 
ATOM      4  H   UNL     1      -5.919  -4.445   1.608  1.00  0.00     0.163 HD
ENDROOT
BRANCH   1   5
ATOM      5  C   UNL     1      -4.814  -1.285   1.084  1.00  0.00     0.171 C 
BRANCH   5   6
ATOM      6  C   UNL     1      -3.982  -0.981   2.328  1.00  0.00     0.038 C 
BRANCH   6   7
ATOM      7  C   UNL     1      -2.910  -1.968   2.825  1.00  0.00    -0.015 C 
ATOM      8  C   UNL     1      -1.710  -2.028   1.884  1.00  0.00     0.007 C 
ATOM      9  C   UNL     1      -2.458  -1.518   4.222  1.00  0.00     0.007 C 
ENDBRANCH   6   7
ENDBRANCH   5   6
BRANCH   5  10
ATOM     10  N   UNL     1      -6.182  -0.704   1.026  1.00  0.00    -0.343 N 
ATOM     11  C   UNL     1      -6.850   0.432   1.322  1.00  0.00     0.243 C 
ATOM     12  H   UNL     1      -6.805  -1.365   0.647  1.00  0.00     0.164 HD
ATOM     13  O   UNL     1      -8.043   0.417   0.976  1.00  0.00    -0.273 OA
BRANCH  11  14
ATOM     14  C   UNL     1      -6.332   1.639   2.148  1.00  0.00     0.175 C 
BRANCH  14  15
ATOM     15  N   UNL     1      -4.902   1.731   2.335  1.00  0.00    -0.342 N 
ATOM     16  C   UNL     1      -4.177   1.927   3.478  1.00  0.00     0.240 C 
ATOM     17  H   UNL     1      -4.368   1.638   1.513  1.00  0.00     0.164 HD
ATOM     18  O   UNL     1      -2.965   2.128   3.351  1.00  0.00    -0.273 OA
BRANCH  16  19
ATOM     19  C   UNL     1      -4.786   1.661   4.859  1.00  0.00     0.216 C 
BRANCH  19  20
ATOM     20  N   UNL     1      -5.939   2.468   5.198  1.00  0.00    -0.342 N 
ATOM     21  C   UNL     1      -7.068   2.071   5.856  1.00  0.00     0.275 C 
ATOM     22  H   UNL     1      -5.904   3.413   4.923  1.00  0.00     0.164 HD
ATOM     23  O   UNL     1      -7.940   2.908   6.093  1.00  0.00    -0.268 OA
BRANCH  21  24
ATOM     24  C   UNL     1      -7.250   0.596   6.237  1.00  0.00     0.360 C 
BRANCH  24  25
ATOM     25  N   UNL     1      -7.665  -0.185   5.057  1.00  0.00    -0.350 N 
ATOM     26  H   UNL     1      -8.551   0.176   4.704  1.00  0.00     0.344 HD
ATOM     27  H   UNL     1      -7.778  -1.165   5.321  1.00  0.00     0.344 HD
ATOM     28  H   UNL     1      -6.952  -0.109   4.331  1.00  0.00     0.344 HD
ENDBRANCH  24  25
ENDBRANCH  21  24
ENDBRANCH  19  20
ENDBRANCH  16  19
ENDBRANCH  14  15
BRANCH  14  29
ATOM     29  C   UNL     1      -6.949   2.935   1.522  1.00  0.00     0.070 C 
BRANCH  29  30
ATOM     30  C   UNL     1      -6.242   4.283   1.564  1.00  0.00    -0.045 A 
ATOM     31  C   UNL     1      -4.879   4.460   1.282  1.00  0.00     0.004 A 
ATOM     32  C   UNL     1      -7.012   5.444   1.740  1.00  0.00     0.004 A 
ATOM     33  C   UNL     1      -4.283   5.723   1.288  1.00  0.00     0.000 A 
ATOM     34  C   UNL     1      -6.428   6.716   1.698  1.00  0.00     0.000 A 
ATOM     35  C   UNL     1      -5.059   6.854   1.494  1.00  0.00     0.000 A 
ENDBRANCH  29  30
ENDBRANCH  14  29
ENDBRANCH  11  14
ENDBRANCH   5  10
ENDBRANCH   1   5
BRANCH   3  36
ATOM     36  C   UNL     1      -6.248  -3.026   3.100  1.00  0.00     0.117 C 
BRANCH  36  37
ATOM     37  C   UNL     1      -7.419  -3.837   3.607  1.00  0.00     0.042 C 
BRANCH  37  38
ATOM     38  C   UNL     1      -7.043  -5.257   3.986  1.00  0.00     0.118 C 
BRANCH  38  39
ATOM     39  N   UNL     1      -6.148  -5.333   5.136  1.00  0.00    -0.352 N 
ATOM     40  C   UNL     1      -6.303  -6.068   6.291  1.00  0.00     0.251 C 
ATOM     41  H   UNL     1      -5.328  -4.791   5.079  1.00  0.00     0.163 HD
ATOM     42  O   UNL     1      -5.527  -5.922   7.229  1.00  0.00    -0.269 OA
BRANCH  40  43
ATOM     43  C   UNL     1      -7.453  -6.990   6.387  1.00  0.00     0.039 A 
ATOM     44  C   UNL     1      -8.305  -6.911   7.489  1.00  0.00     0.014 A 
ATOM     45  C   UNL     1      -7.749  -7.839   5.318  1.00  0.00     0.014 A 
ATOM     46  C   UNL     1      -9.510  -7.615   7.471  1.00  0.00     0.010 A 
ATOM     47  C   UNL     1      -8.998  -8.438   5.252  1.00  0.00     0.010 A 
ATOM     48  C   UNL     1      -9.893  -8.338   6.328  1.00  0.00    -0.014 A 
BRANCH  48  49
ATOM     49  C   UNL     1     -11.211  -9.017   6.234  1.00  0.00     0.031 A 
ATOM     50  C   UNL     1     -11.260 -10.504   6.001  1.00  0.00     0.074 A 
ATOM     51  C   UNL     1     -12.350  -8.295   6.268  1.00  0.00     0.049 A 
ATOM     52  N   UNL     1     -12.290 -11.274   5.765  1.00  0.00    -0.248 NA
ATOM     53  C   UNL     1      -9.968 -11.210   5.982  1.00  0.00     0.031 C 
ATOM     54  C   UNL     1     -12.429  -6.840   6.427  1.00  0.00     0.029 A 
ATOM     55  N   UNL     1     -13.662  -8.684   6.160  1.00  0.00    -0.354 N 
ATOM     56  C   UNL     1     -11.768 -12.544   5.541  1.00  0.00     0.074 A 
ATOM     57  C   UNL     1     -10.328 -12.421   5.590  1.00  0.00     0.031 C 
ATOM     58  C   UNL     1     -13.719  -6.467   6.441  1.00  0.00     0.029 A 
ATOM     59  C   UNL     1     -14.559  -7.644   6.243  1.00  0.00     0.049 A 
ATOM     60  H   UNL     1     -13.936  -9.621   6.034  1.00  0.00     0.167 HD
ATOM     61  C   UNL     1     -12.428 -13.712   5.348  1.00  0.00     0.034 A 
ATOM     62  C   UNL     1     -15.905  -7.639   6.162  1.00  0.00     0.034 A 
ATOM     63  C   UNL     1     -13.865 -13.819   5.340  1.00  0.00     0.049 A 
ATOM     64  C   UNL     1     -16.621  -8.951   5.956  1.00  0.00     0.074 A 
ATOM     65  C   UNL     1     -14.644 -14.956   5.220  1.00  0.00     0.029 A 
ATOM     66  N   UNL     1     -14.741 -12.747   5.460  1.00  0.00    -0.354 N 
ATOM     67  N   UNL     1     -16.114 -10.153   5.800  1.00  0.00    -0.248 NA
ATOM     68  C   UNL     1     -18.088  -8.908   5.928  1.00  0.00     0.031 C 
ATOM     69  C   UNL     1     -15.988 -14.566   5.207  1.00  0.00     0.029 A 
ATOM     70  C   UNL     1     -16.050 -13.194   5.395  1.00  0.00     0.049 A 
ATOM     71  H   UNL     1     -14.470 -11.808   5.575  1.00  0.00     0.167 HD
ATOM     72  C   UNL     1     -17.203 -11.012   5.692  1.00  0.00     0.074 A 
ATOM     73  C   UNL     1     -18.392 -10.193   5.810  1.00  0.00     0.031 C 
ATOM     74  C   UNL     1     -17.222 -12.358   5.516  1.00  0.00     0.034 A 
BRANCH  61  75
ATOM     75  C   UNL     1     -11.594 -14.950   5.118  1.00  0.00     0.023 A 
ATOM     76  C   UNL     1     -10.692 -15.422   6.089  1.00  0.00     0.031 A 
ATOM     77  C   UNL     1     -11.665 -15.643   3.897  1.00  0.00     0.131 A 
ATOM     78  C   UNL     1      -9.836 -16.491   5.790  1.00  0.00     0.055 A 
ATOM     79  C   UNL     1     -10.874 -16.765   3.640  1.00  0.00     0.041 A 
ATOM     80  F   UNL     1     -12.490 -15.229   2.923  1.00  0.00    -0.206 F 
ATOM     81  C   UNL     1      -9.939 -17.184   4.582  1.00  0.00     0.022 A 
BRANCH  78  82
ATOM     82  S   UNL     1      -8.479 -16.857   6.938  1.00  0.00     0.124 S 
ATOM     83  O   UNL     1      -7.745 -15.594   6.936  1.00  0.00    -0.237 OA
ATOM     84  O   UNL     1      -9.187 -17.182   8.170  1.00  0.00    -0.237 OA
ATOM     85  O   UNL     1      -7.785 -17.974   6.302  1.00  0.00    -0.744 OA
ENDBRANCH  78  82
ENDBRANCH  61  75
BRANCH  62  86
ATOM     86  C   UNL     1     -16.669  -6.363   6.279  1.00  0.00     0.023 A 
ATOM     87  C   UNL     1     -17.541  -6.140   7.356  1.00  0.00     0.031 A 
ATOM     88  C   UNL     1     -16.570  -5.364   5.294  1.00  0.00     0.131 A 
ATOM     89  C   UNL     1     -18.315  -4.970   7.401  1.00  0.00     0.055 A 
ATOM     90  C   UNL     1     -17.304  -4.178   5.370  1.00  0.00     0.041 A 
ATOM     91  F   UNL     1     -15.745  -5.522   4.247  1.00  0.00    -0.206 F 
ATOM     92  C   UNL     1     -18.194  -3.982   6.421  1.00  0.00     0.022 A 
BRANCH  89  93
ATOM     93  S   UNL     1     -19.549  -4.795   8.719  1.00  0.00     0.124 S 
ATOM     94  O   UNL     1     -20.376  -5.979   8.510  1.00  0.00    -0.237 OA
ATOM     95  O   UNL     1     -18.715  -4.798   9.916  1.00  0.00    -0.237 OA
ATOM     96  O   UNL     1     -20.195  -3.520   8.414  1.00  0.00    -0.744 OA
ENDBRANCH  89  93
ENDBRANCH  62  86
BRANCH  74  97
ATOM     97  C   UNL     1     -18.571 -13.030   5.501  1.00  0.00     0.023 A 
ATOM     98  C   UNL     1     -19.488 -12.830   4.455  1.00  0.00     0.031 A 
ATOM     99  C   UNL     1     -18.939 -13.890   6.551  1.00  0.00     0.131 A 
ATOM    100  C   UNL     1     -20.748 -13.444   4.507  1.00  0.00     0.055 A 
ATOM    101  C   UNL     1     -20.171 -14.544   6.568  1.00  0.00     0.041 A 
ATOM    102  F   UNL     1     -18.100 -14.116   7.575  1.00  0.00    -0.206 F 
ATOM    103  C   UNL     1     -21.088 -14.313   5.548  1.00  0.00     0.022 A 
BRANCH 100 104
ATOM    104  S   UNL     1     -21.971 -13.030   3.233  1.00  0.00     0.124 S 
ATOM    105  O   UNL     1     -22.107 -11.587   3.401  1.00  0.00    -0.237 OA
ATOM    106  O   UNL     1     -21.309 -13.470   2.010  1.00  0.00    -0.237 OA
ATOM    107  O   UNL     1     -23.145 -13.813   3.617  1.00  0.00    -0.744 OA
ENDBRANCH 100 104
ENDBRANCH  74  97
ENDBRANCH  48  49
ENDBRANCH  40  43
ENDBRANCH  38  39
ENDBRANCH  37  38
ENDBRANCH  36  37
ENDBRANCH   3  36
TORSDOF 24
