REMARK SMILES CC[C@](C)(C(=O)NCCCNC(=O)c1ccc(-c2c3nc(c(-c4cc(S(=O)(=O)[O-])ccc4F)c4ccc([nH]4)c(-c4cc(S(=O)(=O)[O-])ccc4F)c4nc(c(-c5cc(S(=O)(=O)[O-])ccc5F)c5ccc2[nH]5)C=C4)C=C3)cc1)[C@@H]1CCC[C@@H]1O
REMARK SMILES IDX 9 1 8 2 7 3 5 4 6 5 3 7 4 8 2 9 1 10 77 11 78 12 81 13 79 14
REMARK SMILES IDX 80 15 82 16 10 18 11 19 12 20 13 22 14 23 15 24 76 25 16 26
REMARK SMILES IDX 75 27 17 28 18 29 19 30 69 31 20 32 74 33 68 34 70 35 21 36
REMARK SMILES IDX 73 37 67 38 66 39 22 41 54 42 34 43 53 44 35 45 38 46 52 47
REMARK SMILES IDX 71 48 36 49 37 50 51 52 72 53 39 54 23 55 24 56 32 57 25 58
REMARK SMILES IDX 31 59 33 60 30 61 26 62 27 63 28 64 29 65 55 66 56 67 64 68
REMARK SMILES IDX 57 69 63 70 65 71 62 72 58 73 59 74 60 75 61 76 40 77 41 78
REMARK SMILES IDX 49 79 42 80 48 81 50 82 47 83 43 84 44 85 45 86 46 87
REMARK H PARENT 7 6 82 17 11 21 70 40 38 51
REMARK Flexibility Score: inf
ROOT
ATOM      1  C   UNL     1       3.210   4.028  -1.721  1.00  0.00     0.042 C 
ENDROOT
BRANCH   1   2
ATOM      2  C   UNL     1       3.674   2.608  -1.442  1.00  0.00     0.117 C 
BRANCH   2   3
ATOM      3  N   UNL     1       4.323   2.474  -0.150  1.00  0.00    -0.356 N 
ATOM      4  C   UNL     1       4.080   1.675   0.925  1.00  0.00     0.226 C 
ATOM      5  O   UNL     1       4.949   1.709   1.798  1.00  0.00    -0.274 OA
ATOM      6  H   UNL     1       5.089   3.080  -0.027  1.00  0.00     0.163 HD
BRANCH   4   7
ATOM      7  C   UNL     1       2.815   0.780   1.031  1.00  0.00     0.051 C 
ATOM      8  C   UNL     1       1.581   1.730   0.890  1.00  0.00     0.022 C 
BRANCH   7   9
ATOM      9  C   UNL     1       2.794  -0.281  -0.112  1.00  0.00     0.013 C 
ATOM     10  C   UNL     1       4.171  -0.754  -0.592  1.00  0.00     0.005 C 
ENDBRANCH   7   9
BRANCH   7  11
ATOM     11  C   UNL     1       2.630   0.080   2.457  1.00  0.00     0.033 C 
ATOM     12  C   UNL     1       2.898   0.998   3.674  1.00  0.00     0.007 C 
ATOM     13  C   UNL     1       3.370  -1.204   2.875  1.00  0.00     0.118 C 
ATOM     14  C   UNL     1       4.185   0.484   4.344  1.00  0.00     0.003 C 
ATOM     15  C   UNL     1       4.644  -0.726   3.540  1.00  0.00     0.032 C 
BRANCH  13  16
ATOM     16  O   UNL     1       3.569  -2.171   1.873  1.00  0.00    -0.393 OA
ATOM     17  H   UNL     1       4.127  -1.800   1.172  1.00  0.00     0.210 HD
ENDBRANCH  13  16
ENDBRANCH   7  11
ENDBRANCH   4   7
ENDBRANCH   2   3
ENDBRANCH   1   2
BRANCH   1  18
ATOM     18  C   UNL     1       4.345   5.041  -1.778  1.00  0.00     0.118 C 
BRANCH  18  19
ATOM     19  N   UNL     1       5.310   4.748  -2.832  1.00  0.00    -0.352 N 
ATOM     20  C   UNL     1       5.593   5.438  -3.986  1.00  0.00     0.251 C 
ATOM     21  H   UNL     1       5.840   3.929  -2.695  1.00  0.00     0.163 HD
ATOM     22  O   UNL     1       6.293   4.917  -4.851  1.00  0.00    -0.269 OA
BRANCH  20  23
ATOM     23  C   UNL     1       5.032   6.789  -4.189  1.00  0.00     0.039 A 
ATOM     24  C   UNL     1       4.488   7.130  -5.430  1.00  0.00     0.014 A 
ATOM     25  C   UNL     1       5.031   7.713  -3.144  1.00  0.00     0.014 A 
ATOM     26  C   UNL     1       3.868   8.372  -5.594  1.00  0.00     0.010 A 
ATOM     27  C   UNL     1       4.327   8.902  -3.277  1.00  0.00     0.010 A 
ATOM     28  C   UNL     1       3.745   9.250  -4.506  1.00  0.00    -0.014 A 
BRANCH  28  29
ATOM     29  C   UNL     1       3.052  10.560  -4.614  1.00  0.00     0.031 A 
ATOM     30  C   UNL     1       3.819  11.821  -4.323  1.00  0.00     0.074 A 
ATOM     31  C   UNL     1       1.728  10.610  -4.855  1.00  0.00     0.049 A 
ATOM     32  N   UNL     1       3.382  13.041  -4.151  1.00  0.00    -0.248 NA
ATOM     33  C   UNL     1       5.271  11.671  -4.146  1.00  0.00     0.031 C 
ATOM     34  C   UNL     1       0.868   9.453  -5.114  1.00  0.00     0.029 A 
ATOM     35  N   UNL     1       0.867  11.678  -4.896  1.00  0.00    -0.354 N 
ATOM     36  C   UNL     1       4.499  13.796  -3.807  1.00  0.00     0.074 A 
ATOM     37  C   UNL     1       5.615  12.878  -3.728  1.00  0.00     0.031 C 
ATOM     38  C   UNL     1      -0.393   9.875  -5.298  1.00  0.00     0.029 A 
ATOM     39  C   UNL     1      -0.443  11.323  -5.119  1.00  0.00     0.049 A 
ATOM     40  H   UNL     1       1.159  12.610  -4.777  1.00  0.00     0.167 HD
ATOM     41  C   UNL     1       4.590  15.133  -3.599  1.00  0.00     0.034 A 
ATOM     42  C   UNL     1      -1.560  12.076  -5.152  1.00  0.00     0.034 A 
ATOM     43  C   UNL     1       3.468  16.032  -3.714  1.00  0.00     0.049 A 
ATOM     44  C   UNL     1      -1.442  13.562  -4.929  1.00  0.00     0.074 A 
ATOM     45  C   UNL     1       3.446  17.410  -3.584  1.00  0.00     0.029 A 
ATOM     46  N   UNL     1       2.163  15.640  -3.989  1.00  0.00    -0.354 N 
ATOM     47  N   UNL     1      -0.376  14.270  -4.633  1.00  0.00    -0.248 NA
ATOM     48  C   UNL     1      -2.674  14.351  -5.053  1.00  0.00     0.031 C 
ATOM     49  C   UNL     1       2.122  17.843  -3.724  1.00  0.00     0.029 A 
ATOM     50  C   UNL     1       1.327  16.745  -4.014  1.00  0.00     0.049 A 
ATOM     51  H   UNL     1       1.874  14.711  -4.143  1.00  0.00     0.167 HD
ATOM     52  C   UNL     1      -0.804  15.592  -4.570  1.00  0.00     0.074 A 
ATOM     53  C   UNL     1      -2.224  15.582  -4.861  1.00  0.00     0.031 C 
ATOM     54  C   UNL     1      -0.088  16.715  -4.305  1.00  0.00     0.034 A 
BRANCH  41  55
ATOM     55  C   UNL     1       5.942  15.680  -3.202  1.00  0.00     0.023 A 
ATOM     56  C   UNL     1       7.068  15.537  -4.033  1.00  0.00     0.031 A 
ATOM     57  C   UNL     1       6.128  16.290  -1.949  1.00  0.00     0.131 A 
ATOM     58  C   UNL     1       8.340  15.892  -3.559  1.00  0.00     0.055 A 
ATOM     59  C   UNL     1       7.382  16.734  -1.524  1.00  0.00     0.041 A 
ATOM     60  F   UNL     1       5.098  16.440  -1.101  1.00  0.00    -0.206 F 
ATOM     61  C   UNL     1       8.502  16.514  -2.321  1.00  0.00     0.022 A 
BRANCH  58  62
ATOM     62  S   UNL     1       9.792  15.353  -4.505  1.00  0.00     0.124 S 
ATOM     63  O   UNL     1       9.601  13.904  -4.535  1.00  0.00    -0.237 OA
ATOM     64  O   UNL     1       9.617  16.047  -5.775  1.00  0.00    -0.237 OA
ATOM     65  O   UNL     1      10.918  15.808  -3.692  1.00  0.00    -0.744 OA
ENDBRANCH  58  62
ENDBRANCH  41  55
BRANCH  42  66
ATOM     66  C   UNL     1      -2.885  11.441  -5.400  1.00  0.00     0.023 A 
ATOM     67  C   UNL     1      -3.594  11.690  -6.585  1.00  0.00     0.031 A 
ATOM     68  C   UNL     1      -3.466  10.582  -4.450  1.00  0.00     0.131 A 
ATOM     69  C   UNL     1      -4.861  11.116  -6.776  1.00  0.00     0.055 A 
ATOM     70  C   UNL     1      -4.706   9.978  -4.663  1.00  0.00     0.041 A 
ATOM     71  F   UNL     1      -2.823  10.302  -3.305  1.00  0.00    -0.206 F 
ATOM     72  C   UNL     1      -5.416  10.252  -5.829  1.00  0.00     0.022 A 
BRANCH  69  73
ATOM     73  S   UNL     1      -5.801  11.560  -8.262  1.00  0.00     0.124 S 
ATOM     74  O   UNL     1      -5.939  13.003  -8.105  1.00  0.00    -0.237 OA
ATOM     75  O   UNL     1      -4.912  11.111  -9.328  1.00  0.00    -0.237 OA
ATOM     76  O   UNL     1      -7.039  10.795  -8.122  1.00  0.00    -0.744 OA
ENDBRANCH  69  73
ENDBRANCH  42  66
BRANCH  54  77
ATOM     77  C   UNL     1      -0.819  18.031  -4.381  1.00  0.00     0.023 A 
ATOM     78  C   UNL     1      -1.797  18.396  -3.440  1.00  0.00     0.031 A 
ATOM     79  C   UNL     1      -0.521  18.938  -5.414  1.00  0.00     0.131 A 
ATOM     80  C   UNL     1      -2.472  19.618  -3.575  1.00  0.00     0.055 A 
ATOM     81  C   UNL     1      -1.158  20.175  -5.513  1.00  0.00     0.041 A 
ATOM     82  F   UNL     1       0.404  18.637  -6.340  1.00  0.00    -0.206 F 
ATOM     83  C   UNL     1      -2.147  20.516  -4.596  1.00  0.00     0.022 A 
BRANCH  80  84
ATOM     84  S   UNL     1      -3.836  19.992  -2.440  1.00  0.00     0.124 S 
ATOM     85  O   UNL     1      -4.755  18.887  -2.694  1.00  0.00    -0.237 OA
ATOM     86  O   UNL     1      -3.173  19.984  -1.140  1.00  0.00    -0.237 OA
ATOM     87  O   UNL     1      -4.305  21.303  -2.887  1.00  0.00    -0.744 OA
ENDBRANCH  80  84
ENDBRANCH  54  77
ENDBRANCH  28  29
ENDBRANCH  20  23
ENDBRANCH  18  19
ENDBRANCH   1  18
TORSDOF 16
