REMARK SMILES C[C@@H](C(=O)NCCCNC(=O)c1ccc(-c2c3nc(c(-c4cc(S(=O)(=O)[O-])ccc4F)c4ccc([nH]4)c(-c4cc(S(=O)(=O)[O-])ccc4F)c4nc(c(-c5cc(S(=O)(=O)[O-])ccc5F)c5ccc2[nH]5)C=C4)C=C3)cc1)[C@H](C)[S@@](=O)c1ccc(F)c(F)c1
REMARK SMILES IDX 7 1 6 2 5 3 3 4 4 5 2 7 1 8 75 9 76 10 77 11 78 12 79 13
REMARK SMILES IDX 80 14 86 15 81 16 84 17 82 18 85 19 83 20 8 21 9 22 10 23
REMARK SMILES IDX 11 25 12 26 13 27 74 28 14 29 73 30 15 31 16 32 17 33 67 34
REMARK SMILES IDX 18 35 72 36 66 37 68 38 19 39 71 40 65 41 64 42 20 44 52 45
REMARK SMILES IDX 32 46 51 47 33 48 36 49 50 50 69 51 34 52 35 53 49 55 70 56
REMARK SMILES IDX 37 57 21 58 22 59 30 60 23 61 29 62 31 63 28 64 24 65 25 66
REMARK SMILES IDX 26 67 27 68 53 69 54 70 62 71 55 72 61 73 63 74 60 75 56 76
REMARK SMILES IDX 57 77 58 78 59 79 38 80 39 81 47 82 40 83 46 84 48 85 45 86
REMARK SMILES IDX 41 87 42 88 43 89 44 90
REMARK H PARENT 5 6 9 24 68 43 36 54
REMARK Flexibility Score: inf
ROOT
ATOM      1  C   UNL     1      -3.016  -3.947   1.516  1.00  0.00     0.042 C 
ENDROOT
BRANCH   1   2
ATOM      2  C   UNL     1      -1.734  -3.188   1.837  1.00  0.00     0.117 C 
BRANCH   2   3
ATOM      3  N   UNL     1      -1.173  -2.537   0.659  1.00  0.00    -0.356 N 
ATOM      4  C   UNL     1      -1.110  -1.208   0.340  1.00  0.00     0.224 C 
ATOM      5  O   UNL     1      -0.660  -0.885  -0.757  1.00  0.00    -0.275 OA
ATOM      6  H   UNL     1      -0.780  -3.146  -0.007  1.00  0.00     0.163 HD
BRANCH   4   7
ATOM      7  C   UNL     1      -1.587  -0.187   1.370  1.00  0.00     0.091 C 
ATOM      8  C   UNL     1      -3.118  -0.160   1.312  1.00  0.00     0.019 C 
BRANCH   7   9
ATOM      9  C   UNL     1      -0.942   1.197   1.148  1.00  0.00     0.093 C 
ATOM     10  C   UNL     1       0.592   1.181   1.202  1.00  0.00     0.023 C 
BRANCH   9  11
ATOM     11  S   UNL     1      -1.551   2.566   2.222  1.00  0.00     0.057 S 
ATOM     12  O   UNL     1      -3.047   2.601   2.219  1.00  0.00    -0.254 OA
BRANCH  11  13
ATOM     13  C   UNL     1      -1.080   2.156   3.917  1.00  0.00     0.042 A 
ATOM     14  C   UNL     1      -1.286   0.914   4.533  1.00  0.00     0.021 A 
ATOM     15  C   UNL     1      -0.573   3.203   4.701  1.00  0.00     0.060 A 
ATOM     16  C   UNL     1      -0.892   0.687   5.858  1.00  0.00     0.043 A 
ATOM     17  C   UNL     1      -0.232   2.988   6.035  1.00  0.00     0.160 A 
ATOM     18  C   UNL     1      -0.367   1.730   6.604  1.00  0.00     0.158 A 
ATOM     19  F   UNL     1       0.219   4.014   6.770  1.00  0.00    -0.204 F 
ATOM     20  F   UNL     1      -0.019   1.520   7.881  1.00  0.00    -0.204 F 
ENDBRANCH  11  13
ENDBRANCH   9  11
ENDBRANCH   7   9
ENDBRANCH   4   7
ENDBRANCH   2   3
ENDBRANCH   1   2
BRANCH   1  21
ATOM     21  C   UNL     1      -2.805  -5.150   0.607  1.00  0.00     0.118 C 
BRANCH  21  22
ATOM     22  N   UNL     1      -2.034  -6.201   1.254  1.00  0.00    -0.352 N 
ATOM     23  C   UNL     1      -2.381  -7.505   1.511  1.00  0.00     0.251 C 
ATOM     24  H   UNL     1      -1.132  -5.940   1.550  1.00  0.00     0.163 HD
ATOM     25  O   UNL     1      -1.674  -8.178   2.259  1.00  0.00    -0.269 OA
BRANCH  23  26
ATOM     26  C   UNL     1      -3.608  -8.081   0.918  1.00  0.00     0.039 A 
ATOM     27  C   UNL     1      -4.436  -8.874   1.715  1.00  0.00     0.014 A 
ATOM     28  C   UNL     1      -3.945  -7.837  -0.416  1.00  0.00     0.014 A 
ATOM     29  C   UNL     1      -5.640  -9.358   1.195  1.00  0.00     0.010 A 
ATOM     30  C   UNL     1      -5.181  -8.250  -0.906  1.00  0.00     0.010 A 
ATOM     31  C   UNL     1      -6.045  -9.012  -0.104  1.00  0.00    -0.014 A 
BRANCH  31  32
ATOM     32  C   UNL     1      -7.371  -9.420  -0.638  1.00  0.00     0.031 A 
ATOM     33  C   UNL     1      -7.457 -10.315  -1.845  1.00  0.00     0.074 A 
ATOM     34  C   UNL     1      -8.494  -8.920  -0.083  1.00  0.00     0.049 A 
ATOM     35  N   UNL     1      -8.511 -10.698  -2.517  1.00  0.00    -0.248 NA
ATOM     36  C   UNL     1      -6.185 -10.826  -2.382  1.00  0.00     0.031 C 
ATOM     37  C   UNL     1      -8.536  -8.017   1.070  1.00  0.00     0.029 A 
ATOM     38  N   UNL     1      -9.816  -9.084  -0.419  1.00  0.00    -0.354 N 
ATOM     39  C   UNL     1      -8.032 -11.475  -3.567  1.00  0.00     0.074 A 
ATOM     40  C   UNL     1      -6.588 -11.470  -3.467  1.00  0.00     0.031 C 
ATOM     41  C   UNL     1      -9.815  -7.725   1.355  1.00  0.00     0.029 A 
ATOM     42  C   UNL     1     -10.683  -8.366   0.373  1.00  0.00     0.049 A 
ATOM     43  H   UNL     1     -10.115  -9.662  -1.158  1.00  0.00     0.167 HD
ATOM     44  C   UNL     1      -8.735 -12.142  -4.515  1.00  0.00     0.034 A 
ATOM     45  C   UNL     1     -12.022  -8.217   0.301  1.00  0.00     0.034 A 
ATOM     46  C   UNL     1     -10.176 -12.149  -4.587  1.00  0.00     0.049 A 
ATOM     47  C   UNL     1     -12.775  -8.936  -0.792  1.00  0.00     0.074 A 
ATOM     48  C   UNL     1     -10.989 -12.857  -5.455  1.00  0.00     0.029 A 
ATOM     49  N   UNL     1     -11.020 -11.402  -3.775  1.00  0.00    -0.354 N 
ATOM     50  N   UNL     1     -12.310  -9.727  -1.732  1.00  0.00    -0.248 NA
ATOM     51  C   UNL     1     -14.231  -8.747  -0.833  1.00  0.00     0.031 C 
ATOM     52  C   UNL     1     -12.313 -12.471  -5.229  1.00  0.00     0.029 A 
ATOM     53  C   UNL     1     -12.339 -11.592  -4.158  1.00  0.00     0.049 A 
ATOM     54  H   UNL     1     -10.724 -10.821  -3.037  1.00  0.00     0.167 HD
ATOM     55  C   UNL     1     -13.423 -10.153  -2.453  1.00  0.00     0.074 A 
ATOM     56  C   UNL     1     -14.580  -9.546  -1.830  1.00  0.00     0.031 C 
ATOM     57  C   UNL     1     -13.484 -10.975  -3.532  1.00  0.00     0.034 A 
BRANCH  44  58
ATOM     58  C   UNL     1      -7.960 -12.890  -5.573  1.00  0.00     0.023 A 
ATOM     59  C   UNL     1      -7.129 -13.979  -5.258  1.00  0.00     0.031 A 
ATOM     60  C   UNL     1      -8.060 -12.508  -6.923  1.00  0.00     0.131 A 
ATOM     61  C   UNL     1      -6.386 -14.608  -6.269  1.00  0.00     0.055 A 
ATOM     62  C   UNL     1      -7.380 -13.189  -7.934  1.00  0.00     0.041 A 
ATOM     63  F   UNL     1      -8.819 -11.461  -7.283  1.00  0.00    -0.206 F 
ATOM     64  C   UNL     1      -6.527 -14.239  -7.608  1.00  0.00     0.022 A 
BRANCH  61  65
ATOM     65  S   UNL     1      -5.133 -15.829  -5.791  1.00  0.00     0.124 S 
ATOM     66  O   UNL     1      -4.274 -15.042  -4.909  1.00  0.00    -0.237 OA
ATOM     67  O   UNL     1      -5.932 -16.865  -5.147  1.00  0.00    -0.237 OA
ATOM     68  O   UNL     1      -4.524 -16.211  -7.064  1.00  0.00    -0.744 OA
ENDBRANCH  61  65
ENDBRANCH  44  58
BRANCH  45  69
ATOM     69  C   UNL     1     -12.744  -7.330   1.261  1.00  0.00     0.023 A 
ATOM     70  C   UNL     1     -13.730  -7.843   2.118  1.00  0.00     0.031 A 
ATOM     71  C   UNL     1     -12.508  -5.943   1.288  1.00  0.00     0.131 A 
ATOM     72  C   UNL     1     -14.487  -6.972   2.917  1.00  0.00     0.055 A 
ATOM     73  C   UNL     1     -13.216  -5.089   2.135  1.00  0.00     0.041 A 
ATOM     74  F   UNL     1     -11.577  -5.396   0.490  1.00  0.00    -0.206 F 
ATOM     75  C   UNL     1     -14.226  -5.600   2.944  1.00  0.00     0.022 A 
BRANCH  72  76
ATOM     76  S   UNL     1     -15.901  -7.644   3.833  1.00  0.00     0.124 S 
ATOM     77  O   UNL     1     -16.681  -8.255   2.764  1.00  0.00    -0.237 OA
ATOM     78  O   UNL     1     -15.250  -8.565   4.760  1.00  0.00    -0.237 OA
ATOM     79  O   UNL     1     -16.500  -6.462   4.448  1.00  0.00    -0.744 OA
ENDBRANCH  72  76
ENDBRANCH  45  69
BRANCH  57  80
ATOM     80  C   UNL     1     -14.853 -11.301  -4.076  1.00  0.00     0.023 A 
ATOM     81  C   UNL     1     -15.661 -10.325  -4.685  1.00  0.00     0.031 A 
ATOM     82  C   UNL     1     -15.351 -12.614  -3.993  1.00  0.00     0.131 A 
ATOM     83  C   UNL     1     -16.942 -10.666  -5.144  1.00  0.00     0.055 A 
ATOM     84  C   UNL     1     -16.600 -12.961  -4.509  1.00  0.00     0.041 A 
ATOM     85  F   UNL     1     -14.624 -13.585  -3.417  1.00  0.00    -0.206 F 
ATOM     86  C   UNL     1     -17.408 -11.982  -5.079  1.00  0.00     0.022 A 
BRANCH  83  87
ATOM     87  S   UNL     1     -18.029  -9.349  -5.758  1.00  0.00     0.124 S 
ATOM     88  O   UNL     1     -18.142  -8.481  -4.590  1.00  0.00    -0.237 OA
ATOM     89  O   UNL     1     -17.266  -8.812  -6.880  1.00  0.00    -0.237 OA
ATOM     90  O   UNL     1     -19.253 -10.058  -6.125  1.00  0.00    -0.744 OA
ENDBRANCH  83  87
ENDBRANCH  57  80
ENDBRANCH  31  32
ENDBRANCH  23  26
ENDBRANCH  21  22
ENDBRANCH   1  21
TORSDOF 16
