REMARK SMILES O=C1O[C@@H](c2ccc(O)c(O)c2)[C@H](C(=O)NCCCNC(=O)c2ccc(-c3c4nc(c(-c5cc(S(=O)(=O)[O-])ccc5F)c5ccc([nH]5)c(-c5cc(S(=O)(=O)[O-])ccc5F)c5nc(c(-c6cc(S(=O)(=O)[O-])ccc6F)c6ccc3[nH]6)C=C5)C=C4)cc2)/C1=C\c1ccc(O)c(O)c1
REMARK SMILES IDX 18 1 17 2 16 3 14 4 15 5 13 7 1 8 2 9 3 10 86 11 4 12 87 13
REMARK SMILES IDX 5 14 6 15 12 16 7 17 10 18 8 19 11 20 9 22 88 24 89 25 95 26
REMARK SMILES IDX 90 27 93 28 91 29 94 30 92 32 19 34 20 35 21 36 22 38 23 39
REMARK SMILES IDX 24 40 85 41 25 42 84 43 26 44 27 45 28 46 78 47 29 48 83 49
REMARK SMILES IDX 77 50 79 51 30 52 82 53 76 54 75 55 31 57 63 58 43 59 62 60
REMARK SMILES IDX 44 61 47 62 61 63 80 64 45 65 46 66 60 68 81 69 48 70 32 71
REMARK SMILES IDX 33 72 41 73 34 74 40 75 42 76 39 77 35 78 36 79 37 80 38 81
REMARK SMILES IDX 64 82 65 83 73 84 66 85 72 86 74 87 71 88 67 89 68 90 69 91
REMARK SMILES IDX 70 92 49 93 50 94 58 95 51 96 57 97 59 98 56 99 52 100
REMARK SMILES IDX 53 101 54 102 55 103
REMARK H PARENT 16 6 11 21 9 23 94 31 92 33 20 37 79 56 47 67
REMARK Flexibility Score: inf
ROOT
ATOM      1  C   UNL     1       5.188   1.432   1.500  1.00  0.00     0.042 C 
ENDROOT
BRANCH   1   2
ATOM      2  C   UNL     1       4.038   0.443   1.558  1.00  0.00     0.117 C 
BRANCH   2   3
ATOM      3  N   UNL     1       2.829   0.977   2.161  1.00  0.00    -0.355 N 
ATOM      4  C   UNL     1       1.553   1.096   1.691  1.00  0.00     0.231 C 
ATOM      5  O   UNL     1       0.700   1.440   2.513  1.00  0.00    -0.274 OA
ATOM      6  H   UNL     1       2.954   1.317   3.076  1.00  0.00     0.163 HD
BRANCH   4   7
ATOM      7  C   UNL     1       1.232   0.920   0.202  1.00  0.00     0.161 C 
ATOM      8  O   UNL     1      -1.892  -0.796  -0.109  1.00  0.00    -0.247 OA
ATOM      9  C   UNL     1      -0.731  -0.426  -0.132  1.00  0.00     0.335 C 
ATOM     10  O   UNL     1       0.342  -1.237  -0.277  1.00  0.00    -0.453 OA
ATOM     11  C   UNL     1      -0.242   0.960  -0.039  1.00  0.00     0.054 C 
ATOM     12  C   UNL     1       1.560  -0.473  -0.329  1.00  0.00     0.224 C 
ATOM     13  C   UNL     1      -1.104   1.974  -0.206  1.00  0.00     0.020 C 
BRANCH  12  14
ATOM     14  C   UNL     1       2.181  -0.481  -1.729  1.00  0.00    -0.002 A 
ATOM     15  C   UNL     1       3.253   0.381  -2.060  1.00  0.00     0.012 A 
ATOM     16  C   UNL     1       1.762  -1.406  -2.698  1.00  0.00     0.057 A 
ATOM     17  C   UNL     1       3.890   0.322  -3.304  1.00  0.00     0.050 A 
ATOM     18  C   UNL     1       2.390  -1.447  -3.938  1.00  0.00     0.157 A 
ATOM     19  C   UNL     1       3.450  -0.598  -4.239  1.00  0.00     0.157 A 
BRANCH  18  20
ATOM     20  O   UNL     1       1.962  -2.349  -4.870  1.00  0.00    -0.504 OA
ATOM     21  H   UNL     1       2.377  -2.387  -5.710  1.00  0.00     0.293 HD
ENDBRANCH  18  20
BRANCH  19  22
ATOM     22  O   UNL     1       4.033  -0.711  -5.470  1.00  0.00    -0.504 OA
ATOM     23  H   UNL     1       4.749  -0.153  -5.703  1.00  0.00     0.293 HD
ENDBRANCH  19  22
ENDBRANCH  12  14
BRANCH  13  24
ATOM     24  C   UNL     1      -0.747   3.390  -0.164  1.00  0.00    -0.021 A 
ATOM     25  C   UNL     1       0.126   3.947  -1.112  1.00  0.00     0.012 A 
ATOM     26  C   UNL     1      -1.329   4.209   0.809  1.00  0.00     0.058 A 
ATOM     27  C   UNL     1       0.444   5.308  -1.071  1.00  0.00     0.051 A 
ATOM     28  C   UNL     1      -1.015   5.561   0.836  1.00  0.00     0.157 A 
ATOM     29  C   UNL     1      -0.131   6.107  -0.090  1.00  0.00     0.157 A 
BRANCH  28  30
ATOM     30  O   UNL     1      -1.587   6.360   1.785  1.00  0.00    -0.504 OA
ATOM     31  H   UNL     1      -1.382   7.274   1.813  1.00  0.00     0.293 HD
ENDBRANCH  28  30
BRANCH  29  32
ATOM     32  O   UNL     1       0.140   7.444   0.003  1.00  0.00    -0.504 OA
ATOM     33  H   UNL     1       0.730   7.846  -0.604  1.00  0.00     0.293 HD
ENDBRANCH  29  32
ENDBRANCH  13  24
ENDBRANCH   4   7
ENDBRANCH   2   3
ENDBRANCH   1   2
BRANCH   1  34
ATOM     34  C   UNL     1       5.743   1.811   2.863  1.00  0.00     0.118 C 
BRANCH  34  35
ATOM     35  N   UNL     1       6.245   0.660   3.603  1.00  0.00    -0.352 N 
ATOM     36  C   UNL     1       7.524   0.329   3.983  1.00  0.00     0.251 C 
ATOM     37  H   UNL     1       5.555   0.013   3.874  1.00  0.00     0.163 HD
ATOM     38  O   UNL     1       7.746  -0.802   4.406  1.00  0.00    -0.269 OA
BRANCH  36  39
ATOM     39  C   UNL     1       8.622   1.311   3.859  1.00  0.00     0.039 A 
ATOM     40  C   UNL     1       9.881   0.872   3.442  1.00  0.00     0.014 A 
ATOM     41  C   UNL     1       8.421   2.659   4.161  1.00  0.00     0.014 A 
ATOM     42  C   UNL     1      10.908   1.798   3.248  1.00  0.00     0.010 A 
ATOM     43  C   UNL     1       9.411   3.592   3.869  1.00  0.00     0.010 A 
ATOM     44  C   UNL     1      10.668   3.172   3.411  1.00  0.00    -0.014 A 
BRANCH  44  45
ATOM     45  C   UNL     1      11.712   4.184   3.101  1.00  0.00     0.031 A 
ATOM     46  C   UNL     1      12.209   5.111   4.179  1.00  0.00     0.074 A 
ATOM     47  C   UNL     1      12.157   4.312   1.834  1.00  0.00     0.049 A 
ATOM     48  N   UNL     1      13.051   6.108   4.086  1.00  0.00    -0.248 NA
ATOM     49  C   UNL     1      11.665   4.912   5.532  1.00  0.00     0.031 C 
ATOM     50  C   UNL     1      11.713   3.501   0.697  1.00  0.00     0.029 A 
ATOM     51  N   UNL     1      13.070   5.176   1.282  1.00  0.00    -0.354 N 
ATOM     52  C   UNL     1      13.123   6.665   5.358  1.00  0.00     0.074 A 
ATOM     53  C   UNL     1      12.198   5.929   6.192  1.00  0.00     0.031 C 
ATOM     54  C   UNL     1      12.371   3.889  -0.406  1.00  0.00     0.029 A 
ATOM     55  C   UNL     1      13.239   5.014  -0.075  1.00  0.00     0.049 A 
ATOM     56  H   UNL     1      13.559   5.850   1.808  1.00  0.00     0.167 HD
ATOM     57  C   UNL     1      13.902   7.686   5.792  1.00  0.00     0.034 A 
ATOM     58  C   UNL     1      13.988   5.706  -0.958  1.00  0.00     0.034 A 
ATOM     59  C   UNL     1      14.835   8.393   4.949  1.00  0.00     0.049 A 
ATOM     60  C   UNL     1      14.833   6.848  -0.449  1.00  0.00     0.074 A 
ATOM     61  C   UNL     1      15.731   9.385   5.305  1.00  0.00     0.029 A 
ATOM     62  N   UNL     1      14.982   8.197   3.582  1.00  0.00    -0.354 N 
ATOM     63  N   UNL     1      14.943   7.312   0.775  1.00  0.00    -0.248 NA
ATOM     64  C   UNL     1      15.661   7.553  -1.436  1.00  0.00     0.031 C 
ATOM     65  C   UNL     1      16.352   9.852   4.143  1.00  0.00     0.029 A 
ATOM     66  C   UNL     1      15.919   9.084   3.074  1.00  0.00     0.049 A 
ATOM     67  H   UNL     1      14.494   7.527   3.051  1.00  0.00     0.167 HD
ATOM     68  C   UNL     1      15.878   8.342   0.706  1.00  0.00     0.074 A 
ATOM     69  C   UNL     1      16.314   8.415  -0.672  1.00  0.00     0.031 C 
ATOM     70  C   UNL     1      16.337   9.153   1.693  1.00  0.00     0.034 A 
BRANCH  57  71
ATOM     71  C   UNL     1      13.759   8.125   7.230  1.00  0.00     0.023 A 
ATOM     72  C   UNL     1      14.077   7.277   8.305  1.00  0.00     0.031 A 
ATOM     73  C   UNL     1      13.308   9.424   7.528  1.00  0.00     0.131 A 
ATOM     74  C   UNL     1      13.887   7.717   9.623  1.00  0.00     0.055 A 
ATOM     75  C   UNL     1      13.198   9.883   8.841  1.00  0.00     0.041 A 
ATOM     76  F   UNL     1      12.965  10.270   6.544  1.00  0.00    -0.206 F 
ATOM     77  C   UNL     1      13.478   9.024   9.899  1.00  0.00     0.022 A 
BRANCH  74  78
ATOM     78  S   UNL     1      14.062   6.518  10.973  1.00  0.00     0.124 S 
ATOM     79  O   UNL     1      13.066   5.514  10.606  1.00  0.00    -0.237 OA
ATOM     80  O   UNL     1      15.456   6.108  10.851  1.00  0.00    -0.237 OA
ATOM     81  O   UNL     1      13.742   7.296  12.167  1.00  0.00    -0.744 OA
ENDBRANCH  74  78
ENDBRANCH  57  71
BRANCH  58  82
ATOM     82  C   UNL     1      13.953   5.371  -2.413  1.00  0.00     0.023 A 
ATOM     83  C   UNL     1      15.111   4.964  -3.094  1.00  0.00     0.031 A 
ATOM     84  C   UNL     1      12.770   5.519  -3.160  1.00  0.00     0.131 A 
ATOM     85  C   UNL     1      15.076   4.781  -4.486  1.00  0.00     0.055 A 
ATOM     86  C   UNL     1      12.725   5.269  -4.533  1.00  0.00     0.041 A 
ATOM     87  F   UNL     1      11.631   5.904  -2.562  1.00  0.00    -0.206 F 
ATOM     88  C   UNL     1      13.888   4.915  -5.207  1.00  0.00     0.022 A 
BRANCH  85  89
ATOM     89  S   UNL     1      16.638   4.484  -5.361  1.00  0.00     0.124 S 
ATOM     90  O   UNL     1      17.427   5.641  -4.955  1.00  0.00    -0.237 OA
ATOM     91  O   UNL     1      17.051   3.198  -4.812  1.00  0.00    -0.237 OA
ATOM     92  O   UNL     1      16.239   4.462  -6.767  1.00  0.00    -0.744 OA
ENDBRANCH  85  89
ENDBRANCH  58  82
BRANCH  70  93
ATOM     93  C   UNL     1      17.399  10.160   1.321  1.00  0.00     0.023 A 
ATOM     94  C   UNL     1      17.139  11.217   0.432  1.00  0.00     0.031 A 
ATOM     95  C   UNL     1      18.693  10.055   1.862  1.00  0.00     0.131 A 
ATOM     96  C   UNL     1      18.174  12.090   0.063  1.00  0.00     0.055 A 
ATOM     97  C   UNL     1      19.698  10.970   1.549  1.00  0.00     0.041 A 
ATOM     98  F   UNL     1      19.000   9.063   2.712  1.00  0.00    -0.206 F 
ATOM     99  C   UNL     1      19.445  11.987   0.633  1.00  0.00     0.022 A 
BRANCH  96 100
ATOM    100  S   UNL     1      17.863  13.300  -1.252  1.00  0.00     0.124 S 
ATOM    101  O   UNL     1      17.474  12.441  -2.366  1.00  0.00    -0.237 OA
ATOM    102  O   UNL     1      16.801  14.120  -0.678  1.00  0.00    -0.237 OA
ATOM    103  O   UNL     1      19.151  13.974  -1.409  1.00  0.00    -0.744 OA
ENDBRANCH  96 100
ENDBRANCH  70  93
ENDBRANCH  44  45
ENDBRANCH  36  39
ENDBRANCH  34  35
ENDBRANCH   1  34
TORSDOF 19
