REMARK SMILES O=C(C[C@@H]1C[N@@H+]([C@@H]2CCOc3ccccc32)CCO1)NCCCNC(=O)c1ccc(-c2c3nc(c(-c4cc(S(=O)(=O)[O-])ccc4F)c4ccc([nH]4)c(-c4cc(S(=O)(=O)[O-])ccc4F)c4nc(c(-c5cc(S(=O)(=O)[O-])ccc5F)c5ccc2[nH]5)C=C4)C=C3)cc1
REMARK SMILES IDX 22 1 21 2 20 3 1 4 2 5 3 7 4 8 5 9 19 10 6 11 18 12 17 13
REMARK SMILES IDX 7 15 8 16 16 17 9 18 11 19 15 20 10 21 12 22 14 23 13 24
REMARK SMILES IDX 23 25 24 26 25 27 26 29 27 30 28 31 89 32 29 33 88 34 30 35
REMARK SMILES IDX 31 36 32 37 82 38 33 39 87 40 81 41 83 42 34 43 86 44 80 45
REMARK SMILES IDX 79 46 35 48 67 49 47 50 66 51 48 52 51 53 65 54 84 55 49 56
REMARK SMILES IDX 50 57 64 59 85 60 52 61 36 62 37 63 45 64 38 65 44 66 46 67
REMARK SMILES IDX 43 68 39 69 40 70 41 71 42 72 68 73 69 74 77 75 70 76 76 77
REMARK SMILES IDX 78 78 75 79 71 80 72 81 73 82 74 83 53 84 54 85 62 86 55 87
REMARK SMILES IDX 61 88 63 89 60 90 56 91 57 92 58 93 59 94
REMARK H PARENT 20 6 6 14 24 28 83 47 51 58
REMARK Flexibility Score: inf
ROOT
ATOM      1  C   UNL     1       2.359  -3.616   0.459  1.00  0.00     0.042 C 
ENDROOT
BRANCH   1   2
ATOM      2  C   UNL     1       1.987  -2.260   1.047  1.00  0.00     0.117 C 
BRANCH   2   3
ATOM      3  N   UNL     1       2.507  -1.147   0.276  1.00  0.00    -0.356 N 
ATOM      4  O   UNL     1       0.708   0.244   0.631  1.00  0.00    -0.275 OA
ATOM      5  C   UNL     1       1.835   0.057   0.188  1.00  0.00     0.222 C 
ATOM      6  H   UNL     1       3.363  -1.253  -0.198  1.00  0.00     0.163 HD
BRANCH   5   7
ATOM      7  C   UNL     1       2.651   1.157  -0.458  1.00  0.00     0.138 C 
BRANCH   7   8
ATOM      8  C   UNL     1       3.533   1.936   0.529  1.00  0.00     0.182 C 
ATOM      9  C   UNL     1       3.941   1.153   1.797  1.00  0.00     0.295 C 
ATOM     10  O   UNL     1       2.877   3.160   0.909  1.00  0.00    -0.366 OA
ATOM     11  N   UNL     1       4.788   1.891   2.752  1.00  0.00    -0.324 N 
ATOM     12  C   UNL     1       3.741   3.969   1.721  1.00  0.00     0.222 C 
ATOM     13  C   UNL     1       4.234   3.232   2.982  1.00  0.00     0.291 C 
ATOM     14  H   UNL     1       4.733   1.389   3.638  1.00  0.00     0.348 HD
BRANCH  11  15
ATOM     15  C   UNL     1       6.251   1.798   2.565  1.00  0.00     0.222 C 
ATOM     16  C   UNL     1       6.848   2.728   1.497  1.00  0.00     0.112 C 
ATOM     17  C   UNL     1       6.739   0.364   2.403  1.00  0.00     0.051 A 
ATOM     18  C   UNL     1       8.191   2.205   1.025  1.00  0.00     0.236 C 
ATOM     19  C   UNL     1       7.547   0.003   1.317  1.00  0.00     0.128 A 
ATOM     20  C   UNL     1       6.389  -0.627   3.335  1.00  0.00     0.014 A 
ATOM     21  O   UNL     1       8.024   0.920   0.418  1.00  0.00    -0.493 OA
ATOM     22  C   UNL     1       7.906  -1.327   1.101  1.00  0.00     0.047 A 
ATOM     23  C   UNL     1       6.791  -1.951   3.147  1.00  0.00     0.001 A 
ATOM     24  C   UNL     1       7.530  -2.304   2.020  1.00  0.00     0.004 A 
ENDBRANCH  11  15
ENDBRANCH   7   8
ENDBRANCH   5   7
ENDBRANCH   2   3
ENDBRANCH   1   2
BRANCH   1  25
ATOM     25  C   UNL     1       3.851  -3.939   0.465  1.00  0.00     0.118 C 
BRANCH  25  26
ATOM     26  N   UNL     1       4.402  -4.116   1.800  1.00  0.00    -0.352 N 
ATOM     27  C   UNL     1       5.102  -5.173   2.335  1.00  0.00     0.251 C 
ATOM     28  H   UNL     1       4.251  -3.363   2.416  1.00  0.00     0.163 HD
ATOM     29  O   UNL     1       5.403  -5.161   3.527  1.00  0.00    -0.269 OA
BRANCH  27  30
ATOM     30  C   UNL     1       5.465  -6.336   1.495  1.00  0.00     0.039 A 
ATOM     31  C   UNL     1       5.219  -7.621   1.987  1.00  0.00     0.014 A 
ATOM     32  C   UNL     1       6.028  -6.170   0.227  1.00  0.00     0.014 A 
ATOM     33  C   UNL     1       5.435  -8.732   1.167  1.00  0.00     0.010 A 
ATOM     34  C   UNL     1       6.181  -7.273  -0.613  1.00  0.00     0.010 A 
ATOM     35  C   UNL     1       5.862  -8.563  -0.160  1.00  0.00    -0.014 A 
BRANCH  35  36
ATOM     36  C   UNL     1       5.922  -9.711  -1.103  1.00  0.00     0.031 A 
ATOM     37  C   UNL     1       7.233 -10.150  -1.692  1.00  0.00     0.074 A 
ATOM     38  C   UNL     1       4.775 -10.305  -1.492  1.00  0.00     0.049 A 
ATOM     39  N   UNL     1       7.468 -11.058  -2.604  1.00  0.00    -0.248 NA
ATOM     40  C   UNL     1       8.435  -9.456  -1.207  1.00  0.00     0.031 C 
ATOM     41  C   UNL     1       3.436  -9.944  -1.021  1.00  0.00     0.029 A 
ATOM     42  N   UNL     1       4.547 -11.325  -2.382  1.00  0.00    -0.354 N 
ATOM     43  C   UNL     1       8.843 -11.040  -2.813  1.00  0.00     0.074 A 
ATOM     44  C   UNL     1       9.379  -9.993  -1.967  1.00  0.00     0.031 C 
ATOM     45  C   UNL     1       2.531 -10.738  -1.615  1.00  0.00     0.029 A 
ATOM     46  C   UNL     1       3.215 -11.631  -2.544  1.00  0.00     0.049 A 
ATOM     47  H   UNL     1       5.269 -11.794  -2.860  1.00  0.00     0.167 HD
ATOM     48  C   UNL     1       9.589 -11.835  -3.621  1.00  0.00     0.034 A 
ATOM     49  C   UNL     1       2.609 -12.513  -3.363  1.00  0.00     0.034 A 
ATOM     50  C   UNL     1       9.040 -12.878  -4.455  1.00  0.00     0.049 A 
ATOM     51  C   UNL     1       3.455 -13.358  -4.279  1.00  0.00     0.074 A 
ATOM     52  C   UNL     1       9.712 -13.780  -5.263  1.00  0.00     0.029 A 
ATOM     53  N   UNL     1       7.686 -13.153  -4.599  1.00  0.00    -0.354 N 
ATOM     54  N   UNL     1       4.760 -13.362  -4.428  1.00  0.00    -0.248 NA
ATOM     55  C   UNL     1       2.747 -14.320  -5.134  1.00  0.00     0.031 C 
ATOM     56  C   UNL     1       8.764 -14.553  -5.944  1.00  0.00     0.029 A 
ATOM     57  C   UNL     1       7.501 -14.184  -5.509  1.00  0.00     0.049 A 
ATOM     58  H   UNL     1       6.962 -12.685  -4.124  1.00  0.00     0.167 HD
ATOM     59  C   UNL     1       5.028 -14.343  -5.378  1.00  0.00     0.074 A 
ATOM     60  C   UNL     1       3.753 -14.920  -5.753  1.00  0.00     0.031 C 
ATOM     61  C   UNL     1       6.222 -14.735  -5.892  1.00  0.00     0.034 A 
BRANCH  48  62
ATOM     62  C   UNL     1      11.077 -11.581  -3.660  1.00  0.00     0.023 A 
ATOM     63  C   UNL     1      11.884 -11.754  -2.522  1.00  0.00     0.031 A 
ATOM     64  C   UNL     1      11.694 -11.137  -4.842  1.00  0.00     0.131 A 
ATOM     65  C   UNL     1      13.244 -11.411  -2.568  1.00  0.00     0.055 A 
ATOM     66  C   UNL     1      13.065 -10.874  -4.904  1.00  0.00     0.041 A 
ATOM     67  F   UNL     1      10.973 -10.936  -5.956  1.00  0.00    -0.206 F 
ATOM     68  C   UNL     1      13.845 -10.995  -3.758  1.00  0.00     0.022 A 
BRANCH  65  69
ATOM     69  S   UNL     1      14.182 -11.379  -1.016  1.00  0.00     0.124 S 
ATOM     70  O   UNL     1      13.420 -10.410  -0.232  1.00  0.00    -0.237 OA
ATOM     71  O   UNL     1      14.103 -12.765  -0.571  1.00  0.00    -0.237 OA
ATOM     72  O   UNL     1      15.510 -10.929  -1.428  1.00  0.00    -0.744 OA
ENDBRANCH  65  69
ENDBRANCH  48  62
BRANCH  49  73
ATOM     73  C   UNL     1       1.123 -12.631  -3.378  1.00  0.00     0.023 A 
ATOM     74  C   UNL     1       0.488 -13.810  -2.958  1.00  0.00     0.031 A 
ATOM     75  C   UNL     1       0.319 -11.579  -3.852  1.00  0.00     0.131 A 
ATOM     76  C   UNL     1      -0.907 -13.926  -3.060  1.00  0.00     0.055 A 
ATOM     77  C   UNL     1      -1.072 -11.682  -3.905  1.00  0.00     0.041 A 
ATOM     78  F   UNL     1       0.877 -10.429  -4.261  1.00  0.00    -0.206 F 
ATOM     79  C   UNL     1      -1.692 -12.866  -3.519  1.00  0.00     0.022 A 
BRANCH  76  80
ATOM     80  S   UNL     1      -1.676 -15.518  -2.655  1.00  0.00     0.124 S 
ATOM     81  O   UNL     1      -1.005 -16.418  -3.587  1.00  0.00    -0.237 OA
ATOM     82  O   UNL     1      -1.326 -15.674  -1.248  1.00  0.00    -0.237 OA
ATOM     83  O   UNL     1      -3.095 -15.288  -2.921  1.00  0.00    -0.744 OA
ENDBRANCH  76  80
ENDBRANCH  49  73
BRANCH  61  84
ATOM     84  C   UNL     1       6.195 -15.864  -6.892  1.00  0.00     0.023 A 
ATOM     85  C   UNL     1       5.626 -15.705  -8.168  1.00  0.00     0.031 A 
ATOM     86  C   UNL     1       6.729 -17.120  -6.556  1.00  0.00     0.131 A 
ATOM     87  C   UNL     1       5.556 -16.800  -9.043  1.00  0.00     0.055 A 
ATOM     88  C   UNL     1       6.707 -18.191  -7.452  1.00  0.00     0.041 A 
ATOM     89  F   UNL     1       7.281 -17.328  -5.350  1.00  0.00    -0.206 F 
ATOM     90  C   UNL     1       6.107 -18.037  -8.698  1.00  0.00     0.022 A 
BRANCH  87  91
ATOM     91  S   UNL     1       4.659 -16.610 -10.608  1.00  0.00     0.124 S 
ATOM     92  O   UNL     1       3.320 -16.257 -10.149  1.00  0.00    -0.237 OA
ATOM     93  O   UNL     1       5.407 -15.545 -11.269  1.00  0.00    -0.237 OA
ATOM     94  O   UNL     1       4.775 -17.926 -11.232  1.00  0.00    -0.744 OA
ENDBRANCH  87  91
ENDBRANCH  61  84
ENDBRANCH  35  36
ENDBRANCH  27  30
ENDBRANCH  25  26
ENDBRANCH   1  25
TORSDOF 15
