REMARK SMILES CCCC[N@H+](CC)[C@H]1CCC[C@]([NH3+])(C(=O)NCCCNC(=O)c2ccc(-c3c4nc(c(-c5cc(S(=O)(=O)[O-])ccc5F)c5ccc([nH]5)c(-c5cc(S(=O)(=O)[O-])ccc5F)c5nc(c(-c6cc(S(=O)(=O)[O-])ccc6F)c6ccc3[nH]6)C=C5)C=C4)cc2)C1
REMARK SMILES IDX 17 1 16 2 14 3 15 4 12 6 8 7 9 8 86 9 10 10 11 11 5 12 4 14
REMARK SMILES IDX 3 15 2 16 1 17 6 18 7 19 13 20 18 24 19 25 20 26 21 27 22 29
REMARK SMILES IDX 23 30 24 31 85 32 25 33 84 34 26 35 27 36 28 37 78 38 29 39
REMARK SMILES IDX 83 40 77 41 79 42 30 43 82 44 76 45 75 46 31 48 63 49 43 50
REMARK SMILES IDX 62 51 44 52 47 53 61 54 80 55 45 56 46 57 60 59 81 60 48 61
REMARK SMILES IDX 32 62 33 63 41 64 34 65 40 66 42 67 39 68 35 69 36 70 37 71
REMARK SMILES IDX 38 72 64 73 65 74 73 75 66 76 72 77 74 78 71 79 67 80 68 81
REMARK SMILES IDX 69 82 70 83 49 84 50 85 58 86 51 87 57 88 59 89 56 90 52 91
REMARK SMILES IDX 53 92 54 93 55 94
REMARK H PARENT 16 5 5 13 13 21 13 22 13 23 20 28 79 47 47 58
REMARK Flexibility Score: inf
ROOT
ATOM      1  C   UNL     1      -4.281  -0.952  -6.107  1.00  0.00     0.118 C 
ENDROOT
BRANCH   1   2
ATOM      2  N   UNL     1      -3.594  -2.188  -6.431  1.00  0.00    -0.351 N 
ATOM      3  C   UNL     1      -3.163  -3.237  -5.683  1.00  0.00     0.281 C 
ATOM      4  O   UNL     1      -2.640  -4.159  -6.321  1.00  0.00    -0.268 OA
ATOM      5  H   UNL     1      -3.401  -2.287  -7.391  1.00  0.00     0.163 HD
BRANCH   3   6
ATOM      6  C   UNL     1      -3.407  -3.350  -4.140  1.00  0.00     0.179 C 
ATOM      7  C   UNL     1      -1.397  -1.973  -3.288  1.00  0.00     0.190 C 
ATOM      8  C   UNL     1      -0.691  -3.274  -2.848  1.00  0.00     0.065 C 
ATOM      9  C   UNL     1      -2.933  -2.151  -3.304  1.00  0.00     0.144 C 
ATOM     10  C   UNL     1      -1.188  -4.505  -3.600  1.00  0.00     0.013 C 
ATOM     11  C   UNL     1      -2.712  -4.619  -3.589  1.00  0.00     0.079 C 
BRANCH   7  12
ATOM     12  N   UNL     1      -0.972  -0.746  -2.555  1.00  0.00    -0.333 N 
ATOM     13  H   UNL     1      -1.345   0.017  -3.119  1.00  0.00     0.348 HD
BRANCH  12  14
ATOM     14  C   UNL     1       0.491  -0.554  -2.553  1.00  0.00     0.262 C 
BRANCH  14  15
ATOM     15  C   UNL     1       1.031   0.881  -2.364  1.00  0.00     0.061 C 
BRANCH  15  16
ATOM     16  C   UNL     1       1.077   1.495  -0.960  1.00  0.00     0.002 C 
ATOM     17  C   UNL     1       1.731   0.627   0.102  1.00  0.00     0.004 C 
ENDBRANCH  15  16
ENDBRANCH  14  15
ENDBRANCH  12  14
BRANCH  12  18
ATOM     18  C   UNL     1      -1.639  -0.488  -1.274  1.00  0.00     0.258 C 
ATOM     19  C   UNL     1      -1.429  -1.496  -0.150  1.00  0.00     0.071 C 
ENDBRANCH  12  18
ENDBRANCH   7  12
BRANCH   6  20
ATOM     20  N   UNL     1      -4.868  -3.556  -3.930  1.00  0.00    -0.345 N 
ATOM     21  H   UNL     1      -5.060  -3.633  -2.931  1.00  0.00     0.345 HD
ATOM     22  H   UNL     1      -5.162  -4.412  -4.400  1.00  0.00     0.345 HD
ATOM     23  H   UNL     1      -5.382  -2.763  -4.314  1.00  0.00     0.345 HD
ENDBRANCH   6  20
ENDBRANCH   3   6
ENDBRANCH   1   2
BRANCH   1  24
ATOM     24  C   UNL     1      -3.347   0.254  -6.134  1.00  0.00     0.042 C 
BRANCH  24  25
ATOM     25  C   UNL     1      -2.704   0.523  -7.494  1.00  0.00     0.118 C 
BRANCH  25  26
ATOM     26  N   UNL     1      -3.688   0.774  -8.535  1.00  0.00    -0.352 N 
ATOM     27  C   UNL     1      -3.900   1.880  -9.320  1.00  0.00     0.251 C 
ATOM     28  H   UNL     1      -4.304   0.026  -8.706  1.00  0.00     0.163 HD
ATOM     29  O   UNL     1      -4.938   1.943  -9.973  1.00  0.00    -0.269 OA
BRANCH  27  30
ATOM     30  C   UNL     1      -2.914   2.985  -9.383  1.00  0.00     0.039 A 
ATOM     31  C   UNL     1      -3.390   4.294  -9.506  1.00  0.00     0.014 A 
ATOM     32  C   UNL     1      -1.537   2.745  -9.397  1.00  0.00     0.014 A 
ATOM     33  C   UNL     1      -2.491   5.359  -9.604  1.00  0.00     0.010 A 
ATOM     34  C   UNL     1      -0.640   3.814  -9.420  1.00  0.00     0.010 A 
ATOM     35  C   UNL     1      -1.107   5.131  -9.540  1.00  0.00    -0.014 A 
BRANCH  35  36
ATOM     36  C   UNL     1      -0.146   6.263  -9.630  1.00  0.00     0.031 A 
ATOM     37  C   UNL     1       0.789   6.375 -10.805  1.00  0.00     0.074 A 
ATOM     38  C   UNL     1      -0.097   7.173  -8.638  1.00  0.00     0.049 A 
ATOM     39  N   UNL     1       1.704   7.279 -11.054  1.00  0.00    -0.248 NA
ATOM     40  C   UNL     1       0.703   5.315 -11.819  1.00  0.00     0.031 C 
ATOM     41  C   UNL     1      -0.918   7.145  -7.425  1.00  0.00     0.029 A 
ATOM     42  N   UNL     1       0.673   8.299  -8.489  1.00  0.00    -0.354 N 
ATOM     43  C   UNL     1       2.308   6.891 -12.245  1.00  0.00     0.074 A 
ATOM     44  C   UNL     1       1.699   5.636 -12.632  1.00  0.00     0.031 C 
ATOM     45  C   UNL     1      -0.628   8.218  -6.673  1.00  0.00     0.029 A 
ATOM     46  C   UNL     1       0.420   8.993  -7.329  1.00  0.00     0.049 A 
ATOM     47  H   UNL     1       1.345   8.583  -9.151  1.00  0.00     0.167 HD
ATOM     48  C   UNL     1       3.265   7.532 -12.964  1.00  0.00     0.034 A 
ATOM     49  C   UNL     1       0.970  10.126  -6.849  1.00  0.00     0.034 A 
ATOM     50  C   UNL     1       3.856   8.790 -12.570  1.00  0.00     0.049 A 
ATOM     51  C   UNL     1       2.023  10.827  -7.668  1.00  0.00     0.074 A 
ATOM     52  C   UNL     1       4.798   9.550 -13.241  1.00  0.00     0.029 A 
ATOM     53  N   UNL     1       3.563   9.473 -11.395  1.00  0.00    -0.354 N 
ATOM     54  N   UNL     1       2.546  10.474  -8.820  1.00  0.00    -0.248 NA
ATOM     55  C   UNL     1       2.541  12.090  -7.131  1.00  0.00     0.031 C 
ATOM     56  C   UNL     1       5.117  10.658 -12.447  1.00  0.00     0.029 A 
ATOM     57  C   UNL     1       4.322  10.631 -11.313  1.00  0.00     0.049 A 
ATOM     58  H   UNL     1       2.911   9.177 -10.719  1.00  0.00     0.167 HD
ATOM     59  C   UNL     1       3.437  11.489  -9.157  1.00  0.00     0.074 A 
ATOM     60  C   UNL     1       3.358  12.476  -8.099  1.00  0.00     0.031 C 
ATOM     61  C   UNL     1       4.247  11.598 -10.242  1.00  0.00     0.034 A 
BRANCH  48  62
ATOM     62  C   UNL     1       3.743   6.864 -14.233  1.00  0.00     0.023 A 
ATOM     63  C   UNL     1       2.874   6.626 -15.314  1.00  0.00     0.031 A 
ATOM     64  C   UNL     1       5.073   6.425 -14.353  1.00  0.00     0.131 A 
ATOM     65  C   UNL     1       3.321   5.897 -16.427  1.00  0.00     0.055 A 
ATOM     66  C   UNL     1       5.535   5.774 -15.500  1.00  0.00     0.041 A 
ATOM     67  F   UNL     1       5.946   6.605 -13.348  1.00  0.00    -0.206 F 
ATOM     68  C   UNL     1       4.653   5.492 -16.539  1.00  0.00     0.022 A 
BRANCH  65  69
ATOM     69  S   UNL     1       2.101   5.357 -17.656  1.00  0.00     0.124 S 
ATOM     70  O   UNL     1       1.197   4.552 -16.838  1.00  0.00    -0.237 OA
ATOM     71  O   UNL     1       1.566   6.621 -18.146  1.00  0.00    -0.237 OA
ATOM     72  O   UNL     1       2.897   4.600 -18.620  1.00  0.00    -0.744 OA
ENDBRANCH  65  69
ENDBRANCH  48  62
BRANCH  49  73
ATOM     73  C   UNL     1       0.535  10.678  -5.535  1.00  0.00     0.023 A 
ATOM     74  C   UNL     1      -0.129  11.912  -5.452  1.00  0.00     0.031 A 
ATOM     75  C   UNL     1       0.814   9.997  -4.337  1.00  0.00     0.131 A 
ATOM     76  C   UNL     1      -0.448  12.452  -4.196  1.00  0.00     0.055 A 
ATOM     77  C   UNL     1       0.450  10.514  -3.093  1.00  0.00     0.041 A 
ATOM     78  F   UNL     1       1.439   8.808  -4.361  1.00  0.00    -0.206 F 
ATOM     79  C   UNL     1      -0.173  11.756  -3.017  1.00  0.00     0.022 A 
BRANCH  76  80
ATOM     80  S   UNL     1      -1.157  14.120  -4.123  1.00  0.00     0.124 S 
ATOM     81  O   UNL     1      -0.132  14.909  -4.796  1.00  0.00    -0.237 OA
ATOM     82  O   UNL     1      -2.412  13.946  -4.847  1.00  0.00    -0.237 OA
ATOM     83  O   UNL     1      -1.296  14.367  -2.690  1.00  0.00    -0.744 OA
ENDBRANCH  76  80
ENDBRANCH  49  73
BRANCH  61  84
ATOM     84  C   UNL     1       5.079  12.854 -10.343  1.00  0.00     0.023 A 
ATOM     85  C   UNL     1       6.094  13.144  -9.415  1.00  0.00     0.031 A 
ATOM     86  C   UNL     1       4.822  13.795 -11.356  1.00  0.00     0.131 A 
ATOM     87  C   UNL     1       6.762  14.377  -9.471  1.00  0.00     0.055 A 
ATOM     88  C   UNL     1       5.536  14.990 -11.447  1.00  0.00     0.041 A 
ATOM     89  F   UNL     1       3.864  13.571 -12.270  1.00  0.00    -0.206 F 
ATOM     90  C   UNL     1       6.500  15.295 -10.490  1.00  0.00     0.022 A 
BRANCH  87  91
ATOM     91  S   UNL     1       7.891  14.816  -8.120  1.00  0.00     0.124 S 
ATOM     92  O   UNL     1       7.032  14.676  -6.948  1.00  0.00    -0.237 OA
ATOM     93  O   UNL     1       8.946  13.818  -8.259  1.00  0.00    -0.237 OA
ATOM     94  O   UNL     1       8.289  16.186  -8.437  1.00  0.00    -0.744 OA
ENDBRANCH  87  91
ENDBRANCH  61  84
ENDBRANCH  35  36
ENDBRANCH  27  30
ENDBRANCH  25  26
ENDBRANCH  24  25
ENDBRANCH   1  24
TORSDOF 19
