REMARK SMILES Cc1c(NC(=O)c2ccc(-c3cccc(Cl)c3)o2)cccc1C(=O)NCCCNC(=O)c1ccc(-c2c3nc(c(-c4cc(S(=O)(=O)[O-])ccc4F)c4ccc([nH]4)c(-c4cc(S(=O)(=O)[O-])ccc4F)c4nc(c(-c5cc(S(=O)(=O)[O-])ccc5F)c5ccc2[nH]5)C=C4)C=C3)cc1
REMARK SMILES IDX 27 1 26 2 25 3 23 4 24 5 22 7 1 8 2 9 3 10 19 11 21 12 20 13
REMARK SMILES IDX 4 14 5 15 6 17 7 18 8 19 18 20 9 21 10 22 11 23 12 24 17 25
REMARK SMILES IDX 13 26 15 27 14 28 16 29 28 30 29 31 30 32 31 34 32 35 33 36
REMARK SMILES IDX 94 37 34 38 93 39 35 40 36 41 37 42 87 43 38 44 92 45 86 46
REMARK SMILES IDX 88 47 39 48 91 49 85 50 84 51 40 53 72 54 52 55 71 56 53 57
REMARK SMILES IDX 56 58 70 59 89 60 54 61 55 62 69 64 90 65 57 66 41 67 42 68
REMARK SMILES IDX 50 69 43 70 49 71 51 72 48 73 44 74 45 75 46 76 47 77 73 78
REMARK SMILES IDX 74 79 82 80 75 81 81 82 83 83 80 84 76 85 77 86 78 87 79 88
REMARK SMILES IDX 58 89 59 90 67 91 60 92 66 93 68 94 65 95 61 96 62 97 63 98
REMARK SMILES IDX 64 99
REMARK H PARENT 25 6 4 16 29 33 88 52 56 63
REMARK Flexibility Score: inf
ROOT
ATOM      1  C   UNL     1       4.217   0.896  -0.990  1.00  0.00     0.042 C 
ENDROOT
BRANCH   1   2
ATOM      2  C   UNL     1       3.320   1.676  -0.018  1.00  0.00     0.118 C 
BRANCH   2   3
ATOM      3  N   UNL     1       2.235   2.360  -0.721  1.00  0.00    -0.352 N 
ATOM      4  C   UNL     1       0.889   2.118  -0.819  1.00  0.00     0.251 C 
ATOM      5  O   UNL     1       0.197   2.937  -1.430  1.00  0.00    -0.269 OA
ATOM      6  H   UNL     1       2.530   3.154  -1.223  1.00  0.00     0.163 HD
BRANCH   4   7
ATOM      7  C   UNL     1       0.191   0.954  -0.197  1.00  0.00     0.044 A 
ATOM      8  C   UNL     1       1.692  -0.859  -1.179  1.00  0.00     0.047 C 
ATOM      9  C   UNL     1       0.573  -0.398  -0.297  1.00  0.00    -0.015 A 
ATOM     10  C   UNL     1      -0.197  -1.392   0.348  1.00  0.00     0.045 A 
ATOM     11  C   UNL     1      -1.414  -1.059   0.949  1.00  0.00     0.026 A 
ATOM     12  C   UNL     1      -1.046   1.259   0.403  1.00  0.00     0.014 A 
ATOM     13  C   UNL     1      -1.853   0.261   0.948  1.00  0.00     0.003 A 
BRANCH  10  14
ATOM     14  N   UNL     1       0.331  -2.700   0.400  1.00  0.00    -0.319 N 
ATOM     15  C   UNL     1      -0.302  -3.919   0.417  1.00  0.00     0.291 C 
ATOM     16  H   UNL     1       1.314  -2.746   0.428  1.00  0.00     0.170 HD
ATOM     17  O   UNL     1       0.348  -4.922   0.724  1.00  0.00    -0.265 OA
BRANCH  15  18
ATOM     18  C   UNL     1      -1.667  -3.980  -0.035  1.00  0.00     0.192 A 
ATOM     19  C   UNL     1      -2.294  -3.509  -1.175  1.00  0.00     0.057 A 
ATOM     20  O   UNL     1      -2.581  -4.577   0.778  1.00  0.00    -0.451 OA
ATOM     21  C   UNL     1      -3.669  -3.820  -1.034  1.00  0.00     0.052 A 
ATOM     22  C   UNL     1      -3.799  -4.445   0.189  1.00  0.00     0.135 A 
BRANCH  22  23
ATOM     23  C   UNL     1      -4.910  -4.963   0.963  1.00  0.00     0.019 A 
ATOM     24  C   UNL     1      -5.976  -5.617   0.336  1.00  0.00     0.012 A 
ATOM     25  C   UNL     1      -4.925  -4.805   2.357  1.00  0.00     0.032 A 
ATOM     26  C   UNL     1      -7.039  -6.116   1.092  1.00  0.00     0.002 A 
ATOM     27  C   UNL     1      -5.992  -5.293   3.104  1.00  0.00     0.041 A 
ATOM     28  C   UNL     1      -7.048  -5.951   2.477  1.00  0.00     0.020 A 
ATOM     29  Cl  UNL     1      -6.011  -5.079   4.811  1.00  0.00    -0.084 Cl
ENDBRANCH  22  23
ENDBRANCH  15  18
ENDBRANCH  10  14
ENDBRANCH   4   7
ENDBRANCH   2   3
ENDBRANCH   1   2
BRANCH   1  30
ATOM     30  C   UNL     1       5.578   1.507  -1.273  1.00  0.00     0.118 C 
BRANCH  30  31
ATOM     31  N   UNL     1       6.676   0.539  -1.119  1.00  0.00    -0.352 N 
ATOM     32  C   UNL     1       7.986   0.649  -1.552  1.00  0.00     0.251 C 
ATOM     33  H   UNL     1       6.450  -0.294  -0.646  1.00  0.00     0.163 HD
ATOM     34  O   UNL     1       8.844  -0.187  -1.299  1.00  0.00    -0.269 OA
BRANCH  32  35
ATOM     35  C   UNL     1       8.351   1.907  -2.235  1.00  0.00     0.039 A 
ATOM     36  C   UNL     1       9.032   2.841  -1.450  1.00  0.00     0.014 A 
ATOM     37  C   UNL     1       7.608   2.289  -3.348  1.00  0.00     0.014 A 
ATOM     38  C   UNL     1       8.712   4.183  -1.590  1.00  0.00     0.010 A 
ATOM     39  C   UNL     1       7.228   3.617  -3.431  1.00  0.00     0.010 A 
ATOM     40  C   UNL     1       7.708   4.541  -2.492  1.00  0.00    -0.014 A 
BRANCH  40  41
ATOM     41  C   UNL     1       7.039   5.835  -2.423  1.00  0.00     0.031 A 
ATOM     42  C   UNL     1       7.377   6.871  -3.411  1.00  0.00     0.074 A 
ATOM     43  C   UNL     1       6.175   6.142  -1.428  1.00  0.00     0.049 A 
ATOM     44  N   UNL     1       7.405   8.134  -3.152  1.00  0.00    -0.248 NA
ATOM     45  C   UNL     1       7.771   6.543  -4.773  1.00  0.00     0.031 C 
ATOM     46  C   UNL     1       5.361   7.350  -1.310  1.00  0.00     0.029 A 
ATOM     47  N   UNL     1       6.050   5.522  -0.189  1.00  0.00    -0.354 N 
ATOM     48  C   UNL     1       7.547   8.795  -4.347  1.00  0.00     0.074 A 
ATOM     49  C   UNL     1       7.839   7.761  -5.315  1.00  0.00     0.031 C 
ATOM     50  C   UNL     1       5.038   7.532  -0.021  1.00  0.00     0.029 A 
ATOM     51  C   UNL     1       5.710   6.509   0.756  1.00  0.00     0.049 A 
ATOM     52  H   UNL     1       6.178   4.563  -0.005  1.00  0.00     0.167 HD
ATOM     53  C   UNL     1       7.274  10.128  -4.422  1.00  0.00     0.034 A 
ATOM     54  C   UNL     1       6.500   6.725   1.847  1.00  0.00     0.034 A 
ATOM     55  C   UNL     1       6.881  10.686  -3.125  1.00  0.00     0.049 A 
ATOM     56  C   UNL     1       7.181   8.085   1.851  1.00  0.00     0.074 A 
ATOM     57  C   UNL     1       5.670  11.051  -2.557  1.00  0.00     0.029 A 
ATOM     58  N   UNL     1       7.798  10.688  -2.085  1.00  0.00    -0.354 N 
ATOM     59  N   UNL     1       6.989   9.029   0.969  1.00  0.00    -0.248 NA
ATOM     60  C   UNL     1       8.227   8.431   2.812  1.00  0.00     0.031 C 
ATOM     61  C   UNL     1       5.876  11.266  -1.162  1.00  0.00     0.029 A 
ATOM     62  C   UNL     1       7.214  11.055  -0.885  1.00  0.00     0.049 A 
ATOM     63  H   UNL     1       8.749  10.456  -2.188  1.00  0.00     0.167 HD
ATOM     64  C   UNL     1       7.915  10.030   1.160  1.00  0.00     0.074 A 
ATOM     65  C   UNL     1       8.662   9.607   2.332  1.00  0.00     0.031 C 
ATOM     66  C   UNL     1       8.044  11.099   0.312  1.00  0.00     0.034 A 
BRANCH  53  67
ATOM     67  C   UNL     1       7.087  10.839  -5.741  1.00  0.00     0.023 A 
ATOM     68  C   UNL     1       6.174  11.906  -5.834  1.00  0.00     0.031 A 
ATOM     69  C   UNL     1       7.732  10.490  -6.944  1.00  0.00     0.131 A 
ATOM     70  C   UNL     1       5.839  12.473  -7.077  1.00  0.00     0.055 A 
ATOM     71  C   UNL     1       7.340  10.992  -8.191  1.00  0.00     0.041 A 
ATOM     72  F   UNL     1       8.805   9.685  -6.956  1.00  0.00    -0.206 F 
ATOM     73  C   UNL     1       6.371  11.979  -8.264  1.00  0.00     0.022 A 
BRANCH  70  74
ATOM     74  S   UNL     1       4.707  13.888  -7.120  1.00  0.00     0.124 S 
ATOM     75  O   UNL     1       3.517  13.356  -6.464  1.00  0.00    -0.237 OA
ATOM     76  O   UNL     1       5.455  14.899  -6.381  1.00  0.00    -0.237 OA
ATOM     77  O   UNL     1       4.555  14.157  -8.550  1.00  0.00    -0.744 OA
ENDBRANCH  70  74
ENDBRANCH  53  67
BRANCH  54  78
ATOM     78  C   UNL     1       7.088   5.457   2.373  1.00  0.00     0.023 A 
ATOM     79  C   UNL     1       6.198   4.481   2.879  1.00  0.00     0.031 A 
ATOM     80  C   UNL     1       8.378   5.046   2.012  1.00  0.00     0.131 A 
ATOM     81  C   UNL     1       6.558   3.126   2.863  1.00  0.00     0.055 A 
ATOM     82  C   UNL     1       8.746   3.698   2.043  1.00  0.00     0.041 A 
ATOM     83  F   UNL     1       9.255   5.919   1.494  1.00  0.00    -0.206 F 
ATOM     84  C   UNL     1       7.821   2.727   2.421  1.00  0.00     0.022 A 
BRANCH  81  85
ATOM     85  S   UNL     1       5.314   1.842   3.191  1.00  0.00     0.124 S 
ATOM     86  O   UNL     1       5.701   1.367   4.513  1.00  0.00    -0.237 OA
ATOM     87  O   UNL     1       4.050   2.567   3.119  1.00  0.00    -0.237 OA
ATOM     88  O   UNL     1       5.527   0.903   2.088  1.00  0.00    -0.744 OA
ENDBRANCH  81  85
ENDBRANCH  54  78
BRANCH  66  89
ATOM     89  C   UNL     1       9.019  12.250   0.512  1.00  0.00     0.023 A 
ATOM     90  C   UNL     1       9.505  12.626   1.775  1.00  0.00     0.031 A 
ATOM     91  C   UNL     1       9.450  13.064  -0.565  1.00  0.00     0.131 A 
ATOM     92  C   UNL     1      10.460  13.651   1.918  1.00  0.00     0.055 A 
ATOM     93  C   UNL     1      10.342  14.131  -0.412  1.00  0.00     0.041 A 
ATOM     94  F   UNL     1       9.040  12.859  -1.823  1.00  0.00    -0.206 F 
ATOM     95  C   UNL     1      10.875  14.415   0.833  1.00  0.00     0.022 A 
BRANCH  92  96
ATOM     96  S   UNL     1      11.196  13.925   3.551  1.00  0.00     0.124 S 
ATOM     97  O   UNL     1      10.024  14.114   4.399  1.00  0.00    -0.237 OA
ATOM     98  O   UNL     1      11.934  12.681   3.756  1.00  0.00    -0.237 OA
ATOM     99  O   UNL     1      12.025  15.113   3.362  1.00  0.00    -0.744 OA
ENDBRANCH  92  96
ENDBRANCH  66  89
ENDBRANCH  40  41
ENDBRANCH  32  35
ENDBRANCH  30  31
ENDBRANCH   1  30
TORSDOF 16
