REMARK SMILES O=C(Cn1cc(/C=C(/Cl)c2nnc(C(=O)Nc3ccc(Cl)cc3)s2)nn1)NCCCNC(=O)c1ccc(-c2c3nc(c(-c4cc(S(=O)(=O)[O-])ccc4F)c4ccc([nH]4)c(-c4cc(S(=O)(=O)[O-])ccc4F)c4nc(c(-c5cc(S(=O)(=O)[O-])ccc5F)c5ccc2[nH]5)C=C4)C=C3)cc1
REMARK SMILES IDX 28 1 27 2 1 3 2 4 3 6 4 7 5 8 26 9 6 10 25 11 7 12 8 13 9 14
REMARK SMILES IDX 10 15 11 16 24 17 12 18 13 19 14 20 15 21 16 22 17 24 18 25
REMARK SMILES IDX 23 26 19 27 22 28 20 29 21 30 29 31 30 32 31 33 32 34 33 36
REMARK SMILES IDX 34 37 35 38 96 39 36 40 95 41 37 42 38 43 39 44 89 45 40 46
REMARK SMILES IDX 94 47 88 48 90 49 41 50 93 51 87 52 86 53 42 55 74 56 54 57
REMARK SMILES IDX 73 58 55 59 58 60 72 61 91 62 56 63 57 64 71 66 92 67 59 68
REMARK SMILES IDX 43 69 44 70 52 71 45 72 51 73 53 74 50 75 46 76 47 77 48 78
REMARK SMILES IDX 49 79 75 80 76 81 84 82 77 83 83 84 85 85 82 86 78 87 79 88
REMARK SMILES IDX 80 89 81 90 60 91 61 92 69 93 62 94 68 95 70 96 67 97 63 98
REMARK SMILES IDX 64 99 65 100 66 101
REMARK H PARENT 27 5 16 23 31 35 90 54 58 65
REMARK Flexibility Score: inf
ROOT
ATOM      1  C   UNL     1       1.998  -1.584   1.928  1.00  0.00     0.117 C 
ENDROOT
BRANCH   1   2
ATOM      2  N   UNL     1       2.706  -0.767   0.953  1.00  0.00    -0.354 N 
ATOM      3  O   UNL     1       0.866  -0.083  -0.239  1.00  0.00    -0.273 OA
ATOM      4  C   UNL     1       2.075  -0.021  -0.023  1.00  0.00     0.241 C 
ATOM      5  H   UNL     1       3.690  -0.746   0.991  1.00  0.00     0.163 HD
BRANCH   4   6
ATOM      6  C   UNL     1       2.981   0.864  -0.864  1.00  0.00     0.245 C 
BRANCH   6   7
ATOM      7  N   UNL     1       3.673   1.835  -0.048  1.00  0.00    -0.242 N 
ATOM      8  C   UNL     1       3.513   3.191   0.020  1.00  0.00     0.139 A 
ATOM      9  N   UNL     1       4.627   1.413   0.798  1.00  0.00    -0.066 NA
ATOM     10  C   UNL     1       4.364   3.565   1.036  1.00  0.00     0.107 A 
ATOM     11  N   UNL     1       5.033   2.465   1.485  1.00  0.00    -0.131 NA
BRANCH  10  12
ATOM     12  C   UNL     1       4.546   4.866   1.597  1.00  0.00     0.055 C 
ATOM     13  C   UNL     1       5.439   5.248   2.534  1.00  0.00     0.081 C 
ATOM     14  Cl  UNL     1       5.495   6.895   3.066  1.00  0.00    -0.081 Cl
BRANCH  13  15
ATOM     15  C   UNL     1       6.402   4.353   3.069  1.00  0.00     0.159 A 
ATOM     16  N   UNL     1       6.242   3.423   3.992  1.00  0.00    -0.137 NA
ATOM     17  S   UNL     1       7.975   4.265   2.364  1.00  0.00    -0.086 S 
ATOM     18  N   UNL     1       7.165   2.396   3.834  1.00  0.00    -0.133 NA
ATOM     19  C   UNL     1       7.964   2.610   2.799  1.00  0.00     0.206 A 
BRANCH  19  20
ATOM     20  C   UNL     1       8.748   1.541   2.184  1.00  0.00     0.286 C 
ATOM     21  O   UNL     1       9.252   0.641   2.864  1.00  0.00    -0.266 OA
ATOM     22  N   UNL     1       8.799   1.338   0.799  1.00  0.00    -0.320 N 
ATOM     23  H   UNL     1       9.261   0.516   0.518  1.00  0.00     0.170 HD
BRANCH  22  24
ATOM     24  C   UNL     1       8.298   2.119  -0.251  1.00  0.00     0.041 A 
ATOM     25  C   UNL     1       8.735   3.426  -0.461  1.00  0.00     0.027 A 
ATOM     26  C   UNL     1       7.373   1.564  -1.137  1.00  0.00     0.027 A 
ATOM     27  C   UNL     1       8.086   4.252  -1.381  1.00  0.00     0.022 A 
ATOM     28  C   UNL     1       6.733   2.380  -2.078  1.00  0.00     0.022 A 
ATOM     29  C   UNL     1       7.054   3.734  -2.155  1.00  0.00     0.041 A 
ATOM     30  Cl  UNL     1       6.155   4.775  -3.188  1.00  0.00    -0.084 Cl
ENDBRANCH  22  24
ENDBRANCH  19  20
ENDBRANCH  13  15
ENDBRANCH  10  12
ENDBRANCH   6   7
ENDBRANCH   4   6
ENDBRANCH   1   2
BRANCH   1  31
ATOM     31  C   UNL     1       2.208  -3.089   1.750  1.00  0.00     0.042 C 
BRANCH  31  32
ATOM     32  C   UNL     1       3.649  -3.526   1.965  1.00  0.00     0.118 C 
BRANCH  32  33
ATOM     33  N   UNL     1       4.088  -3.505   3.362  1.00  0.00    -0.352 N 
ATOM     34  C   UNL     1       5.245  -4.048   3.895  1.00  0.00     0.251 C 
ATOM     35  H   UNL     1       3.489  -3.050   3.998  1.00  0.00     0.163 HD
ATOM     36  O   UNL     1       5.325  -4.262   5.107  1.00  0.00    -0.269 OA
BRANCH  34  37
ATOM     37  C   UNL     1       6.372  -4.378   2.997  1.00  0.00     0.039 A 
ATOM     38  C   UNL     1       7.198  -5.487   3.213  1.00  0.00     0.014 A 
ATOM     39  C   UNL     1       6.591  -3.552   1.899  1.00  0.00     0.014 A 
ATOM     40  C   UNL     1       8.182  -5.791   2.270  1.00  0.00     0.010 A 
ATOM     41  C   UNL     1       7.428  -3.947   0.890  1.00  0.00     0.010 A 
ATOM     42  C   UNL     1       8.276  -5.024   1.097  1.00  0.00    -0.014 A 
BRANCH  42  43
ATOM     43  C   UNL     1       9.152  -5.400  -0.008  1.00  0.00     0.031 A 
ATOM     44  C   UNL     1       8.904  -6.771  -0.527  1.00  0.00     0.074 A 
ATOM     45  C   UNL     1       9.927  -4.510  -0.670  1.00  0.00     0.049 A 
ATOM     46  N   UNL     1       9.683  -7.794  -0.420  1.00  0.00    -0.248 NA
ATOM     47  C   UNL     1       7.572  -7.103  -1.062  1.00  0.00     0.031 C 
ATOM     48  C   UNL     1      10.053  -3.064  -0.447  1.00  0.00     0.029 A 
ATOM     49  N   UNL     1      10.695  -4.696  -1.777  1.00  0.00    -0.354 N 
ATOM     50  C   UNL     1       9.059  -8.830  -1.106  1.00  0.00     0.074 A 
ATOM     51  C   UNL     1       7.692  -8.417  -1.271  1.00  0.00     0.031 C 
ATOM     52  C   UNL     1      10.635  -2.486  -1.523  1.00  0.00     0.029 A 
ATOM     53  C   UNL     1      11.062  -3.526  -2.445  1.00  0.00     0.049 A 
ATOM     54  H   UNL     1      10.972  -5.589  -2.084  1.00  0.00     0.167 HD
ATOM     55  C   UNL     1       9.794  -9.816  -1.695  1.00  0.00     0.034 A 
ATOM     56  C   UNL     1      11.643  -3.426  -3.676  1.00  0.00     0.034 A 
ATOM     57  C   UNL     1      11.162  -9.784  -1.217  1.00  0.00     0.049 A 
ATOM     58  C   UNL     1      12.303  -4.737  -3.926  1.00  0.00     0.074 A 
ATOM     59  C   UNL     1      11.744  -9.854   0.036  1.00  0.00     0.029 A 
ATOM     60  N   UNL     1      12.122  -9.227  -2.036  1.00  0.00    -0.354 N 
ATOM     61  N   UNL     1      13.307  -5.169  -3.209  1.00  0.00    -0.248 NA
ATOM     62  C   UNL     1      11.521  -5.778  -4.580  1.00  0.00     0.031 C 
ATOM     63  C   UNL     1      12.764  -8.858   0.014  1.00  0.00     0.029 A 
ATOM     64  C   UNL     1      12.832  -8.328  -1.277  1.00  0.00     0.049 A 
ATOM     65  H   UNL     1      12.271  -9.434  -2.987  1.00  0.00     0.167 HD
ATOM     66  C   UNL     1      13.019  -6.501  -2.952  1.00  0.00     0.074 A 
ATOM     67  C   UNL     1      11.948  -6.843  -3.892  1.00  0.00     0.031 C 
ATOM     68  C   UNL     1      13.442  -7.121  -1.807  1.00  0.00     0.034 A 
BRANCH  55  69
ATOM     69  C   UNL     1       9.419 -10.554  -2.962  1.00  0.00     0.023 A 
ATOM     70  C   UNL     1      10.344 -11.505  -3.435  1.00  0.00     0.031 A 
ATOM     71  C   UNL     1       8.402 -10.187  -3.870  1.00  0.00     0.131 A 
ATOM     72  C   UNL     1      10.324 -11.934  -4.772  1.00  0.00     0.055 A 
ATOM     73  C   UNL     1       8.342 -10.675  -5.180  1.00  0.00     0.041 A 
ATOM     74  F   UNL     1       7.465  -9.277  -3.587  1.00  0.00    -0.206 F 
ATOM     75  C   UNL     1       9.329 -11.522  -5.652  1.00  0.00     0.022 A 
BRANCH  72  76
ATOM     76  S   UNL     1      11.743 -12.876  -5.384  1.00  0.00     0.124 S 
ATOM     77  O   UNL     1      12.849 -11.985  -5.049  1.00  0.00    -0.237 OA
ATOM     78  O   UNL     1      11.646 -14.105  -4.604  1.00  0.00    -0.237 OA
ATOM     79  O   UNL     1      11.464 -13.018  -6.811  1.00  0.00    -0.744 OA
ENDBRANCH  72  76
ENDBRANCH  55  69
BRANCH  56  80
ATOM     80  C   UNL     1      11.372  -2.406  -4.743  1.00  0.00     0.023 A 
ATOM     81  C   UNL     1      12.193  -2.223  -5.884  1.00  0.00     0.031 A 
ATOM     82  C   UNL     1      10.124  -1.739  -4.766  1.00  0.00     0.131 A 
ATOM     83  C   UNL     1      11.756  -1.411  -6.966  1.00  0.00     0.055 A 
ATOM     84  C   UNL     1       9.698  -0.945  -5.835  1.00  0.00     0.041 A 
ATOM     85  F   UNL     1       9.227  -1.900  -3.780  1.00  0.00    -0.206 F 
ATOM     86  C   UNL     1      10.508  -0.786  -6.945  1.00  0.00     0.022 A 
BRANCH  83  87
ATOM     87  S   UNL     1      12.765  -1.212  -8.478  1.00  0.00     0.124 S 
ATOM     88  O   UNL     1      13.864  -0.375  -8.009  1.00  0.00    -0.237 OA
ATOM     89  O   UNL     1      13.096  -2.589  -8.823  1.00  0.00    -0.237 OA
ATOM     90  O   UNL     1      11.852  -0.553  -9.414  1.00  0.00    -0.744 OA
ENDBRANCH  83  87
ENDBRANCH  56  80
BRANCH  68  91
ATOM     91  C   UNL     1      14.458  -6.427  -0.917  1.00  0.00     0.023 A 
ATOM     92  C   UNL     1      14.312  -5.135  -0.359  1.00  0.00     0.031 A 
ATOM     93  C   UNL     1      15.565  -7.190  -0.499  1.00  0.00     0.131 A 
ATOM     94  C   UNL     1      15.260  -4.656   0.571  1.00  0.00     0.055 A 
ATOM     95  C   UNL     1      16.480  -6.726   0.443  1.00  0.00     0.041 A 
ATOM     96  F   UNL     1      15.752  -8.433  -0.974  1.00  0.00    -0.206 F 
ATOM     97  C   UNL     1      16.334  -5.453   0.978  1.00  0.00     0.022 A 
BRANCH  94  98
ATOM     98  S   UNL     1      15.131  -2.971   1.255  1.00  0.00     0.124 S 
ATOM     99  O   UNL     1      14.864  -2.146   0.083  1.00  0.00    -0.237 OA
ATOM    100  O   UNL     1      14.034  -3.102   2.209  1.00  0.00    -0.237 OA
ATOM    101  O   UNL     1      16.445  -2.753   1.866  1.00  0.00    -0.744 OA
ENDBRANCH  94  98
ENDBRANCH  68  91
ENDBRANCH  42  43
ENDBRANCH  34  37
ENDBRANCH  32  33
ENDBRANCH  31  32
ENDBRANCH   1  31
TORSDOF 18
