REMARK SMILES O=C(Cn1nc(C(=O)NCCCNC(=O)c2ccc(-c3c4nc(c(-c5cc(S(=O)(=O)[O-])ccc5F)c5ccc([nH]5)c(-c5cc(S(=O)(=O)[O-])ccc5F)c5nc(c(-c6cc(S(=O)(=O)[O-])ccc6F)c6ccc3[nH]6)C=C5)C=C4)cc2)c2ccccc2c1=O)Nc1ccc2c(c1)C(=O)c1ccccc1C2=O
REMARK SMILES IDX 11 1 10 2 9 3 7 4 8 5 6 7 4 8 5 9 85 10 84 11 86 12 79 13
REMARK SMILES IDX 83 14 80 15 82 16 81 17 3 18 2 19 1 20 87 21 88 23 89 24
REMARK SMILES IDX 93 25 90 26 92 27 91 28 94 29 102 30 95 31 96 32 101 33
REMARK SMILES IDX 103 34 97 35 100 36 98 37 99 38 12 39 13 40 14 41 15 43
REMARK SMILES IDX 16 44 17 45 78 46 18 47 77 48 19 49 20 50 21 51 71 52 22 53
REMARK SMILES IDX 76 54 70 55 72 56 23 57 75 58 69 59 68 60 24 62 56 63 36 64
REMARK SMILES IDX 55 65 37 66 40 67 54 68 73 69 38 70 39 71 53 73 74 74 41 75
REMARK SMILES IDX 25 76 26 77 34 78 27 79 33 80 35 81 32 82 28 83 29 84 30 85
REMARK SMILES IDX 31 86 57 87 58 88 66 89 59 90 65 91 67 92 64 93 60 94 61 95
REMARK SMILES IDX 62 96 63 97 42 98 43 99 51 100 44 101 50 102 52 103 49 104
REMARK SMILES IDX 45 105 46 106 47 107 48 108
REMARK H PARENT 9 6 87 22 13 42 72 61 40 72
REMARK Flexibility Score: inf
ROOT
ATOM      1  C   UNL     1       0.141  -2.892   1.103  1.00  0.00     0.042 C 
ENDROOT
BRANCH   1   2
ATOM      2  C   UNL     1       0.781  -2.822   2.504  1.00  0.00     0.118 C 
BRANCH   2   3
ATOM      3  N   UNL     1       2.078  -3.480   2.607  1.00  0.00    -0.351 N 
ATOM      4  C   UNL     1       3.342  -3.002   2.875  1.00  0.00     0.272 C 
ATOM      5  O   UNL     1       4.280  -3.791   2.954  1.00  0.00    -0.267 OA
ATOM      6  H   UNL     1       2.044  -4.453   2.457  1.00  0.00     0.163 HD
BRANCH   4   7
ATOM      7  C   UNL     1       3.662  -1.497   2.914  1.00  0.00     0.156 A 
ATOM      8  N   UNL     1       3.404   0.589   1.886  1.00  0.00    -0.219 N 
ATOM      9  N   UNL     1       3.022  -0.732   2.073  1.00  0.00    -0.163 NA
ATOM     10  C   UNL     1       4.428   1.191   2.612  1.00  0.00     0.275 A 
ATOM     11  C   UNL     1       5.147   0.339   3.581  1.00  0.00     0.051 A 
ATOM     12  O   UNL     1       4.755   2.368   2.487  1.00  0.00    -0.267 OA
ATOM     13  C   UNL     1       4.779  -0.995   3.752  1.00  0.00     0.020 A 
ATOM     14  C   UNL     1       6.217   0.881   4.314  1.00  0.00     0.014 A 
ATOM     15  C   UNL     1       5.491  -1.784   4.668  1.00  0.00     0.011 A 
ATOM     16  C   UNL     1       6.925   0.088   5.215  1.00  0.00     0.001 A 
ATOM     17  C   UNL     1       6.563  -1.245   5.389  1.00  0.00     0.001 A 
BRANCH   8  18
ATOM     18  C   UNL     1       2.672   1.386   0.853  1.00  0.00     0.248 C 
BRANCH  18  19
ATOM     19  C   UNL     1       2.377   0.654  -0.483  1.00  0.00     0.246 C 
ATOM     20  O   UNL     1       1.630   1.097  -1.345  1.00  0.00    -0.273 OA
ATOM     21  N   UNL     1       3.039  -0.539  -0.523  1.00  0.00    -0.324 N 
ATOM     22  H   UNL     1       3.711  -0.647   0.189  1.00  0.00     0.169 HD
BRANCH  21  23
ATOM     23  C   UNL     1       2.946  -1.627  -1.375  1.00  0.00     0.042 A 
ATOM     24  C   UNL     1       2.801  -1.620  -2.753  1.00  0.00     0.027 A 
ATOM     25  C   UNL     1       3.109  -2.830  -0.703  1.00  0.00     0.039 A 
ATOM     26  C   UNL     1       3.074  -2.815  -3.450  1.00  0.00     0.015 A 
ATOM     27  C   UNL     1       3.208  -4.017  -1.376  1.00  0.00     0.036 A 
ATOM     28  C   UNL     1       3.370  -3.993  -2.742  1.00  0.00     0.034 A 
ATOM     29  C   UNL     1       3.371  -5.231  -0.581  1.00  0.00     0.194 C 
ATOM     30  C   UNL     1       4.115  -5.127  -3.328  1.00  0.00     0.194 C 
ATOM     31  O   UNL     1       2.750  -5.405   0.459  1.00  0.00    -0.289 OA
ATOM     32  C   UNL     1       4.403  -6.143  -1.053  1.00  0.00     0.034 A 
ATOM     33  C   UNL     1       4.810  -6.056  -2.387  1.00  0.00     0.034 A 
ATOM     34  O   UNL     1       4.244  -5.228  -4.537  1.00  0.00    -0.289 OA
ATOM     35  C   UNL     1       5.068  -6.938  -0.119  1.00  0.00     0.013 A 
ATOM     36  C   UNL     1       5.938  -6.765  -2.788  1.00  0.00     0.013 A 
ATOM     37  C   UNL     1       6.210  -7.616  -0.520  1.00  0.00     0.001 A 
ATOM     38  C   UNL     1       6.647  -7.521  -1.846  1.00  0.00     0.001 A 
ENDBRANCH  21  23
ENDBRANCH  18  19
ENDBRANCH   8  18
ENDBRANCH   4   7
ENDBRANCH   2   3
ENDBRANCH   1   2
BRANCH   1  39
ATOM     39  C   UNL     1      -0.394  -4.275   0.691  1.00  0.00     0.118 C 
BRANCH  39  40
ATOM     40  N   UNL     1      -0.328  -4.527  -0.749  1.00  0.00    -0.352 N 
ATOM     41  C   UNL     1      -0.703  -5.755  -1.272  1.00  0.00     0.251 C 
ATOM     42  H   UNL     1      -0.013  -3.816  -1.353  1.00  0.00     0.163 HD
ATOM     43  O   UNL     1      -1.341  -6.599  -0.656  1.00  0.00    -0.269 OA
BRANCH  41  44
ATOM     44  C   UNL     1      -0.146  -6.072  -2.616  1.00  0.00     0.039 A 
ATOM     45  C   UNL     1       0.990  -6.878  -2.665  1.00  0.00     0.014 A 
ATOM     46  C   UNL     1      -0.693  -5.592  -3.805  1.00  0.00     0.014 A 
ATOM     47  C   UNL     1       1.647  -7.097  -3.886  1.00  0.00     0.010 A 
ATOM     48  C   UNL     1      -0.061  -5.878  -5.039  1.00  0.00     0.010 A 
ATOM     49  C   UNL     1       1.163  -6.574  -5.102  1.00  0.00    -0.014 A 
BRANCH  49  50
ATOM     50  C   UNL     1       1.985  -6.698  -6.372  1.00  0.00     0.031 A 
ATOM     51  C   UNL     1       2.407  -5.472  -7.176  1.00  0.00     0.074 A 
ATOM     52  C   UNL     1       2.480  -7.887  -6.790  1.00  0.00     0.049 A 
ATOM     53  N   UNL     1       3.198  -5.397  -8.225  1.00  0.00    -0.248 NA
ATOM     54  C   UNL     1       1.878  -4.167  -6.755  1.00  0.00     0.031 C 
ATOM     55  C   UNL     1       2.229  -9.178  -6.155  1.00  0.00     0.029 A 
ATOM     56  N   UNL     1       3.325  -8.200  -7.841  1.00  0.00    -0.354 N 
ATOM     57  C   UNL     1       3.296  -4.046  -8.547  1.00  0.00     0.074 A 
ATOM     58  C   UNL     1       2.419  -3.342  -7.640  1.00  0.00     0.031 C 
ATOM     59  C   UNL     1       2.946 -10.124  -6.780  1.00  0.00     0.029 A 
ATOM     60  C   UNL     1       3.652  -9.536  -7.921  1.00  0.00     0.049 A 
ATOM     61  H   UNL     1       3.662  -7.527  -8.475  1.00  0.00     0.167 HD
ATOM     62  C   UNL     1       4.059  -3.424  -9.479  1.00  0.00     0.034 A 
ATOM     63  C   UNL     1       4.405 -10.234  -8.803  1.00  0.00     0.034 A 
ATOM     64  C   UNL     1       4.935  -4.073 -10.420  1.00  0.00     0.049 A 
ATOM     65  C   UNL     1       5.098  -9.541  -9.953  1.00  0.00     0.074 A 
ATOM     66  C   UNL     1       5.736  -3.481 -11.384  1.00  0.00     0.029 A 
ATOM     67  N   UNL     1       5.120  -5.438 -10.538  1.00  0.00    -0.354 N 
ATOM     68  N   UNL     1       5.218  -8.259 -10.196  1.00  0.00    -0.248 NA
ATOM     69  C   UNL     1       5.753 -10.396 -10.960  1.00  0.00     0.031 C 
ATOM     70  C   UNL     1       6.345  -4.488 -12.134  1.00  0.00     0.029 A 
ATOM     71  C   UNL     1       5.976  -5.708 -11.597  1.00  0.00     0.049 A 
ATOM     72  H   UNL     1       4.705  -6.117  -9.958  1.00  0.00     0.167 HD
ATOM     73  C   UNL     1       5.972  -8.155 -11.365  1.00  0.00     0.074 A 
ATOM     74  C   UNL     1       6.304  -9.501 -11.771  1.00  0.00     0.031 C 
ATOM     75  C   UNL     1       6.341  -7.034 -12.033  1.00  0.00     0.034 A 
BRANCH  62  76
ATOM     76  C   UNL     1       4.014  -1.918  -9.541  1.00  0.00     0.023 A 
ATOM     77  C   UNL     1       3.441  -1.274 -10.652  1.00  0.00     0.031 A 
ATOM     78  C   UNL     1       4.673  -1.138  -8.575  1.00  0.00     0.131 A 
ATOM     79  C   UNL     1       3.566   0.114 -10.785  1.00  0.00     0.055 A 
ATOM     80  C   UNL     1       4.772   0.247  -8.701  1.00  0.00     0.041 A 
ATOM     81  F   UNL     1       5.233  -1.714  -7.499  1.00  0.00    -0.206 F 
ATOM     82  C   UNL     1       4.228   0.877  -9.816  1.00  0.00     0.022 A 
BRANCH  79  83
ATOM     83  S   UNL     1       2.930   0.976 -12.248  1.00  0.00     0.124 S 
ATOM     84  O   UNL     1       1.958   1.892 -11.655  1.00  0.00    -0.237 OA
ATOM     85  O   UNL     1       4.134   1.604 -12.783  1.00  0.00    -0.237 OA
ATOM     86  O   UNL     1       2.359  -0.091 -13.064  1.00  0.00    -0.744 OA
ENDBRANCH  79  83
ENDBRANCH  62  76
BRANCH  63  87
ATOM     87  C   UNL     1       4.542 -11.713  -8.632  1.00  0.00     0.023 A 
ATOM     88  C   UNL     1       3.412 -12.550  -8.671  1.00  0.00     0.031 A 
ATOM     89  C   UNL     1       5.791 -12.302  -8.370  1.00  0.00     0.131 A 
ATOM     90  C   UNL     1       3.541 -13.911  -8.372  1.00  0.00     0.055 A 
ATOM     91  C   UNL     1       5.925 -13.675  -8.150  1.00  0.00     0.041 A 
ATOM     92  F   UNL     1       6.900 -11.548  -8.329  1.00  0.00    -0.206 F 
ATOM     93  C   UNL     1       4.793 -14.483  -8.130  1.00  0.00     0.022 A 
BRANCH  90  94
ATOM     94  S   UNL     1       2.071 -14.952  -8.155  1.00  0.00     0.124 S 
ATOM     95  O   UNL     1       2.254 -15.958  -9.196  1.00  0.00    -0.237 OA
ATOM     96  O   UNL     1       2.242 -15.424  -6.783  1.00  0.00    -0.237 OA
ATOM     97  O   UNL     1       0.961 -14.028  -8.357  1.00  0.00    -0.744 OA
ENDBRANCH  90  94
ENDBRANCH  63  87
BRANCH  75  98
ATOM     98  C   UNL     1       7.151  -7.154 -13.305  1.00  0.00     0.023 A 
ATOM     99  C   UNL     1       8.443  -6.595 -13.388  1.00  0.00     0.031 A 
ATOM    100  C   UNL     1       6.586  -7.681 -14.480  1.00  0.00     0.131 A 
ATOM    101  C   UNL     1       9.107  -6.540 -14.622  1.00  0.00     0.055 A 
ATOM    102  C   UNL     1       7.268  -7.661 -15.699  1.00  0.00     0.041 A 
ATOM    103  F   UNL     1       5.356  -8.218 -14.462  1.00  0.00    -0.206 F 
ATOM    104  C   UNL     1       8.528  -7.075 -15.777  1.00  0.00     0.022 A 
BRANCH 101 105
ATOM    105  S   UNL     1      10.707  -5.699 -14.796  1.00  0.00     0.124 S 
ATOM    106  O   UNL     1      11.576  -6.790 -15.234  1.00  0.00    -0.237 OA
ATOM    107  O   UNL     1      10.418  -4.689 -15.811  1.00  0.00    -0.237 OA
ATOM    108  O   UNL     1      10.982  -5.183 -13.460  1.00  0.00    -0.744 OA
ENDBRANCH 101 105
ENDBRANCH  75  98
ENDBRANCH  49  50
ENDBRANCH  41  44
ENDBRANCH  39  40
ENDBRANCH   1  39
TORSDOF 16
