REMARK SMILES COc1ccc(-c2cc([C@@H]3CC[N@@H+](CC(=O)NCCCNC(=O)c4ccc(-c5c6nc(c(-c7cc(S(=O)(=O)[O-])ccc7F)c7ccc([nH]7)c(-c7cc(S(=O)(=O)[O-])ccc7F)c7nc(c(-c8cc(S(=O)(=O)[O-])ccc8F)c8ccc5[nH]8)C=C7)C=C6)cc4)C3)ccn2)c2ccc(C)nc12
REMARK SMILES IDX 18 1 17 2 15 3 16 4 14 6 13 7 10 8 11 9 87 10 12 11 9 13
REMARK SMILES IDX 7 14 8 15 90 16 89 17 88 18 6 19 3 20 4 21 97 22 5 23 91 24
REMARK SMILES IDX 96 25 92 26 94 27 93 28 95 29 2 30 1 31 19 32 20 33 21 34
REMARK SMILES IDX 22 35 23 37 24 38 25 39 86 40 26 41 85 42 27 43 28 44 29 45
REMARK SMILES IDX 79 46 30 47 84 48 78 49 80 50 31 51 83 52 77 53 76 54 32 56
REMARK SMILES IDX 64 57 44 58 63 59 45 60 48 61 62 62 81 63 46 64 47 65 61 67
REMARK SMILES IDX 82 68 49 69 33 70 34 71 42 72 35 73 41 74 43 75 40 76 36 77
REMARK SMILES IDX 37 78 38 79 39 80 65 81 66 82 74 83 67 84 73 85 75 86 72 87
REMARK SMILES IDX 68 88 69 89 70 90 71 91 50 92 51 93 59 94 52 95 58 96 60 97
REMARK SMILES IDX 57 98 53 99 54 100 55 101 56 102
REMARK H PARENT 17 5 13 12 21 36 80 55 48 66
REMARK Flexibility Score: inf
ROOT
ATOM      1  C   UNL     1       3.217 -10.404   4.527  1.00  0.00     0.118 C 
ENDROOT
BRANCH   1   2
ATOM      2  N   UNL     1       4.084 -11.050   3.547  1.00  0.00    -0.351 N 
ATOM      3  C   UNL     1       5.125 -10.610   2.778  1.00  0.00     0.275 C 
ATOM      4  O   UNL     1       5.676 -11.449   2.055  1.00  0.00    -0.269 OA
ATOM      5  H   UNL     1       3.874 -12.002   3.410  1.00  0.00     0.163 HD
BRANCH   3   6
ATOM      6  C   UNL     1       5.595  -9.149   2.777  1.00  0.00     0.363 C 
BRANCH   6   7
ATOM      7  N   UNL     1       4.992  -8.279   1.737  1.00  0.00    -0.327 N 
ATOM      8  C   UNL     1       3.845  -9.123  -0.261  1.00  0.00     0.080 C 
ATOM      9  C   UNL     1       2.952  -9.204   0.980  1.00  0.00     0.075 C 
ATOM     10  C   UNL     1       5.211  -8.698   0.333  1.00  0.00     0.271 C 
ATOM     11  C   UNL     1       3.551  -8.158   1.910  1.00  0.00     0.263 C 
ATOM     12  H   UNL     1       5.480  -7.395   1.882  1.00  0.00     0.348 HD
BRANCH   8  13
ATOM     13  C   UNL     1       3.134  -8.188  -1.229  1.00  0.00    -0.035 A 
ATOM     14  C   UNL     1       2.075  -6.041  -1.589  1.00  0.00     0.071 A 
ATOM     15  C   UNL     1       3.067  -6.814  -0.987  1.00  0.00     0.033 A 
ATOM     16  N   UNL     1       1.231  -6.556  -2.509  1.00  0.00    -0.256 NA
ATOM     17  C   UNL     1       1.361  -7.867  -2.809  1.00  0.00     0.112 A 
ATOM     18  C   UNL     1       2.274  -8.715  -2.196  1.00  0.00     0.024 A 
BRANCH  14  19
ATOM     19  C   UNL     1       1.758  -4.694  -1.067  1.00  0.00     0.010 A 
ATOM     20  C   UNL     1       1.101  -2.312   0.248  1.00  0.00     0.145 A 
ATOM     21  C   UNL     1       0.119  -3.279   0.040  1.00  0.00     0.049 A 
ATOM     22  C   UNL     1       2.431  -2.498  -0.161  1.00  0.00     0.113 A 
ATOM     23  C   UNL     1       0.446  -4.458  -0.615  1.00  0.00     0.015 A 
ATOM     24  C   UNL     1       2.748  -3.684  -0.865  1.00  0.00     0.013 A 
ATOM     25  N   UNL     1       3.382  -1.574   0.129  1.00  0.00    -0.249 NA
ATOM     26  C   UNL     1       4.075  -3.805  -1.331  1.00  0.00     0.013 A 
ATOM     27  C   UNL     1       4.657  -1.764  -0.275  1.00  0.00     0.038 A 
ATOM     28  C   UNL     1       5.037  -2.851  -1.033  1.00  0.00     0.024 A 
ATOM     29  C   UNL     1       5.648  -0.705   0.096  1.00  0.00     0.067 C 
BRANCH  20  30
ATOM     30  O   UNL     1       0.670  -1.194   0.932  1.00  0.00    -0.494 OA
ATOM     31  C   UNL     1       0.873  -0.001   0.174  1.00  0.00     0.278 C 
ENDBRANCH  20  30
ENDBRANCH  14  19
ENDBRANCH   8  13
ENDBRANCH   6   7
ENDBRANCH   3   6
ENDBRANCH   1   2
BRANCH   1  32
ATOM     32  C   UNL     1       1.766 -10.140   4.075  1.00  0.00     0.042 C 
BRANCH  32  33
ATOM     33  C   UNL     1       1.071 -11.253   3.288  1.00  0.00     0.118 C 
BRANCH  33  34
ATOM     34  N   UNL     1       0.201 -12.028   4.146  1.00  0.00    -0.352 N 
ATOM     35  C   UNL     1      -1.169 -12.135   4.127  1.00  0.00     0.251 C 
ATOM     36  H   UNL     1       0.655 -12.555   4.843  1.00  0.00     0.163 HD
ATOM     37  O   UNL     1      -1.735 -12.544   5.139  1.00  0.00    -0.269 OA
BRANCH  35  38
ATOM     38  C   UNL     1      -1.972 -11.781   2.925  1.00  0.00     0.039 A 
ATOM     39  C   UNL     1      -3.234 -11.205   3.115  1.00  0.00     0.014 A 
ATOM     40  C   UNL     1      -1.566 -12.127   1.631  1.00  0.00     0.014 A 
ATOM     41  C   UNL     1      -4.082 -10.976   2.023  1.00  0.00     0.010 A 
ATOM     42  C   UNL     1      -2.400 -11.863   0.535  1.00  0.00     0.010 A 
ATOM     43  C   UNL     1      -3.676 -11.307   0.722  1.00  0.00    -0.014 A 
BRANCH  43  44
ATOM     44  C   UNL     1      -4.602 -11.126  -0.433  1.00  0.00     0.031 A 
ATOM     45  C   UNL     1      -5.194 -12.326  -1.129  1.00  0.00     0.074 A 
ATOM     46  C   UNL     1      -4.909  -9.889  -0.869  1.00  0.00     0.049 A 
ATOM     47  N   UNL     1      -5.984 -12.376  -2.173  1.00  0.00    -0.248 NA
ATOM     48  C   UNL     1      -4.834 -13.643  -0.586  1.00  0.00     0.031 C 
ATOM     49  C   UNL     1      -4.403  -8.643  -0.293  1.00  0.00     0.029 A 
ATOM     50  N   UNL     1      -5.715  -9.475  -1.902  1.00  0.00    -0.354 N 
ATOM     51  C   UNL     1      -6.213 -13.727  -2.416  1.00  0.00     0.074 A 
ATOM     52  C   UNL     1      -5.435 -14.460  -1.438  1.00  0.00     0.031 C 
ATOM     53  C   UNL     1      -4.916  -7.605  -0.974  1.00  0.00     0.029 A 
ATOM     54  C   UNL     1      -5.759  -8.109  -2.056  1.00  0.00     0.049 A 
ATOM     55  H   UNL     1      -6.215 -10.098  -2.478  1.00  0.00     0.167 HD
ATOM     56  C   UNL     1      -7.010 -14.304  -3.352  1.00  0.00     0.034 A 
ATOM     57  C   UNL     1      -6.393  -7.346  -2.970  1.00  0.00     0.034 A 
ATOM     58  C   UNL     1      -7.786 -13.567  -4.322  1.00  0.00     0.049 A 
ATOM     59  C   UNL     1      -7.240  -8.008  -4.027  1.00  0.00     0.074 A 
ATOM     60  C   UNL     1      -8.649 -14.057  -5.289  1.00  0.00     0.029 A 
ATOM     61  N   UNL     1      -7.791 -12.185  -4.456  1.00  0.00    -0.354 N 
ATOM     62  N   UNL     1      -7.462  -9.286  -4.227  1.00  0.00    -0.248 NA
ATOM     63  C   UNL     1      -7.929  -7.121  -4.974  1.00  0.00     0.031 C 
ATOM     64  C   UNL     1      -9.126 -12.978  -6.044  1.00  0.00     0.029 A 
ATOM     65  C   UNL     1      -8.617 -11.808  -5.505  1.00  0.00     0.049 A 
ATOM     66  H   UNL     1      -7.282 -11.562  -3.888  1.00  0.00     0.167 HD
ATOM     67  C   UNL     1      -8.338  -9.353  -5.308  1.00  0.00     0.074 A 
ATOM     68  C   UNL     1      -8.612  -7.989  -5.708  1.00  0.00     0.031 C 
ATOM     69  C   UNL     1      -8.873 -10.446  -5.910  1.00  0.00     0.034 A 
BRANCH  56  70
ATOM     70  C   UNL     1      -7.052 -15.814  -3.389  1.00  0.00     0.023 A 
ATOM     71  C   UNL     1      -7.566 -16.564  -2.317  1.00  0.00     0.031 A 
ATOM     72  C   UNL     1      -6.552 -16.514  -4.502  1.00  0.00     0.131 A 
ATOM     73  C   UNL     1      -7.500 -17.966  -2.347  1.00  0.00     0.055 A 
ATOM     74  C   UNL     1      -6.561 -17.910  -4.559  1.00  0.00     0.041 A 
ATOM     75  F   UNL     1      -6.033 -15.854  -5.548  1.00  0.00    -0.206 F 
ATOM     76  C   UNL     1      -7.023 -18.644  -3.470  1.00  0.00     0.022 A 
BRANCH  73  77
ATOM     77  S   UNL     1      -7.915 -18.885  -0.839  1.00  0.00     0.124 S 
ATOM     78  O   UNL     1      -6.955 -18.335   0.115  1.00  0.00    -0.237 OA
ATOM     79  O   UNL     1      -9.311 -18.524  -0.624  1.00  0.00    -0.237 OA
ATOM     80  O   UNL     1      -7.681 -20.279  -1.213  1.00  0.00    -0.744 OA
ENDBRANCH  73  77
ENDBRANCH  56  70
BRANCH  57  81
ATOM     81  C   UNL     1      -6.238  -5.865  -2.945  1.00  0.00     0.023 A 
ATOM     82  C   UNL     1      -7.323  -5.026  -2.647  1.00  0.00     0.031 A 
ATOM     83  C   UNL     1      -5.004  -5.267  -3.256  1.00  0.00     0.131 A 
ATOM     84  C   UNL     1      -7.163  -3.633  -2.704  1.00  0.00     0.055 A 
ATOM     85  C   UNL     1      -4.838  -3.881  -3.266  1.00  0.00     0.041 A 
ATOM     86  F   UNL     1      -3.936  -6.027  -3.545  1.00  0.00    -0.206 F 
ATOM     87  C   UNL     1      -5.926  -3.055  -2.999  1.00  0.00     0.022 A 
BRANCH  84  88
ATOM     88  S   UNL     1      -8.620  -2.582  -2.449  1.00  0.00     0.124 S 
ATOM     89  O   UNL     1      -9.503  -3.032  -3.518  1.00  0.00    -0.237 OA
ATOM     90  O   UNL     1      -9.019  -2.941  -1.092  1.00  0.00    -0.237 OA
ATOM     91  O   UNL     1      -8.093  -1.227  -2.602  1.00  0.00    -0.744 OA
ENDBRANCH  84  88
ENDBRANCH  57  81
BRANCH  69  92
ATOM     92  C   UNL     1      -9.841 -10.201  -7.041  1.00  0.00     0.023 A 
ATOM     93  C   UNL     1      -9.422  -9.669  -8.274  1.00  0.00     0.031 A 
ATOM     94  C   UNL     1     -11.207 -10.491  -6.876  1.00  0.00     0.131 A 
ATOM     95  C   UNL     1     -10.367  -9.397  -9.275  1.00  0.00     0.055 A 
ATOM     96  C   UNL     1     -12.135 -10.266  -7.894  1.00  0.00     0.041 A 
ATOM     97  F   UNL     1     -11.662 -10.999  -5.719  1.00  0.00    -0.206 F 
ATOM     98  C   UNL     1     -11.719  -9.705  -9.098  1.00  0.00     0.022 A 
BRANCH  95  99
ATOM     99  S   UNL     1      -9.819  -8.561 -10.789  1.00  0.00     0.124 S 
ATOM    100  O   UNL     1      -9.269  -7.314 -10.266  1.00  0.00    -0.237 OA
ATOM    101  O   UNL     1      -8.851  -9.506 -11.335  1.00  0.00    -0.237 OA
ATOM    102  O   UNL     1     -11.049  -8.417 -11.567  1.00  0.00    -0.744 OA
ENDBRANCH  95  99
ENDBRANCH  69  92
ENDBRANCH  43  44
ENDBRANCH  35  38
ENDBRANCH  33  34
ENDBRANCH  32  33
ENDBRANCH   1  32
TORSDOF 17
