REMARK SMILES O=C(CCCCCN1C(=O)/C(=C2\C(=O)Nc3ccccc32)SC1=S)NCCCNC(=O)c1ccc(-c2c3nc(c(-c4cc(S(=O)(=O)[O-])ccc4F)c4ccc([nH]4)c(-c4cc(S(=O)(=O)[O-])ccc4F)c4nc(c(-c5cc(S(=O)(=O)[O-])ccc5F)c5ccc2[nH]5)C=C4)C=C3)cc1
REMARK SMILES IDX 26 1 25 2 1 3 2 4 3 6 4 7 5 8 6 9 7 10 8 11 9 12 23 13 10 14
REMARK SMILES IDX 11 15 22 16 24 17 12 18 13 19 21 20 14 21 15 22 16 23 20 24
REMARK SMILES IDX 17 26 19 27 18 28 27 29 28 30 29 31 30 32 31 34 32 35 33 36
REMARK SMILES IDX 94 37 34 38 93 39 35 40 36 41 37 42 87 43 38 44 92 45 86 46
REMARK SMILES IDX 88 47 39 48 91 49 85 50 84 51 40 53 72 54 52 55 71 56 53 57
REMARK SMILES IDX 56 58 70 59 89 60 54 61 55 62 69 64 90 65 57 66 41 67 42 68
REMARK SMILES IDX 50 69 43 70 49 71 51 72 48 73 44 74 45 75 46 76 47 77 73 78
REMARK SMILES IDX 74 79 82 80 75 81 81 82 83 83 80 84 76 85 77 86 78 87 79 88
REMARK SMILES IDX 58 89 59 90 67 91 60 92 66 93 68 94 65 95 61 96 62 97 63 98
REMARK SMILES IDX 64 99
REMARK H PARENT 25 5 15 25 29 33 88 52 56 63
REMARK Flexibility Score: inf
ROOT
ATOM      1  C   UNL     1       2.052   1.745  -1.717  1.00  0.00     0.117 C 
ENDROOT
BRANCH   1   2
ATOM      2  N   UNL     1       2.639   0.929  -0.674  1.00  0.00    -0.356 N 
ATOM      3  O   UNL     1       0.863  -0.500  -0.383  1.00  0.00    -0.275 OA
ATOM      4  C   UNL     1       2.016  -0.168  -0.132  1.00  0.00     0.219 C 
ATOM      5  H   UNL     1       3.531   1.173  -0.337  1.00  0.00     0.163 HD
BRANCH   4   6
ATOM      6  C   UNL     1       2.909  -0.973   0.794  1.00  0.00     0.100 C 
BRANCH   6   7
ATOM      7  C   UNL     1       3.876  -1.877   0.027  1.00  0.00     0.010 C 
BRANCH   7   8
ATOM      8  C   UNL     1       4.980  -1.167  -0.762  1.00  0.00     0.002 C 
BRANCH   8   9
ATOM      9  C   UNL     1       5.947  -0.297   0.059  1.00  0.00     0.022 C 
BRANCH   9  10
ATOM     10  C   UNL     1       6.945  -1.069   0.941  1.00  0.00     0.127 C 
BRANCH  10  11
ATOM     11  N   UNL     1       7.610  -2.153   0.222  1.00  0.00    -0.293 N 
ATOM     12  C   UNL     1       8.246  -1.875  -0.981  1.00  0.00     0.267 C 
ATOM     13  C   UNL     1       7.717  -3.452   0.657  1.00  0.00     0.148 C 
ATOM     14  O   UNL     1       8.720  -0.801  -1.304  1.00  0.00    -0.268 OA
ATOM     15  C   UNL     1       8.311  -3.138  -1.766  1.00  0.00     0.093 C 
ATOM     16  S   UNL     1       8.446  -4.423  -0.614  1.00  0.00    -0.053 SA
ATOM     17  S   UNL     1       7.233  -4.118   2.105  1.00  0.00    -0.052 S 
ATOM     18  C   UNL     1       8.051  -3.259  -3.076  1.00  0.00     0.069 C 
ATOM     19  C   UNL     1       7.814  -2.101  -4.018  1.00  0.00     0.257 C 
ATOM     20  C   UNL     1       7.831  -4.484  -3.877  1.00  0.00     0.012 A 
ATOM     21  O   UNL     1       7.726  -0.914  -3.770  1.00  0.00    -0.269 OA
ATOM     22  N   UNL     1       7.611  -2.672  -5.261  1.00  0.00    -0.321 N 
ATOM     23  C   UNL     1       7.588  -4.057  -5.186  1.00  0.00     0.049 A 
ATOM     24  C   UNL     1       7.718  -5.831  -3.574  1.00  0.00     0.011 A 
ATOM     25  H   UNL     1       7.498  -2.160  -6.095  1.00  0.00     0.170 HD
ATOM     26  C   UNL     1       7.280  -4.923  -6.218  1.00  0.00     0.027 A 
ATOM     27  C   UNL     1       7.385  -6.728  -4.596  1.00  0.00     0.001 A 
ATOM     28  C   UNL     1       7.178  -6.279  -5.909  1.00  0.00     0.002 A 
ENDBRANCH  10  11
ENDBRANCH   9  10
ENDBRANCH   8   9
ENDBRANCH   7   8
ENDBRANCH   6   7
ENDBRANCH   4   6
ENDBRANCH   1   2
BRANCH   1  29
ATOM     29  C   UNL     1       2.410   3.214  -1.554  1.00  0.00     0.042 C 
BRANCH  29  30
ATOM     30  C   UNL     1       3.900   3.524  -1.658  1.00  0.00     0.118 C 
BRANCH  30  31
ATOM     31  N   UNL     1       4.444   3.390  -3.003  1.00  0.00    -0.352 N 
ATOM     32  C   UNL     1       5.179   4.300  -3.736  1.00  0.00     0.251 C 
ATOM     33  H   UNL     1       4.263   2.532  -3.450  1.00  0.00     0.163 HD
ATOM     34  O   UNL     1       5.444   4.068  -4.912  1.00  0.00    -0.269 OA
BRANCH  32  35
ATOM     35  C   UNL     1       5.591   5.580  -3.113  1.00  0.00     0.039 A 
ATOM     36  C   UNL     1       6.094   5.607  -1.813  1.00  0.00     0.014 A 
ATOM     37  C   UNL     1       5.404   6.776  -3.812  1.00  0.00     0.014 A 
ATOM     38  C   UNL     1       6.184   6.819  -1.138  1.00  0.00     0.010 A 
ATOM     39  C   UNL     1       5.610   8.000  -3.164  1.00  0.00     0.010 A 
ATOM     40  C   UNL     1       5.933   8.034  -1.798  1.00  0.00    -0.014 A 
BRANCH  40  41
ATOM     41  C   UNL     1       6.006   9.312  -1.033  1.00  0.00     0.031 A 
ATOM     42  C   UNL     1       4.798  10.204  -0.887  1.00  0.00     0.074 A 
ATOM     43  C   UNL     1       7.155   9.637  -0.408  1.00  0.00     0.049 A 
ATOM     44  N   UNL     1       4.676  11.317  -0.209  1.00  0.00    -0.248 NA
ATOM     45  C   UNL     1       3.570   9.804  -1.593  1.00  0.00     0.031 C 
ATOM     46  C   UNL     1       8.389   8.854  -0.475  1.00  0.00     0.029 A 
ATOM     47  N   UNL     1       7.472  10.684   0.424  1.00  0.00    -0.354 N 
ATOM     48  C   UNL     1       3.373  11.758  -0.418  1.00  0.00     0.074 A 
ATOM     49  C   UNL     1       2.754  10.814  -1.322  1.00  0.00     0.031 C 
ATOM     50  C   UNL     1       9.305   9.407   0.331  1.00  0.00     0.029 A 
ATOM     51  C   UNL     1       8.760  10.632   0.908  1.00  0.00     0.049 A 
ATOM     52  H   UNL     1       6.838  11.402   0.652  1.00  0.00     0.167 HD
ATOM     53  C   UNL     1       2.747  12.837   0.110  1.00  0.00     0.034 A 
ATOM     54  C   UNL     1       9.439  11.477   1.711  1.00  0.00     0.034 A 
ATOM     55  C   UNL     1       3.371  13.755   1.031  1.00  0.00     0.049 A 
ATOM     56  C   UNL     1       8.730  12.687   2.261  1.00  0.00     0.074 A 
ATOM     57  C   UNL     1       2.805  14.856   1.649  1.00  0.00     0.029 A 
ATOM     58  N   UNL     1       4.687  13.688   1.468  1.00  0.00    -0.354 N 
ATOM     59  N   UNL     1       7.480  13.052   2.097  1.00  0.00    -0.248 NA
ATOM     60  C   UNL     1       9.512  13.597   3.108  1.00  0.00     0.031 C 
ATOM     61  C   UNL     1       3.795  15.500   2.390  1.00  0.00     0.029 A 
ATOM     62  C   UNL     1       4.956  14.748   2.319  1.00  0.00     0.049 A 
ATOM     63  H   UNL     1       5.332  12.991   1.211  1.00  0.00     0.167 HD
ATOM     64  C   UNL     1       7.320  14.218   2.841  1.00  0.00     0.074 A 
ATOM     65  C   UNL     1       8.594  14.481   3.477  1.00  0.00     0.031 C 
ATOM     66  C   UNL     1       6.219  14.998   2.976  1.00  0.00     0.034 A 
BRANCH  53  67
ATOM     67  C   UNL     1       1.305  13.105  -0.260  1.00  0.00     0.023 A 
ATOM     68  C   UNL     1       0.956  14.318  -0.888  1.00  0.00     0.031 A 
ATOM     69  C   UNL     1       0.267  12.251   0.150  1.00  0.00     0.131 A 
ATOM     70  C   UNL     1      -0.392  14.663  -1.041  1.00  0.00     0.055 A 
ATOM     71  C   UNL     1      -1.076  12.576  -0.053  1.00  0.00     0.041 A 
ATOM     72  F   UNL     1       0.541  11.086   0.759  1.00  0.00    -0.206 F 
ATOM     73  C   UNL     1      -1.410  13.795  -0.636  1.00  0.00     0.022 A 
BRANCH  70  74
ATOM     74  S   UNL     1      -0.878  16.288  -1.687  1.00  0.00     0.124 S 
ATOM     75  O   UNL     1      -1.679  15.919  -2.853  1.00  0.00    -0.237 OA
ATOM     76  O   UNL     1      -1.630  16.848  -0.567  1.00  0.00    -0.237 OA
ATOM     77  O   UNL     1       0.391  16.941  -1.987  1.00  0.00    -0.744 OA
ENDBRANCH  70  74
ENDBRANCH  53  67
BRANCH  54  78
ATOM     78  C   UNL     1      10.856  11.161   2.062  1.00  0.00     0.023 A 
ATOM     79  C   UNL     1      11.833  11.026   1.058  1.00  0.00     0.031 A 
ATOM     80  C   UNL     1      11.229  10.871   3.385  1.00  0.00     0.131 A 
ATOM     81  C   UNL     1      13.102  10.530   1.379  1.00  0.00     0.055 A 
ATOM     82  C   UNL     1      12.522  10.460   3.713  1.00  0.00     0.041 A 
ATOM     83  F   UNL     1      10.332  10.971   4.378  1.00  0.00    -0.206 F 
ATOM     84  C   UNL     1      13.460  10.266   2.704  1.00  0.00     0.022 A 
BRANCH  81  85
ATOM     85  S   UNL     1      14.273  10.065   0.074  1.00  0.00     0.124 S 
ATOM     86  O   UNL     1      15.421  10.914   0.376  1.00  0.00    -0.237 OA
ATOM     87  O   UNL     1      14.457   8.639   0.335  1.00  0.00    -0.237 OA
ATOM     88  O   UNL     1      13.560  10.382  -1.159  1.00  0.00    -0.744 OA
ENDBRANCH  81  85
ENDBRANCH  54  78
BRANCH  66  89
ATOM     89  C   UNL     1       6.292  16.222   3.861  1.00  0.00     0.023 A 
ATOM     90  C   UNL     1       5.426  16.336   4.967  1.00  0.00     0.031 A 
ATOM     91  C   UNL     1       7.077  17.335   3.517  1.00  0.00     0.131 A 
ATOM     92  C   UNL     1       5.323  17.553   5.651  1.00  0.00     0.055 A 
ATOM     93  C   UNL     1       7.016  18.527   4.241  1.00  0.00     0.041 A 
ATOM     94  F   UNL     1       7.909  17.285   2.464  1.00  0.00    -0.206 F 
ATOM     95  C   UNL     1       6.121  18.646   5.301  1.00  0.00     0.022 A 
BRANCH  92  96
ATOM     96  S   UNL     1       4.072  17.797   6.943  1.00  0.00     0.124 S 
ATOM     97  O   UNL     1       4.897  18.129   8.103  1.00  0.00    -0.237 OA
ATOM     98  O   UNL     1       3.284  18.901   6.402  1.00  0.00    -0.237 OA
ATOM     99  O   UNL     1       3.386  16.512   7.018  1.00  0.00    -0.744 OA
ENDBRANCH  92  96
ENDBRANCH  66  89
ENDBRANCH  40  41
ENDBRANCH  32  35
ENDBRANCH  30  31
ENDBRANCH  29  30
ENDBRANCH   1  29
TORSDOF 18
