REMARK SMILES C#CC[N@H+](CC(=O)NCCCNC(=O)c1ccc(-c2c3nc(c(-c4cc(S(=O)(=O)[O-])ccc4F)c4ccc([nH]4)c(-c4cc(S(=O)(=O)[O-])ccc4F)c4nc(c(-c5cc(S(=O)(=O)[O-])ccc5F)c5ccc2[nH]5)C=C4)C=C3)cc1)[C@H](C)c1cc(C)ccc1C
REMARK SMILES IDX 10 1 9 2 8 3 6 4 7 5 5 7 4 8 3 10 2 11 1 12 78 13 79 14
REMARK SMILES IDX 80 15 81 16 86 17 82 18 85 19 87 20 83 21 84 22 11 23 12 24
REMARK SMILES IDX 13 25 14 27 15 28 16 29 77 30 17 31 76 32 18 33 19 34 20 35
REMARK SMILES IDX 70 36 21 37 75 38 69 39 71 40 22 41 74 42 68 43 67 44 23 46
REMARK SMILES IDX 55 47 35 48 54 49 36 50 39 51 53 52 72 53 37 54 38 55 52 57
REMARK SMILES IDX 73 58 40 59 24 60 25 61 33 62 26 63 32 64 34 65 31 66 27 67
REMARK SMILES IDX 28 68 29 69 30 70 56 71 57 72 65 73 58 74 64 75 66 76 63 77
REMARK SMILES IDX 59 78 60 79 61 80 62 81 41 82 42 83 50 84 43 85 49 86 51 87
REMARK SMILES IDX 48 88 44 89 45 90 46 91 47 92
REMARK H PARENT 8 6 4 9 12 26 71 45 39 56
REMARK Flexibility Score: inf
ROOT
ATOM      1  C   UNL     1      -2.548  -2.947   3.197  1.00  0.00     0.042 C 
ENDROOT
BRANCH   1   2
ATOM      2  C   UNL     1      -3.787  -2.186   2.715  1.00  0.00     0.118 C 
BRANCH   2   3
ATOM      3  N   UNL     1      -4.267  -1.168   3.648  1.00  0.00    -0.351 N 
ATOM      4  C   UNL     1      -4.255   0.206   3.574  1.00  0.00     0.275 C 
ATOM      5  O   UNL     1      -4.758   0.839   4.504  1.00  0.00    -0.269 OA
ATOM      6  H   UNL     1      -4.667  -1.528   4.472  1.00  0.00     0.163 HD
BRANCH   4   7
ATOM      7  C   UNL     1      -3.637   0.909   2.352  1.00  0.00     0.364 C 
BRANCH   7   8
ATOM      8  N   UNL     1      -2.203   1.307   2.498  1.00  0.00    -0.311 N 
ATOM      9  H   UNL     1      -2.119   2.077   3.162  1.00  0.00     0.349 HD
BRANCH   8  10
ATOM     10  C   UNL     1      -1.415   0.230   3.101  1.00  0.00     0.354 C 
BRANCH  10  11
ATOM     11  C   UNL     1      -0.186   0.601   3.819  1.00  0.00    -0.047 C 
ATOM     12  C   UNL     1       0.840   0.740   4.422  1.00  0.00     0.010 C 
ENDBRANCH  10  11
ENDBRANCH   8  10
BRANCH   8  13
ATOM     13  C   UNL     1      -1.671   1.862   1.202  1.00  0.00     0.213 C 
ATOM     14  C   UNL     1      -2.139   1.157  -0.093  1.00  0.00     0.081 C 
BRANCH  13  15
ATOM     15  C   UNL     1      -0.148   2.066   1.144  1.00  0.00     0.012 A 
ATOM     16  C   UNL     1       0.672   0.933   0.902  1.00  0.00     0.013 A 
ATOM     17  C   UNL     1       0.489   3.300   1.389  1.00  0.00    -0.042 A 
ATOM     18  C   UNL     1       2.062   0.967   1.059  1.00  0.00    -0.051 A 
ATOM     19  C   UNL     1       1.895   3.332   1.500  1.00  0.00     0.004 A 
ATOM     20  C   UNL     1      -0.220   4.613   1.577  1.00  0.00     0.045 C 
ATOM     21  C   UNL     1       2.842  -0.315   1.034  1.00  0.00     0.044 C 
ATOM     22  C   UNL     1       2.669   2.179   1.367  1.00  0.00     0.004 A 
ENDBRANCH  13  15
ENDBRANCH   8  13
ENDBRANCH   7   8
ENDBRANCH   4   7
ENDBRANCH   2   3
ENDBRANCH   1   2
BRANCH   1  23
ATOM     23  C   UNL     1      -2.766  -3.818   4.426  1.00  0.00     0.118 C 
BRANCH  23  24
ATOM     24  N   UNL     1      -3.263  -5.131   4.062  1.00  0.00    -0.352 N 
ATOM     25  C   UNL     1      -2.610  -6.341   4.006  1.00  0.00     0.251 C 
ATOM     26  H   UNL     1      -4.216  -5.162   3.817  1.00  0.00     0.163 HD
ATOM     27  O   UNL     1      -3.137  -7.256   3.377  1.00  0.00    -0.269 OA
BRANCH  25  28
ATOM     28  C   UNL     1      -1.294  -6.557   4.665  1.00  0.00     0.039 A 
ATOM     29  C   UNL     1      -0.386  -7.440   4.070  1.00  0.00     0.014 A 
ATOM     30  C   UNL     1      -0.972  -5.979   5.896  1.00  0.00     0.014 A 
ATOM     31  C   UNL     1       0.843  -7.711   4.684  1.00  0.00     0.010 A 
ATOM     32  C   UNL     1       0.289  -6.181   6.464  1.00  0.00     0.010 A 
ATOM     33  C   UNL     1       1.204  -7.067   5.878  1.00  0.00    -0.014 A 
BRANCH  33  34
ATOM     34  C   UNL     1       2.512  -7.343   6.539  1.00  0.00     0.031 A 
ATOM     35  C   UNL     1       2.557  -7.958   7.915  1.00  0.00     0.074 A 
ATOM     36  C   UNL     1       3.662  -7.003   5.923  1.00  0.00     0.049 A 
ATOM     37  N   UNL     1       3.591  -8.229   8.672  1.00  0.00    -0.248 NA
ATOM     38  C   UNL     1       1.263  -8.281   8.533  1.00  0.00     0.031 C 
ATOM     39  C   UNL     1       3.757  -6.363   4.610  1.00  0.00     0.029 A 
ATOM     40  N   UNL     1       4.970  -7.139   6.320  1.00  0.00    -0.354 N 
ATOM     41  C   UNL     1       3.073  -8.735   9.861  1.00  0.00     0.074 A 
ATOM     42  C   UNL     1       1.631  -8.670   9.744  1.00  0.00     0.031 C 
ATOM     43  C   UNL     1       5.051  -6.184   4.301  1.00  0.00     0.029 A 
ATOM     44  C   UNL     1       5.879  -6.653   5.408  1.00  0.00     0.049 A 
ATOM     45  H   UNL     1       5.233  -7.547   7.177  1.00  0.00     0.167 HD
ATOM     46  C   UNL     1       3.734  -9.229  10.939  1.00  0.00     0.034 A 
ATOM     47  C   UNL     1       7.224  -6.578   5.460  1.00  0.00     0.034 A 
ATOM     48  C   UNL     1       5.173  -9.299  11.034  1.00  0.00     0.049 A 
ATOM     49  C   UNL     1       7.941  -7.118   6.670  1.00  0.00     0.074 A 
ATOM     50  C   UNL     1       5.945  -9.843  12.046  1.00  0.00     0.029 A 
ATOM     51  N   UNL     1       6.060  -8.795  10.090  1.00  0.00    -0.354 N 
ATOM     52  N   UNL     1       7.438  -7.652   7.760  1.00  0.00    -0.248 NA
ATOM     53  C   UNL     1       9.408  -7.057   6.652  1.00  0.00     0.031 C 
ATOM     54  C   UNL     1       7.292  -9.601  11.752  1.00  0.00     0.029 A 
ATOM     55  C   UNL     1       7.368  -8.980  10.515  1.00  0.00     0.049 A 
ATOM     56  H   UNL     1       5.798  -8.368   9.242  1.00  0.00     0.167 HD
ATOM     57  C   UNL     1       8.529  -8.012   8.546  1.00  0.00     0.074 A 
ATOM     58  C   UNL     1       9.715  -7.650   7.796  1.00  0.00     0.031 C 
ATOM     59  C   UNL     1       8.547  -8.595   9.772  1.00  0.00     0.034 A 
BRANCH  46  60
ATOM     60  C   UNL     1       2.898  -9.699  12.111  1.00  0.00     0.023 A 
ATOM     61  C   UNL     1       1.962 -10.741  11.984  1.00  0.00     0.031 A 
ATOM     62  C   UNL     1       3.006  -9.067  13.363  1.00  0.00     0.131 A 
ATOM     63  C   UNL     1       1.106 -11.051  13.052  1.00  0.00     0.055 A 
ATOM     64  C   UNL     1       2.216  -9.444  14.451  1.00  0.00     0.041 A 
ATOM     65  F   UNL     1       3.868  -8.054  13.546  1.00  0.00    -0.206 F 
ATOM     66  C   UNL     1       1.244 -10.427  14.294  1.00  0.00     0.022 A 
BRANCH  63  67
ATOM     67  S   UNL     1      -0.304 -12.150  12.740  1.00  0.00     0.124 S 
ATOM     68  O   UNL     1      -0.980 -11.458  11.644  1.00  0.00    -0.237 OA
ATOM     69  O   UNL     1       0.348 -13.408  12.395  1.00  0.00    -0.237 OA
ATOM     70  O   UNL     1      -1.029 -12.148  14.008  1.00  0.00    -0.744 OA
ENDBRANCH  63  67
ENDBRANCH  46  60
BRANCH  47  71
ATOM     71  C   UNL     1       7.980  -5.957   4.335  1.00  0.00     0.023 A 
ATOM     72  C   UNL     1       8.837  -6.717   3.525  1.00  0.00     0.031 A 
ATOM     73  C   UNL     1       7.861  -4.582   4.062  1.00  0.00     0.131 A 
ATOM     74  C   UNL     1       9.567  -6.093   2.501  1.00  0.00     0.055 A 
ATOM     75  C   UNL     1       8.552  -3.975   3.012  1.00  0.00     0.041 A 
ATOM     76  F   UNL     1       7.049  -3.810   4.803  1.00  0.00    -0.206 F 
ATOM     77  C   UNL     1       9.419  -4.731   2.229  1.00  0.00     0.022 A 
BRANCH  74  78
ATOM     78  S   UNL     1      10.761  -7.080   1.556  1.00  0.00     0.124 S 
ATOM     79  O   UNL     1      11.674  -7.524   2.603  1.00  0.00    -0.237 OA
ATOM     80  O   UNL     1       9.908  -8.108   0.969  1.00  0.00    -0.237 OA
ATOM     81  O   UNL     1      11.319  -6.120   0.606  1.00  0.00    -0.744 OA
ENDBRANCH  74  78
ENDBRANCH  47  71
BRANCH  59  82
ATOM     82  C   UNL     1       9.902  -8.909  10.364  1.00  0.00     0.023 A 
ATOM     83  C   UNL     1      10.804  -7.894  10.732  1.00  0.00     0.031 A 
ATOM     84  C   UNL     1      10.301 -10.245  10.549  1.00  0.00     0.131 A 
ATOM     85  C   UNL     1      12.079  -8.232  11.211  1.00  0.00     0.055 A 
ATOM     86  C   UNL     1      11.546 -10.574  11.086  1.00  0.00     0.041 A 
ATOM     87  F   UNL     1       9.484 -11.255  10.211  1.00  0.00    -0.206 F 
ATOM     88  C   UNL     1      12.449  -9.565  11.408  1.00  0.00     0.022 A 
BRANCH  85  89
ATOM     89  S   UNL     1      13.289  -6.907  11.480  1.00  0.00     0.124 S 
ATOM     90  O   UNL     1      13.365  -6.293  10.158  1.00  0.00    -0.237 OA
ATOM     91  O   UNL     1      12.649  -6.106  12.518  1.00  0.00    -0.237 OA
ATOM     92  O   UNL     1      14.492  -7.621  11.902  1.00  0.00    -0.744 OA
ENDBRANCH  85  89
ENDBRANCH  59  82
ENDBRANCH  33  34
ENDBRANCH  25  28
ENDBRANCH  23  24
ENDBRANCH   1  23
TORSDOF 18
