REMARK SMILES O=C(NCCCNC(=O)[C@@H]1CCC(=O)N1C(=O)/C=C/c1ccccc1)c1ccc(-c2c3nc(c(-c4cc(S(=O)(=O)[O-])ccc4F)c4ccc([nH]4)c(-c4cc(S(=O)(=O)[O-])ccc4F)c4nc(c(-c5cc(S(=O)(=O)[O-])ccc5F)c5ccc2[nH]5)C=C4)C=C3)cc1
REMARK SMILES IDX 5 1 4 2 3 3 1 4 2 5 26 7 27 8 88 9 28 10 87 11 29 12 30 13
REMARK SMILES IDX 31 14 81 15 32 16 86 17 80 18 82 19 33 20 85 21 79 22 78 23
REMARK SMILES IDX 34 25 66 26 46 27 65 28 47 29 50 30 64 31 83 32 48 33 49 34
REMARK SMILES IDX 63 36 84 37 51 38 35 39 36 40 44 41 37 42 43 43 45 44 42 45
REMARK SMILES IDX 38 46 39 47 40 48 41 49 67 50 68 51 76 52 69 53 75 54 77 55
REMARK SMILES IDX 74 56 70 57 71 58 72 59 73 60 52 61 53 62 61 63 54 64 60 65
REMARK SMILES IDX 62 66 59 67 55 68 56 69 57 70 58 71 6 72 7 73 8 74 9 76
REMARK SMILES IDX 10 77 11 78 15 79 12 80 13 81 14 82 16 83 17 84 18 85 19 86
REMARK SMILES IDX 20 87 21 88 25 89 22 90 24 91 23 92
REMARK H PARENT 3 6 82 24 50 35 7 75
REMARK Flexibility Score: inf
ROOT
ATOM      1  C   UNL     1       4.767  -2.300   0.847  1.00  0.00     0.042 C 
ENDROOT
BRANCH   1   2
ATOM      2  C   UNL     1       4.480  -1.217  -0.184  1.00  0.00     0.118 C 
BRANCH   2   3
ATOM      3  N   UNL     1       3.054  -0.981  -0.371  1.00  0.00    -0.352 N 
ATOM      4  O   UNL     1       1.093   0.115  -0.212  1.00  0.00    -0.269 OA
ATOM      5  C   UNL     1       2.319   0.161  -0.166  1.00  0.00     0.251 C 
ATOM      6  H   UNL     1       2.541  -1.757  -0.694  1.00  0.00     0.163 HD
BRANCH   5   7
ATOM      7  C   UNL     1       3.005   1.437   0.128  1.00  0.00     0.039 A 
ATOM      8  C   UNL     1       4.142   1.812  -0.590  1.00  0.00     0.014 A 
ATOM      9  C   UNL     1       2.501   2.270   1.130  1.00  0.00     0.014 A 
ATOM     10  C   UNL     1       4.864   2.933  -0.203  1.00  0.00     0.010 A 
ATOM     11  C   UNL     1       3.175   3.452   1.451  1.00  0.00     0.010 A 
ATOM     12  C   UNL     1       4.380   3.776   0.810  1.00  0.00    -0.014 A 
BRANCH  12  13
ATOM     13  C   UNL     1       5.131   5.013   1.141  1.00  0.00     0.031 A 
ATOM     14  C   UNL     1       5.750   5.207   2.497  1.00  0.00     0.074 A 
ATOM     15  C   UNL     1       5.278   5.953   0.188  1.00  0.00     0.049 A 
ATOM     16  N   UNL     1       6.450   6.216   2.949  1.00  0.00    -0.248 NA
ATOM     17  C   UNL     1       5.545   4.131   3.477  1.00  0.00     0.031 C 
ATOM     18  C   UNL     1       4.718   5.871  -1.165  1.00  0.00     0.029 A 
ATOM     19  N   UNL     1       5.953   7.145   0.194  1.00  0.00    -0.354 N 
ATOM     20  C   UNL     1       6.756   5.910   4.271  1.00  0.00     0.074 A 
ATOM     21  C   UNL     1       6.127   4.636   4.556  1.00  0.00     0.031 C 
ATOM     22  C   UNL     1       5.118   6.936  -1.872  1.00  0.00     0.029 A 
ATOM     23  C   UNL     1       5.898   7.813  -1.007  1.00  0.00     0.049 A 
ATOM     24  H   UNL     1       6.432   7.490   0.982  1.00  0.00     0.167 HD
ATOM     25  C   UNL     1       7.498   6.622   5.157  1.00  0.00     0.034 A 
ATOM     26  C   UNL     1       6.400   9.008  -1.369  1.00  0.00     0.034 A 
ATOM     27  C   UNL     1       8.112   7.894   4.850  1.00  0.00     0.049 A 
ATOM     28  C   UNL     1       7.176   9.801  -0.355  1.00  0.00     0.074 A 
ATOM     29  C   UNL     1       8.909   8.687   5.658  1.00  0.00     0.029 A 
ATOM     30  N   UNL     1       7.987   8.568   3.640  1.00  0.00    -0.354 N 
ATOM     31  N   UNL     1       7.468   9.492   0.887  1.00  0.00    -0.248 NA
ATOM     32  C   UNL     1       7.689  11.103  -0.793  1.00  0.00     0.031 C 
ATOM     33  C   UNL     1       9.204   9.867   4.965  1.00  0.00     0.029 A 
ATOM     34  C   UNL     1       8.661   9.781   3.694  1.00  0.00     0.049 A 
ATOM     35  H   UNL     1       7.492   8.234   2.857  1.00  0.00     0.167 HD
ATOM     36  C   UNL     1       8.219  10.556   1.374  1.00  0.00     0.074 A 
ATOM     37  C   UNL     1       8.347  11.505   0.284  1.00  0.00     0.031 C 
ATOM     38  C   UNL     1       8.758  10.730   2.608  1.00  0.00     0.034 A 
BRANCH  25  39
ATOM     39  C   UNL     1       7.635   6.059   6.555  1.00  0.00     0.023 A 
ATOM     40  C   UNL     1       8.254   4.819   6.799  1.00  0.00     0.031 A 
ATOM     41  C   UNL     1       7.096   6.748   7.656  1.00  0.00     0.131 A 
ATOM     42  C   UNL     1       8.239   4.268   8.090  1.00  0.00     0.055 A 
ATOM     43  C   UNL     1       7.162   6.235   8.953  1.00  0.00     0.041 A 
ATOM     44  F   UNL     1       6.476   7.927   7.487  1.00  0.00    -0.206 F 
ATOM     45  C   UNL     1       7.719   4.979   9.174  1.00  0.00     0.022 A 
BRANCH  42  46
ATOM     46  S   UNL     1       8.753   2.541   8.301  1.00  0.00     0.124 S 
ATOM     47  O   UNL     1       7.877   1.852   7.355  1.00  0.00    -0.237 OA
ATOM     48  O   UNL     1      10.166   2.586   7.944  1.00  0.00    -0.237 OA
ATOM     49  O   UNL     1       8.471   2.267   9.708  1.00  0.00    -0.744 OA
ENDBRANCH  42  46
ENDBRANCH  25  39
BRANCH  26  50
ATOM     50  C   UNL     1       6.163   9.527  -2.743  1.00  0.00     0.023 A 
ATOM     51  C   UNL     1       7.223   9.697  -3.646  1.00  0.00     0.031 A 
ATOM     52  C   UNL     1       4.865   9.859  -3.174  1.00  0.00     0.131 A 
ATOM     53  C   UNL     1       6.971  10.210  -4.927  1.00  0.00     0.055 A 
ATOM     54  C   UNL     1       4.614  10.323  -4.465  1.00  0.00     0.041 A 
ATOM     55  F   UNL     1       3.816   9.707  -2.350  1.00  0.00    -0.206 F 
ATOM     56  C   UNL     1       5.672  10.510  -5.348  1.00  0.00     0.022 A 
BRANCH  53  57
ATOM     57  S   UNL     1       8.377  10.531  -6.025  1.00  0.00     0.124 S 
ATOM     58  O   UNL     1       9.144  11.500  -5.251  1.00  0.00    -0.237 OA
ATOM     59  O   UNL     1       8.968   9.203  -6.158  1.00  0.00    -0.237 OA
ATOM     60  O   UNL     1       7.751  11.055  -7.237  1.00  0.00    -0.744 OA
ENDBRANCH  53  57
ENDBRANCH  26  50
BRANCH  38  61
ATOM     61  C   UNL     1       9.568  11.986   2.821  1.00  0.00     0.023 A 
ATOM     62  C   UNL     1       8.974  13.260   2.809  1.00  0.00     0.031 A 
ATOM     63  C   UNL     1      10.959  11.906   3.006  1.00  0.00     0.131 A 
ATOM     64  C   UNL     1       9.777  14.406   2.920  1.00  0.00     0.055 A 
ATOM     65  C   UNL     1      11.745  13.046   3.176  1.00  0.00     0.041 A 
ATOM     66  F   UNL     1      11.579  10.715   3.020  1.00  0.00    -0.206 F 
ATOM     67  C   UNL     1      11.156  14.306   3.119  1.00  0.00     0.022 A 
BRANCH  64  68
ATOM     68  S   UNL     1       9.008  16.034   2.698  1.00  0.00     0.124 S 
ATOM     69  O   UNL     1       8.441  15.921   1.357  1.00  0.00    -0.237 OA
ATOM     70  O   UNL     1       8.047  16.077   3.795  1.00  0.00    -0.237 OA
ATOM     71  O   UNL     1      10.130  16.963   2.820  1.00  0.00    -0.744 OA
ENDBRANCH  64  68
ENDBRANCH  38  61
ENDBRANCH  12  13
ENDBRANCH   5   7
ENDBRANCH   2   3
ENDBRANCH   1   2
BRANCH   1  72
ATOM     72  C   UNL     1       4.267  -3.674   0.434  1.00  0.00     0.117 C 
BRANCH  72  73
ATOM     73  N   UNL     1       4.952  -4.168  -0.750  1.00  0.00    -0.354 N 
ATOM     74  C   UNL     1       5.751  -5.261  -0.896  1.00  0.00     0.243 C 
ATOM     75  H   UNL     1       4.818  -3.633  -1.566  1.00  0.00     0.163 HD
ATOM     76  O   UNL     1       6.088  -5.579  -2.041  1.00  0.00    -0.273 OA
BRANCH  74  77
ATOM     77  C   UNL     1       6.144  -6.104   0.326  1.00  0.00     0.183 C 
ATOM     78  C   UNL     1       7.643  -6.386   0.281  1.00  0.00     0.046 C 
ATOM     79  N   UNL     1       5.514  -7.413   0.212  1.00  0.00    -0.266 N 
ATOM     80  C   UNL     1       7.762  -7.807   0.777  1.00  0.00     0.103 C 
ATOM     81  C   UNL     1       6.470  -8.434   0.326  1.00  0.00     0.230 C 
ATOM     82  O   UNL     1       6.330  -9.637   0.167  1.00  0.00    -0.274 OA
BRANCH  79  83
ATOM     83  C   UNL     1       4.130  -7.499   0.263  1.00  0.00     0.253 C 
ATOM     84  O   UNL     1       3.398  -6.535   0.484  1.00  0.00    -0.269 OA
BRANCH  83  85
ATOM     85  C   UNL     1       3.477  -8.798   0.004  1.00  0.00     0.072 C 
ATOM     86  C   UNL     1       3.532  -9.797   0.896  1.00  0.00     0.014 C 
BRANCH  86  87
ATOM     87  C   UNL     1       2.865 -11.102   0.761  1.00  0.00    -0.025 A 
ATOM     88  C   UNL     1       3.122 -12.080   1.733  1.00  0.00     0.008 A 
ATOM     89  C   UNL     1       1.985 -11.420  -0.283  1.00  0.00     0.008 A 
ATOM     90  C   UNL     1       2.521 -13.339   1.664  1.00  0.00     0.001 A 
ATOM     91  C   UNL     1       1.384 -12.680  -0.354  1.00  0.00     0.001 A 
ATOM     92  C   UNL     1       1.652 -13.639   0.619  1.00  0.00     0.000 A 
ENDBRANCH  86  87
ENDBRANCH  83  85
ENDBRANCH  79  83
ENDBRANCH  74  77
ENDBRANCH  72  73
ENDBRANCH   1  72
TORSDOF 16
