REMARK SMILES COc1ccc(C2=NN=C[C@@H]2C(=O)NCCCNC(=O)c2ccc(-c3c4nc(c(-c5cc(S(=O)(=O)[O-])ccc5F)c5ccc([nH]5)c(-c5cc(S(=O)(=O)[O-])ccc5F)c5nc(c(-c6cc(S(=O)(=O)[O-])ccc6F)c6ccc3[nH]6)C=C5)C=C4)cc2)cc1OC
REMARK SMILES IDX 16 1 15 2 14 3 12 4 13 5 11 7 7 8 8 9 9 10 10 11 6 12 3 13
REMARK SMILES IDX 4 14 85 15 5 16 84 17 2 18 1 19 86 20 87 21 17 22 18 23
REMARK SMILES IDX 19 24 20 26 21 27 22 28 83 29 23 30 82 31 24 32 25 33 26 34
REMARK SMILES IDX 76 35 27 36 81 37 75 38 77 39 28 40 80 41 74 42 73 43 29 45
REMARK SMILES IDX 61 46 41 47 60 48 42 49 45 50 59 51 78 52 43 53 44 54 58 56
REMARK SMILES IDX 79 57 46 58 30 59 31 60 39 61 32 62 38 63 40 64 37 65 33 66
REMARK SMILES IDX 34 67 35 68 36 69 62 70 63 71 71 72 64 73 70 74 72 75 69 76
REMARK SMILES IDX 65 77 66 78 67 79 68 80 47 81 48 82 56 83 49 84 55 85 57 86
REMARK SMILES IDX 54 87 50 88 51 89 52 90 53 91
REMARK H PARENT 14 6 18 25 77 44 45 55
REMARK Flexibility Score: inf
ROOT
ATOM      1  C   UNL     1       5.394   7.295  -3.102  1.00  0.00     0.042 C 
ENDROOT
BRANCH   1   2
ATOM      2  C   UNL     1       4.576   6.047  -2.763  1.00  0.00     0.117 C 
BRANCH   2   3
ATOM      3  N   UNL     1       3.331   6.357  -2.071  1.00  0.00    -0.355 N 
ATOM      4  C   UNL     1       2.037   6.331  -2.491  1.00  0.00     0.234 C 
ATOM      5  O   UNL     1       1.162   6.607  -1.665  1.00  0.00    -0.274 OA
ATOM      6  H   UNL     1       3.447   6.636  -1.133  1.00  0.00     0.163 HD
BRANCH   4   7
ATOM      7  C   UNL     1       1.637   5.955  -3.886  1.00  0.00     0.173 C 
ATOM      8  C   UNL     1       2.000   4.580  -4.322  1.00  0.00     0.088 C 
ATOM      9  N   UNL     1       2.691   4.559  -5.422  1.00  0.00    -0.154 NA
ATOM     10  N   UNL     1       2.877   5.916  -5.850  1.00  0.00    -0.162 NA
ATOM     11  C   UNL     1       2.308   6.691  -4.983  1.00  0.00     0.128 C 
BRANCH   8  12
ATOM     12  C   UNL     1       1.634   3.398  -3.541  1.00  0.00     0.003 A 
ATOM     13  C   UNL     1       1.003   1.149  -2.021  1.00  0.00     0.160 A 
ATOM     14  C   UNL     1      -0.012   1.891  -2.648  1.00  0.00     0.051 A 
ATOM     15  C   UNL     1       2.346   1.525  -2.167  1.00  0.00     0.161 A 
ATOM     16  C   UNL     1       0.299   3.029  -3.397  1.00  0.00     0.014 A 
ATOM     17  C   UNL     1       2.650   2.652  -2.940  1.00  0.00     0.060 A 
BRANCH  13  18
ATOM     18  O   UNL     1       0.648  -0.009  -1.383  1.00  0.00    -0.493 OA
ATOM     19  C   UNL     1       0.014   0.242  -0.127  1.00  0.00     0.278 C 
ENDBRANCH  13  18
BRANCH  15  20
ATOM     20  O   UNL     1       3.462   0.913  -1.667  1.00  0.00    -0.493 OA
ATOM     21  C   UNL     1       3.305  -0.019  -0.609  1.00  0.00     0.278 C 
ENDBRANCH  15  20
ENDBRANCH   8  12
ENDBRANCH   4   7
ENDBRANCH   2   3
ENDBRANCH   1   2
BRANCH   1  22
ATOM     22  C   UNL     1       6.110   7.876  -1.889  1.00  0.00     0.118 C 
BRANCH  22  23
ATOM     23  N   UNL     1       7.189   7.013  -1.400  1.00  0.00    -0.352 N 
ATOM     24  C   UNL     1       7.969   7.181  -0.271  1.00  0.00     0.251 C 
ATOM     25  H   UNL     1       7.383   6.215  -1.943  1.00  0.00     0.163 HD
ATOM     26  O   UNL     1       9.051   6.605  -0.172  1.00  0.00    -0.269 OA
BRANCH  24  27
ATOM     27  C   UNL     1       7.485   8.068   0.801  1.00  0.00     0.039 A 
ATOM     28  C   UNL     1       8.330   8.988   1.427  1.00  0.00     0.014 A 
ATOM     29  C   UNL     1       6.134   8.007   1.125  1.00  0.00     0.014 A 
ATOM     30  C   UNL     1       7.777   9.921   2.305  1.00  0.00     0.010 A 
ATOM     31  C   UNL     1       5.571   9.016   1.866  1.00  0.00     0.010 A 
ATOM     32  C   UNL     1       6.386   9.953   2.497  1.00  0.00    -0.014 A 
BRANCH  32  33
ATOM     33  C   UNL     1       5.744  11.054   3.222  1.00  0.00     0.031 A 
ATOM     34  C   UNL     1       6.093  12.411   2.715  1.00  0.00     0.074 A 
ATOM     35  C   UNL     1       4.715  10.868   4.080  1.00  0.00     0.049 A 
ATOM     36  N   UNL     1       6.769  13.336   3.312  1.00  0.00    -0.248 NA
ATOM     37  C   UNL     1       5.794  12.721   1.306  1.00  0.00     0.031 C 
ATOM     38  C   UNL     1       4.071   9.595   4.433  1.00  0.00     0.029 A 
ATOM     39  N   UNL     1       3.929  11.783   4.717  1.00  0.00    -0.354 N 
ATOM     40  C   UNL     1       6.737  14.440   2.461  1.00  0.00     0.074 A 
ATOM     41  C   UNL     1       6.354  13.925   1.177  1.00  0.00     0.031 C 
ATOM     42  C   UNL     1       2.869   9.832   4.998  1.00  0.00     0.029 A 
ATOM     43  C   UNL     1       2.739  11.259   5.224  1.00  0.00     0.049 A 
ATOM     44  H   UNL     1       4.179  12.730   4.811  1.00  0.00     0.167 HD
ATOM     45  C   UNL     1       6.739  15.709   2.962  1.00  0.00     0.034 A 
ATOM     46  C   UNL     1       1.706  11.934   5.793  1.00  0.00     0.034 A 
ATOM     47  C   UNL     1       7.140  15.699   4.355  1.00  0.00     0.049 A 
ATOM     48  C   UNL     1       2.261  13.215   6.279  1.00  0.00     0.074 A 
ATOM     49  C   UNL     1       8.266  15.315   5.056  1.00  0.00     0.029 A 
ATOM     50  N   UNL     1       6.131  15.794   5.287  1.00  0.00    -0.354 N 
ATOM     51  N   UNL     1       3.172  13.290   7.211  1.00  0.00    -0.248 NA
ATOM     52  C   UNL     1       2.134  14.399   5.445  1.00  0.00     0.031 C 
ATOM     53  C   UNL     1       7.777  14.777   6.285  1.00  0.00     0.029 A 
ATOM     54  C   UNL     1       6.388  14.923   6.312  1.00  0.00     0.049 A 
ATOM     55  H   UNL     1       5.351  16.392   5.227  1.00  0.00     0.167 HD
ATOM     56  C   UNL     1       4.016  14.307   6.799  1.00  0.00     0.074 A 
ATOM     57  C   UNL     1       3.246  15.049   5.805  1.00  0.00     0.031 C 
ATOM     58  C   UNL     1       5.351  14.267   7.091  1.00  0.00     0.034 A 
BRANCH  45  59
ATOM     59  C   UNL     1       5.949  16.880   2.381  1.00  0.00     0.023 A 
ATOM     60  C   UNL     1       5.922  18.062   3.151  1.00  0.00     0.031 A 
ATOM     61  C   UNL     1       4.997  16.822   1.339  1.00  0.00     0.131 A 
ATOM     62  C   UNL     1       4.897  19.011   2.997  1.00  0.00     0.055 A 
ATOM     63  C   UNL     1       4.016  17.802   1.147  1.00  0.00     0.041 A 
ATOM     64  F   UNL     1       4.904  15.798   0.486  1.00  0.00    -0.206 F 
ATOM     65  C   UNL     1       3.932  18.882   2.006  1.00  0.00     0.022 A 
BRANCH  62  66
ATOM     66  S   UNL     1       4.732  20.302   4.256  1.00  0.00     0.124 S 
ATOM     67  O   UNL     1       4.686  19.506   5.477  1.00  0.00    -0.237 OA
ATOM     68  O   UNL     1       5.943  21.086   4.039  1.00  0.00    -0.237 OA
ATOM     69  O   UNL     1       3.483  20.968   3.895  1.00  0.00    -0.744 OA
ENDBRANCH  62  66
ENDBRANCH  45  59
BRANCH  46  70
ATOM     70  C   UNL     1       0.250  11.647   5.679  1.00  0.00     0.023 A 
ATOM     71  C   UNL     1      -0.707  12.137   6.594  1.00  0.00     0.031 A 
ATOM     72  C   UNL     1      -0.249  11.073   4.488  1.00  0.00     0.131 A 
ATOM     73  C   UNL     1      -2.089  12.050   6.296  1.00  0.00     0.055 A 
ATOM     74  C   UNL     1      -1.614  10.990   4.199  1.00  0.00     0.041 A 
ATOM     75  F   UNL     1       0.581  10.649   3.522  1.00  0.00    -0.206 F 
ATOM     76  C   UNL     1      -2.540  11.490   5.099  1.00  0.00     0.022 A 
BRANCH  73  77
ATOM     77  S   UNL     1      -3.329  12.755   7.434  1.00  0.00     0.124 S 
ATOM     78  O   UNL     1      -3.223  11.876   8.592  1.00  0.00    -0.237 OA
ATOM     79  O   UNL     1      -2.854  14.122   7.609  1.00  0.00    -0.237 OA
ATOM     80  O   UNL     1      -4.583  12.636   6.688  1.00  0.00    -0.744 OA
ENDBRANCH  73  77
ENDBRANCH  46  70
BRANCH  58  81
ATOM     81  C   UNL     1       5.805  13.333   8.195  1.00  0.00     0.023 A 
ATOM     82  C   UNL     1       5.668  11.926   8.186  1.00  0.00     0.031 A 
ATOM     83  C   UNL     1       6.499  13.914   9.271  1.00  0.00     0.131 A 
ATOM     84  C   UNL     1       6.209  11.159   9.238  1.00  0.00     0.055 A 
ATOM     85  C   UNL     1       7.051  13.152  10.298  1.00  0.00     0.041 A 
ATOM     86  F   UNL     1       6.683  15.244   9.323  1.00  0.00    -0.206 F 
ATOM     87  C   UNL     1       6.903  11.770  10.288  1.00  0.00     0.022 A 
BRANCH  84  88
ATOM     88  S   UNL     1       6.011   9.347   9.270  1.00  0.00     0.124 S 
ATOM     89  O   UNL     1       4.581   9.155   9.060  1.00  0.00    -0.237 OA
ATOM     90  O   UNL     1       6.881   8.911   8.181  1.00  0.00    -0.237 OA
ATOM     91  O   UNL     1       6.483   8.976  10.606  1.00  0.00    -0.744 OA
ENDBRANCH  84  88
ENDBRANCH  58  81
ENDBRANCH  32  33
ENDBRANCH  24  27
ENDBRANCH  22  23
ENDBRANCH   1  22
TORSDOF 16
