REMARK SMILES O=C(/C=C/c1ccc(O)c(O)c1)NCCCNC(=O)c1ccc(-c2c3nc(c(-c4cc(S(=O)(=O)[O-])ccc4F)c4ccc([nH]4)c(-c4cc(S(=O)(=O)[O-])ccc4F)c4nc(c(-c5cc(S(=O)(=O)[O-])ccc5F)c5ccc2[nH]5)C=C4)C=C3)cc1
REMARK SMILES IDX 15 1 14 2 13 3 1 4 2 5 3 7 4 8 5 9 6 10 12 11 7 12 10 13
REMARK SMILES IDX 8 14 11 15 9 17 16 19 17 20 18 21 19 23 20 24 21 25 82 26
REMARK SMILES IDX 22 27 81 28 23 29 24 30 25 31 75 32 26 33 80 34 74 35 76 36
REMARK SMILES IDX 27 37 79 38 73 39 72 40 28 42 60 43 40 44 59 45 41 46 44 47
REMARK SMILES IDX 58 48 77 49 42 50 43 51 57 53 78 54 45 55 29 56 30 57 38 58
REMARK SMILES IDX 31 59 37 60 39 61 36 62 32 63 33 64 34 65 35 66 61 67 62 68
REMARK SMILES IDX 70 69 63 70 69 71 71 72 68 73 64 74 65 75 66 76 67 77 46 78
REMARK SMILES IDX 47 79 55 80 48 81 54 82 56 83 53 84 49 85 50 86 51 87 52 88
REMARK H PARENT 13 6 11 16 9 18 17 22 76 41 44 52
REMARK Flexibility Score: inf
ROOT
ATOM      1  C   UNL     1       2.326   3.171  -1.093  1.00  0.00     0.042 C 
ENDROOT
BRANCH   1   2
ATOM      2  C   UNL     1       2.089   1.748  -1.587  1.00  0.00     0.118 C 
BRANCH   2   3
ATOM      3  N   UNL     1       2.778   0.751  -0.790  1.00  0.00    -0.352 N 
ATOM      4  O   UNL     1       0.916   0.038   0.347  1.00  0.00    -0.270 OA
ATOM      5  C   UNL     1       2.124  -0.024   0.127  1.00  0.00     0.244 C 
ATOM      6  H   UNL     1       3.748   0.630  -0.912  1.00  0.00     0.163 HD
BRANCH   5   7
ATOM      7  C   UNL     1       2.933  -1.039   0.847  1.00  0.00     0.072 C 
ATOM      8  C   UNL     1       4.270  -1.083   0.952  1.00  0.00     0.014 C 
BRANCH   8   9
ATOM      9  C   UNL     1       4.955  -2.119   1.739  1.00  0.00    -0.022 A 
ATOM     10  C   UNL     1       4.590  -3.475   1.659  1.00  0.00     0.012 A 
ATOM     11  C   UNL     1       6.019  -1.749   2.571  1.00  0.00     0.058 A 
ATOM     12  C   UNL     1       5.247  -4.444   2.425  1.00  0.00     0.051 A 
ATOM     13  C   UNL     1       6.666  -2.717   3.329  1.00  0.00     0.157 A 
ATOM     14  C   UNL     1       6.282  -4.054   3.264  1.00  0.00     0.157 A 
BRANCH  13  15
ATOM     15  O   UNL     1       7.688  -2.342   4.153  1.00  0.00    -0.504 OA
ATOM     16  H   UNL     1       8.133  -2.984   4.671  1.00  0.00     0.293 HD
ENDBRANCH  13  15
BRANCH  14  17
ATOM     17  O   UNL     1       6.954  -4.950   4.049  1.00  0.00    -0.504 OA
ATOM     18  H   UNL     1       6.720  -5.857   4.029  1.00  0.00     0.293 HD
ENDBRANCH  14  17
ENDBRANCH   8   9
ENDBRANCH   5   7
ENDBRANCH   2   3
ENDBRANCH   1   2
BRANCH   1  19
ATOM     19  C   UNL     1       3.781   3.631  -1.137  1.00  0.00     0.118 C 
BRANCH  19  20
ATOM     20  N   UNL     1       4.346   3.610  -2.477  1.00  0.00    -0.352 N 
ATOM     21  C   UNL     1       5.026   4.572  -3.181  1.00  0.00     0.251 C 
ATOM     22  H   UNL     1       4.221   2.761  -2.960  1.00  0.00     0.163 HD
ATOM     23  O   UNL     1       5.275   4.356  -4.367  1.00  0.00    -0.269 OA
BRANCH  21  24
ATOM     24  C   UNL     1       5.440   5.853  -2.561  1.00  0.00     0.039 A 
ATOM     25  C   UNL     1       5.410   7.010  -3.349  1.00  0.00     0.014 A 
ATOM     26  C   UNL     1       5.916   5.929  -1.249  1.00  0.00     0.014 A 
ATOM     27  C   UNL     1       5.817   8.237  -2.815  1.00  0.00     0.010 A 
ATOM     28  C   UNL     1       6.253   7.167  -0.695  1.00  0.00     0.010 A 
ATOM     29  C   UNL     1       6.224   8.332  -1.475  1.00  0.00    -0.014 A 
BRANCH  29  30
ATOM     30  C   UNL     1       6.657   9.635  -0.899  1.00  0.00     0.031 A 
ATOM     31  C   UNL     1       8.081   9.828  -0.448  1.00  0.00     0.074 A 
ATOM     32  C   UNL     1       5.765  10.636  -0.755  1.00  0.00     0.049 A 
ATOM     33  N   UNL     1       8.642  10.874   0.106  1.00  0.00    -0.248 NA
ATOM     34  C   UNL     1       8.986   8.682  -0.617  1.00  0.00     0.031 C 
ATOM     35  C   UNL     1       4.348  10.563  -1.118  1.00  0.00     0.029 A 
ATOM     36  N   UNL     1       5.916  11.909  -0.264  1.00  0.00    -0.354 N 
ATOM     37  C   UNL     1       9.960  10.508   0.363  1.00  0.00     0.074 A 
ATOM     38  C   UNL     1      10.092   9.123  -0.037  1.00  0.00     0.031 C 
ATOM     39  C   UNL     1       3.768  11.747  -0.861  1.00  0.00     0.029 A 
ATOM     40  C   UNL     1       4.757  12.651  -0.282  1.00  0.00     0.049 A 
ATOM     41  H   UNL     1       6.773  12.259   0.071  1.00  0.00     0.167 HD
ATOM     42  C   UNL     1      10.973  11.262   0.862  1.00  0.00     0.034 A 
ATOM     43  C   UNL     1       4.517  13.914   0.123  1.00  0.00     0.034 A 
ATOM     44  C   UNL     1      10.831  12.646   1.245  1.00  0.00     0.049 A 
ATOM     45  C   UNL     1       5.656  14.733   0.677  1.00  0.00     0.074 A 
ATOM     46  C   UNL     1      11.799  13.514   1.724  1.00  0.00     0.029 A 
ATOM     47  N   UNL     1       9.645  13.368   1.197  1.00  0.00    -0.354 N 
ATOM     48  N   UNL     1       6.908  14.386   0.871  1.00  0.00    -0.248 NA
ATOM     49  C   UNL     1       5.353  16.121   1.048  1.00  0.00     0.031 C 
ATOM     50  C   UNL     1      11.187  14.737   2.020  1.00  0.00     0.029 A 
ATOM     51  C   UNL     1       9.853  14.661   1.655  1.00  0.00     0.049 A 
ATOM     52  H   UNL     1       8.782  13.014   0.883  1.00  0.00     0.167 HD
ATOM     53  C   UNL     1       7.548  15.527   1.349  1.00  0.00     0.074 A 
ATOM     54  C   UNL     1       6.547  16.572   1.401  1.00  0.00     0.031 C 
ATOM     55  C   UNL     1       8.847  15.696   1.706  1.00  0.00     0.034 A 
BRANCH  42  56
ATOM     56  C   UNL     1      12.314  10.588   1.043  1.00  0.00     0.023 A 
ATOM     57  C   UNL     1      13.033  10.069  -0.050  1.00  0.00     0.031 A 
ATOM     58  C   UNL     1      12.867  10.429   2.326  1.00  0.00     0.131 A 
ATOM     59  C   UNL     1      14.215   9.346   0.168  1.00  0.00     0.055 A 
ATOM     60  C   UNL     1      14.090   9.784   2.527  1.00  0.00     0.041 A 
ATOM     61  F   UNL     1      12.221  10.885   3.410  1.00  0.00    -0.206 F 
ATOM     62  C   UNL     1      14.763   9.222   1.446  1.00  0.00     0.022 A 
BRANCH  59  63
ATOM     63  S   UNL     1      14.944   8.439  -1.224  1.00  0.00     0.124 S 
ATOM     64  O   UNL     1      13.847   7.549  -1.602  1.00  0.00    -0.237 OA
ATOM     65  O   UNL     1      15.255   9.506  -2.168  1.00  0.00    -0.237 OA
ATOM     66  O   UNL     1      16.101   7.772  -0.632  1.00  0.00    -0.744 OA
ENDBRANCH  59  63
ENDBRANCH  42  56
BRANCH  43  67
ATOM     67  C   UNL     1       3.147  14.493   0.020  1.00  0.00     0.023 A 
ATOM     68  C   UNL     1       2.881  15.576  -0.833  1.00  0.00     0.031 A 
ATOM     69  C   UNL     1       2.092  14.000   0.809  1.00  0.00     0.131 A 
ATOM     70  C   UNL     1       1.607  16.165  -0.841  1.00  0.00     0.055 A 
ATOM     71  C   UNL     1       0.812  14.555   0.759  1.00  0.00     0.041 A 
ATOM     72  F   UNL     1       2.291  12.962   1.636  1.00  0.00    -0.206 F 
ATOM     73  C   UNL     1       0.568  15.654  -0.060  1.00  0.00     0.022 A 
BRANCH  70  74
ATOM     74  S   UNL     1       1.350  17.667  -1.825  1.00  0.00     0.124 S 
ATOM     75  O   UNL     1       2.347  18.567  -1.259  1.00  0.00    -0.237 OA
ATOM     76  O   UNL     1       1.610  17.189  -3.179  1.00  0.00    -0.237 OA
ATOM     77  O   UNL     1      -0.041  18.020  -1.548  1.00  0.00    -0.744 OA
ENDBRANCH  70  74
ENDBRANCH  43  67
BRANCH  55  78
ATOM     78  C   UNL     1       9.267  17.085   2.126  1.00  0.00     0.023 A 
ATOM     79  C   UNL     1       8.775  17.691   3.295  1.00  0.00     0.031 A 
ATOM     80  C   UNL     1      10.158  17.822   1.325  1.00  0.00     0.131 A 
ATOM     81  C   UNL     1       9.126  19.016   3.597  1.00  0.00     0.055 A 
ATOM     82  C   UNL     1      10.553  19.117   1.663  1.00  0.00     0.041 A 
ATOM     83  F   UNL     1      10.659  17.294   0.197  1.00  0.00    -0.206 F 
ATOM     84  C   UNL     1      10.024  19.727   2.796  1.00  0.00     0.022 A 
BRANCH  81  85
ATOM     85  S   UNL     1       8.310  19.838   4.994  1.00  0.00     0.124 S 
ATOM     86  O   UNL     1       6.899  19.698   4.647  1.00  0.00    -0.237 OA
ATOM     87  O   UNL     1       8.768  19.047   6.131  1.00  0.00    -0.237 OA
ATOM     88  O   UNL     1       8.829  21.203   4.939  1.00  0.00    -0.744 OA
ENDBRANCH  81  85
ENDBRANCH  55  78
ENDBRANCH  29  30
ENDBRANCH  21  24
ENDBRANCH  19  20
ENDBRANCH   1  19
TORSDOF 16
