REMARK SMILES Cc1cccc(-c2cccnc2C(=O)NCCCNC(=O)c2ccc(-c3c4nc(c(-c5cc(S(=O)(=O)[O-])ccc5F)c5ccc([nH]5)c(-c5cc(S(=O)(=O)[O-])ccc5F)c5nc(c(-c6cc(S(=O)(=O)[O-])ccc6F)c6ccc3[nH]6)C=C5)C=C4)cc2)c1
REMARK SMILES IDX 18 1 17 2 16 3 15 4 13 5 14 6 12 8 7 9 8 10 9 11 11 12 10 13
REMARK SMILES IDX 6 14 1 15 2 16 3 17 85 18 4 19 5 20 19 21 20 22 21 24 22 25
REMARK SMILES IDX 23 26 84 27 24 28 83 29 25 30 26 31 27 32 77 33 28 34 82 35
REMARK SMILES IDX 76 36 78 37 29 38 81 39 75 40 74 41 30 43 62 44 42 45 61 46
REMARK SMILES IDX 43 47 46 48 60 49 79 50 44 51 45 52 59 54 80 55 47 56 31 57
REMARK SMILES IDX 32 58 40 59 33 60 39 61 41 62 38 63 34 64 35 65 36 66 37 67
REMARK SMILES IDX 63 68 64 69 72 70 65 71 71 72 73 73 70 74 66 75 67 76 68 77
REMARK SMILES IDX 69 78 48 79 49 80 57 81 50 82 56 83 58 84 55 85 51 86 52 87
REMARK SMILES IDX 53 88 54 89
REMARK H PARENT 15 7 19 23 78 42 46 53
REMARK Flexibility Score: inf
ROOT
ATOM      1  C   UNL     1       0.148  -1.308   2.856  1.00  0.00     0.118 C 
ENDROOT
BRANCH   1   2
ATOM      2  C   UNL     1      -0.270   0.158   2.832  1.00  0.00     0.042 C 
BRANCH   2   3
ATOM      3  C   UNL     1      -1.295   0.444   1.760  1.00  0.00     0.118 C 
BRANCH   3   4
ATOM      4  N   UNL     1      -2.519   1.054   2.191  1.00  0.00    -0.351 N 
ATOM      5  C   UNL     1      -3.299   2.007   1.574  1.00  0.00     0.270 C 
ATOM      6  O   UNL     1      -4.422   2.174   2.067  1.00  0.00    -0.267 OA
ATOM      7  H   UNL     1      -2.854   0.744   3.064  1.00  0.00     0.163 HD
BRANCH   5   8
ATOM      8  C   UNL     1      -2.874   2.934   0.440  1.00  0.00     0.135 A 
ATOM      9  C   UNL     1      -2.126   2.671  -0.728  1.00  0.00     0.013 A 
ATOM     10  C   UNL     1      -1.972   3.750  -1.633  1.00  0.00     0.013 A 
ATOM     11  C   UNL     1      -2.521   5.002  -1.388  1.00  0.00     0.021 A 
ATOM     12  N   UNL     1      -3.402   4.185   0.674  1.00  0.00    -0.250 NA
ATOM     13  C   UNL     1      -3.224   5.168  -0.222  1.00  0.00     0.112 A 
BRANCH   9  14
ATOM     14  C   UNL     1      -1.431   1.431  -1.112  1.00  0.00    -0.016 A 
ATOM     15  C   UNL     1       2.200   0.214  -1.080  1.00  0.00     0.044 C 
ATOM     16  C   UNL     1       0.718   0.246  -1.329  1.00  0.00    -0.051 A 
ATOM     17  C   UNL     1       0.020  -0.931  -1.610  1.00  0.00     0.003 A 
ATOM     18  C   UNL     1      -0.012   1.423  -1.127  1.00  0.00     0.012 A 
ATOM     19  C   UNL     1      -1.377  -0.933  -1.653  1.00  0.00     0.001 A 
ATOM     20  C   UNL     1      -2.102   0.239  -1.406  1.00  0.00     0.009 A 
ENDBRANCH   9  14
ENDBRANCH   5   8
ENDBRANCH   3   4
ENDBRANCH   2   3
ENDBRANCH   1   2
BRANCH   1  21
ATOM     21  N   UNL     1       0.818  -1.770   1.629  1.00  0.00    -0.352 N 
ATOM     22  C   UNL     1       1.726  -2.810   1.435  1.00  0.00     0.251 C 
ATOM     23  H   UNL     1       0.588  -1.265   0.817  1.00  0.00     0.163 HD
ATOM     24  O   UNL     1       2.152  -3.117   0.354  1.00  0.00    -0.269 OA
BRANCH  22  25
ATOM     25  C   UNL     1       2.121  -3.566   2.645  1.00  0.00     0.039 A 
ATOM     26  C   UNL     1       1.451  -4.772   2.869  1.00  0.00     0.014 A 
ATOM     27  C   UNL     1       2.681  -2.828   3.680  1.00  0.00     0.014 A 
ATOM     28  C   UNL     1       1.054  -5.072   4.165  1.00  0.00     0.010 A 
ATOM     29  C   UNL     1       2.187  -3.072   4.947  1.00  0.00     0.010 A 
ATOM     30  C   UNL     1       1.280  -4.127   5.164  1.00  0.00    -0.014 A 
BRANCH  30  31
ATOM     31  C   UNL     1       0.406  -3.995   6.338  1.00  0.00     0.031 A 
ATOM     32  C   UNL     1       0.987  -3.929   7.698  1.00  0.00     0.074 A 
ATOM     33  C   UNL     1      -0.928  -3.798   6.181  1.00  0.00     0.049 A 
ATOM     34  N   UNL     1       0.296  -4.008   8.783  1.00  0.00    -0.248 NA
ATOM     35  C   UNL     1       2.423  -3.853   7.954  1.00  0.00     0.031 C 
ATOM     36  C   UNL     1      -1.875  -3.289   7.175  1.00  0.00     0.029 A 
ATOM     37  N   UNL     1      -1.746  -4.280   5.153  1.00  0.00    -0.354 N 
ATOM     38  C   UNL     1       1.117  -3.684   9.834  1.00  0.00     0.074 A 
ATOM     39  C   UNL     1       2.444  -3.721   9.282  1.00  0.00     0.031 C 
ATOM     40  C   UNL     1      -3.108  -3.715   6.867  1.00  0.00     0.029 A 
ATOM     41  C   UNL     1      -2.983  -4.619   5.743  1.00  0.00     0.049 A 
ATOM     42  H   UNL     1      -1.506  -4.366   4.202  1.00  0.00     0.167 HD
ATOM     43  C   UNL     1       0.546  -3.299  11.008  1.00  0.00     0.034 A 
ATOM     44  C   UNL     1      -3.467  -5.893   5.702  1.00  0.00     0.034 A 
ATOM     45  C   UNL     1      -0.863  -3.712  11.060  1.00  0.00     0.049 A 
ATOM     46  C   UNL     1      -3.667  -6.519   7.066  1.00  0.00     0.074 A 
ATOM     47  C   UNL     1      -2.077  -3.048  11.034  1.00  0.00     0.029 A 
ATOM     48  N   UNL     1      -1.162  -5.066  10.904  1.00  0.00    -0.354 N 
ATOM     49  N   UNL     1      -3.226  -6.008   8.184  1.00  0.00    -0.248 NA
ATOM     50  C   UNL     1      -4.357  -7.787   7.273  1.00  0.00     0.031 C 
ATOM     51  C   UNL     1      -3.099  -4.011  10.784  1.00  0.00     0.029 A 
ATOM     52  C   UNL     1      -2.513  -5.263  10.701  1.00  0.00     0.049 A 
ATOM     53  H   UNL     1      -0.494  -5.789  10.934  1.00  0.00     0.167 HD
ATOM     54  C   UNL     1      -3.492  -6.864   9.226  1.00  0.00     0.074 A 
ATOM     55  C   UNL     1      -4.242  -7.942   8.604  1.00  0.00     0.031 C 
ATOM     56  C   UNL     1      -3.038  -6.614  10.496  1.00  0.00     0.034 A 
BRANCH  43  57
ATOM     57  C   UNL     1       1.193  -2.373  12.030  1.00  0.00     0.023 A 
ATOM     58  C   UNL     1       0.400  -1.865  13.085  1.00  0.00     0.031 A 
ATOM     59  C   UNL     1       2.502  -1.839  11.971  1.00  0.00     0.131 A 
ATOM     60  C   UNL     1       0.886  -0.879  13.970  1.00  0.00     0.055 A 
ATOM     61  C   UNL     1       2.996  -0.889  12.874  1.00  0.00     0.041 A 
ATOM     62  F   UNL     1       3.380  -2.160  11.019  1.00  0.00    -0.206 F 
ATOM     63  C   UNL     1       2.186  -0.393  13.875  1.00  0.00     0.022 A 
BRANCH  60  64
ATOM     64  S   UNL     1      -0.222  -0.177  15.223  1.00  0.00     0.124 S 
ATOM     65  O   UNL     1      -1.257   0.444  14.403  1.00  0.00    -0.237 OA
ATOM     66  O   UNL     1      -0.616  -1.355  15.986  1.00  0.00    -0.237 OA
ATOM     67  O   UNL     1       0.635   0.764  15.945  1.00  0.00    -0.744 OA
ENDBRANCH  60  64
ENDBRANCH  43  57
BRANCH  44  68
ATOM     68  C   UNL     1      -3.111  -6.607   4.444  1.00  0.00     0.023 A 
ATOM     69  C   UNL     1      -3.572  -6.034   3.239  1.00  0.00     0.031 A 
ATOM     70  C   UNL     1      -2.045  -7.511   4.377  1.00  0.00     0.131 A 
ATOM     71  C   UNL     1      -2.862  -6.232   2.047  1.00  0.00     0.055 A 
ATOM     72  C   UNL     1      -1.381  -7.761   3.167  1.00  0.00     0.041 A 
ATOM     73  F   UNL     1      -1.538  -8.055   5.493  1.00  0.00    -0.206 F 
ATOM     74  C   UNL     1      -1.760  -7.085   2.005  1.00  0.00     0.022 A 
BRANCH  71  75
ATOM     75  S   UNL     1      -3.232  -5.140   0.640  1.00  0.00     0.124 S 
ATOM     76  O   UNL     1      -4.430  -5.757   0.083  1.00  0.00    -0.237 OA
ATOM     77  O   UNL     1      -3.421  -3.844   1.289  1.00  0.00    -0.237 OA
ATOM     78  O   UNL     1      -2.033  -5.231  -0.189  1.00  0.00    -0.744 OA
ENDBRANCH  71  75
ENDBRANCH  44  68
BRANCH  56  79
ATOM     79  C   UNL     1      -3.070  -7.580  11.677  1.00  0.00     0.023 A 
ATOM     80  C   UNL     1      -3.430  -8.933  11.584  1.00  0.00     0.031 A 
ATOM     81  C   UNL     1      -2.663  -7.161  12.972  1.00  0.00     0.131 A 
ATOM     82  C   UNL     1      -3.453  -9.774  12.716  1.00  0.00     0.055 A 
ATOM     83  C   UNL     1      -2.616  -8.014  14.081  1.00  0.00     0.041 A 
ATOM     84  F   UNL     1      -2.279  -5.901  13.223  1.00  0.00    -0.206 F 
ATOM     85  C   UNL     1      -3.028  -9.329  13.963  1.00  0.00     0.022 A 
BRANCH  82  86
ATOM     86  S   UNL     1      -4.109 -11.455  12.529  1.00  0.00     0.124 S 
ATOM     87  O   UNL     1      -5.484 -11.196  12.110  1.00  0.00    -0.237 OA
ATOM     88  O   UNL     1      -3.233 -12.020  11.508  1.00  0.00    -0.237 OA
ATOM     89  O   UNL     1      -3.965 -12.034  13.863  1.00  0.00    -0.744 OA
ENDBRANCH  82  86
ENDBRANCH  56  79
ENDBRANCH  30  31
ENDBRANCH  22  25
ENDBRANCH   1  21
TORSDOF 14
