REMARK SMILES COCCCN1C(=O)CC[C@@H](C(=O)NCCCNC(=O)c2ccc(-c3c4nc(c(-c5cc(S(=O)(=O)[O-])ccc5F)c5ccc([nH]5)c(-c5cc(S(=O)(=O)[O-])ccc5F)c5nc(c(-c6cc(S(=O)(=O)[O-])ccc6F)c6ccc3[nH]6)C=C5)C=C4)cc2)[C@@H]1c1ccc(F)cc1
REMARK SMILES IDX 15 1 14 2 12 3 13 4 11 6 6 7 7 8 84 9 8 10 9 11 10 12 5 13
REMARK SMILES IDX 4 14 3 15 2 16 1 17 85 18 86 19 91 20 87 21 90 22 88 23
REMARK SMILES IDX 89 24 16 25 17 26 18 27 19 28 20 30 21 31 22 32 83 33 23 34
REMARK SMILES IDX 82 35 24 36 25 37 26 38 76 39 27 40 81 41 75 42 77 43 28 44
REMARK SMILES IDX 80 45 74 46 73 47 29 49 61 50 41 51 60 52 42 53 45 54 59 55
REMARK SMILES IDX 78 56 43 57 44 58 58 60 79 61 46 62 30 63 31 64 39 65 32 66
REMARK SMILES IDX 38 67 40 68 37 69 33 70 34 71 35 72 36 73 62 74 63 75 71 76
REMARK SMILES IDX 64 77 70 78 72 79 69 80 65 81 66 82 67 83 68 84 47 85 48 86
REMARK SMILES IDX 56 87 49 88 55 89 57 90 54 91 50 92 51 93 52 94 53 95
REMARK H PARENT 14 5 18 29 77 48 45 59
REMARK Flexibility Score: inf
ROOT
ATOM      1  C   UNL     1       3.965   2.031  -0.104  1.00  0.00     0.117 C 
ENDROOT
BRANCH   1   2
ATOM      2  N   UNL     1       4.338   0.693  -0.525  1.00  0.00    -0.356 N 
ATOM      3  C   UNL     1       4.734  -0.397   0.191  1.00  0.00     0.225 C 
ATOM      4  O   UNL     1       5.040  -1.401  -0.453  1.00  0.00    -0.275 OA
ATOM      5  H   UNL     1       4.296   0.546  -1.498  1.00  0.00     0.163 HD
BRANCH   3   6
ATOM      6  C   UNL     1       4.804  -0.349   1.720  1.00  0.00     0.106 C 
ATOM      7  N   UNL     1       2.603  -1.467   2.230  1.00  0.00    -0.335 N 
ATOM      8  C   UNL     1       3.187  -2.730   2.176  1.00  0.00     0.223 C 
ATOM      9  C   UNL     1       3.403  -0.244   2.348  1.00  0.00     0.128 C 
ATOM     10  O   UNL     1       2.507  -3.760   2.140  1.00  0.00    -0.275 OA
ATOM     11  C   UNL     1       4.699  -2.848   2.124  1.00  0.00     0.101 C 
ATOM     12  C   UNL     1       5.506  -1.573   2.299  1.00  0.00     0.026 C 
BRANCH   7  13
ATOM     13  C   UNL     1       1.128  -1.423   2.161  1.00  0.00     0.122 C 
BRANCH  13  14
ATOM     14  C   UNL     1       0.319  -0.190   2.604  1.00  0.00     0.050 C 
BRANCH  14  15
ATOM     15  C   UNL     1       0.348   1.110   1.796  1.00  0.00     0.161 C 
BRANCH  15  16
ATOM     16  O   UNL     1      -0.227   1.033   0.498  1.00  0.00    -0.385 OA
ATOM     17  C   UNL     1       0.511   0.294  -0.459  1.00  0.00     0.194 C 
ENDBRANCH  15  16
ENDBRANCH  14  15
ENDBRANCH  13  14
ENDBRANCH   7  13
BRANCH   9  18
ATOM     18  C   UNL     1       3.421   0.314   3.777  1.00  0.00    -0.024 A 
ATOM     19  C   UNL     1       2.970  -0.435   4.881  1.00  0.00     0.009 A 
ATOM     20  C   UNL     1       3.819   1.646   4.002  1.00  0.00     0.009 A 
ATOM     21  C   UNL     1       2.855   0.148   6.145  1.00  0.00     0.039 A 
ATOM     22  C   UNL     1       3.723   2.221   5.271  1.00  0.00     0.039 A 
ATOM     23  C   UNL     1       3.225   1.472   6.327  1.00  0.00     0.123 A 
ATOM     24  F   UNL     1       3.091   2.036   7.534  1.00  0.00    -0.207 F 
ENDBRANCH   9  18
ENDBRANCH   3   6
ENDBRANCH   1   2
BRANCH   1  25
ATOM     25  C   UNL     1       4.867   3.107  -0.686  1.00  0.00     0.042 C 
BRANCH  25  26
ATOM     26  C   UNL     1       4.856   3.192  -2.207  1.00  0.00     0.118 C 
BRANCH  26  27
ATOM     27  N   UNL     1       3.558   3.555  -2.754  1.00  0.00    -0.352 N 
ATOM     28  C   UNL     1       3.199   4.606  -3.568  1.00  0.00     0.251 C 
ATOM     29  H   UNL     1       2.819   2.955  -2.502  1.00  0.00     0.163 HD
ATOM     30  O   UNL     1       2.012   4.804  -3.796  1.00  0.00    -0.269 OA
BRANCH  28  31
ATOM     31  C   UNL     1       4.229   5.512  -4.131  1.00  0.00     0.039 A 
ATOM     32  C   UNL     1       3.973   6.885  -4.153  1.00  0.00     0.014 A 
ATOM     33  C   UNL     1       5.437   5.024  -4.636  1.00  0.00     0.014 A 
ATOM     34  C   UNL     1       4.957   7.769  -4.604  1.00  0.00     0.010 A 
ATOM     35  C   UNL     1       6.449   5.910  -4.998  1.00  0.00     0.010 A 
ATOM     36  C   UNL     1       6.223   7.295  -4.985  1.00  0.00    -0.014 A 
BRANCH  36  37
ATOM     37  C   UNL     1       7.316   8.233  -5.359  1.00  0.00     0.031 A 
ATOM     38  C   UNL     1       7.913   8.197  -6.740  1.00  0.00     0.074 A 
ATOM     39  C   UNL     1       7.804   9.087  -4.436  1.00  0.00     0.049 A 
ATOM     40  N   UNL     1       8.902   8.900  -7.233  1.00  0.00    -0.248 NA
ATOM     41  C   UNL     1       7.342   7.224  -7.682  1.00  0.00     0.031 C 
ATOM     42  C   UNL     1       7.336   9.192  -3.051  1.00  0.00     0.029 A 
ATOM     43  N   UNL     1       8.800  10.029  -4.518  1.00  0.00    -0.354 N 
ATOM     44  C   UNL     1       9.075   8.451  -8.538  1.00  0.00     0.074 A 
ATOM     45  C   UNL     1       8.135   7.368  -8.733  1.00  0.00     0.031 C 
ATOM     46  C   UNL     1       8.018  10.166  -2.428  1.00  0.00     0.029 A 
ATOM     47  C   UNL     1       9.008  10.720  -3.345  1.00  0.00     0.049 A 
ATOM     48  H   UNL     1       9.318  10.194  -5.339  1.00  0.00     0.167 HD
ATOM     49  C   UNL     1       9.919   8.916  -9.493  1.00  0.00     0.034 A 
ATOM     50  C   UNL     1       9.900  11.683  -3.038  1.00  0.00     0.034 A 
ATOM     51  C   UNL     1      10.850  10.000  -9.283  1.00  0.00     0.049 A 
ATOM     52  C   UNL     1      10.859  12.153  -4.104  1.00  0.00     0.074 A 
ATOM     53  C   UNL     1      11.717  10.579 -10.194  1.00  0.00     0.029 A 
ATOM     54  N   UNL     1      11.045  10.663  -8.078  1.00  0.00    -0.354 N 
ATOM     55  N   UNL     1      10.973  11.751  -5.349  1.00  0.00    -0.248 NA
ATOM     56  C   UNL     1      11.800  13.214  -3.724  1.00  0.00     0.031 C 
ATOM     57  C   UNL     1      12.489  11.532  -9.522  1.00  0.00     0.029 A 
ATOM     58  C   UNL     1      12.043  11.617  -8.213  1.00  0.00     0.049 A 
ATOM     59  H   UNL     1      10.546  10.482  -7.248  1.00  0.00     0.167 HD
ATOM     60  C   UNL     1      11.979  12.536  -5.909  1.00  0.00     0.074 A 
ATOM     61  C   UNL     1      12.420  13.445  -4.872  1.00  0.00     0.031 C 
ATOM     62  C   UNL     1      12.488  12.509  -7.168  1.00  0.00     0.034 A 
BRANCH  49  63
ATOM     63  C   UNL     1       9.889   8.233 -10.841  1.00  0.00     0.023 A 
ATOM     64  C   UNL     1       8.733   8.229 -11.642  1.00  0.00     0.031 A 
ATOM     65  C   UNL     1      11.024   7.560 -11.327  1.00  0.00     0.131 A 
ATOM     66  C   UNL     1       8.712   7.503 -12.842  1.00  0.00     0.055 A 
ATOM     67  C   UNL     1      11.025   6.913 -12.565  1.00  0.00     0.041 A 
ATOM     68  F   UNL     1      12.152   7.508 -10.600  1.00  0.00    -0.206 F 
ATOM     69  C   UNL     1       9.859   6.868 -13.323  1.00  0.00     0.022 A 
BRANCH  66  70
ATOM     70  S   UNL     1       7.123   7.271 -13.685  1.00  0.00     0.124 S 
ATOM     71  O   UNL     1       6.330   6.621 -12.645  1.00  0.00    -0.237 OA
ATOM     72  O   UNL     1       6.741   8.638 -14.020  1.00  0.00    -0.237 OA
ATOM     73  O   UNL     1       7.460   6.420 -14.824  1.00  0.00    -0.744 OA
ENDBRANCH  66  70
ENDBRANCH  49  63
BRANCH  50  74
ATOM     74  C   UNL     1       9.946  12.264  -1.664  1.00  0.00     0.023 A 
ATOM     75  C   UNL     1       9.682  13.626  -1.445  1.00  0.00     0.031 A 
ATOM     76  C   UNL     1      10.305  11.477  -0.555  1.00  0.00     0.131 A 
ATOM     77  C   UNL     1       9.832  14.170  -0.160  1.00  0.00     0.055 A 
ATOM     78  C   UNL     1      10.393  12.011   0.732  1.00  0.00     0.041 A 
ATOM     79  F   UNL     1      10.567  10.169  -0.706  1.00  0.00    -0.206 F 
ATOM     80  C   UNL     1      10.170  13.369   0.932  1.00  0.00     0.022 A 
BRANCH  77  81
ATOM     81  S   UNL     1       9.675  15.966   0.046  1.00  0.00     0.124 S 
ATOM     82  O   UNL     1      10.699  16.459  -0.868  1.00  0.00    -0.237 OA
ATOM     83  O   UNL     1       8.291  16.196  -0.355  1.00  0.00    -0.237 OA
ATOM     84  O   UNL     1       9.953  16.170   1.466  1.00  0.00    -0.744 OA
ENDBRANCH  77  81
ENDBRANCH  50  74
BRANCH  62  85
ATOM     85  C   UNL     1      13.553  13.530  -7.498  1.00  0.00     0.023 A 
ATOM     86  C   UNL     1      14.808  13.525  -6.864  1.00  0.00     0.031 A 
ATOM     87  C   UNL     1      13.298  14.537  -8.447  1.00  0.00     0.131 A 
ATOM     88  C   UNL     1      15.732  14.546  -7.134  1.00  0.00     0.055 A 
ATOM     89  C   UNL     1      14.250  15.507  -8.765  1.00  0.00     0.041 A 
ATOM     90  F   UNL     1      12.116  14.595  -9.082  1.00  0.00    -0.206 F 
ATOM     91  C   UNL     1      15.469  15.525  -8.095  1.00  0.00     0.022 A 
BRANCH  88  92
ATOM     92  S   UNL     1      17.238  14.644  -6.127  1.00  0.00     0.124 S 
ATOM     93  O   UNL     1      16.693  14.747  -4.777  1.00  0.00    -0.237 OA
ATOM     94  O   UNL     1      17.911  13.390  -6.449  1.00  0.00    -0.237 OA
ATOM     95  O   UNL     1      17.903  15.848  -6.621  1.00  0.00    -0.744 OA
ENDBRANCH  88  92
ENDBRANCH  62  85
ENDBRANCH  36  37
ENDBRANCH  28  31
ENDBRANCH  26  27
ENDBRANCH  25  26
ENDBRANCH   1  25
TORSDOF 18
