REMARK SMILES N#Cc1ccc(C(=O)N2CCC(Oc3ccccc3)(C(=O)NCCCNC(=O)c3ccc(-c4c5nc(c(-c6cc(S(=O)(=O)[O-])ccc6F)c6ccc([nH]6)c(-c6cc(S(=O)(=O)[O-])ccc6F)c6nc(c(-c7cc(S(=O)(=O)[O-])ccc7F)c7ccc4[nH]7)C=C6)C=C5)cc3)CC2)cc1
REMARK SMILES IDX 24 1 23 2 22 3 20 4 21 5 12 7 7 8 8 9 9 10 10 11 93 12 11 13
REMARK SMILES IDX 92 14 6 15 3 16 4 17 95 18 5 19 94 20 2 21 1 22 13 23 14 24
REMARK SMILES IDX 15 25 19 26 16 27 18 28 17 29 25 30 26 31 27 32 28 34 29 35
REMARK SMILES IDX 30 36 91 37 31 38 90 39 32 40 33 41 34 42 84 43 35 44 89 45
REMARK SMILES IDX 83 46 85 47 36 48 88 49 82 50 81 51 37 53 69 54 49 55 68 56
REMARK SMILES IDX 50 57 53 58 67 59 86 60 51 61 52 62 66 64 87 65 54 66 38 67
REMARK SMILES IDX 39 68 47 69 40 70 46 71 48 72 45 73 41 74 42 75 43 76 44 77
REMARK SMILES IDX 70 78 71 79 79 80 72 81 78 82 80 83 77 84 73 85 74 86 75 87
REMARK SMILES IDX 76 88 55 89 56 90 64 91 57 92 63 93 65 94 62 95 58 96 59 97
REMARK SMILES IDX 60 98 61 99
REMARK H PARENT 22 6 26 33 85 52 53 63
REMARK Flexibility Score: inf
ROOT
ATOM      1  C   UNL     1       7.302  -5.270   3.131  1.00  0.00     0.042 C 
ENDROOT
BRANCH   1   2
ATOM      2  C   UNL     1       7.603  -5.397   1.644  1.00  0.00     0.118 C 
BRANCH   2   3
ATOM      3  N   UNL     1       6.386  -5.496   0.858  1.00  0.00    -0.353 N 
ATOM      4  C   UNL     1       5.854  -4.643  -0.064  1.00  0.00     0.264 C 
ATOM      5  O   UNL     1       4.830  -5.036  -0.632  1.00  0.00    -0.270 OA
ATOM      6  H   UNL     1       5.859  -6.312   1.017  1.00  0.00     0.163 HD
BRANCH   4   7
ATOM      7  C   UNL     1       6.493  -3.254  -0.361  1.00  0.00     0.190 C 
ATOM      8  C   UNL     1       3.684  -0.201   0.316  1.00  0.00     0.253 C 
ATOM      9  O   UNL     1       4.263   0.762   0.811  1.00  0.00    -0.269 OA
ATOM     10  N   UNL     1       4.298  -1.429   0.140  1.00  0.00    -0.338 N 
ATOM     11  C   UNL     1       5.007  -2.011   1.262  1.00  0.00     0.124 C 
ATOM     12  C   UNL     1       4.299  -2.156  -1.125  1.00  0.00     0.124 C 
ATOM     13  C   UNL     1       6.432  -2.343   0.878  1.00  0.00     0.080 C 
ATOM     14  C   UNL     1       5.718  -2.584  -1.525  1.00  0.00     0.080 C 
BRANCH   8  15
ATOM     15  C   UNL     1       2.217  -0.126   0.061  1.00  0.00     0.040 A 
ATOM     16  C   UNL     1      -0.578   0.081  -0.082  1.00  0.00     0.052 A 
ATOM     17  C   UNL     1       0.214   1.235  -0.098  1.00  0.00     0.020 A 
ATOM     18  C   UNL     1       0.028  -1.175   0.001  1.00  0.00     0.020 A 
ATOM     19  C   UNL     1       1.608   1.132  -0.025  1.00  0.00     0.015 A 
ATOM     20  C   UNL     1       1.418  -1.277   0.084  1.00  0.00     0.015 A 
BRANCH  16  21
ATOM     21  C   UNL     1      -2.009   0.181  -0.124  1.00  0.00     0.099 C 
ATOM     22  N   UNL     1      -3.164   0.254  -0.164  1.00  0.00    -0.192 NA
ENDBRANCH  16  21
ENDBRANCH   8  15
BRANCH   7  23
ATOM     23  O   UNL     1       7.827  -3.641  -0.783  1.00  0.00    -0.477 OA
BRANCH  23  24
ATOM     24  C   UNL     1       8.735  -2.669  -1.078  1.00  0.00     0.120 A 
ATOM     25  C   UNL     1       9.194  -2.605  -2.391  1.00  0.00     0.046 A 
ATOM     26  C   UNL     1       9.315  -1.861  -0.103  1.00  0.00     0.046 A 
ATOM     27  C   UNL     1      10.162  -1.664  -2.746  1.00  0.00     0.004 A 
ATOM     28  C   UNL     1      10.257  -0.898  -0.460  1.00  0.00     0.004 A 
ATOM     29  C   UNL     1      10.675  -0.794  -1.784  1.00  0.00     0.000 A 
ENDBRANCH  23  24
ENDBRANCH   7  23
ENDBRANCH   4   7
ENDBRANCH   2   3
ENDBRANCH   1   2
BRANCH   1  30
ATOM     30  C   UNL     1       6.640  -6.503   3.731  1.00  0.00     0.118 C 
BRANCH  30  31
ATOM     31  N   UNL     1       7.493  -7.679   3.662  1.00  0.00    -0.352 N 
ATOM     32  C   UNL     1       8.022  -8.449   4.668  1.00  0.00     0.251 C 
ATOM     33  H   UNL     1       7.728  -7.968   2.751  1.00  0.00     0.163 HD
ATOM     34  O   UNL     1       8.904  -9.259   4.396  1.00  0.00    -0.269 OA
BRANCH  32  35
ATOM     35  C   UNL     1       7.555  -8.293   6.063  1.00  0.00     0.039 A 
ATOM     36  C   UNL     1       8.489  -8.383   7.097  1.00  0.00     0.014 A 
ATOM     37  C   UNL     1       6.205  -8.087   6.362  1.00  0.00     0.014 A 
ATOM     38  C   UNL     1       8.078  -8.209   8.420  1.00  0.00     0.010 A 
ATOM     39  C   UNL     1       5.813  -7.818   7.671  1.00  0.00     0.010 A 
ATOM     40  C   UNL     1       6.743  -7.885   8.717  1.00  0.00    -0.014 A 
BRANCH  40  41
ATOM     41  C   UNL     1       6.314  -7.621  10.117  1.00  0.00     0.031 A 
ATOM     42  C   UNL     1       5.279  -8.494  10.775  1.00  0.00     0.074 A 
ATOM     43  C   UNL     1       6.838  -6.574  10.785  1.00  0.00     0.049 A 
ATOM     44  N   UNL     1       4.763  -8.402  11.974  1.00  0.00    -0.248 NA
ATOM     45  C   UNL     1       4.736  -9.600   9.973  1.00  0.00     0.031 C 
ATOM     46  C   UNL     1       7.825  -5.636  10.243  1.00  0.00     0.029 A 
ATOM     47  N   UNL     1       6.622  -6.121  12.063  1.00  0.00    -0.354 N 
ATOM     48  C   UNL     1       3.835  -9.434  12.069  1.00  0.00     0.074 A 
ATOM     49  C   UNL     1       3.809 -10.092  10.781  1.00  0.00     0.031 C 
ATOM     50  C   UNL     1       8.160  -4.751  11.194  1.00  0.00     0.029 A 
ATOM     51  C   UNL     1       7.370  -5.013  12.392  1.00  0.00     0.049 A 
ATOM     52  H   UNL     1       5.991  -6.549  12.686  1.00  0.00     0.167 HD
ATOM     53  C   UNL     1       3.093  -9.814  13.140  1.00  0.00     0.034 A 
ATOM     54  C   UNL     1       7.406  -4.281  13.523  1.00  0.00     0.034 A 
ATOM     55  C   UNL     1       3.128  -9.143  14.417  1.00  0.00     0.049 A 
ATOM     56  C   UNL     1       6.525  -4.687  14.679  1.00  0.00     0.074 A 
ATOM     57  C   UNL     1       2.448  -9.468  15.578  1.00  0.00     0.029 A 
ATOM     58  N   UNL     1       3.871  -8.004  14.701  1.00  0.00    -0.354 N 
ATOM     59  N   UNL     1       5.688  -5.695  14.766  1.00  0.00    -0.248 NA
ATOM     60  C   UNL     1       6.603  -3.862  15.890  1.00  0.00     0.031 C 
ATOM     61  C   UNL     1       2.703  -8.477  16.529  1.00  0.00     0.029 A 
ATOM     62  C   UNL     1       3.630  -7.590  16.003  1.00  0.00     0.049 A 
ATOM     63  H   UNL     1       4.479  -7.555  14.071  1.00  0.00     0.167 HD
ATOM     64  C   UNL     1       5.168  -5.645  16.058  1.00  0.00     0.074 A 
ATOM     65  C   UNL     1       5.801  -4.520  16.714  1.00  0.00     0.031 C 
ATOM     66  C   UNL     1       4.256  -6.459  16.648  1.00  0.00     0.034 A 
BRANCH  53  67
ATOM     67  C   UNL     1       2.158 -10.988  12.961  1.00  0.00     0.023 A 
ATOM     68  C   UNL     1       2.633 -12.270  12.633  1.00  0.00     0.031 A 
ATOM     69  C   UNL     1       0.769 -10.821  13.107  1.00  0.00     0.131 A 
ATOM     70  C   UNL     1       1.727 -13.312  12.385  1.00  0.00     0.055 A 
ATOM     71  C   UNL     1      -0.122 -11.885  12.951  1.00  0.00     0.041 A 
ATOM     72  F   UNL     1       0.251  -9.617  13.393  1.00  0.00    -0.206 F 
ATOM     73  C   UNL     1       0.354 -13.137  12.572  1.00  0.00     0.022 A 
BRANCH  70  74
ATOM     74  S   UNL     1       2.356 -14.849  11.657  1.00  0.00     0.124 S 
ATOM     75  O   UNL     1       2.985 -14.359  10.433  1.00  0.00    -0.237 OA
ATOM     76  O   UNL     1       3.262 -15.340  12.689  1.00  0.00    -0.237 OA
ATOM     77  O   UNL     1       1.150 -15.649  11.452  1.00  0.00    -0.744 OA
ENDBRANCH  70  74
ENDBRANCH  53  67
BRANCH  54  78
ATOM     78  C   UNL     1       8.287  -3.080  13.622  1.00  0.00     0.023 A 
ATOM     79  C   UNL     1       9.310  -3.008  14.581  1.00  0.00     0.031 A 
ATOM     80  C   UNL     1       8.084  -1.962  12.793  1.00  0.00     0.131 A 
ATOM     81  C   UNL     1      10.050  -1.824  14.727  1.00  0.00     0.055 A 
ATOM     82  C   UNL     1       8.869  -0.813  12.895  1.00  0.00     0.041 A 
ATOM     83  F   UNL     1       7.118  -1.974  11.860  1.00  0.00    -0.206 F 
ATOM     84  C   UNL     1       9.850  -0.733  13.878  1.00  0.00     0.022 A 
BRANCH  81  85
ATOM     85  S   UNL     1      11.201  -1.686  16.122  1.00  0.00     0.124 S 
ATOM     86  O   UNL     1      10.317  -1.920  17.258  1.00  0.00    -0.237 OA
ATOM     87  O   UNL     1      12.162  -2.744  15.828  1.00  0.00    -0.237 OA
ATOM     88  O   UNL     1      11.719  -0.325  16.002  1.00  0.00    -0.744 OA
ENDBRANCH  81  85
ENDBRANCH  54  78
BRANCH  66  89
ATOM     89  C   UNL     1       3.929  -6.191  18.100  1.00  0.00     0.023 A 
ATOM     90  C   UNL     1       3.325  -4.993  18.519  1.00  0.00     0.031 A 
ATOM     91  C   UNL     1       4.247  -7.147  19.083  1.00  0.00     0.131 A 
ATOM     92  C   UNL     1       3.125  -4.752  19.887  1.00  0.00     0.055 A 
ATOM     93  C   UNL     1       3.970  -6.935  20.434  1.00  0.00     0.041 A 
ATOM     94  F   UNL     1       4.832  -8.307  18.746  1.00  0.00    -0.206 F 
ATOM     95  C   UNL     1       3.422  -5.724  20.845  1.00  0.00     0.022 A 
BRANCH  92  96
ATOM     96  S   UNL     1       2.595  -3.097  20.408  1.00  0.00     0.124 S 
ATOM     97  O   UNL     1       3.643  -2.253  19.842  1.00  0.00    -0.237 OA
ATOM     98  O   UNL     1       1.279  -2.981  19.789  1.00  0.00    -0.237 OA
ATOM     99  O   UNL     1       2.589  -3.183  21.867  1.00  0.00    -0.744 OA
ENDBRANCH  92  96
ENDBRANCH  66  89
ENDBRANCH  40  41
ENDBRANCH  32  35
ENDBRANCH  30  31
ENDBRANCH   1  30
TORSDOF 17
