REMARK SMILES CCCCCC[C@@H](C(=O)NCCCNC(=O)c1ccc(-c2c3nc(c(-c4cc(S(=O)(=O)[O-])ccc4F)c4ccc([nH]4)c(-c4cc(S(=O)(=O)[O-])ccc4F)c4nc(c(-c5cc(S(=O)(=O)[O-])ccc5F)c5ccc2[nH]5)C=C4)C=C3)cc1)c1ccccc1C
REMARK SMILES IDX 11 1 10 2 8 3 9 4 7 6 6 7 5 8 4 9 3 10 2 11 1 12 80 13 81 14
REMARK SMILES IDX 85 15 82 16 84 17 86 18 83 19 12 20 13 21 14 22 15 23 16 25
REMARK SMILES IDX 17 26 18 27 79 28 19 29 78 30 20 31 21 32 22 33 72 34 23 35
REMARK SMILES IDX 77 36 71 37 73 38 24 39 76 40 70 41 69 42 25 44 57 45 37 46
REMARK SMILES IDX 56 47 38 48 41 49 55 50 74 51 39 52 40 53 54 55 75 56 42 57
REMARK SMILES IDX 26 58 27 59 35 60 28 61 34 62 36 63 33 64 29 65 30 66 31 67
REMARK SMILES IDX 32 68 58 69 59 70 67 71 60 72 66 73 68 74 65 75 61 76 62 77
REMARK SMILES IDX 63 78 64 79 43 80 44 81 52 82 45 83 51 84 53 85 50 86 46 87
REMARK SMILES IDX 47 88 48 89 49 90
REMARK H PARENT 10 5 14 24 73 43 41 54
REMARK Flexibility Score: inf
ROOT
ATOM      1  C   UNL     1      -0.393   1.659   4.996  1.00  0.00     0.117 C 
ENDROOT
BRANCH   1   2
ATOM      2  N   UNL     1      -1.471   1.099   5.790  1.00  0.00    -0.356 N 
ATOM      3  C   UNL     1      -2.044  -0.141   5.779  1.00  0.00     0.227 C 
ATOM      4  O   UNL     1      -3.151  -0.212   6.324  1.00  0.00    -0.274 OA
ATOM      5  H   UNL     1      -1.855   1.719   6.451  1.00  0.00     0.163 HD
BRANCH   3   6
ATOM      6  C   UNL     1      -1.359  -1.359   5.094  1.00  0.00     0.109 C 
BRANCH   6   7
ATOM      7  C   UNL     1      -1.920  -1.419   3.645  1.00  0.00     0.018 C 
BRANCH   7   8
ATOM      8  C   UNL     1      -1.124  -0.787   2.484  1.00  0.00     0.001 C 
BRANCH   8   9
ATOM      9  C   UNL     1       0.411  -0.810   2.494  1.00  0.00     0.000 C 
BRANCH   9  10
ATOM     10  C   UNL     1       1.069  -1.726   1.459  1.00  0.00    -0.000 C 
BRANCH  10  11
ATOM     11  C   UNL     1       0.717  -1.459  -0.004  1.00  0.00    -0.003 C 
ATOM     12  C   UNL     1       1.019  -0.042  -0.463  1.00  0.00     0.004 C 
ENDBRANCH  10  11
ENDBRANCH   9  10
ENDBRANCH   8   9
ENDBRANCH   7   8
ENDBRANCH   6   7
BRANCH   6  13
ATOM     13  C   UNL     1      -1.540  -2.718   5.851  1.00  0.00    -0.033 A 
ATOM     14  C   UNL     1      -2.053  -2.744   7.167  1.00  0.00     0.005 A 
ATOM     15  C   UNL     1      -1.153  -3.975   5.306  1.00  0.00    -0.047 A 
ATOM     16  C   UNL     1      -2.303  -3.938   7.855  1.00  0.00     0.000 A 
ATOM     17  C   UNL     1      -1.446  -5.172   5.998  1.00  0.00     0.004 A 
ATOM     18  C   UNL     1      -0.440  -4.154   3.994  1.00  0.00     0.044 C 
ATOM     19  C   UNL     1      -2.026  -5.156   7.258  1.00  0.00     0.000 A 
ENDBRANCH   6  13
ENDBRANCH   3   6
ENDBRANCH   1   2
BRANCH   1  20
ATOM     20  C   UNL     1      -0.945   2.455   3.813  1.00  0.00     0.042 C 
BRANCH  20  21
ATOM     21  C   UNL     1      -1.421   3.860   4.155  1.00  0.00     0.118 C 
BRANCH  21  22
ATOM     22  N   UNL     1      -0.324   4.799   4.322  1.00  0.00    -0.352 N 
ATOM     23  C   UNL     1       0.019   5.911   3.585  1.00  0.00     0.251 C 
ATOM     24  H   UNL     1       0.270   4.609   5.084  1.00  0.00     0.163 HD
ATOM     25  O   UNL     1       1.107   6.442   3.793  1.00  0.00    -0.269 OA
BRANCH  23  26
ATOM     26  C   UNL     1      -0.882   6.450   2.535  1.00  0.00     0.039 A 
ATOM     27  C   UNL     1      -0.319   6.964   1.362  1.00  0.00     0.014 A 
ATOM     28  C   UNL     1      -2.268   6.487   2.701  1.00  0.00     0.014 A 
ATOM     29  C   UNL     1      -1.143   7.441   0.337  1.00  0.00     0.010 A 
ATOM     30  C   UNL     1      -3.091   6.871   1.644  1.00  0.00     0.010 A 
ATOM     31  C   UNL     1      -2.540   7.360   0.450  1.00  0.00    -0.014 A 
BRANCH  31  32
ATOM     32  C   UNL     1      -3.440   7.792  -0.656  1.00  0.00     0.031 A 
ATOM     33  C   UNL     1      -4.422   8.913  -0.441  1.00  0.00     0.074 A 
ATOM     34  C   UNL     1      -3.420   7.136  -1.833  1.00  0.00     0.049 A 
ATOM     35  N   UNL     1      -5.340   9.382  -1.248  1.00  0.00    -0.248 NA
ATOM     36  C   UNL     1      -4.386   9.570   0.873  1.00  0.00     0.031 C 
ATOM     37  C   UNL     1      -2.536   6.015  -2.160  1.00  0.00     0.029 A 
ATOM     38  N   UNL     1      -4.164   7.313  -2.973  1.00  0.00    -0.354 N 
ATOM     39  C   UNL     1      -5.998  10.379  -0.536  1.00  0.00     0.074 A 
ATOM     40  C   UNL     1      -5.426  10.384   0.794  1.00  0.00     0.031 C 
ATOM     41  C   UNL     1      -2.758   5.636  -3.428  1.00  0.00     0.029 A 
ATOM     42  C   UNL     1      -3.837   6.444  -3.988  1.00  0.00     0.049 A 
ATOM     43  H   UNL     1      -4.866   7.998  -3.056  1.00  0.00     0.167 HD
ATOM     44  C   UNL     1      -6.968  11.232  -0.957  1.00  0.00     0.034 A 
ATOM     45  C   UNL     1      -4.353   6.306  -5.225  1.00  0.00     0.034 A 
ATOM     46  C   UNL     1      -7.530  11.209  -2.287  1.00  0.00     0.049 A 
ATOM     47  C   UNL     1      -5.481   7.210  -5.651  1.00  0.00     0.074 A 
ATOM     48  C   UNL     1      -8.480  12.051  -2.839  1.00  0.00     0.029 A 
ATOM     49  N   UNL     1      -7.204  10.284  -3.272  1.00  0.00    -0.354 N 
ATOM     50  N   UNL     1      -6.062   8.179  -4.982  1.00  0.00    -0.248 NA
ATOM     51  C   UNL     1      -6.019   7.001  -7.001  1.00  0.00     0.031 C 
ATOM     52  C   UNL     1      -8.787  11.586  -4.123  1.00  0.00     0.029 A 
ATOM     53  C   UNL     1      -7.966  10.507  -4.410  1.00  0.00     0.049 A 
ATOM     54  H   UNL     1      -6.530   9.572  -3.177  1.00  0.00     0.167 HD
ATOM     55  C   UNL     1      -7.015   8.716  -5.844  1.00  0.00     0.074 A 
ATOM     56  C   UNL     1      -6.921   7.969  -7.082  1.00  0.00     0.031 C 
ATOM     57  C   UNL     1      -7.881   9.741  -5.633  1.00  0.00     0.034 A 
BRANCH  44  58
ATOM     58  C   UNL     1      -7.494  12.229   0.053  1.00  0.00     0.023 A 
ATOM     59  C   UNL     1      -6.644  13.161   0.678  1.00  0.00     0.031 A 
ATOM     60  C   UNL     1      -8.841  12.204   0.455  1.00  0.00     0.131 A 
ATOM     61  C   UNL     1      -7.117  13.937   1.746  1.00  0.00     0.055 A 
ATOM     62  C   UNL     1      -9.331  13.056   1.448  1.00  0.00     0.041 A 
ATOM     63  F   UNL     1      -9.701  11.329  -0.088  1.00  0.00    -0.206 F 
ATOM     64  C   UNL     1      -8.462  13.912   2.118  1.00  0.00     0.022 A 
BRANCH  61  65
ATOM     65  S   UNL     1      -5.905  14.815   2.773  1.00  0.00     0.124 S 
ATOM     66  O   UNL     1      -5.020  13.725   3.181  1.00  0.00    -0.237 OA
ATOM     67  O   UNL     1      -5.340  15.781   1.839  1.00  0.00    -0.237 OA
ATOM     68  O   UNL     1      -6.715  15.383   3.849  1.00  0.00    -0.744 OA
ENDBRANCH  61  65
ENDBRANCH  44  58
BRANCH  45  69
ATOM     69  C   UNL     1      -3.805   5.280  -6.157  1.00  0.00     0.023 A 
ATOM     70  C   UNL     1      -3.143   5.664  -7.334  1.00  0.00     0.031 A 
ATOM     71  C   UNL     1      -3.945   3.905  -5.898  1.00  0.00     0.131 A 
ATOM     72  C   UNL     1      -2.673   4.686  -8.224  1.00  0.00     0.055 A 
ATOM     73  C   UNL     1      -3.432   2.936  -6.761  1.00  0.00     0.041 A 
ATOM     74  F   UNL     1      -4.566   3.484  -4.784  1.00  0.00    -0.206 F 
ATOM     75  C   UNL     1      -2.799   3.325  -7.938  1.00  0.00     0.022 A 
BRANCH  72  76
ATOM     76  S   UNL     1      -1.944   5.221  -9.796  1.00  0.00     0.124 S 
ATOM     77  O   UNL     1      -3.056   5.938 -10.410  1.00  0.00    -0.237 OA
ATOM     78  O   UNL     1      -0.821   6.038  -9.348  1.00  0.00    -0.237 OA
ATOM     79  O   UNL     1      -1.577   3.964 -10.445  1.00  0.00    -0.744 OA
ENDBRANCH  72  76
ENDBRANCH  45  69
BRANCH  57  80
ATOM     80  C   UNL     1      -8.773  10.135  -6.787  1.00  0.00     0.023 A 
ATOM     81  C   UNL     1      -9.775   9.280  -7.277  1.00  0.00     0.031 A 
ATOM     82  C   UNL     1      -8.611  11.387  -7.409  1.00  0.00     0.131 A 
ATOM     83  C   UNL     1     -10.542   9.665  -8.388  1.00  0.00     0.055 A 
ATOM     84  C   UNL     1      -9.419  11.790  -8.473  1.00  0.00     0.041 A 
ATOM     85  F   UNL     1      -7.666  12.242  -6.988  1.00  0.00    -0.206 F 
ATOM     86  C   UNL     1     -10.384  10.922  -8.976  1.00  0.00     0.022 A 
BRANCH  83  87
ATOM     87  S   UNL     1     -11.690   8.463  -9.114  1.00  0.00     0.124 S 
ATOM     88  O   UNL     1     -10.794   7.369  -9.476  1.00  0.00    -0.237 OA
ATOM     89  O   UNL     1     -12.606   8.197  -8.010  1.00  0.00    -0.237 OA
ATOM     90  O   UNL     1     -12.274   9.185 -10.243  1.00  0.00    -0.744 OA
ENDBRANCH  83  87
ENDBRANCH  57  80
ENDBRANCH  31  32
ENDBRANCH  23  26
ENDBRANCH  21  22
ENDBRANCH  20  21
ENDBRANCH   1  20
TORSDOF 19
