REMARK SMILES COc1cccc(-c2c([C@H]3c4ccccc4C(=O)N3CC(=O)NCCCNC(=O)c3ccc(-c4c5nc(c(-c6cc(S(=O)(=O)[O-])ccc6F)c6ccc([nH]6)c(-c6cc(S(=O)(=O)[O-])ccc6F)c6nc(c(-c7cc(S(=O)(=O)[O-])ccc7F)c7ccc4[nH]7)C=C6)C=C5)cc3)c3ccccc3n2C)c1
REMARK SMILES IDX 24 1 23 2 21 3 22 4 20 6 19 7 10 8 11 9 12 10 16 11 17 12
REMARK SMILES IDX 13 13 15 14 18 15 14 16 9 17 8 18 99 19 93 20 98 21 100 22
REMARK SMILES IDX 94 23 97 24 95 25 96 26 7 27 3 28 4 29 101 30 5 31 6 32 2 33
REMARK SMILES IDX 1 34 25 35 26 36 27 37 28 38 29 40 30 41 31 42 92 43 32 44
REMARK SMILES IDX 91 45 33 46 34 47 35 48 85 49 36 50 90 51 84 52 86 53 37 54
REMARK SMILES IDX 89 55 83 56 82 57 38 59 70 60 50 61 69 62 51 63 54 64 68 65
REMARK SMILES IDX 87 66 52 67 53 68 67 70 88 71 55 72 39 73 40 74 48 75 41 76
REMARK SMILES IDX 47 77 49 78 46 79 42 80 43 81 44 82 45 83 71 84 72 85 80 86
REMARK SMILES IDX 73 87 79 88 81 89 78 90 74 91 75 92 76 93 77 94 56 95 57 96
REMARK SMILES IDX 65 97 58 98 64 99 66 100 63 101 59 102 60 103 61 104 62 105
REMARK H PARENT 23 5 27 39 86 58 54 69
REMARK Flexibility Score: inf
ROOT
ATOM      1  C   UNL     1       7.237   1.860   1.902  1.00  0.00     0.117 C 
ENDROOT
BRANCH   1   2
ATOM      2  N   UNL     1       7.846   0.789   1.132  1.00  0.00    -0.354 N 
ATOM      3  C   UNL     1       7.328   0.214   0.005  1.00  0.00     0.239 C 
ATOM      4  O   UNL     1       7.711  -0.907  -0.333  1.00  0.00    -0.273 OA
ATOM      5  H   UNL     1       8.711   0.446   1.451  1.00  0.00     0.163 HD
BRANCH   3   6
ATOM      6  C   UNL     1       6.327   1.000  -0.830  1.00  0.00     0.220 C 
BRANCH   6   7
ATOM      7  N   UNL     1       4.893   0.721  -0.704  1.00  0.00    -0.318 N 
ATOM      8  C   UNL     1       4.205   0.459  -1.957  1.00  0.00     0.150 C 
ATOM      9  C   UNL     1       3.728   1.857  -2.278  1.00  0.00    -0.008 A 
ATOM     10  C   UNL     1       3.831   2.591  -3.448  1.00  0.00     0.007 A 
ATOM     11  C   UNL     1       3.538   2.538  -1.078  1.00  0.00     0.045 A 
ATOM     12  C   UNL     1       4.146   1.714  -0.036  1.00  0.00     0.255 C 
ATOM     13  C   UNL     1       3.713   3.990  -3.373  1.00  0.00     0.000 A 
ATOM     14  C   UNL     1       3.375   3.909  -0.974  1.00  0.00     0.014 A 
ATOM     15  O   UNL     1       4.168   2.067   1.126  1.00  0.00    -0.269 OA
ATOM     16  C   UNL     1       3.472   4.643  -2.150  1.00  0.00     0.001 A 
BRANCH   8  17
ATOM     17  C   UNL     1       2.980  -0.431  -1.795  1.00  0.00     0.013 A 
ATOM     18  C   UNL     1       2.131  -0.812  -2.843  1.00  0.00     0.055 A 
ATOM     19  N   UNL     1       1.036  -1.437  -2.284  1.00  0.00    -0.343 N 
ATOM     20  C   UNL     1       2.526  -1.172  -0.640  1.00  0.00     0.006 A 
ATOM     21  C   UNL     1       1.306  -1.774  -0.972  1.00  0.00     0.049 A 
ATOM     22  C   UNL     1      -0.204  -1.733  -2.971  1.00  0.00     0.150 C 
ATOM     23  C   UNL     1       3.038  -1.401   0.660  1.00  0.00     0.011 A 
ATOM     24  C   UNL     1       0.583  -2.554  -0.048  1.00  0.00     0.027 A 
ATOM     25  C   UNL     1       2.334  -2.188   1.577  1.00  0.00     0.001 A 
ATOM     26  C   UNL     1       1.117  -2.752   1.228  1.00  0.00     0.002 A 
BRANCH  18  27
ATOM     27  C   UNL     1       2.397  -0.615  -4.271  1.00  0.00     0.002 A 
ATOM     28  C   UNL     1       4.117  -0.662  -5.994  1.00  0.00     0.119 A 
ATOM     29  C   UNL     1       3.300   0.120  -6.808  1.00  0.00     0.046 A 
ATOM     30  C   UNL     1       3.629  -1.086  -4.763  1.00  0.00     0.056 A 
ATOM     31  C   UNL     1       2.031   0.514  -6.371  1.00  0.00     0.005 A 
ATOM     32  C   UNL     1       1.588   0.169  -5.092  1.00  0.00     0.010 A 
BRANCH  28  33
ATOM     33  O   UNL     1       5.376  -0.912  -6.468  1.00  0.00    -0.497 OA
ATOM     34  C   UNL     1       6.338  -1.341  -5.503  1.00  0.00     0.278 C 
ENDBRANCH  28  33
ENDBRANCH  18  27
ENDBRANCH   8  17
ENDBRANCH   6   7
ENDBRANCH   3   6
ENDBRANCH   1   2
BRANCH   1  35
ATOM     35  C   UNL     1       6.142   1.288   2.788  1.00  0.00     0.042 C 
BRANCH  35  36
ATOM     36  C   UNL     1       6.680   0.556   3.995  1.00  0.00     0.118 C 
BRANCH  36  37
ATOM     37  N   UNL     1       6.984   1.498   5.055  1.00  0.00    -0.352 N 
ATOM     38  C   UNL     1       6.174   1.953   6.067  1.00  0.00     0.251 C 
ATOM     39  H   UNL     1       7.899   1.861   5.049  1.00  0.00     0.163 HD
ATOM     40  O   UNL     1       6.438   3.041   6.576  1.00  0.00    -0.269 OA
BRANCH  38  41
ATOM     41  C   UNL     1       5.019   1.158   6.561  1.00  0.00     0.039 A 
ATOM     42  C   UNL     1       3.975   1.825   7.213  1.00  0.00     0.014 A 
ATOM     43  C   UNL     1       5.004  -0.238   6.512  1.00  0.00     0.014 A 
ATOM     44  C   UNL     1       2.954   1.098   7.833  1.00  0.00     0.010 A 
ATOM     45  C   UNL     1       3.924  -0.957   7.016  1.00  0.00     0.010 A 
ATOM     46  C   UNL     1       2.928  -0.302   7.749  1.00  0.00    -0.014 A 
BRANCH  46  47
ATOM     47  C   UNL     1       1.969  -1.112   8.544  1.00  0.00     0.031 A 
ATOM     48  C   UNL     1       2.498  -2.039   9.614  1.00  0.00     0.074 A 
ATOM     49  C   UNL     1       0.649  -1.045   8.294  1.00  0.00     0.049 A 
ATOM     50  N   UNL     1       1.858  -2.898  10.365  1.00  0.00    -0.248 NA
ATOM     51  C   UNL     1       3.953  -2.026   9.834  1.00  0.00     0.031 C 
ATOM     52  C   UNL     1       0.023  -0.214   7.264  1.00  0.00     0.029 A 
ATOM     53  N   UNL     1      -0.405  -1.690   8.889  1.00  0.00    -0.354 N 
ATOM     54  C   UNL     1       2.835  -3.548  11.116  1.00  0.00     0.074 A 
ATOM     55  C   UNL     1       4.112  -3.035  10.673  1.00  0.00     0.031 C 
ATOM     56  C   UNL     1      -1.309  -0.375   7.322  1.00  0.00     0.029 A 
ATOM     57  C   UNL     1      -1.628  -1.346   8.364  1.00  0.00     0.049 A 
ATOM     58  H   UNL     1      -0.295  -2.338   9.622  1.00  0.00     0.167 HD
ATOM     59  C   UNL     1       2.682  -4.464  12.105  1.00  0.00     0.034 A 
ATOM     60  C   UNL     1      -2.865  -1.768   8.692  1.00  0.00     0.034 A 
ATOM     61  C   UNL     1       1.396  -4.932  12.560  1.00  0.00     0.049 A 
ATOM     62  C   UNL     1      -3.018  -2.762   9.814  1.00  0.00     0.074 A 
ATOM     63  C   UNL     1       1.108  -5.826  13.576  1.00  0.00     0.029 A 
ATOM     64  N   UNL     1       0.176  -4.530  12.028  1.00  0.00    -0.354 N 
ATOM     65  N   UNL     1      -2.088  -3.352  10.531  1.00  0.00    -0.248 NA
ATOM     66  C   UNL     1      -4.389  -3.132  10.184  1.00  0.00     0.031 C 
ATOM     67  C   UNL     1      -0.280  -6.000  13.627  1.00  0.00     0.029 A 
ATOM     68  C   UNL     1      -0.864  -5.165  12.687  1.00  0.00     0.049 A 
ATOM     69  H   UNL     1       0.067  -3.888  11.290  1.00  0.00     0.167 HD
ATOM     70  C   UNL     1      -2.766  -4.137  11.459  1.00  0.00     0.074 A 
ATOM     71  C   UNL     1      -4.180  -3.935  11.217  1.00  0.00     0.031 C 
ATOM     72  C   UNL     1      -2.268  -4.949  12.426  1.00  0.00     0.034 A 
BRANCH  59  73
ATOM     73  C   UNL     1       3.941  -5.023  12.731  1.00  0.00     0.023 A 
ATOM     74  C   UNL     1       4.863  -4.199  13.403  1.00  0.00     0.031 A 
ATOM     75  C   UNL     1       4.257  -6.387  12.602  1.00  0.00     0.131 A 
ATOM     76  C   UNL     1       6.093  -4.722  13.829  1.00  0.00     0.055 A 
ATOM     77  C   UNL     1       5.444  -6.920  13.111  1.00  0.00     0.041 A 
ATOM     78  F   UNL     1       3.429  -7.223  11.957  1.00  0.00    -0.206 F 
ATOM     79  C   UNL     1       6.380  -6.083  13.711  1.00  0.00     0.022 A 
BRANCH  76  80
ATOM     80  S   UNL     1       7.380  -3.568  14.383  1.00  0.00     0.124 S 
ATOM     81  O   UNL     1       7.556  -2.733  13.196  1.00  0.00    -0.237 OA
ATOM     82  O   UNL     1       6.753  -2.923  15.531  1.00  0.00    -0.237 OA
ATOM     83  O   UNL     1       8.511  -4.439  14.696  1.00  0.00    -0.744 OA
ENDBRANCH  76  80
ENDBRANCH  59  73
BRANCH  60  84
ATOM     84  C   UNL     1      -4.054  -1.241   7.967  1.00  0.00     0.023 A 
ATOM     85  C   UNL     1      -4.991  -0.423   8.619  1.00  0.00     0.031 A 
ATOM     86  C   UNL     1      -4.283  -1.565   6.619  1.00  0.00     0.131 A 
ATOM     87  C   UNL     1      -6.136   0.010   7.934  1.00  0.00     0.055 A 
ATOM     88  C   UNL     1      -5.401  -1.093   5.928  1.00  0.00     0.041 A 
ATOM     89  F   UNL     1      -3.412  -2.336   5.948  1.00  0.00    -0.206 F 
ATOM     90  C   UNL     1      -6.342  -0.310   6.590  1.00  0.00     0.022 A 
BRANCH  87  91
ATOM     91  S   UNL     1      -7.393   0.946   8.848  1.00  0.00     0.124 S 
ATOM     92  O   UNL     1      -7.746   0.013   9.911  1.00  0.00    -0.237 OA
ATOM     93  O   UNL     1      -6.649   2.133   9.257  1.00  0.00    -0.237 OA
ATOM     94  O   UNL     1      -8.435   1.180   7.851  1.00  0.00    -0.744 OA
ENDBRANCH  87  91
ENDBRANCH  60  84
BRANCH  72  95
ATOM     95  C   UNL     1      -3.270  -5.629  13.325  1.00  0.00     0.023 A 
ATOM     96  C   UNL     1      -4.137  -6.625  12.845  1.00  0.00     0.031 A 
ATOM     97  C   UNL     1      -3.371  -5.253  14.675  1.00  0.00     0.131 A 
ATOM     98  C   UNL     1      -5.111  -7.170  13.696  1.00  0.00     0.055 A 
ATOM     99  C   UNL     1      -4.304  -5.838  15.531  1.00  0.00     0.041 A 
ATOM    100  F   UNL     1      -2.566  -4.306  15.184  1.00  0.00    -0.206 F 
ATOM    101  C   UNL     1      -5.191  -6.792  15.039  1.00  0.00     0.022 A 
BRANCH  98 102
ATOM    102  S   UNL     1      -6.339  -8.307  12.997  1.00  0.00     0.124 S 
ATOM    103  O   UNL     1      -6.924  -7.504  11.928  1.00  0.00    -0.237 OA
ATOM    104  O   UNL     1      -5.513  -9.432  12.570  1.00  0.00    -0.237 OA
ATOM    105  O   UNL     1      -7.229  -8.584  14.123  1.00  0.00    -0.744 OA
ENDBRANCH  98 102
ENDBRANCH  72  95
ENDBRANCH  46  47
ENDBRANCH  38  41
ENDBRANCH  36  37
ENDBRANCH  35  36
ENDBRANCH   1  35
TORSDOF 17
