REMARK SMILES CS(=O)(=O)c1ccc(C2=NN(c3ccc(C(=O)NCCCNC(=O)c4ccc(-c5c6nc(c(-c7cc(S(=O)(=O)[O-])ccc7F)c7ccc([nH]7)c(-c7cc(S(=O)(=O)[O-])ccc7F)c7nc(c(-c8cc(S(=O)(=O)[O-])ccc8F)c8ccc5[nH]8)C=C7)C=C6)cc4)cc3)[C@H](c3ccc(F)cc3)C2)cc1
REMARK SMILES IDX 20 1 19 2 18 3 16 4 17 5 15 7 12 8 13 9 89 10 14 11 88 12
REMARK SMILES IDX 11 13 9 14 10 15 98 16 90 17 8 18 5 19 6 20 100 21 7 22
REMARK SMILES IDX 99 23 2 24 1 25 3 26 4 27 91 28 92 29 97 30 93 31 96 32
REMARK SMILES IDX 94 33 95 34 21 35 22 36 23 37 24 39 25 40 26 41 87 42 27 43
REMARK SMILES IDX 86 44 28 45 29 46 30 47 80 48 31 49 85 50 79 51 81 52 32 53
REMARK SMILES IDX 84 54 78 55 77 56 33 58 65 59 45 60 64 61 46 62 49 63 63 64
REMARK SMILES IDX 82 65 47 66 48 67 62 69 83 70 50 71 34 72 35 73 43 74 36 75
REMARK SMILES IDX 42 76 44 77 41 78 37 79 38 80 39 81 40 82 66 83 67 84 75 85
REMARK SMILES IDX 68 86 74 87 76 88 73 89 69 90 70 91 71 92 72 93 51 94 52 95
REMARK SMILES IDX 60 96 53 97 59 98 61 99 58 100 54 101 55 102 56 103 57 104
REMARK H PARENT 18 6 22 38 81 57 49 68
REMARK Flexibility Score: inf
ROOT
ATOM      1  C   UNL     1       7.040   0.057  13.282  1.00  0.00     0.042 C 
ENDROOT
BRANCH   1   2
ATOM      2  C   UNL     1       7.086   1.571  13.084  1.00  0.00     0.118 C 
BRANCH   2   3
ATOM      3  N   UNL     1       8.138   1.956  12.158  1.00  0.00    -0.352 N 
ATOM      4  C   UNL     1       8.089   2.351  10.843  1.00  0.00     0.251 C 
ATOM      5  O   UNL     1       9.126   2.743  10.311  1.00  0.00    -0.269 OA
ATOM      6  H   UNL     1       9.045   1.929  12.540  1.00  0.00     0.163 HD
BRANCH   4   7
ATOM      7  C   UNL     1       6.817   2.381  10.073  1.00  0.00     0.039 A 
ATOM      8  C   UNL     1       4.401   2.618   8.641  1.00  0.00     0.060 A 
ATOM      9  C   UNL     1       5.459   3.498   8.395  1.00  0.00     0.029 A 
ATOM     10  C   UNL     1       4.598   1.575   9.547  1.00  0.00     0.029 A 
ATOM     11  C   UNL     1       6.659   3.384   9.107  1.00  0.00     0.016 A 
ATOM     12  C   UNL     1       5.799   1.443  10.241  1.00  0.00     0.016 A 
BRANCH   8  13
ATOM     13  N   UNL     1       3.179   2.725   7.998  1.00  0.00    -0.257 N 
ATOM     14  C   UNL     1       2.052   2.894   6.209  1.00  0.00     0.071 C 
ATOM     15  N   UNL     1       3.115   2.350   6.701  1.00  0.00    -0.176 NA
ATOM     16  C   UNL     1       1.285   3.799   7.131  1.00  0.00     0.091 C 
ATOM     17  C   UNL     1       2.116   3.646   8.421  1.00  0.00     0.144 C 
BRANCH  14  18
ATOM     18  C   UNL     1       1.611   2.607   4.838  1.00  0.00    -0.002 A 
ATOM     19  C   UNL     1       0.853   1.949   2.248  1.00  0.00     0.067 A 
ATOM     20  C   UNL     1       1.246   0.936   3.122  1.00  0.00     0.021 A 
ATOM     21  C   UNL     1       0.847   3.291   2.661  1.00  0.00     0.021 A 
ATOM     22  C   UNL     1       1.638   1.271   4.417  1.00  0.00     0.011 A 
ATOM     23  C   UNL     1       1.216   3.622   3.968  1.00  0.00     0.011 A 
BRANCH  19  24
ATOM     24  S   UNL     1       0.365   1.592   0.576  1.00  0.00     0.175 S 
ATOM     25  C   UNL     1       1.066   0.021   0.152  1.00  0.00     0.163 C 
ATOM     26  O   UNL     1       1.004   2.586  -0.263  1.00  0.00    -0.224 OA
ATOM     27  O   UNL     1      -1.080   1.449   0.599  1.00  0.00    -0.224 OA
ENDBRANCH  19  24
ENDBRANCH  14  18
BRANCH  17  28
ATOM     28  C   UNL     1       1.409   3.140   9.681  1.00  0.00    -0.023 A 
ATOM     29  C   UNL     1       0.151   2.513   9.687  1.00  0.00     0.009 A 
ATOM     30  C   UNL     1       2.071   3.280  10.922  1.00  0.00     0.009 A 
ATOM     31  C   UNL     1      -0.420   2.052  10.880  1.00  0.00     0.039 A 
ATOM     32  C   UNL     1       1.517   2.790  12.108  1.00  0.00     0.039 A 
ATOM     33  C   UNL     1       0.271   2.186  12.076  1.00  0.00     0.123 A 
ATOM     34  F   UNL     1      -0.271   1.724  13.211  1.00  0.00    -0.207 F 
ENDBRANCH  17  28
ENDBRANCH   8  13
ENDBRANCH   4   7
ENDBRANCH   2   3
ENDBRANCH   1   2
BRANCH   1  35
ATOM     35  C   UNL     1       8.172  -0.472  14.154  1.00  0.00     0.118 C 
BRANCH  35  36
ATOM     36  N   UNL     1       8.039  -0.040  15.537  1.00  0.00    -0.352 N 
ATOM     37  C   UNL     1       7.924  -0.786  16.684  1.00  0.00     0.251 C 
ATOM     38  H   UNL     1       8.030   0.935  15.671  1.00  0.00     0.163 HD
ATOM     39  O   UNL     1       7.575  -0.232  17.724  1.00  0.00    -0.269 OA
BRANCH  37  40
ATOM     40  C   UNL     1       8.200  -2.239  16.667  1.00  0.00     0.039 A 
ATOM     41  C   UNL     1       7.386  -3.090  17.419  1.00  0.00     0.014 A 
ATOM     42  C   UNL     1       9.273  -2.764  15.939  1.00  0.00     0.014 A 
ATOM     43  C   UNL     1       7.611  -4.468  17.393  1.00  0.00     0.010 A 
ATOM     44  C   UNL     1       9.445  -4.143  15.850  1.00  0.00     0.010 A 
ATOM     45  C   UNL     1       8.618  -5.010  16.579  1.00  0.00    -0.014 A 
BRANCH  45  46
ATOM     46  C   UNL     1       8.819  -6.480  16.475  1.00  0.00     0.031 A 
ATOM     47  C   UNL     1      10.115  -7.101  16.922  1.00  0.00     0.074 A 
ATOM     48  C   UNL     1       7.856  -7.244  15.922  1.00  0.00     0.049 A 
ATOM     49  N   UNL     1      10.508  -8.346  16.841  1.00  0.00    -0.248 NA
ATOM     50  C   UNL     1      11.112  -6.195  17.513  1.00  0.00     0.031 C 
ATOM     51  C   UNL     1       6.572  -6.749  15.421  1.00  0.00     0.029 A 
ATOM     52  N   UNL     1       7.807  -8.594  15.680  1.00  0.00    -0.354 N 
ATOM     53  C   UNL     1      11.799  -8.373  17.359  1.00  0.00     0.074 A 
ATOM     54  C   UNL     1      12.143  -7.006  17.691  1.00  0.00     0.031 C 
ATOM     55  C   UNL     1       5.852  -7.784  14.958  1.00  0.00     0.029 A 
ATOM     56  C   UNL     1       6.641  -9.006  15.076  1.00  0.00     0.049 A 
ATOM     57  H   UNL     1       8.537  -9.210  15.917  1.00  0.00     0.167 HD
ATOM     58  C   UNL     1      12.611  -9.441  17.559  1.00  0.00     0.034 A 
ATOM     59  C   UNL     1       6.256 -10.225  14.648  1.00  0.00     0.034 A 
ATOM     60  C   UNL     1      12.246 -10.796  17.224  1.00  0.00     0.049 A 
ATOM     61  C   UNL     1       7.194 -11.390  14.843  1.00  0.00     0.074 A 
ATOM     62  C   UNL     1      12.971 -11.958  17.426  1.00  0.00     0.029 A 
ATOM     63  N   UNL     1      11.061 -11.174  16.604  1.00  0.00    -0.354 N 
ATOM     64  N   UNL     1       8.393 -11.406  15.378  1.00  0.00    -0.248 NA
ATOM     65  C   UNL     1       6.721 -12.704  14.387  1.00  0.00     0.031 C 
ATOM     66  C   UNL     1      12.263 -13.023  16.859  1.00  0.00     0.029 A 
ATOM     67  C   UNL     1      11.052 -12.543  16.386  1.00  0.00     0.049 A 
ATOM     68  H   UNL     1      10.333 -10.558  16.356  1.00  0.00     0.167 HD
ATOM     69  C   UNL     1       8.801 -12.737  15.356  1.00  0.00     0.074 A 
ATOM     70  C   UNL     1       7.715 -13.493  14.767  1.00  0.00     0.031 C 
ATOM     71  C   UNL     1       9.965 -13.286  15.789  1.00  0.00     0.034 A 
BRANCH  58  72
ATOM     72  C   UNL     1      13.982  -9.177  18.139  1.00  0.00     0.023 A 
ATOM     73  C   UNL     1      14.149  -8.612  19.416  1.00  0.00     0.031 A 
ATOM     74  C   UNL     1      15.139  -9.475  17.399  1.00  0.00     0.131 A 
ATOM     75  C   UNL     1      15.434  -8.291  19.880  1.00  0.00     0.055 A 
ATOM     76  C   UNL     1      16.420  -9.236  17.902  1.00  0.00     0.041 A 
ATOM     77  F   UNL     1      15.047  -9.995  16.164  1.00  0.00    -0.206 F 
ATOM     78  C   UNL     1      16.573  -8.625  19.143  1.00  0.00     0.022 A 
BRANCH  75  79
ATOM     79  S   UNL     1      15.587  -7.295  21.387  1.00  0.00     0.124 S 
ATOM     80  O   UNL     1      14.828  -6.099  21.028  1.00  0.00    -0.237 OA
ATOM     81  O   UNL     1      14.983  -8.156  22.398  1.00  0.00    -0.237 OA
ATOM     82  O   UNL     1      17.028  -7.091  21.519  1.00  0.00    -0.744 OA
ENDBRANCH  75  79
ENDBRANCH  58  72
BRANCH  59  83
ATOM     83  C   UNL     1       4.934 -10.411  13.982  1.00  0.00     0.023 A 
ATOM     84  C   UNL     1       3.945 -11.229  14.551  1.00  0.00     0.031 A 
ATOM     85  C   UNL     1       4.654  -9.806  12.743  1.00  0.00     0.131 A 
ATOM     86  C   UNL     1       2.746 -11.462  13.860  1.00  0.00     0.055 A 
ATOM     87  C   UNL     1       3.435  -9.991  12.089  1.00  0.00     0.041 A 
ATOM     88  F   UNL     1       5.563  -9.012  12.154  1.00  0.00    -0.206 F 
ATOM     89  C   UNL     1       2.478 -10.836  12.641  1.00  0.00     0.022 A 
BRANCH  86  90
ATOM     90  S   UNL     1       1.579 -12.677  14.532  1.00  0.00     0.124 S 
ATOM     91  O   UNL     1       2.406 -13.876  14.599  1.00  0.00    -0.237 OA
ATOM     92  O   UNL     1       1.217 -12.074  15.810  1.00  0.00    -0.237 OA
ATOM     93  O   UNL     1       0.511 -12.709  13.535  1.00  0.00    -0.744 OA
ENDBRANCH  86  90
ENDBRANCH  59  83
BRANCH  71  94
ATOM     94  C   UNL     1      10.097 -14.788  15.693  1.00  0.00     0.023 A 
ATOM     95  C   UNL     1      10.136 -15.455  14.457  1.00  0.00     0.031 A 
ATOM     96  C   UNL     1      10.179 -15.563  16.864  1.00  0.00     0.131 A 
ATOM     97  C   UNL     1      10.195 -16.857  14.421  1.00  0.00     0.055 A 
ATOM     98  C   UNL     1      10.308 -16.951  16.821  1.00  0.00     0.041 A 
ATOM     99  F   UNL     1      10.142 -14.980  18.074  1.00  0.00    -0.206 F 
ATOM    100  C   UNL     1      10.302 -17.608  15.594  1.00  0.00     0.022 A 
BRANCH  97 101
ATOM    101  S   UNL     1      10.027 -17.696  12.821  1.00  0.00     0.124 S 
ATOM    102  O   UNL     1       8.731 -17.209  12.358  1.00  0.00    -0.237 OA
ATOM    103  O   UNL     1      11.190 -17.206  12.088  1.00  0.00    -0.237 OA
ATOM    104  O   UNL     1      10.068 -19.114  13.171  1.00  0.00    -0.744 OA
ENDBRANCH  97 101
ENDBRANCH  71  94
ENDBRANCH  45  46
ENDBRANCH  37  40
ENDBRANCH  35  36
ENDBRANCH   1  35
TORSDOF 17
