REMARK SMILES Cc1nsc(NC(=O)[C@H]2Cc3[nH]cnc3C[NH2+]2)c1C(=O)NCCCNC(=O)c1ccc(-c2c3nc(c(-c4cc(S(=O)(=O)[O-])ccc4F)c4ccc([nH]4)c(-c4cc(S(=O)(=O)[O-])ccc4F)c4nc(c(-c5cc(S(=O)(=O)[O-])ccc5F)c5ccc2[nH]5)C=C4)C=C3)cc1
REMARK SMILES IDX 23 1 22 2 21 3 19 4 20 5 18 7 1 8 2 9 3 10 4 11 5 12 6 13
REMARK SMILES IDX 7 14 8 16 9 17 10 18 17 19 11 20 16 21 12 24 15 25 13 26
REMARK SMILES IDX 14 28 24 29 25 30 26 31 27 33 28 34 29 35 90 36 30 37 89 38
REMARK SMILES IDX 31 39 32 40 33 41 83 42 34 43 88 44 82 45 84 46 35 47 87 48
REMARK SMILES IDX 81 49 80 50 36 52 68 53 48 54 67 55 49 56 52 57 66 58 85 59
REMARK SMILES IDX 50 60 51 61 65 63 86 64 53 65 37 66 38 67 46 68 39 69 45 70
REMARK SMILES IDX 47 71 44 72 40 73 41 74 42 75 43 76 69 77 70 78 78 79 71 80
REMARK SMILES IDX 77 81 79 82 76 83 72 84 73 85 74 86 75 87 54 88 55 89 63 90
REMARK SMILES IDX 56 91 62 92 64 93 61 94 57 95 58 96 59 97 60 98
REMARK H PARENT 21 6 6 15 17 22 17 23 12 27 25 32 84 51 52 62
REMARK Flexibility Score: inf
ROOT
ATOM      1  C   UNL     1       1.609  -0.492  -2.243  1.00  0.00     0.042 C 
ENDROOT
BRANCH   1   2
ATOM      2  C   UNL     1       2.731   0.079  -1.377  1.00  0.00     0.118 C 
BRANCH   2   3
ATOM      3  N   UNL     1       2.807   1.521  -1.321  1.00  0.00    -0.352 N 
ATOM      4  C   UNL     1       2.144   2.467  -0.592  1.00  0.00     0.256 C 
ATOM      5  O   UNL     1       2.693   3.571  -0.532  1.00  0.00    -0.269 OA
ATOM      6  H   UNL     1       3.475   1.900  -1.937  1.00  0.00     0.163 HD
BRANCH   4   7
ATOM      7  C   UNL     1       0.801   2.287  -0.046  1.00  0.00     0.097 A 
ATOM      8  C   UNL     1       0.429  -0.170   0.866  1.00  0.00     0.069 C 
ATOM      9  C   UNL     1      -0.013   1.162   0.365  1.00  0.00     0.066 A 
ATOM     10  N   UNL     1      -1.333   1.405   0.447  1.00  0.00    -0.195 NA
ATOM     11  S   UNL     1      -1.561   3.051   0.307  1.00  0.00    -0.017 S 
ATOM     12  C   UNL     1       0.101   3.396   0.425  1.00  0.00     0.129 A 
BRANCH  12  13
ATOM     13  N   UNL     1       0.576   4.642   0.766  1.00  0.00    -0.311 N 
ATOM     14  C   UNL     1       0.521   5.185   2.033  1.00  0.00     0.283 C 
ATOM     15  H   UNL     1       0.984   5.186   0.054  1.00  0.00     0.171 HD
ATOM     16  O   UNL     1       1.393   6.019   2.316  1.00  0.00    -0.268 OA
BRANCH  14  17
ATOM     17  C   UNL     1      -0.600   4.843   3.043  1.00  0.00     0.279 C 
ATOM     18  C   UNL     1      -0.751   3.365   3.512  1.00  0.00     0.131 C 
ATOM     19  N   UNL     1      -0.499   5.725   4.276  1.00  0.00    -0.331 N 
ATOM     20  C   UNL     1      -2.118   3.368   4.096  1.00  0.00     0.050 A 
ATOM     21  C   UNL     1      -1.529   5.467   5.331  1.00  0.00     0.320 C 
ATOM     22  H   UNL     1      -0.590   6.696   3.977  1.00  0.00     0.347 HD
ATOM     23  H   UNL     1       0.402   5.511   4.702  1.00  0.00     0.347 HD
ATOM     24  N   UNL     1      -3.267   2.828   3.599  1.00  0.00    -0.348 N 
ATOM     25  C   UNL     1      -2.504   4.410   4.909  1.00  0.00     0.116 A 
ATOM     26  C   UNL     1      -4.295   3.592   4.099  1.00  0.00     0.197 A 
ATOM     27  H   UNL     1      -3.346   2.049   3.002  1.00  0.00     0.167 HD
ATOM     28  N   UNL     1      -3.868   4.515   4.938  1.00  0.00    -0.236 NA
ENDBRANCH  14  17
ENDBRANCH  12  13
ENDBRANCH   4   7
ENDBRANCH   2   3
ENDBRANCH   1   2
BRANCH   1  29
ATOM     29  C   UNL     1       2.108  -0.965  -3.597  1.00  0.00     0.118 C 
BRANCH  29  30
ATOM     30  N   UNL     1       3.106  -2.035  -3.462  1.00  0.00    -0.352 N 
ATOM     31  C   UNL     1       4.015  -2.496  -4.394  1.00  0.00     0.251 C 
ATOM     32  H   UNL     1       3.130  -2.486  -2.587  1.00  0.00     0.163 HD
ATOM     33  O   UNL     1       4.574  -3.578  -4.235  1.00  0.00    -0.269 OA
BRANCH  31  34
ATOM     34  C   UNL     1       4.264  -1.670  -5.583  1.00  0.00     0.039 A 
ATOM     35  C   UNL     1       4.205  -2.216  -6.864  1.00  0.00     0.014 A 
ATOM     36  C   UNL     1       4.394  -0.298  -5.388  1.00  0.00     0.014 A 
ATOM     37  C   UNL     1       4.141  -1.345  -7.947  1.00  0.00     0.010 A 
ATOM     38  C   UNL     1       4.138   0.550  -6.436  1.00  0.00     0.010 A 
ATOM     39  C   UNL     1       4.048   0.043  -7.726  1.00  0.00    -0.014 A 
BRANCH  39  40
ATOM     40  C   UNL     1       3.737   0.955  -8.823  1.00  0.00     0.031 A 
ATOM     41  C   UNL     1       2.645   0.498  -9.720  1.00  0.00     0.074 A 
ATOM     42  C   UNL     1       4.278   2.181  -8.991  1.00  0.00     0.049 A 
ATOM     43  N   UNL     1       2.788  -0.133 -10.836  1.00  0.00    -0.248 NA
ATOM     44  C   UNL     1       1.251   0.575  -9.261  1.00  0.00     0.031 C 
ATOM     45  C   UNL     1       5.167   2.935  -8.101  1.00  0.00     0.029 A 
ATOM     46  N   UNL     1       4.085   3.049 -10.022  1.00  0.00    -0.354 N 
ATOM     47  C   UNL     1       1.513  -0.292 -11.359  1.00  0.00     0.074 A 
ATOM     48  C   UNL     1       0.615  -0.046 -10.260  1.00  0.00     0.031 C 
ATOM     49  C   UNL     1       5.274   4.213  -8.530  1.00  0.00     0.029 A 
ATOM     50  C   UNL     1       4.630   4.313  -9.826  1.00  0.00     0.049 A 
ATOM     51  H   UNL     1       3.599   2.802 -10.841  1.00  0.00     0.167 HD
ATOM     52  C   UNL     1       1.324  -0.368 -12.707  1.00  0.00     0.034 A 
ATOM     53  C   UNL     1       4.621   5.362 -10.688  1.00  0.00     0.034 A 
ATOM     54  C   UNL     1       2.589  -0.570 -13.389  1.00  0.00     0.049 A 
ATOM     55  C   UNL     1       4.494   4.780 -12.046  1.00  0.00     0.074 A 
ATOM     56  C   UNL     1       3.579  -1.533 -13.335  1.00  0.00     0.029 A 
ATOM     57  N   UNL     1       3.180   0.527 -13.978  1.00  0.00    -0.354 N 
ATOM     58  N   UNL     1       5.414   4.025 -12.583  1.00  0.00    -0.248 NA
ATOM     59  C   UNL     1       3.162   4.621 -12.607  1.00  0.00     0.031 C 
ATOM     60  C   UNL     1       4.804  -0.801 -13.401  1.00  0.00     0.029 A 
ATOM     61  C   UNL     1       4.498   0.550 -13.589  1.00  0.00     0.049 A 
ATOM     62  H   UNL     1       2.739   1.178 -14.570  1.00  0.00     0.167 HD
ATOM     63  C   UNL     1       4.720   3.003 -13.213  1.00  0.00     0.074 A 
ATOM     64  C   UNL     1       3.338   3.479 -13.280  1.00  0.00     0.031 C 
ATOM     65  C   UNL     1       5.271   1.763 -13.379  1.00  0.00     0.034 A 
BRANCH  52  66
ATOM     66  C   UNL     1       0.096   0.111 -13.450  1.00  0.00     0.023 A 
ATOM     67  C   UNL     1       0.099  -0.040 -14.851  1.00  0.00     0.031 A 
ATOM     68  C   UNL     1      -0.916   0.946 -12.928  1.00  0.00     0.131 A 
ATOM     69  C   UNL     1      -0.775   0.702 -15.663  1.00  0.00     0.055 A 
ATOM     70  C   UNL     1      -1.829   1.629 -13.737  1.00  0.00     0.041 A 
ATOM     71  F   UNL     1      -1.028   1.224 -11.625  1.00  0.00    -0.206 F 
ATOM     72  C   UNL     1      -1.740   1.539 -15.115  1.00  0.00     0.022 A 
BRANCH  69  73
ATOM     73  S   UNL     1      -0.497   0.691 -17.452  1.00  0.00     0.124 S 
ATOM     74  O   UNL     1       0.894   1.123 -17.533  1.00  0.00    -0.237 OA
ATOM     75  O   UNL     1      -0.760  -0.705 -17.788  1.00  0.00    -0.237 OA
ATOM     76  O   UNL     1      -1.479   1.649 -17.953  1.00  0.00    -0.744 OA
ENDBRANCH  69  73
ENDBRANCH  52  66
BRANCH  53  77
ATOM     77  C   UNL     1       4.325   6.781 -10.353  1.00  0.00     0.023 A 
ATOM     78  C   UNL     1       4.626   7.850 -11.222  1.00  0.00     0.031 A 
ATOM     79  C   UNL     1       3.492   7.075  -9.249  1.00  0.00     0.131 A 
ATOM     80  C   UNL     1       4.091   9.138 -10.979  1.00  0.00     0.055 A 
ATOM     81  C   UNL     1       2.963   8.346  -9.017  1.00  0.00     0.041 A 
ATOM     82  F   UNL     1       3.092   6.110  -8.404  1.00  0.00    -0.206 F 
ATOM     83  C   UNL     1       3.252   9.382  -9.889  1.00  0.00     0.022 A 
BRANCH  80  84
ATOM     84  S   UNL     1       4.411  10.507 -12.140  1.00  0.00     0.124 S 
ATOM     85  O   UNL     1       5.837  10.744 -11.954  1.00  0.00    -0.237 OA
ATOM     86  O   UNL     1       4.009   9.933 -13.419  1.00  0.00    -0.237 OA
ATOM     87  O   UNL     1       3.541  11.579 -11.652  1.00  0.00    -0.744 OA
ENDBRANCH  80  84
ENDBRANCH  53  77
BRANCH  65  88
ATOM     88  C   UNL     1       6.765   1.600 -13.155  1.00  0.00     0.023 A 
ATOM     89  C   UNL     1       7.455   1.902 -11.957  1.00  0.00     0.031 A 
ATOM     90  C   UNL     1       7.503   1.004 -14.195  1.00  0.00     0.131 A 
ATOM     91  C   UNL     1       8.832   1.613 -11.843  1.00  0.00     0.055 A 
ATOM     92  C   UNL     1       8.858   0.700 -14.070  1.00  0.00     0.041 A 
ATOM     93  F   UNL     1       6.904   0.674 -15.351  1.00  0.00    -0.206 F 
ATOM     94  C   UNL     1       9.530   1.009 -12.895  1.00  0.00     0.022 A 
BRANCH  91  95
ATOM     95  S   UNL     1       9.757   2.037 -10.328  1.00  0.00     0.124 S 
ATOM     96  O   UNL     1       9.367   3.416 -10.063  1.00  0.00    -0.237 OA
ATOM     97  O   UNL     1       9.275   1.042  -9.373  1.00  0.00    -0.237 OA
ATOM     98  O   UNL     1      11.157   1.867 -10.725  1.00  0.00    -0.744 OA
ENDBRANCH  91  95
ENDBRANCH  65  88
ENDBRANCH  39  40
ENDBRANCH  31  34
ENDBRANCH  29  30
ENDBRANCH   1  29
TORSDOF 15
