REMARK SMILES O=C(NCCCNC(=O)c1ccc(S(=O)(=O)NCC[NH+]2CCCC2)c(F)c1)c1ccc(-c2c3nc(c(-c4cc(S(=O)(=O)[O-])ccc4F)c4ccc([nH]4)c(-c4cc(S(=O)(=O)[O-])ccc4F)c4nc(c(-c5cc(S(=O)(=O)[O-])ccc5F)c5ccc2[nH]5)C=C4)C=C3)cc1
REMARK SMILES IDX 6 1 5 2 4 3 3 4 1 5 2 6 28 8 29 9 90 10 30 11 89 12 31 13
REMARK SMILES IDX 32 14 33 15 83 16 34 17 88 18 82 19 84 20 35 21 87 22 81 23
REMARK SMILES IDX 80 24 36 26 68 27 48 28 67 29 49 30 52 31 66 32 85 33 50 34
REMARK SMILES IDX 51 35 65 37 86 38 53 39 37 40 38 41 46 42 39 43 45 44 47 45
REMARK SMILES IDX 44 46 40 47 41 48 42 49 43 50 69 51 70 52 78 53 71 54 77 55
REMARK SMILES IDX 79 56 76 57 72 58 73 59 74 60 75 61 54 62 55 63 63 64 56 65
REMARK SMILES IDX 62 66 64 67 61 68 57 69 58 70 59 71 60 72 7 73 8 74 9 76
REMARK SMILES IDX 10 77 11 78 27 79 12 80 25 81 13 82 26 83 14 84 15 85 16 86
REMARK SMILES IDX 17 87 18 89 19 90 20 91 21 92 24 93 22 95 23 96
REMARK H PARENT 3 7 84 25 52 36 7 75 17 88 20 94
REMARK Flexibility Score: inf
ROOT
ATOM      1  C   UNL     1       4.202  -2.712  -2.590  1.00  0.00     0.118 C 
ENDROOT
BRANCH   1   2
ATOM      2  C   UNL     1       4.831  -2.011  -1.396  1.00  0.00     0.042 C 
BRANCH   2   3
ATOM      3  C   UNL     1       4.496  -0.531  -1.292  1.00  0.00     0.118 C 
BRANCH   3   4
ATOM      4  N   UNL     1       3.068  -0.277  -1.134  1.00  0.00    -0.352 N 
ATOM      5  O   UNL     1       1.131   0.194  -0.094  1.00  0.00    -0.269 OA
ATOM      6  C   UNL     1       2.359   0.216  -0.063  1.00  0.00     0.251 C 
ATOM      7  H   UNL     1       2.522  -0.495  -1.923  1.00  0.00     0.163 HD
BRANCH   6   8
ATOM      8  C   UNL     1       3.062   0.745   1.126  1.00  0.00     0.039 A 
ATOM      9  C   UNL     1       4.206   1.530   0.988  1.00  0.00     0.014 A 
ATOM     10  C   UNL     1       2.565   0.463   2.403  1.00  0.00     0.014 A 
ATOM     11  C   UNL     1       4.955   1.864   2.108  1.00  0.00     0.010 A 
ATOM     12  C   UNL     1       3.261   0.899   3.536  1.00  0.00     0.010 A 
ATOM     13  C   UNL     1       4.486   1.568   3.399  1.00  0.00    -0.014 A 
BRANCH  13  14
ATOM     14  C   UNL     1       5.288   2.008   4.572  1.00  0.00     0.031 A 
ATOM     15  C   UNL     1       5.880   1.008   5.529  1.00  0.00     0.074 A 
ATOM     16  C   UNL     1       5.541   3.324   4.725  1.00  0.00     0.049 A 
ATOM     17  N   UNL     1       6.628   1.225   6.580  1.00  0.00    -0.248 NA
ATOM     18  C   UNL     1       5.594  -0.415   5.284  1.00  0.00     0.031 C 
ATOM     19  C   UNL     1       5.023   4.385   3.855  1.00  0.00     0.029 A 
ATOM     20  N   UNL     1       6.321   3.995   5.631  1.00  0.00    -0.354 N 
ATOM     21  C   UNL     1       6.887  -0.025   7.133  1.00  0.00     0.074 A 
ATOM     22  C   UNL     1       6.197  -0.997   6.313  1.00  0.00     0.031 C 
ATOM     23  C   UNL     1       5.558   5.558   4.223  1.00  0.00     0.029 A 
ATOM     24  C   UNL     1       6.390   5.350   5.401  1.00  0.00     0.049 A 
ATOM     25  H   UNL     1       6.787   3.550   6.375  1.00  0.00     0.167 HD
ATOM     26  C   UNL     1       7.636  -0.329   8.220  1.00  0.00     0.034 A 
ATOM     27  C   UNL     1       7.034   6.325   6.072  1.00  0.00     0.034 A 
ATOM     28  C   UNL     1       8.344   0.645   9.011  1.00  0.00     0.049 A 
ATOM     29  C   UNL     1       7.832   5.960   7.290  1.00  0.00     0.074 A 
ATOM     30  C   UNL     1       9.156   0.430  10.112  1.00  0.00     0.029 A 
ATOM     31  N   UNL     1       8.329   2.014   8.789  1.00  0.00    -0.354 N 
ATOM     32  N   UNL     1       8.040   4.773   7.808  1.00  0.00    -0.248 NA
ATOM     33  C   UNL     1       8.468   7.062   8.024  1.00  0.00     0.031 C 
ATOM     34  C   UNL     1       9.588   1.672  10.587  1.00  0.00     0.029 A 
ATOM     35  C   UNL     1       9.094   2.658   9.748  1.00  0.00     0.049 A 
ATOM     36  H   UNL     1       7.845   2.462   8.058  1.00  0.00     0.167 HD
ATOM     37  C   UNL     1       8.833   4.986   8.930  1.00  0.00     0.074 A 
ATOM     38  C   UNL     1       9.080   6.411   9.004  1.00  0.00     0.031 C 
ATOM     39  C   UNL     1       9.311   4.081   9.818  1.00  0.00     0.034 A 
BRANCH  26  40
ATOM     40  C   UNL     1       7.714  -1.772   8.645  1.00  0.00     0.023 A 
ATOM     41  C   UNL     1       8.450  -2.718   7.913  1.00  0.00     0.031 A 
ATOM     42  C   UNL     1       7.088  -2.189   9.833  1.00  0.00     0.131 A 
ATOM     43  C   UNL     1       8.520  -4.045   8.364  1.00  0.00     0.055 A 
ATOM     44  C   UNL     1       7.206  -3.498  10.304  1.00  0.00     0.041 A 
ATOM     45  F   UNL     1       6.362  -1.326  10.560  1.00  0.00    -0.206 F 
ATOM     46  C   UNL     1       7.923  -4.435   9.566  1.00  0.00     0.022 A 
BRANCH  43  47
ATOM     47  S   UNL     1       9.365  -5.274   7.332  1.00  0.00     0.124 S 
ATOM     48  O   UNL     1       8.482  -5.339   6.170  1.00  0.00    -0.237 OA
ATOM     49  O   UNL     1      10.669  -4.659   7.107  1.00  0.00    -0.237 OA
ATOM     50  O   UNL     1       9.378  -6.472   8.168  1.00  0.00    -0.744 OA
ENDBRANCH  43  47
ENDBRANCH  26  40
BRANCH  27  51
ATOM     51  C   UNL     1       6.904   7.740   5.628  1.00  0.00     0.023 A 
ATOM     52  C   UNL     1       7.999   8.440   5.101  1.00  0.00     0.031 A 
ATOM     53  C   UNL     1       5.668   8.407   5.714  1.00  0.00     0.131 A 
ATOM     54  C   UNL     1       7.841   9.775   4.696  1.00  0.00     0.055 A 
ATOM     55  C   UNL     1       5.506   9.719   5.270  1.00  0.00     0.041 A 
ATOM     56  F   UNL     1       4.589   7.775   6.204  1.00  0.00    -0.206 F 
ATOM     57  C   UNL     1       6.599  10.413   4.763  1.00  0.00     0.022 A 
BRANCH  54  58
ATOM     58  S   UNL     1       9.294  10.683   4.103  1.00  0.00     0.124 S 
ATOM     59  O   UNL     1      10.142  10.693   5.290  1.00  0.00    -0.237 OA
ATOM     60  O   UNL     1       9.746   9.847   2.996  1.00  0.00    -0.237 OA
ATOM     61  O   UNL     1       8.748  11.982   3.715  1.00  0.00    -0.744 OA
ENDBRANCH  54  58
ENDBRANCH  27  51
BRANCH  39  62
ATOM     62  C   UNL     1      10.161   4.605  10.942  1.00  0.00     0.023 A 
ATOM     63  C   UNL     1       9.591   5.294  12.024  1.00  0.00     0.031 A 
ATOM     64  C   UNL     1      11.546   4.372  10.949  1.00  0.00     0.131 A 
ATOM     65  C   UNL     1      10.412   5.752  13.064  1.00  0.00     0.055 A 
ATOM     66  C   UNL     1      12.352   4.793  12.006  1.00  0.00     0.041 A 
ATOM     67  F   UNL     1      12.133   3.714   9.936  1.00  0.00    -0.206 F 
ATOM     68  C   UNL     1      11.786   5.491  13.070  1.00  0.00     0.022 A 
BRANCH  65  69
ATOM     69  S   UNL     1       9.664   6.710  14.410  1.00  0.00     0.124 S 
ATOM     70  O   UNL     1       9.279   7.940  13.725  1.00  0.00    -0.237 OA
ATOM     71  O   UNL     1       8.567   5.850  14.841  1.00  0.00    -0.237 OA
ATOM     72  O   UNL     1      10.753   6.851  15.375  1.00  0.00    -0.744 OA
ENDBRANCH  65  69
ENDBRANCH  39  62
ENDBRANCH  13  14
ENDBRANCH   6   8
ENDBRANCH   3   4
ENDBRANCH   2   3
ENDBRANCH   1   2
BRANCH   1  73
ATOM     73  N   UNL     1       4.613  -2.138  -3.867  1.00  0.00    -0.352 N 
ATOM     74  C   UNL     1       5.398  -2.654  -4.865  1.00  0.00     0.251 C 
ATOM     75  H   UNL     1       4.270  -1.232  -4.040  1.00  0.00     0.163 HD
ATOM     76  O   UNL     1       5.756  -1.944  -5.800  1.00  0.00    -0.269 OA
BRANCH  74  77
ATOM     77  C   UNL     1       5.843  -4.061  -4.817  1.00  0.00     0.042 A 
ATOM     78  C   UNL     1       4.949  -5.096  -4.523  1.00  0.00     0.015 A 
ATOM     79  C   UNL     1       7.180  -4.348  -5.101  1.00  0.00     0.054 A 
ATOM     80  C   UNL     1       5.423  -6.396  -4.365  1.00  0.00     0.026 A 
ATOM     81  C   UNL     1       7.639  -5.657  -4.994  1.00  0.00     0.144 A 
ATOM     82  C   UNL     1       6.780  -6.667  -4.580  1.00  0.00     0.118 A 
ATOM     83  F   UNL     1       8.923  -5.897  -5.289  1.00  0.00    -0.205 F 
BRANCH  82  84
ATOM     84  S   UNL     1       7.346  -8.302  -4.254  1.00  0.00     0.243 S 
ATOM     85  O   UNL     1       6.738  -8.717  -3.009  1.00  0.00    -0.207 OA
ATOM     86  O   UNL     1       7.157  -9.053  -5.476  1.00  0.00    -0.207 OA
BRANCH  84  87
ATOM     87  N   UNL     1       8.978  -8.208  -4.005  1.00  0.00    -0.205 NA
ATOM     88  H   UNL     1       9.364  -7.780  -4.847  1.00  0.00     0.141 HD
BRANCH  87  89
ATOM     89  C   UNL     1       9.585  -7.495  -2.880  1.00  0.00     0.160 C 
BRANCH  89  90
ATOM     90  C   UNL     1       9.980  -8.411  -1.703  1.00  0.00     0.278 C 
BRANCH  90  91
ATOM     91  N   UNL     1      10.615  -9.712  -1.939  1.00  0.00    -0.334 N 
ATOM     92  C   UNL     1      11.423  -9.899  -3.139  1.00  0.00     0.262 C 
ATOM     93  C   UNL     1       9.691 -10.840  -1.790  1.00  0.00     0.262 C 
ATOM     94  H   UNL     1      11.302  -9.699  -1.185  1.00  0.00     0.348 HD
ATOM     95  C   UNL     1      10.801 -11.085  -3.862  1.00  0.00     0.067 C 
ATOM     96  C   UNL     1      10.224 -11.906  -2.728  1.00  0.00     0.067 C 
ENDBRANCH  90  91
ENDBRANCH  89  90
ENDBRANCH  87  89
ENDBRANCH  84  87
ENDBRANCH  82  84
ENDBRANCH  74  77
ENDBRANCH   1  73
TORSDOF 18
