REMARK SMILES [NH3+][C@]1(C(=O)NCCCNC(=O)c2ccc(-c3c4nc(c(-c5cc(S(=O)(=O)[O-])ccc5F)c5ccc([nH]5)c(-c5cc(S(=O)(=O)[O-])ccc5F)c5nc(c(-c6cc(S(=O)(=O)[O-])ccc6F)c6ccc3[nH]6)C=C5)C=C4)cc2)CC[C@@H](Sc2cc3ccccc3[nH]2)C1
REMARK SMILES IDX 7 1 6 2 5 3 3 4 4 5 2 7 75 8 88 9 76 10 77 11 1 12 78 16
REMARK SMILES IDX 79 17 80 18 87 19 81 20 86 21 82 23 85 24 83 25 84 26 8 27
REMARK SMILES IDX 9 28 10 29 11 31 12 32 13 33 74 34 14 35 73 36 15 37 16 38
REMARK SMILES IDX 17 39 67 40 18 41 72 42 66 43 68 44 19 45 71 46 65 47 64 48
REMARK SMILES IDX 20 50 52 51 32 52 51 53 33 54 36 55 50 56 69 57 34 58 35 59
REMARK SMILES IDX 49 61 70 62 37 63 21 64 22 65 30 66 23 67 29 68 31 69 28 70
REMARK SMILES IDX 24 71 25 72 26 73 27 74 53 75 54 76 62 77 55 78 61 79 63 80
REMARK SMILES IDX 60 81 56 82 57 83 58 84 59 85 38 86 39 87 47 88 40 89 46 90
REMARK SMILES IDX 48 91 45 92 41 93 42 94 43 95 44 96
REMARK H PARENT 5 6 1 13 1 14 1 15 87 22 9 30 68 49 36 60
REMARK Flexibility Score: inf
ROOT
ATOM      1  C   UNL     1       3.175  -2.862   1.238  1.00  0.00     0.042 C 
ENDROOT
BRANCH   1   2
ATOM      2  C   UNL     1       3.258  -1.357   1.061  1.00  0.00     0.118 C 
BRANCH   2   3
ATOM      3  N   UNL     1       2.326  -0.879   0.059  1.00  0.00    -0.351 N 
ATOM      4  C   UNL     1       1.204  -0.130   0.113  1.00  0.00     0.281 C 
ATOM      5  O   UNL     1       0.562  -0.048  -0.947  1.00  0.00    -0.268 OA
ATOM      6  H   UNL     1       2.561  -1.160  -0.855  1.00  0.00     0.163 HD
BRANCH   4   7
ATOM      7  C   UNL     1       0.647   0.570   1.381  1.00  0.00     0.175 C 
ATOM      8  C   UNL     1       1.536   0.724   2.614  1.00  0.00     0.080 C 
ATOM      9  C   UNL     1       0.349   2.036   0.982  1.00  0.00     0.094 C 
ATOM     10  C   UNL     1       1.030   1.958   3.334  1.00  0.00     0.022 C 
ATOM     11  C   UNL     1       0.682   2.904   2.199  1.00  0.00     0.060 C 
BRANCH   7  12
ATOM     12  N   UNL     1      -0.612  -0.120   1.760  1.00  0.00    -0.345 N 
ATOM     13  H   UNL     1      -1.002   0.320   2.594  1.00  0.00     0.345 HD
ATOM     14  H   UNL     1      -0.417  -1.102   1.954  1.00  0.00     0.345 HD
ATOM     15  H   UNL     1      -1.282  -0.051   0.994  1.00  0.00     0.345 HD
ENDBRANCH   7  12
BRANCH  11  16
ATOM     16  S   UNL     1       1.898   4.164   1.766  1.00  0.00    -0.105 SA
BRANCH  16  17
ATOM     17  C   UNL     1       3.499   3.475   1.847  1.00  0.00     0.073 A 
ATOM     18  C   UNL     1       4.463   3.441   0.854  1.00  0.00     0.043 A 
ATOM     19  N   UNL     1       4.189   3.638   3.025  1.00  0.00    -0.350 N 
ATOM     20  C   UNL     1       5.486   4.316   1.359  1.00  0.00     0.001 A 
ATOM     21  C   UNL     1       5.246   4.477   2.725  1.00  0.00     0.046 A 
ATOM     22  H   UNL     1       3.976   3.239   3.900  1.00  0.00     0.167 HD
ATOM     23  C   UNL     1       6.467   5.119   0.748  1.00  0.00     0.010 A 
ATOM     24  C   UNL     1       5.897   5.424   3.517  1.00  0.00     0.027 A 
ATOM     25  C   UNL     1       7.063   6.138   1.505  1.00  0.00     0.001 A 
ATOM     26  C   UNL     1       6.771   6.293   2.861  1.00  0.00     0.002 A 
ENDBRANCH  16  17
ENDBRANCH  11  16
ENDBRANCH   4   7
ENDBRANCH   2   3
ENDBRANCH   1   2
BRANCH   1  27
ATOM     27  C   UNL     1       3.619  -3.632   0.006  1.00  0.00     0.118 C 
BRANCH  27  28
ATOM     28  N   UNL     1       5.014  -3.373  -0.333  1.00  0.00    -0.352 N 
ATOM     29  C   UNL     1       6.117  -4.180  -0.208  1.00  0.00     0.251 C 
ATOM     30  H   UNL     1       5.192  -2.482  -0.710  1.00  0.00     0.163 HD
ATOM     31  O   UNL     1       7.242  -3.683  -0.307  1.00  0.00    -0.269 OA
BRANCH  29  32
ATOM     32  C   UNL     1       5.957  -5.622   0.065  1.00  0.00     0.039 A 
ATOM     33  C   UNL     1       6.836  -6.255   0.946  1.00  0.00     0.014 A 
ATOM     34  C   UNL     1       4.938  -6.352  -0.550  1.00  0.00     0.014 A 
ATOM     35  C   UNL     1       6.640  -7.599   1.268  1.00  0.00     0.010 A 
ATOM     36  C   UNL     1       4.674  -7.652  -0.140  1.00  0.00     0.010 A 
ATOM     37  C   UNL     1       5.528  -8.296   0.765  1.00  0.00    -0.014 A 
BRANCH  37  38
ATOM     38  C   UNL     1       5.245  -9.700   1.158  1.00  0.00     0.031 A 
ATOM     39  C   UNL     1       5.195 -10.777   0.107  1.00  0.00     0.074 A 
ATOM     40  C   UNL     1       4.963  -9.989   2.444  1.00  0.00     0.049 A 
ATOM     41  N   UNL     1       4.875 -12.040   0.230  1.00  0.00    -0.248 NA
ATOM     42  C   UNL     1       5.510 -10.371  -1.272  1.00  0.00     0.031 C 
ATOM     43  C   UNL     1       4.936  -9.020   3.542  1.00  0.00     0.029 A 
ATOM     44  N   UNL     1       4.640 -11.178   3.047  1.00  0.00    -0.354 N 
ATOM     45  C   UNL     1       4.937 -12.573  -1.053  1.00  0.00     0.074 A 
ATOM     46  C   UNL     1       5.250 -11.480  -1.947  1.00  0.00     0.031 C 
ATOM     47  C   UNL     1       4.650  -9.659   4.687  1.00  0.00     0.029 A 
ATOM     48  C   UNL     1       4.415 -11.070   4.401  1.00  0.00     0.049 A 
ATOM     49  H   UNL     1       4.575 -12.030   2.558  1.00  0.00     0.167 HD
ATOM     50  C   UNL     1       4.775 -13.861  -1.446  1.00  0.00     0.034 A 
ATOM     51  C   UNL     1       4.048 -11.999   5.305  1.00  0.00     0.034 A 
ATOM     52  C   UNL     1       4.475 -14.939  -0.536  1.00  0.00     0.049 A 
ATOM     53  C   UNL     1       3.842 -13.419   4.840  1.00  0.00     0.074 A 
ATOM     54  C   UNL     1       4.344 -16.288  -0.812  1.00  0.00     0.029 A 
ATOM     55  N   UNL     1       4.252 -14.790   0.828  1.00  0.00    -0.354 N 
ATOM     56  N   UNL     1       3.956 -13.917   3.630  1.00  0.00    -0.248 NA
ATOM     57  C   UNL     1       3.469 -14.402   5.864  1.00  0.00     0.031 C 
ATOM     58  C   UNL     1       3.965 -16.942   0.364  1.00  0.00     0.029 A 
ATOM     59  C   UNL     1       3.948 -16.018   1.397  1.00  0.00     0.049 A 
ATOM     60  H   UNL     1       4.301 -13.938   1.318  1.00  0.00     0.167 HD
ATOM     61  C   UNL     1       3.701 -15.280   3.756  1.00  0.00     0.074 A 
ATOM     62  C   UNL     1       3.446 -15.525   5.161  1.00  0.00     0.031 C 
ATOM     63  C   UNL     1       3.685 -16.244   2.800  1.00  0.00     0.034 A 
BRANCH  50  64
ATOM     64  C   UNL     1       4.897 -14.160  -2.922  1.00  0.00     0.023 A 
ATOM     65  C   UNL     1       6.089 -13.924  -3.629  1.00  0.00     0.031 A 
ATOM     66  C   UNL     1       3.799 -14.665  -3.640  1.00  0.00     0.131 A 
ATOM     67  C   UNL     1       6.132 -14.114  -5.018  1.00  0.00     0.055 A 
ATOM     68  C   UNL     1       3.875 -14.938  -5.008  1.00  0.00     0.041 A 
ATOM     69  F   UNL     1       2.625 -14.890  -3.028  1.00  0.00    -0.206 F 
ATOM     70  C   UNL     1       5.041 -14.647  -5.709  1.00  0.00     0.022 A 
BRANCH  67  71
ATOM     71  S   UNL     1       7.579 -13.511  -5.931  1.00  0.00     0.124 S 
ATOM     72  O   UNL     1       7.573 -12.091  -5.586  1.00  0.00    -0.237 OA
ATOM     73  O   UNL     1       8.663 -14.302  -5.361  1.00  0.00    -0.237 OA
ATOM     74  O   UNL     1       7.253 -13.807  -7.324  1.00  0.00    -0.744 OA
ENDBRANCH  67  71
ENDBRANCH  50  64
BRANCH  51  75
ATOM     75  C   UNL     1       3.840 -11.625   6.735  1.00  0.00     0.023 A 
ATOM     76  C   UNL     1       4.642 -12.172   7.749  1.00  0.00     0.031 A 
ATOM     77  C   UNL     1       2.808 -10.748   7.114  1.00  0.00     0.131 A 
ATOM     78  C   UNL     1       4.368 -11.880   9.094  1.00  0.00     0.055 A 
ATOM     79  C   UNL     1       2.577 -10.412   8.449  1.00  0.00     0.041 A 
ATOM     80  F   UNL     1       2.012 -10.193   6.186  1.00  0.00    -0.206 F 
ATOM     81  C   UNL     1       3.350 -10.992   9.450  1.00  0.00     0.022 A 
BRANCH  78  82
ATOM     82  S   UNL     1       5.299 -12.756  10.380  1.00  0.00     0.124 S 
ATOM     83  O   UNL     1       5.009 -14.149  10.059  1.00  0.00    -0.237 OA
ATOM     84  O   UNL     1       6.664 -12.308  10.123  1.00  0.00    -0.237 OA
ATOM     85  O   UNL     1       4.707 -12.264  11.623  1.00  0.00    -0.744 OA
ENDBRANCH  78  82
ENDBRANCH  51  75
BRANCH  63  86
ATOM     86  C   UNL     1       3.427 -17.660   3.256  1.00  0.00     0.023 A 
ATOM     87  C   UNL     1       2.194 -18.050   3.807  1.00  0.00     0.031 A 
ATOM     88  C   UNL     1       4.438 -18.632   3.144  1.00  0.00     0.131 A 
ATOM     89  C   UNL     1       2.024 -19.359   4.281  1.00  0.00     0.055 A 
ATOM     90  C   UNL     1       4.239 -19.951   3.554  1.00  0.00     0.041 A 
ATOM     91  F   UNL     1       5.637 -18.316   2.630  1.00  0.00    -0.206 F 
ATOM     92  C   UNL     1       3.031 -20.317   4.140  1.00  0.00     0.022 A 
BRANCH  89  93
ATOM     93  S   UNL     1       0.503 -19.767   5.181  1.00  0.00     0.124 S 
ATOM     94  O   UNL     1       0.534 -18.807   6.280  1.00  0.00    -0.237 OA
ATOM     95  O   UNL     1      -0.527 -19.547   4.171  1.00  0.00    -0.237 OA
ATOM     96  O   UNL     1       0.699 -21.162   5.571  1.00  0.00    -0.744 OA
ENDBRANCH  89  93
ENDBRANCH  63  86
ENDBRANCH  37  38
ENDBRANCH  29  32
ENDBRANCH  27  28
ENDBRANCH   1  27
TORSDOF 16
