REMARK SMILES C[C@H]1[C@H](C(=O)NCCCNC(=O)c2ccc(-c3c4nc(c(-c5cc(S(=O)(=O)[O-])ccc5F)c5ccc([nH]5)c(-c5cc(S(=O)(=O)[O-])ccc5F)c5nc(c(-c6cc(S(=O)(=O)[O-])ccc6F)c6ccc3[nH]6)C=C5)C=C4)cc2)CCN1C(=O)Nc1ccc(F)c(Cl)c1
REMARK SMILES IDX 8 1 7 2 6 3 4 4 5 5 3 7 1 8 2 9 78 10 76 11 77 12 79 13
REMARK SMILES IDX 80 14 81 15 82 17 83 18 89 19 84 20 87 21 85 22 88 23 86 24
REMARK SMILES IDX 9 25 10 26 11 27 12 29 13 30 14 31 75 32 15 33 74 34 16 35
REMARK SMILES IDX 17 36 18 37 68 38 19 39 73 40 67 41 69 42 20 43 72 44 66 45
REMARK SMILES IDX 65 46 21 48 53 49 33 50 52 51 34 52 37 53 51 54 70 55 35 56
REMARK SMILES IDX 36 57 50 59 71 60 38 61 22 62 23 63 31 64 24 65 30 66 32 67
REMARK SMILES IDX 29 68 25 69 26 70 27 71 28 72 54 73 55 74 63 75 56 76 62 77
REMARK SMILES IDX 64 78 61 79 57 80 58 81 59 82 60 83 39 84 40 85 48 86 41 87
REMARK SMILES IDX 47 88 49 89 46 90 42 91 43 92 44 93 45 94
REMARK H PARENT 6 6 81 16 10 28 69 47 37 58
REMARK Flexibility Score: inf
ROOT
ATOM      1  C   UNL     1      -0.568   0.262   4.176  1.00  0.00     0.042 C 
ENDROOT
BRANCH   1   2
ATOM      2  C   UNL     1      -1.301   0.749   2.930  1.00  0.00     0.117 C 
BRANCH   2   3
ATOM      3  N   UNL     1      -0.701   1.935   2.333  1.00  0.00    -0.356 N 
ATOM      4  C   UNL     1      -0.329   2.244   1.065  1.00  0.00     0.225 C 
ATOM      5  O   UNL     1       0.062   3.401   0.870  1.00  0.00    -0.275 OA
ATOM      6  H   UNL     1      -0.531   2.658   2.980  1.00  0.00     0.163 HD
BRANCH   4   7
ATOM      7  C   UNL     1      -0.317   1.256  -0.096  1.00  0.00     0.102 C 
ATOM      8  C   UNL     1       1.750   0.263  -1.166  1.00  0.00     0.032 C 
ATOM      9  C   UNL     1       0.812   0.223   0.043  1.00  0.00     0.096 C 
ATOM     10  N   UNL     1       0.145  -1.075   0.174  1.00  0.00    -0.321 N 
ATOM     11  C   UNL     1      -1.607   0.484  -0.328  1.00  0.00     0.037 C 
ATOM     12  C   UNL     1      -1.213  -0.983  -0.339  1.00  0.00     0.122 C 
BRANCH  10  13
ATOM     13  C   UNL     1       0.638  -2.332   0.420  1.00  0.00     0.322 C 
ATOM     14  O   UNL     1      -0.071  -3.328   0.229  1.00  0.00    -0.248 OA
ATOM     15  N   UNL     1       1.937  -2.575   0.727  1.00  0.00    -0.308 N 
ATOM     16  H   UNL     1       2.232  -3.468   0.437  1.00  0.00     0.171 HD
BRANCH  15  17
ATOM     17  C   UNL     1       2.954  -1.851   1.358  1.00  0.00     0.044 A 
ATOM     18  C   UNL     1       4.281  -2.158   1.044  1.00  0.00     0.029 A 
ATOM     19  C   UNL     1       2.697  -0.876   2.312  1.00  0.00     0.049 A 
ATOM     20  C   UNL     1       5.322  -1.385   1.568  1.00  0.00     0.043 A 
ATOM     21  C   UNL     1       3.726  -0.086   2.823  1.00  0.00     0.078 A 
ATOM     22  C   UNL     1       5.036  -0.331   2.431  1.00  0.00     0.141 A 
ATOM     23  Cl  UNL     1       3.346   1.212   3.889  1.00  0.00    -0.081 Cl
ATOM     24  F   UNL     1       6.041   0.443   2.864  1.00  0.00    -0.205 F 
ENDBRANCH  15  17
ENDBRANCH  10  13
ENDBRANCH   4   7
ENDBRANCH   2   3
ENDBRANCH   1   2
BRANCH   1  25
ATOM     25  C   UNL     1      -0.559   1.220   5.358  1.00  0.00     0.118 C 
BRANCH  25  26
ATOM     26  N   UNL     1      -1.767   1.133   6.155  1.00  0.00    -0.352 N 
ATOM     27  C   UNL     1      -2.011   0.520   7.362  1.00  0.00     0.251 C 
ATOM     28  H   UNL     1      -2.546   1.590   5.765  1.00  0.00     0.163 HD
ATOM     29  O   UNL     1      -3.181   0.414   7.726  1.00  0.00    -0.269 OA
BRANCH  27  30
ATOM     30  C   UNL     1      -0.924  -0.037   8.213  1.00  0.00     0.039 A 
ATOM     31  C   UNL     1      -1.199  -1.183   8.968  1.00  0.00     0.014 A 
ATOM     32  C   UNL     1       0.325   0.574   8.349  1.00  0.00     0.014 A 
ATOM     33  C   UNL     1      -0.223  -1.732   9.809  1.00  0.00     0.010 A 
ATOM     34  C   UNL     1       1.331  -0.028   9.112  1.00  0.00     0.010 A 
ATOM     35  C   UNL     1       1.066  -1.179   9.868  1.00  0.00    -0.014 A 
BRANCH  35  36
ATOM     36  C   UNL     1       2.120  -1.775  10.739  1.00  0.00     0.031 A 
ATOM     37  C   UNL     1       2.718  -0.980  11.874  1.00  0.00     0.074 A 
ATOM     38  C   UNL     1       2.564  -3.025  10.497  1.00  0.00     0.049 A 
ATOM     39  N   UNL     1       3.663  -1.316  12.717  1.00  0.00    -0.248 NA
ATOM     40  C   UNL     1       2.206   0.385  12.065  1.00  0.00     0.031 C 
ATOM     41  C   UNL     1       2.106  -3.887   9.405  1.00  0.00     0.029 A 
ATOM     42  N   UNL     1       3.501  -3.790  11.150  1.00  0.00    -0.354 N 
ATOM     43  C   UNL     1       3.864  -0.204  13.530  1.00  0.00     0.074 A 
ATOM     44  C   UNL     1       2.992   0.838  13.030  1.00  0.00     0.031 C 
ATOM     45  C   UNL     1       2.740  -5.068   9.481  1.00  0.00     0.029 A 
ATOM     46  C   UNL     1       3.679  -5.038  10.598  1.00  0.00     0.049 A 
ATOM     47  H   UNL     1       3.997  -3.475  11.939  1.00  0.00     0.167 HD
ATOM     48  C   UNL     1       4.677  -0.069  14.609  1.00  0.00     0.034 A 
ATOM     49  C   UNL     1       4.509  -6.043  10.943  1.00  0.00     0.034 A 
ATOM     50  C   UNL     1       5.536  -1.118  15.107  1.00  0.00     0.049 A 
ATOM     51  C   UNL     1       5.408  -5.872  12.140  1.00  0.00     0.074 A 
ATOM     52  C   UNL     1       6.362  -1.103  16.218  1.00  0.00     0.029 A 
ATOM     53  N   UNL     1       5.684  -2.370  14.524  1.00  0.00    -0.354 N 
ATOM     54  N   UNL     1       5.549  -4.829  12.927  1.00  0.00    -0.248 NA
ATOM     55  C   UNL     1       6.249  -7.019  12.505  1.00  0.00     0.031 C 
ATOM     56  C   UNL     1       7.055  -2.318  16.270  1.00  0.00     0.029 A 
ATOM     57  C   UNL     1       6.607  -3.124  15.235  1.00  0.00     0.049 A 
ATOM     58  H   UNL     1       5.204  -2.679  13.722  1.00  0.00     0.167 HD
ATOM     59  C   UNL     1       6.478  -5.206  13.892  1.00  0.00     0.074 A 
ATOM     60  C   UNL     1       6.844  -6.577  13.603  1.00  0.00     0.031 C 
ATOM     61  C   UNL     1       6.983  -4.484  14.926  1.00  0.00     0.034 A 
BRANCH  48  62
ATOM     62  C   UNL     1       4.685   1.273  15.307  1.00  0.00     0.023 A 
ATOM     63  C   UNL     1       3.529   1.795  15.915  1.00  0.00     0.031 A 
ATOM     64  C   UNL     1       5.852   2.057  15.339  1.00  0.00     0.131 A 
ATOM     65  C   UNL     1       3.541   3.092  16.449  1.00  0.00     0.055 A 
ATOM     66  C   UNL     1       5.880   3.313  15.949  1.00  0.00     0.041 A 
ATOM     67  F   UNL     1       6.984   1.623  14.762  1.00  0.00    -0.206 F 
ATOM     68  C   UNL     1       4.715   3.845  16.494  1.00  0.00     0.022 A 
BRANCH  65  69
ATOM     69  S   UNL     1       1.963   3.838  16.945  1.00  0.00     0.124 S 
ATOM     70  O   UNL     1       1.207   3.786  15.695  1.00  0.00    -0.237 OA
ATOM     71  O   UNL     1       1.510   2.945  18.004  1.00  0.00    -0.237 OA
ATOM     72  O   UNL     1       2.341   5.182  17.379  1.00  0.00    -0.744 OA
ENDBRANCH  65  69
ENDBRANCH  48  62
BRANCH  49  73
ATOM     73  C   UNL     1       4.540  -7.301  10.143  1.00  0.00     0.023 A 
ATOM     74  C   UNL     1       4.130  -8.525  10.694  1.00  0.00     0.031 A 
ATOM     75  C   UNL     1       5.016  -7.300   8.819  1.00  0.00     0.131 A 
ATOM     76  C   UNL     1       4.245  -9.705   9.941  1.00  0.00     0.055 A 
ATOM     77  C   UNL     1       5.079  -8.468   8.057  1.00  0.00     0.041 A 
ATOM     78  F   UNL     1       5.414  -6.155   8.242  1.00  0.00    -0.206 F 
ATOM     79  C   UNL     1       4.704  -9.682   8.623  1.00  0.00     0.022 A 
BRANCH  76  80
ATOM     80  S   UNL     1       3.855 -11.287  10.739  1.00  0.00     0.124 S 
ATOM     81  O   UNL     1       4.786 -11.293  11.861  1.00  0.00    -0.237 OA
ATOM     82  O   UNL     1       2.445 -11.117  11.075  1.00  0.00    -0.237 OA
ATOM     83  O   UNL     1       4.129 -12.271   9.693  1.00  0.00    -0.744 OA
ENDBRANCH  76  80
ENDBRANCH  49  73
BRANCH  61  84
ATOM     84  C   UNL     1       7.964  -5.186  15.834  1.00  0.00     0.023 A 
ATOM     85  C   UNL     1       9.227  -5.602  15.377  1.00  0.00     0.031 A 
ATOM     86  C   UNL     1       7.618  -5.471  17.167  1.00  0.00     0.131 A 
ATOM     87  C   UNL     1      10.071  -6.337  16.224  1.00  0.00     0.055 A 
ATOM     88  C   UNL     1       8.488  -6.146  18.025  1.00  0.00     0.041 A 
ATOM     89  F   UNL     1       6.424  -5.100  17.658  1.00  0.00    -0.206 F 
ATOM     90  C   UNL     1       9.716  -6.598  17.550  1.00  0.00     0.022 A 
BRANCH  87  91
ATOM     91  S   UNL     1      11.596  -7.041  15.538  1.00  0.00     0.124 S 
ATOM     92  O   UNL     1      11.086  -7.854  14.438  1.00  0.00    -0.237 OA
ATOM     93  O   UNL     1      12.346  -5.849  15.156  1.00  0.00    -0.237 OA
ATOM     94  O   UNL     1      12.159  -7.796  16.656  1.00  0.00    -0.744 OA
ENDBRANCH  87  91
ENDBRANCH  61  84
ENDBRANCH  35  36
ENDBRANCH  27  30
ENDBRANCH  25  26
ENDBRANCH   1  25
TORSDOF 15
