REMARK SMILES C[C@@H]1CN(C(=O)Nc2ccc(O)c(C(=O)NCCCNC(=O)c3ccc(-c4c5nc(c(-c6cc(S(=O)(=O)[O-])ccc6F)c6ccc([nH]6)c(-c6cc(S(=O)(=O)[O-])ccc6F)c6nc(c(-c7cc(S(=O)(=O)[O-])ccc7F)c7ccc4[nH]7)C=C6)C=C5)cc3)c2)C[C@@H]1C
REMARK SMILES IDX 18 1 17 2 16 3 14 4 15 5 13 7 8 8 9 9 86 10 10 11 11 12 7 13
REMARK SMILES IDX 5 14 6 15 4 17 1 18 2 19 3 20 88 21 87 22 89 23 12 24 19 26
REMARK SMILES IDX 20 27 21 28 22 30 23 31 24 32 85 33 25 34 84 35 26 36 27 37
REMARK SMILES IDX 28 38 78 39 29 40 83 41 77 42 79 43 30 44 82 45 76 46 75 47
REMARK SMILES IDX 31 49 63 50 43 51 62 52 44 53 47 54 61 55 80 56 45 57 46 58
REMARK SMILES IDX 60 60 81 61 48 62 32 63 33 64 41 65 34 66 40 67 42 68 39 69
REMARK SMILES IDX 35 70 36 71 37 72 38 73 64 74 65 75 73 76 66 77 72 78 74 79
REMARK SMILES IDX 71 80 67 81 68 82 69 83 70 84 49 85 50 86 58 87 51 88 57 89
REMARK SMILES IDX 59 90 56 91 52 92 53 93 54 94 55 95
REMARK H PARENT 16 6 7 16 12 25 20 29 79 48 47 59
REMARK Flexibility Score: inf
ROOT
ATOM      1  C   UNL     1      -0.352   6.004  -4.612  1.00  0.00     0.042 C 
ENDROOT
BRANCH   1   2
ATOM      2  C   UNL     1       0.832   5.289  -3.961  1.00  0.00     0.118 C 
BRANCH   2   3
ATOM      3  N   UNL     1       1.581   6.182  -3.101  1.00  0.00    -0.352 N 
ATOM      4  C   UNL     1       1.569   6.389  -1.748  1.00  0.00     0.255 C 
ATOM      5  O   UNL     1       2.378   7.216  -1.314  1.00  0.00    -0.269 OA
ATOM      6  H   UNL     1       2.224   6.751  -3.583  1.00  0.00     0.163 HD
BRANCH   4   7
ATOM      7  C   UNL     1       0.738   5.644  -0.756  1.00  0.00     0.083 A 
ATOM      8  C   UNL     1       0.750   4.724   1.505  1.00  0.00     0.043 A 
ATOM      9  C   UNL     1      -0.594   4.393   1.392  1.00  0.00     0.030 A 
ATOM     10  C   UNL     1       1.384   5.419   0.476  1.00  0.00     0.044 A 
ATOM     11  C   UNL     1      -1.257   4.614   0.191  1.00  0.00     0.049 A 
ATOM     12  C   UNL     1      -0.586   5.205  -0.886  1.00  0.00     0.128 A 
BRANCH   8  13
ATOM     13  N   UNL     1       1.500   4.377   2.629  1.00  0.00    -0.308 N 
ATOM     14  C   UNL     1       1.476   3.251   3.394  1.00  0.00     0.321 C 
ATOM     15  O   UNL     1       1.904   3.335   4.548  1.00  0.00    -0.248 OA
ATOM     16  H   UNL     1       2.153   5.057   2.915  1.00  0.00     0.171 HD
BRANCH  14  17
ATOM     17  N   UNL     1       1.136   2.040   2.836  1.00  0.00    -0.324 N 
ATOM     18  C   UNL     1       1.104  -0.392   0.023  1.00  0.00     0.010 C 
ATOM     19  C   UNL     1       0.783   0.177   1.394  1.00  0.00     0.010 C 
ATOM     20  C   UNL     1       0.887   1.703   1.435  1.00  0.00     0.125 C 
ATOM     21  C   UNL     1       1.675  -0.253   2.566  1.00  0.00     0.010 C 
ATOM     22  C   UNL     1       1.330   0.822   3.608  1.00  0.00     0.125 C 
ATOM     23  C   UNL     1       3.170  -0.263   2.237  1.00  0.00     0.010 C 
ENDBRANCH  14  17
ENDBRANCH   8  13
BRANCH  12  24
ATOM     24  O   UNL     1      -1.297   5.350  -2.035  1.00  0.00    -0.507 OA
ATOM     25  H   UNL     1      -2.181   5.042  -2.081  1.00  0.00     0.293 HD
ENDBRANCH  12  24
ENDBRANCH   4   7
ENDBRANCH   2   3
ENDBRANCH   1   2
BRANCH   1  26
ATOM     26  C   UNL     1       0.024   6.944  -5.749  1.00  0.00     0.118 C 
BRANCH  26  27
ATOM     27  N   UNL     1       0.399   6.225  -6.954  1.00  0.00    -0.352 N 
ATOM     28  C   UNL     1      -0.206   6.189  -8.187  1.00  0.00     0.251 C 
ATOM     29  H   UNL     1       1.214   5.679  -6.875  1.00  0.00     0.163 HD
ATOM     30  O   UNL     1       0.142   5.327  -8.990  1.00  0.00    -0.269 OA
BRANCH  28  31
ATOM     31  C   UNL     1      -1.276   7.152  -8.550  1.00  0.00     0.039 A 
ATOM     32  C   UNL     1      -2.342   6.703  -9.338  1.00  0.00     0.014 A 
ATOM     33  C   UNL     1      -1.217   8.498  -8.176  1.00  0.00     0.014 A 
ATOM     34  C   UNL     1      -3.367   7.582  -9.699  1.00  0.00     0.010 A 
ATOM     35  C   UNL     1      -2.277   9.356  -8.473  1.00  0.00     0.010 A 
ATOM     36  C   UNL     1      -3.361   8.910  -9.243  1.00  0.00    -0.014 A 
BRANCH  36  37
ATOM     37  C   UNL     1      -4.474   9.843  -9.568  1.00  0.00     0.031 A 
ATOM     38  C   UNL     1      -4.216  11.067 -10.408  1.00  0.00     0.074 A 
ATOM     39  C   UNL     1      -5.700   9.622  -9.052  1.00  0.00     0.049 A 
ATOM     40  N   UNL     1      -5.033  12.037 -10.730  1.00  0.00    -0.248 NA
ATOM     41  C   UNL     1      -2.853  11.234 -10.934  1.00  0.00     0.031 C 
ATOM     42  C   UNL     1      -6.060   8.495  -8.188  1.00  0.00     0.029 A 
ATOM     43  N   UNL     1      -6.866  10.339  -9.161  1.00  0.00    -0.354 N 
ATOM     44  C   UNL     1      -4.280  12.940 -11.474  1.00  0.00     0.074 A 
ATOM     45  C   UNL     1      -2.929  12.421 -11.518  1.00  0.00     0.031 C 
ATOM     46  C   UNL     1      -7.358   8.591  -7.856  1.00  0.00     0.029 A 
ATOM     47  C   UNL     1      -7.913   9.806  -8.443  1.00  0.00     0.049 A 
ATOM     48  H   UNL     1      -6.946  11.157  -9.703  1.00  0.00     0.167 HD
ATOM     49  C   UNL     1      -4.682  14.087 -12.076  1.00  0.00     0.034 A 
ATOM     50  C   UNL     1      -9.171  10.255  -8.261  1.00  0.00     0.034 A 
ATOM     51  C   UNL     1      -6.039  14.577 -12.043  1.00  0.00     0.049 A 
ATOM     52  C   UNL     1      -9.593  11.532  -8.943  1.00  0.00     0.074 A 
ATOM     53  C   UNL     1      -6.571  15.683 -12.685  1.00  0.00     0.029 A 
ATOM     54  N   UNL     1      -7.077  14.001 -11.323  1.00  0.00    -0.354 N 
ATOM     55  N   UNL     1      -8.883  12.337  -9.700  1.00  0.00    -0.248 NA
ATOM     56  C   UNL     1     -10.988  11.953  -8.759  1.00  0.00     0.031 C 
ATOM     57  C   UNL     1      -7.909  15.813 -12.299  1.00  0.00     0.029 A 
ATOM     58  C   UNL     1      -8.236  14.746 -11.477  1.00  0.00     0.049 A 
ATOM     59  H   UNL     1      -7.001  13.181 -10.782  1.00  0.00     0.167 HD
ATOM     60  C   UNL     1      -9.755  13.345 -10.102  1.00  0.00     0.074 A 
ATOM     61  C   UNL     1     -11.045  13.034  -9.523  1.00  0.00     0.031 C 
ATOM     62  C   UNL     1      -9.513  14.429 -10.883  1.00  0.00     0.034 A 
BRANCH  49  63
ATOM     63  C   UNL     1      -3.638  14.906 -12.797  1.00  0.00     0.023 A 
ATOM     64  C   UNL     1      -2.969  14.421 -13.935  1.00  0.00     0.031 A 
ATOM     65  C   UNL     1      -3.308  16.194 -12.340  1.00  0.00     0.131 A 
ATOM     66  C   UNL     1      -1.964  15.193 -14.539  1.00  0.00     0.055 A 
ATOM     67  C   UNL     1      -2.360  16.987 -12.989  1.00  0.00     0.041 A 
ATOM     68  F   UNL     1      -3.900  16.703 -11.248  1.00  0.00    -0.206 F 
ATOM     69  C   UNL     1      -1.673  16.483 -14.089  1.00  0.00     0.022 A 
BRANCH  66  70
ATOM     70  S   UNL     1      -0.962  14.442 -15.851  1.00  0.00     0.124 S 
ATOM     71  O   UNL     1      -0.360  13.310 -15.150  1.00  0.00    -0.237 OA
ATOM     72  O   UNL     1      -1.960  14.111 -16.861  1.00  0.00    -0.237 OA
ATOM     73  O   UNL     1      -0.028  15.504 -16.220  1.00  0.00    -0.744 OA
ENDBRANCH  66  70
ENDBRANCH  49  63
BRANCH  50  74
ATOM     74  C   UNL     1     -10.119   9.515  -7.378  1.00  0.00     0.023 A 
ATOM     75  C   UNL     1     -11.292   8.940  -7.892  1.00  0.00     0.031 A 
ATOM     76  C   UNL     1      -9.891   9.418  -5.994  1.00  0.00     0.131 A 
ATOM     77  C   UNL     1     -12.217   8.339  -7.023  1.00  0.00     0.055 A 
ATOM     78  C   UNL     1     -10.786   8.771  -5.141  1.00  0.00     0.041 A 
ATOM     79  F   UNL     1      -8.782   9.945  -5.449  1.00  0.00    -0.206 F 
ATOM     80  C   UNL     1     -11.966   8.240  -5.652  1.00  0.00     0.022 A 
BRANCH  77  81
ATOM     81  S   UNL     1     -13.803   7.774  -7.698  1.00  0.00     0.124 S 
ATOM     82  O   UNL     1     -14.313   8.991  -8.318  1.00  0.00    -0.237 OA
ATOM     83  O   UNL     1     -13.382   6.716  -8.610  1.00  0.00    -0.237 OA
ATOM     84  O   UNL     1     -14.533   7.321  -6.516  1.00  0.00    -0.744 OA
ENDBRANCH  77  81
ENDBRANCH  50  74
BRANCH  62  85
ATOM     85  C   UNL     1     -10.684  15.331 -11.182  1.00  0.00     0.023 A 
ATOM     86  C   UNL     1     -11.303  16.098 -10.179  1.00  0.00     0.031 A 
ATOM     87  C   UNL     1     -11.197  15.413 -12.489  1.00  0.00     0.131 A 
ATOM     88  C   UNL     1     -12.434  16.868 -10.487  1.00  0.00     0.055 A 
ATOM     89  C   UNL     1     -12.285  16.229 -12.802  1.00  0.00     0.041 A 
ATOM     90  F   UNL     1     -10.646  14.701 -13.486  1.00  0.00    -0.206 F 
ATOM     91  C   UNL     1     -12.918  16.952 -11.795  1.00  0.00     0.022 A 
BRANCH  88  92
ATOM     92  S   UNL     1     -13.322  17.690  -9.136  1.00  0.00     0.124 S 
ATOM     93  O   UNL     1     -13.686  16.563  -8.283  1.00  0.00    -0.237 OA
ATOM     94  O   UNL     1     -12.309  18.594  -8.600  1.00  0.00    -0.237 OA
ATOM     95  O   UNL     1     -14.441  18.345  -9.809  1.00  0.00    -0.744 OA
ENDBRANCH  88  92
ENDBRANCH  62  85
ENDBRANCH  36  37
ENDBRANCH  28  31
ENDBRANCH  26  27
ENDBRANCH   1  26
TORSDOF 16
