REMARK SMILES O=C(NCCCNC(=O)c1ccc(-c2c3nc(c(-c4cc(S(=O)(=O)[O-])ccc4F)c4ccc([nH]4)c(-c4cc(S(=O)(=O)[O-])ccc4F)c4nc(c(-c5cc(S(=O)(=O)[O-])ccc5F)c5ccc2[nH]5)C=C4)C=C3)cc1)C1=Cc2cc(C(F)(F)F)ccc2O[C@@H]1C(F)(F)F
REMARK SMILES IDX 6 1 5 2 4 3 3 4 1 5 2 6 73 8 74 9 86 10 75 11 85 12 76 13
REMARK SMILES IDX 84 14 77 15 83 16 82 17 87 18 88 19 89 20 90 21 78 22 79 23
REMARK SMILES IDX 80 24 81 25 7 26 8 27 9 29 10 30 11 31 72 32 12 33 71 34
REMARK SMILES IDX 13 35 14 36 15 37 65 38 16 39 70 40 64 41 66 42 17 43 69 44
REMARK SMILES IDX 63 45 62 46 18 48 50 49 30 50 49 51 31 52 34 53 48 54 67 55
REMARK SMILES IDX 32 56 33 57 47 59 68 60 35 61 19 62 20 63 28 64 21 65 27 66
REMARK SMILES IDX 29 67 26 68 22 69 23 70 24 71 25 72 51 73 52 74 60 75 53 76
REMARK SMILES IDX 59 77 61 78 58 79 54 80 55 81 56 82 57 83 36 84 37 85 45 86
REMARK SMILES IDX 38 87 44 88 46 89 43 90 39 91 40 92 41 93 42 94
REMARK H PARENT 3 7 7 28 66 47 34 58
REMARK Flexibility Score: inf
ROOT
ATOM      1  C   UNL     1       4.147  -3.923   1.410  1.00  0.00     0.118 C 
ENDROOT
BRANCH   1   2
ATOM      2  C   UNL     1       4.167  -2.407   1.572  1.00  0.00     0.042 C 
BRANCH   2   3
ATOM      3  C   UNL     1       3.401  -1.686   0.470  1.00  0.00     0.118 C 
BRANCH   3   4
ATOM      4  N   UNL     1       2.416  -0.729   0.979  1.00  0.00    -0.352 N 
ATOM      5  O   UNL     1       1.250   1.211   1.067  1.00  0.00    -0.270 OA
ATOM      6  C   UNL     1       2.273   0.618   0.753  1.00  0.00     0.251 C 
ATOM      7  H   UNL     1       1.744  -1.116   1.586  1.00  0.00     0.163 HD
BRANCH   6   8
ATOM      8  C   UNL     1       3.357   1.306   0.027  1.00  0.00     0.067 C 
ATOM      9  C   UNL     1       4.537   1.490   0.633  1.00  0.00     0.025 C 
ATOM     10  C   UNL     1       3.196   1.450  -1.454  1.00  0.00     0.314 C 
ATOM     11  C   UNL     1       5.637   0.934  -0.171  1.00  0.00     0.018 A 
ATOM     12  O   UNL     1       4.262   0.812  -2.200  1.00  0.00    -0.475 OA
ATOM     13  C   UNL     1       6.745   0.427   0.520  1.00  0.00     0.025 A 
ATOM     14  C   UNL     1       5.412   0.531  -1.501  1.00  0.00     0.128 A 
ATOM     15  C   UNL     1       7.573  -0.544  -0.070  1.00  0.00     0.056 A 
ATOM     16  C   UNL     1       6.272  -0.377  -2.117  1.00  0.00     0.048 A 
ATOM     17  C   UNL     1       7.332  -0.930  -1.397  1.00  0.00     0.017 A 
BRANCH  10  18
ATOM     18  C   UNL     1       3.087   2.935  -1.837  1.00  0.00     0.429 C 
ATOM     19  F   UNL     1       2.789   3.080  -3.152  1.00  0.00    -0.167 F 
ATOM     20  F   UNL     1       2.110   3.568  -1.146  1.00  0.00    -0.167 F 
ATOM     21  F   UNL     1       4.239   3.613  -1.614  1.00  0.00    -0.167 F 
ENDBRANCH  10  18
BRANCH  15  22
ATOM     22  C   UNL     1       8.664  -1.200   0.744  1.00  0.00     0.416 C 
ATOM     23  F   UNL     1       9.786  -0.436   0.807  1.00  0.00    -0.166 F 
ATOM     24  F   UNL     1       8.285  -1.425   2.034  1.00  0.00    -0.166 F 
ATOM     25  F   UNL     1       9.050  -2.409   0.254  1.00  0.00    -0.166 F 
ENDBRANCH  15  22
ENDBRANCH   6   8
ENDBRANCH   3   4
ENDBRANCH   2   3
ENDBRANCH   1   2
BRANCH   1  26
ATOM     26  N   UNL     1       4.792  -4.405   0.195  1.00  0.00    -0.352 N 
ATOM     27  C   UNL     1       5.643  -5.478  -0.003  1.00  0.00     0.251 C 
ATOM     28  H   UNL     1       4.589  -3.884  -0.615  1.00  0.00     0.163 HD
ATOM     29  O   UNL     1       6.116  -5.660  -1.111  1.00  0.00    -0.269 OA
BRANCH  27  30
ATOM     30  C   UNL     1       6.018  -6.362   1.133  1.00  0.00     0.039 A 
ATOM     31  C   UNL     1       7.325  -6.855   1.204  1.00  0.00     0.014 A 
ATOM     32  C   UNL     1       5.110  -6.682   2.140  1.00  0.00     0.014 A 
ATOM     33  C   UNL     1       7.733  -7.584   2.326  1.00  0.00     0.010 A 
ATOM     34  C   UNL     1       5.555  -7.278   3.314  1.00  0.00     0.010 A 
ATOM     35  C   UNL     1       6.868  -7.755   3.419  1.00  0.00    -0.014 A 
BRANCH  35  36
ATOM     36  C   UNL     1       7.303  -8.448   4.663  1.00  0.00     0.031 A 
ATOM     37  C   UNL     1       6.538  -9.649   5.166  1.00  0.00     0.074 A 
ATOM     38  C   UNL     1       8.336  -7.956   5.378  1.00  0.00     0.049 A 
ATOM     39  N   UNL     1       6.708 -10.344   6.262  1.00  0.00    -0.248 NA
ATOM     40  C   UNL     1       5.394 -10.093   4.354  1.00  0.00     0.031 C 
ATOM     41  C   UNL     1       9.101  -6.751   5.045  1.00  0.00     0.029 A 
ATOM     42  N   UNL     1       8.925  -8.407   6.532  1.00  0.00    -0.354 N 
ATOM     43  C   UNL     1       5.677 -11.279   6.282  1.00  0.00     0.074 A 
ATOM     44  C   UNL     1       4.837 -11.000   5.140  1.00  0.00     0.031 C 
ATOM     45  C   UNL     1      10.090  -6.593   5.939  1.00  0.00     0.029 A 
ATOM     46  C   UNL     1      10.006  -7.655   6.934  1.00  0.00     0.049 A 
ATOM     47  H   UNL     1       8.605  -9.196   7.027  1.00  0.00     0.167 HD
ATOM     48  C   UNL     1       5.471 -12.304   7.147  1.00  0.00     0.034 A 
ATOM     49  C   UNL     1      10.837  -7.809   7.983  1.00  0.00     0.034 A 
ATOM     50  C   UNL     1       6.348 -12.593   8.256  1.00  0.00     0.049 A 
ATOM     51  C   UNL     1      10.621  -8.983   8.904  1.00  0.00     0.074 A 
ATOM     52  C   UNL     1       6.282 -13.637   9.161  1.00  0.00     0.029 A 
ATOM     53  N   UNL     1       7.459 -11.834   8.605  1.00  0.00    -0.354 N 
ATOM     54  N   UNL     1       9.678  -9.897   8.872  1.00  0.00    -0.248 NA
ATOM     55  C   UNL     1      11.596  -9.159   9.985  1.00  0.00     0.031 C 
ATOM     56  C   UNL     1       7.317 -13.478  10.090  1.00  0.00     0.029 A 
ATOM     57  C   UNL     1       8.076 -12.377   9.722  1.00  0.00     0.049 A 
ATOM     58  H   UNL     1       7.763 -11.028   8.130  1.00  0.00     0.167 HD
ATOM     59  C   UNL     1       9.965 -10.773   9.915  1.00  0.00     0.074 A 
ATOM     60  C   UNL     1      11.185 -10.292  10.532  1.00  0.00     0.031 C 
ATOM     61  C   UNL     1       9.285 -11.873  10.331  1.00  0.00     0.034 A 
BRANCH  48  62
ATOM     62  C   UNL     1       4.251 -13.170   6.922  1.00  0.00     0.023 A 
ATOM     63  C   UNL     1       4.068 -13.894   5.729  1.00  0.00     0.031 A 
ATOM     64  C   UNL     1       3.232 -13.238   7.888  1.00  0.00     0.131 A 
ATOM     65  C   UNL     1       2.861 -14.570   5.493  1.00  0.00     0.055 A 
ATOM     66  C   UNL     1       2.073 -13.991   7.686  1.00  0.00     0.041 A 
ATOM     67  F   UNL     1       3.334 -12.555   9.039  1.00  0.00    -0.206 F 
ATOM     68  C   UNL     1       1.873 -14.647   6.475  1.00  0.00     0.022 A 
BRANCH  65  69
ATOM     69  S   UNL     1       2.536 -15.202   3.824  1.00  0.00     0.124 S 
ATOM     70  O   UNL     1       2.602 -13.977   3.028  1.00  0.00    -0.237 OA
ATOM     71  O   UNL     1       3.626 -16.150   3.627  1.00  0.00    -0.237 OA
ATOM     72  O   UNL     1       1.204 -15.793   3.934  1.00  0.00    -0.744 OA
ENDBRANCH  65  69
ENDBRANCH  48  62
BRANCH  49  73
ATOM     73  C   UNL     1      11.962  -6.855   8.210  1.00  0.00     0.023 A 
ATOM     74  C   UNL     1      13.299  -7.280   8.125  1.00  0.00     0.031 A 
ATOM     75  C   UNL     1      11.720  -5.513   8.553  1.00  0.00     0.131 A 
ATOM     76  C   UNL     1      14.340  -6.389   8.431  1.00  0.00     0.055 A 
ATOM     77  C   UNL     1      12.761  -4.616   8.803  1.00  0.00     0.041 A 
ATOM     78  F   UNL     1      10.463  -5.050   8.639  1.00  0.00    -0.206 F 
ATOM     79  C   UNL     1      14.080  -5.057   8.757  1.00  0.00     0.022 A 
BRANCH  76  80
ATOM     80  S   UNL     1      16.039  -7.023   8.480  1.00  0.00     0.124 S 
ATOM     81  O   UNL     1      15.931  -8.089   9.469  1.00  0.00    -0.237 OA
ATOM     82  O   UNL     1      16.244  -7.447   7.099  1.00  0.00    -0.237 OA
ATOM     83  O   UNL     1      16.823  -5.862   8.896  1.00  0.00    -0.744 OA
ENDBRANCH  76  80
ENDBRANCH  49  73
BRANCH  61  84
ATOM     84  C   UNL     1       9.882 -12.642  11.484  1.00  0.00     0.023 A 
ATOM     85  C   UNL     1      10.009 -12.071  12.762  1.00  0.00     0.031 A 
ATOM     86  C   UNL     1      10.375 -13.944  11.289  1.00  0.00     0.131 A 
ATOM     87  C   UNL     1      10.692 -12.765  13.772  1.00  0.00     0.055 A 
ATOM     88  C   UNL     1      10.986 -14.660  12.319  1.00  0.00     0.041 A 
ATOM     89  F   UNL     1      10.280 -14.540  10.089  1.00  0.00    -0.206 F 
ATOM     90  C   UNL     1      11.167 -14.062  13.564  1.00  0.00     0.022 A 
BRANCH  87  91
ATOM     91  S   UNL     1      11.076 -11.891  15.314  1.00  0.00     0.124 S 
ATOM     92  O   UNL     1      11.783 -10.711  14.826  1.00  0.00    -0.237 OA
ATOM     93  O   UNL     1       9.750 -11.654  15.875  1.00  0.00    -0.237 OA
ATOM     94  O   UNL     1      11.900 -12.847  16.052  1.00  0.00    -0.744 OA
ENDBRANCH  87  91
ENDBRANCH  61  84
ENDBRANCH  35  36
ENDBRANCH  27  30
ENDBRANCH   1  26
TORSDOF 15
