REMARK SMILES Cc1c(C(=O)Nc2ccc(C(=O)Nc3ccccc3C(=O)NCCCNC(=O)c3ccc(-c4c5nc(c(-c6cc(S(=O)(=O)[O-])ccc6F)c6ccc([nH]6)c(-c6cc(S(=O)(=O)[O-])ccc6F)c6nc(c(-c7cc(S(=O)(=O)[O-])ccc7F)c7ccc4[nH]7)C=C6)C=C5)cc3)cc2)cccc1[N+](=O)[O-]
REMARK SMILES IDX 23 1 22 2 20 3 21 4 19 6 14 7 15 8 16 9 18 10 17 11 13 12
REMARK SMILES IDX 11 13 12 14 10 16 7 17 8 18 93 19 9 20 92 21 6 22 4 23 5 24
REMARK SMILES IDX 3 26 1 27 2 28 97 29 94 30 96 31 95 32 98 33 99 34 100 35
REMARK SMILES IDX 24 36 25 37 26 38 27 39 28 41 29 42 30 43 91 44 31 45 90 46
REMARK SMILES IDX 32 47 33 48 34 49 84 50 35 51 89 52 83 53 85 54 36 55 88 56
REMARK SMILES IDX 82 57 81 58 37 60 69 61 49 62 68 63 50 64 53 65 67 66 86 67
REMARK SMILES IDX 51 68 52 69 66 71 87 72 54 73 38 74 39 75 47 76 40 77 46 78
REMARK SMILES IDX 48 79 45 80 41 81 42 82 43 83 44 84 70 85 71 86 79 87 72 88
REMARK SMILES IDX 78 89 80 90 77 91 73 92 74 93 75 94 76 95 55 96 56 97 64 98
REMARK SMILES IDX 57 99 63 100 65 101 62 102 58 103 59 104 60 105 61 106
REMARK H PARENT 22 5 13 15 6 25 26 40 85 59 53 70
REMARK Flexibility Score: inf
ROOT
ATOM      1  C   UNL     1       3.274   0.166   4.979  1.00  0.00     0.118 C 
ENDROOT
BRANCH   1   2
ATOM      2  N   UNL     1       4.558   0.522   4.375  1.00  0.00    -0.352 N 
ATOM      3  C   UNL     1       5.001   1.621   3.664  1.00  0.00     0.253 C 
ATOM      4  O   UNL     1       6.165   1.665   3.270  1.00  0.00    -0.269 OA
ATOM      5  H   UNL     1       5.252  -0.165   4.503  1.00  0.00     0.163 HD
BRANCH   3   6
ATOM      6  C   UNL     1       4.109   2.780   3.355  1.00  0.00     0.063 A 
ATOM      7  C   UNL     1       4.181   3.522   2.152  1.00  0.00     0.054 A 
ATOM      8  C   UNL     1       3.322   4.625   1.970  1.00  0.00     0.027 A 
ATOM      9  C   UNL     1       2.377   4.975   2.931  1.00  0.00     0.002 A 
ATOM     10  C   UNL     1       3.252   3.252   4.365  1.00  0.00     0.016 A 
ATOM     11  C   UNL     1       2.354   4.298   4.140  1.00  0.00     0.001 A 
BRANCH   7  12
ATOM     12  N   UNL     1       5.043   3.303   1.059  1.00  0.00    -0.321 N 
ATOM     13  C   UNL     1       5.495   2.175   0.415  1.00  0.00     0.255 C 
ATOM     14  O   UNL     1       6.425   2.306  -0.387  1.00  0.00    -0.269 OA
ATOM     15  H   UNL     1       5.397   4.136   0.674  1.00  0.00     0.170 HD
BRANCH  13  16
ATOM     16  C   UNL     1       4.749   0.884   0.434  1.00  0.00     0.040 A 
ATOM     17  C   UNL     1       3.208  -1.415  -0.088  1.00  0.00     0.041 A 
ATOM     18  C   UNL     1       2.700  -0.380   0.684  1.00  0.00     0.027 A 
ATOM     19  C   UNL     1       4.557  -1.382  -0.446  1.00  0.00     0.027 A 
ATOM     20  C   UNL     1       3.431   0.788   0.871  1.00  0.00     0.016 A 
ATOM     21  C   UNL     1       5.324  -0.235  -0.186  1.00  0.00     0.016 A 
BRANCH  17  22
ATOM     22  N   UNL     1       2.393  -2.431  -0.618  1.00  0.00    -0.322 N 
ATOM     23  C   UNL     1       1.029  -2.463  -0.856  1.00  0.00     0.256 C 
ATOM     24  O   UNL     1       0.494  -3.503  -1.241  1.00  0.00    -0.269 OA
ATOM     25  H   UNL     1       2.872  -3.257  -0.860  1.00  0.00     0.170 HD
BRANCH  23  26
ATOM     26  C   UNL     1       0.158  -1.266  -0.670  1.00  0.00     0.049 A 
ATOM     27  C   UNL     1       1.416   0.168  -2.359  1.00  0.00     0.053 C 
ATOM     28  C   UNL     1       0.401  -0.003  -1.259  1.00  0.00     0.039 A 
ATOM     29  C   UNL     1      -0.337   1.089  -0.750  1.00  0.00     0.273 A 
ATOM     30  C   UNL     1      -0.933  -1.448   0.202  1.00  0.00     0.014 A 
ATOM     31  C   UNL     1      -1.407   0.909   0.145  1.00  0.00     0.086 A 
ATOM     32  C   UNL     1      -1.730  -0.370   0.584  1.00  0.00     0.008 A 
BRANCH  29  33
ATOM     33  N   UNL     1       0.040   2.474  -1.050  1.00  0.00     0.063 N 
ATOM     34  O   UNL     1      -0.879   3.288  -1.225  1.00  0.00    -0.258 OA
ATOM     35  O   UNL     1       1.245   2.757  -1.052  1.00  0.00    -0.258 OA
ENDBRANCH  29  33
ENDBRANCH  23  26
ENDBRANCH  17  22
ENDBRANCH  13  16
ENDBRANCH   7  12
ENDBRANCH   3   6
ENDBRANCH   1   2
BRANCH   1  36
ATOM     36  C   UNL     1       2.575  -1.023   4.338  1.00  0.00     0.042 C 
BRANCH  36  37
ATOM     37  C   UNL     1       3.193  -2.382   4.627  1.00  0.00     0.118 C 
BRANCH  37  38
ATOM     38  N   UNL     1       2.468  -3.090   5.687  1.00  0.00    -0.352 N 
ATOM     39  C   UNL     1       2.272  -4.447   5.884  1.00  0.00     0.251 C 
ATOM     40  H   UNL     1       2.056  -2.509   6.366  1.00  0.00     0.163 HD
ATOM     41  O   UNL     1       1.601  -4.883   6.800  1.00  0.00    -0.269 OA
BRANCH  39  42
ATOM     42  C   UNL     1       3.045  -5.376   5.033  1.00  0.00     0.039 A 
ATOM     43  C   UNL     1       4.042  -6.116   5.676  1.00  0.00     0.014 A 
ATOM     44  C   UNL     1       2.997  -5.275   3.647  1.00  0.00     0.014 A 
ATOM     45  C   UNL     1       5.142  -6.541   4.942  1.00  0.00     0.010 A 
ATOM     46  C   UNL     1       4.128  -5.623   2.932  1.00  0.00     0.010 A 
ATOM     47  C   UNL     1       5.226  -6.187   3.595  1.00  0.00    -0.014 A 
BRANCH  47  48
ATOM     48  C   UNL     1       6.484  -6.253   2.860  1.00  0.00     0.031 A 
ATOM     49  C   UNL     1       6.743  -7.365   1.932  1.00  0.00     0.074 A 
ATOM     50  C   UNL     1       7.444  -5.326   3.063  1.00  0.00     0.049 A 
ATOM     51  N   UNL     1       7.910  -7.867   1.708  1.00  0.00    -0.248 NA
ATOM     52  C   UNL     1       5.672  -8.036   1.209  1.00  0.00     0.031 C 
ATOM     53  C   UNL     1       8.692  -5.161   2.321  1.00  0.00     0.029 A 
ATOM     54  N   UNL     1       7.595  -4.515   4.185  1.00  0.00    -0.354 N 
ATOM     55  C   UNL     1       7.797  -8.704   0.625  1.00  0.00     0.074 A 
ATOM     56  C   UNL     1       6.374  -8.834   0.400  1.00  0.00     0.031 C 
ATOM     57  C   UNL     1       9.582  -4.540   3.110  1.00  0.00     0.029 A 
ATOM     58  C   UNL     1       8.976  -4.396   4.421  1.00  0.00     0.049 A 
ATOM     59  H   UNL     1       6.872  -4.103   4.712  1.00  0.00     0.167 HD
ATOM     60  C   UNL     1       8.913  -9.078  -0.063  1.00  0.00     0.034 A 
ATOM     61  C   UNL     1       9.527  -4.796   5.602  1.00  0.00     0.034 A 
ATOM     62  C   UNL     1      10.133  -8.534   0.533  1.00  0.00     0.049 A 
ATOM     63  C   UNL     1      10.595  -5.858   5.439  1.00  0.00     0.074 A 
ATOM     64  C   UNL     1      10.943  -7.458   0.203  1.00  0.00     0.029 A 
ATOM     65  N   UNL     1      10.528  -8.941   1.803  1.00  0.00    -0.354 N 
ATOM     66  N   UNL     1      10.761  -6.581   4.364  1.00  0.00    -0.248 NA
ATOM     67  C   UNL     1      11.546  -6.200   6.489  1.00  0.00     0.031 C 
ATOM     68  C   UNL     1      11.808  -7.202   1.298  1.00  0.00     0.029 A 
ATOM     69  C   UNL     1      11.543  -8.135   2.286  1.00  0.00     0.049 A 
ATOM     70  H   UNL     1      10.138  -9.701   2.292  1.00  0.00     0.167 HD
ATOM     71  C   UNL     1      11.788  -7.476   4.559  1.00  0.00     0.074 A 
ATOM     72  C   UNL     1      12.258  -7.176   5.901  1.00  0.00     0.031 C 
ATOM     73  C   UNL     1      12.142  -8.385   3.594  1.00  0.00     0.034 A 
BRANCH  60  74
ATOM     74  C   UNL     1       8.845  -9.652  -1.460  1.00  0.00     0.023 A 
ATOM     75  C   UNL     1       9.842  -9.321  -2.401  1.00  0.00     0.031 A 
ATOM     76  C   UNL     1       7.808 -10.473  -1.942  1.00  0.00     0.131 A 
ATOM     77  C   UNL     1       9.719  -9.680  -3.756  1.00  0.00     0.055 A 
ATOM     78  C   UNL     1       7.645 -10.771  -3.301  1.00  0.00     0.041 A 
ATOM     79  F   UNL     1       6.933 -11.053  -1.107  1.00  0.00    -0.206 F 
ATOM     80  C   UNL     1       8.595 -10.357  -4.222  1.00  0.00     0.022 A 
BRANCH  77  81
ATOM     81  S   UNL     1      11.058  -9.259  -4.905  1.00  0.00     0.124 S 
ATOM     82  O   UNL     1      11.142  -7.809  -4.769  1.00  0.00    -0.237 OA
ATOM     83  O   UNL     1      12.176 -10.025  -4.366  1.00  0.00    -0.237 OA
ATOM     84  O   UNL     1      10.556  -9.728  -6.196  1.00  0.00    -0.744 OA
ENDBRANCH  77  81
ENDBRANCH  60  74
BRANCH  61  85
ATOM     85  C   UNL     1       8.599  -4.659   6.765  1.00  0.00     0.023 A 
ATOM     86  C   UNL     1       8.013  -3.390   6.983  1.00  0.00     0.031 A 
ATOM     87  C   UNL     1       8.007  -5.765   7.385  1.00  0.00     0.131 A 
ATOM     88  C   UNL     1       6.779  -3.278   7.641  1.00  0.00     0.055 A 
ATOM     89  C   UNL     1       6.816  -5.637   8.113  1.00  0.00     0.041 A 
ATOM     90  F   UNL     1       8.497  -6.999   7.200  1.00  0.00    -0.206 F 
ATOM     91  C   UNL     1       6.172  -4.400   8.204  1.00  0.00     0.022 A 
BRANCH  88  92
ATOM     92  S   UNL     1       5.867  -1.709   7.502  1.00  0.00     0.124 S 
ATOM     93  O   UNL     1       6.484  -0.897   8.543  1.00  0.00    -0.237 OA
ATOM     94  O   UNL     1       6.135  -1.294   6.124  1.00  0.00    -0.237 OA
ATOM     95  O   UNL     1       4.473  -2.081   7.742  1.00  0.00    -0.744 OA
ENDBRANCH  88  92
ENDBRANCH  61  85
BRANCH  73  96
ATOM     96  C   UNL     1      13.132  -9.538   3.729  1.00  0.00     0.023 A 
ATOM     97  C   UNL     1      13.753  -9.912   4.930  1.00  0.00     0.031 A 
ATOM     98  C   UNL     1      13.456 -10.357   2.614  1.00  0.00     0.131 A 
ATOM     99  C   UNL     1      14.673 -10.980   4.989  1.00  0.00     0.055 A 
ATOM    100  C   UNL     1      14.324 -11.454   2.684  1.00  0.00     0.041 A 
ATOM    101  F   UNL     1      12.935 -10.142   1.397  1.00  0.00    -0.206 F 
ATOM    102  C   UNL     1      14.950 -11.766   3.877  1.00  0.00     0.022 A 
BRANCH  99 103
ATOM    103  S   UNL     1      15.532 -11.290   6.556  1.00  0.00     0.124 S 
ATOM    104  O   UNL     1      16.285 -10.052   6.737  1.00  0.00    -0.237 OA
ATOM    105  O   UNL     1      14.424 -11.497   7.483  1.00  0.00    -0.237 OA
ATOM    106  O   UNL     1      16.340 -12.475   6.280  1.00  0.00    -0.744 OA
ENDBRANCH  99 103
ENDBRANCH  73  96
ENDBRANCH  47  48
ENDBRANCH  39  42
ENDBRANCH  37  38
ENDBRANCH  36  37
ENDBRANCH   1  36
TORSDOF 18
