REMARK SMILES C[C@H]1[NH2+]CC[C@H]1C(=O)N1CCC(C(=O)NCCCNC(=O)c2ccc(-c3c4nc(c(-c5cc(S(=O)(=O)[O-])ccc5F)c5ccc([nH]5)c(-c5cc(S(=O)(=O)[O-])ccc5F)c5nc(c(-c6cc(S(=O)(=O)[O-])ccc6F)c6ccc3[nH]6)C=C5)C=C4)cc2)CC1
REMARK SMILES IDX 18 1 17 2 16 3 15 4 13 5 14 6 12 8 7 9 8 10 9 11 10 12 86 13
REMARK SMILES IDX 11 14 85 15 6 16 1 17 2 18 3 19 4 20 5 23 19 24 20 25 21 27
REMARK SMILES IDX 22 28 23 29 84 30 24 31 83 32 25 33 26 34 27 35 77 36 28 37
REMARK SMILES IDX 82 38 76 39 78 40 29 41 81 42 75 43 74 44 30 46 62 47 42 48
REMARK SMILES IDX 61 49 43 50 46 51 60 52 79 53 44 54 45 55 59 57 80 58 47 59
REMARK SMILES IDX 31 60 32 61 40 62 33 63 39 64 41 65 38 66 34 67 35 68 36 69
REMARK SMILES IDX 37 70 63 71 64 72 72 73 65 74 71 75 73 76 70 77 66 78 67 79
REMARK SMILES IDX 68 80 69 81 48 82 49 83 57 84 50 85 56 86 58 87 55 88 51 89
REMARK SMILES IDX 52 90 53 91 54 92
REMARK H PARENT 15 7 3 21 3 22 19 26 78 45 46 56
REMARK Flexibility Score: inf
ROOT
ATOM      1  C   UNL     1       5.155   7.361  -0.597  1.00  0.00     0.118 C 
ENDROOT
BRANCH   1   2
ATOM      2  C   UNL     1       4.064   6.321  -0.392  1.00  0.00     0.042 C 
BRANCH   2   3
ATOM      3  C   UNL     1       4.582   5.003   0.168  1.00  0.00     0.117 C 
BRANCH   3   4
ATOM      4  N   UNL     1       5.121   5.161   1.512  1.00  0.00    -0.356 N 
ATOM      5  C   UNL     1       4.652   4.748   2.720  1.00  0.00     0.223 C 
ATOM      6  O   UNL     1       5.297   5.054   3.726  1.00  0.00    -0.275 OA
ATOM      7  H   UNL     1       5.974   5.652   1.554  1.00  0.00     0.163 HD
BRANCH   5   8
ATOM      8  C   UNL     1       3.413   3.875   2.842  1.00  0.00     0.082 C 
ATOM      9  C   UNL     1       1.095   2.227   0.149  1.00  0.00     0.231 C 
ATOM     10  O   UNL     1       1.519   3.057  -0.656  1.00  0.00    -0.274 OA
ATOM     11  N   UNL     1       1.341   2.356   1.509  1.00  0.00    -0.342 N 
ATOM     12  C   UNL     1       0.965   3.594   2.179  1.00  0.00     0.120 C 
ATOM     13  C   UNL     1       2.441   1.650   2.134  1.00  0.00     0.120 C 
ATOM     14  C   UNL     1       2.133   4.560   2.348  1.00  0.00     0.035 C 
ATOM     15  C   UNL     1       3.692   2.504   2.224  1.00  0.00     0.035 C 
BRANCH   9  16
ATOM     16  C   UNL     1       0.140   1.109  -0.293  1.00  0.00     0.142 C 
ATOM     17  C   UNL     1       1.790  -0.907   0.100  1.00  0.00     0.076 C 
ATOM     18  C   UNL     1       0.646  -0.282  -0.683  1.00  0.00     0.192 C 
ATOM     19  N   UNL     1      -0.533  -1.170  -0.564  1.00  0.00    -0.343 N 
ATOM     20  C   UNL     1      -1.566  -0.489   0.215  1.00  0.00     0.261 C 
ATOM     21  H   UNL     1      -0.264  -2.034  -0.094  1.00  0.00     0.346 HD
ATOM     22  H   UNL     1      -0.892  -1.391  -1.493  1.00  0.00     0.346 HD
ATOM     23  C   UNL     1      -0.994   0.834   0.680  1.00  0.00     0.081 C 
ENDBRANCH   9  16
ENDBRANCH   5   8
ENDBRANCH   3   4
ENDBRANCH   2   3
ENDBRANCH   1   2
BRANCH   1  24
ATOM     24  N   UNL     1       6.135   6.954  -1.594  1.00  0.00    -0.352 N 
ATOM     25  C   UNL     1       6.450   7.529  -2.799  1.00  0.00     0.251 C 
ATOM     26  H   UNL     1       6.648   6.144  -1.370  1.00  0.00     0.163 HD
ATOM     27  O   UNL     1       7.158   6.913  -3.596  1.00  0.00    -0.269 OA
BRANCH  25  28
ATOM     28  C   UNL     1       5.922   8.865  -3.145  1.00  0.00     0.039 A 
ATOM     29  C   UNL     1       5.446   9.092  -4.438  1.00  0.00     0.014 A 
ATOM     30  C   UNL     1       5.886   9.890  -2.196  1.00  0.00     0.014 A 
ATOM     31  C   UNL     1       4.866  10.322  -4.754  1.00  0.00     0.010 A 
ATOM     32  C   UNL     1       5.221  11.078  -2.483  1.00  0.00     0.010 A 
ATOM     33  C   UNL     1       4.705  11.309  -3.767  1.00  0.00    -0.014 A 
BRANCH  33  34
ATOM     34  C   UNL     1       3.994  12.582  -4.056  1.00  0.00     0.031 A 
ATOM     35  C   UNL     1       4.714  13.897  -3.925  1.00  0.00     0.074 A 
ATOM     36  C   UNL     1       2.685  12.554  -4.377  1.00  0.00     0.049 A 
ATOM     37  N   UNL     1       4.250  15.112  -4.068  1.00  0.00    -0.248 NA
ATOM     38  C   UNL     1       6.137  13.838  -3.556  1.00  0.00     0.031 C 
ATOM     39  C   UNL     1       1.869  11.342  -4.492  1.00  0.00     0.029 A 
ATOM     40  N   UNL     1       1.806  13.569  -4.661  1.00  0.00    -0.354 N 
ATOM     41  C   UNL     1       5.318  15.961  -3.796  1.00  0.00     0.074 A 
ATOM     42  C   UNL     1       6.433  15.121  -3.414  1.00  0.00     0.031 C 
ATOM     43  C   UNL     1       0.623  11.682  -4.853  1.00  0.00     0.029 A 
ATOM     44  C   UNL     1       0.530  13.136  -4.940  1.00  0.00     0.049 A 
ATOM     45  H   UNL     1       2.065  14.519  -4.664  1.00  0.00     0.167 HD
ATOM     46  C   UNL     1       5.370  17.313  -3.881  1.00  0.00     0.034 A 
ATOM     47  C   UNL     1      -0.592  13.829  -5.219  1.00  0.00     0.034 A 
ATOM     48  C   UNL     1       4.248  18.133  -4.270  1.00  0.00     0.049 A 
ATOM     49  C   UNL     1      -0.519  15.335  -5.269  1.00  0.00     0.074 A 
ATOM     50  C   UNL     1       4.204  19.505  -4.444  1.00  0.00     0.029 A 
ATOM     51  N   UNL     1       2.967  17.660  -4.533  1.00  0.00    -0.354 N 
ATOM     52  N   UNL     1       0.515  16.120  -5.065  1.00  0.00    -0.248 NA
ATOM     53  C   UNL     1      -1.760  16.047  -5.595  1.00  0.00     0.031 C 
ATOM     54  C   UNL     1       2.884  19.869  -4.728  1.00  0.00     0.029 A 
ATOM     55  C   UNL     1       2.119  18.718  -4.826  1.00  0.00     0.049 A 
ATOM     56  H   UNL     1       2.701  16.712  -4.514  1.00  0.00     0.167 HD
ATOM     57  C   UNL     1       0.051  17.417  -5.268  1.00  0.00     0.074 A 
ATOM     58  C   UNL     1      -1.347  17.305  -5.630  1.00  0.00     0.031 C 
ATOM     59  C   UNL     1       0.721  18.594  -5.169  1.00  0.00     0.034 A 
BRANCH  46  60
ATOM     60  C   UNL     1       6.674  17.986  -3.518  1.00  0.00     0.023 A 
ATOM     61  C   UNL     1       7.859  17.741  -4.235  1.00  0.00     0.031 A 
ATOM     62  C   UNL     1       6.739  18.873  -2.428  1.00  0.00     0.131 A 
ATOM     63  C   UNL     1       9.068  18.311  -3.808  1.00  0.00     0.055 A 
ATOM     64  C   UNL     1       7.928  19.506  -2.063  1.00  0.00     0.041 A 
ATOM     65  F   UNL     1       5.647  19.130  -1.690  1.00  0.00    -0.206 F 
ATOM     66  C   UNL     1       9.106  19.215  -2.744  1.00  0.00     0.022 A 
BRANCH  63  67
ATOM     67  S   UNL     1      10.611  17.738  -4.569  1.00  0.00     0.124 S 
ATOM     68  O   UNL     1      10.562  16.304  -4.292  1.00  0.00    -0.237 OA
ATOM     69  O   UNL     1      10.439  18.125  -5.964  1.00  0.00    -0.237 OA
ATOM     70  O   UNL     1      11.645  18.470  -3.840  1.00  0.00    -0.744 OA
ENDBRANCH  63  67
ENDBRANCH  46  60
BRANCH  47  71
ATOM     71  C   UNL     1      -1.883  13.119  -5.454  1.00  0.00     0.023 A 
ATOM     72  C   UNL     1      -2.541  13.201  -6.691  1.00  0.00     0.031 A 
ATOM     73  C   UNL     1      -2.501  12.381  -4.428  1.00  0.00     0.131 A 
ATOM     74  C   UNL     1      -3.800  12.602  -6.856  1.00  0.00     0.055 A 
ATOM     75  C   UNL     1      -3.723  11.734  -4.616  1.00  0.00     0.041 A 
ATOM     76  F   UNL     1      -1.916  12.268  -3.224  1.00  0.00    -0.206 F 
ATOM     77  C   UNL     1      -4.387  11.854  -5.832  1.00  0.00     0.022 A 
BRANCH  74  78
ATOM     78  S   UNL     1      -4.707  12.896  -8.399  1.00  0.00     0.124 S 
ATOM     79  O   UNL     1      -4.797  14.351  -8.416  1.00  0.00    -0.237 OA
ATOM     80  O   UNL     1      -3.821  12.295  -9.390  1.00  0.00    -0.237 OA
ATOM     81  O   UNL     1      -5.971  12.194  -8.189  1.00  0.00    -0.744 OA
ENDBRANCH  74  78
ENDBRANCH  47  71
BRANCH  59  82
ATOM     82  C   UNL     1      -0.048  19.852  -5.498  1.00  0.00     0.023 A 
ATOM     83  C   UNL     1      -1.133  20.284  -4.716  1.00  0.00     0.031 A 
ATOM     84  C   UNL     1       0.305  20.623  -6.620  1.00  0.00     0.131 A 
ATOM     85  C   UNL     1      -1.865  21.418  -5.100  1.00  0.00     0.055 A 
ATOM     86  C   UNL     1      -0.382  21.790  -6.957  1.00  0.00     0.041 A 
ATOM     87  F   UNL     1       1.329  20.257  -7.407  1.00  0.00    -0.206 F 
ATOM     88  C   UNL     1      -1.484  22.185  -6.204  1.00  0.00     0.022 A 
BRANCH  85  89
ATOM     89  S   UNL     1      -3.387  21.818  -4.199  1.00  0.00     0.124 S 
ATOM     90  O   UNL     1      -4.171  20.600  -4.374  1.00  0.00    -0.237 OA
ATOM     91  O   UNL     1      -2.894  22.071  -2.849  1.00  0.00    -0.237 OA
ATOM     92  O   UNL     1      -3.902  22.993  -4.900  1.00  0.00    -0.744 OA
ENDBRANCH  85  89
ENDBRANCH  59  82
ENDBRANCH  33  34
ENDBRANCH  25  28
ENDBRANCH   1  24
TORSDOF 14
