REMARK SMILES C[C@@H](C(=O)NCCCNC(=O)c1ccc(-c2c3nc(c(-c4cc(S(=O)(=O)[O-])ccc4F)c4ccc([nH]4)c(-c4cc(S(=O)(=O)[O-])ccc4F)c4nc(c(-c5cc(S(=O)(=O)[O-])ccc5F)c5ccc2[nH]5)C=C4)C=C3)cc1)c1ccc(C[SiH](C)C)cc1
REMARK SMILES IDX 7 1 6 2 5 3 3 4 4 5 2 7 1 8 75 9 76 10 84 11 77 12 83 13
REMARK SMILES IDX 78 14 79 15 80 16 81 17 82 18 8 20 9 21 10 22 11 24 12 25
REMARK SMILES IDX 13 26 74 27 14 28 73 29 15 30 16 31 17 32 67 33 18 34 72 35
REMARK SMILES IDX 66 36 68 37 19 38 71 39 65 40 64 41 20 43 52 44 32 45 51 46
REMARK SMILES IDX 33 47 36 48 50 49 69 50 34 51 35 52 49 54 70 55 37 56 21 57
REMARK SMILES IDX 22 58 30 59 23 60 29 61 31 62 28 63 24 64 25 65 26 66 27 67
REMARK SMILES IDX 53 68 54 69 62 70 55 71 61 72 63 73 60 74 56 75 57 76 58 77
REMARK SMILES IDX 59 78 38 79 39 80 47 81 40 82 46 83 48 84 45 85 41 86 42 87
REMARK SMILES IDX 43 88 44 89
REMARK H PARENT 5 6 80 19 9 23 68 42 36 53
REMARK Flexibility Score: inf
ROOT
ATOM      1  C   UNL     1       4.378   0.301   1.294  1.00  0.00     0.042 C 
ENDROOT
BRANCH   1   2
ATOM      2  C   UNL     1       3.503  -0.750   1.970  1.00  0.00     0.117 C 
BRANCH   2   3
ATOM      3  N   UNL     1       2.438  -0.139   2.739  1.00  0.00    -0.356 N 
ATOM      4  C   UNL     1       1.118   0.036   2.443  1.00  0.00     0.227 C 
ATOM      5  O   UNL     1       0.461   0.696   3.251  1.00  0.00    -0.274 OA
ATOM      6  H   UNL     1       2.712   0.207   3.619  1.00  0.00     0.163 HD
BRANCH   4   7
ATOM      7  C   UNL     1       0.514  -0.604   1.180  1.00  0.00     0.105 C 
ATOM      8  C   UNL     1       0.982   0.087  -0.104  1.00  0.00     0.023 C 
BRANCH   7   9
ATOM      9  C   UNL     1      -1.010  -0.629   1.236  1.00  0.00    -0.036 A 
ATOM     10  C   UNL     1      -1.753   0.552   1.094  1.00  0.00     0.005 A 
ATOM     11  C   UNL     1      -1.697  -1.829   1.462  1.00  0.00     0.005 A 
ATOM     12  C   UNL     1      -3.144   0.534   1.171  1.00  0.00     0.004 A 
ATOM     13  C   UNL     1      -3.093  -1.843   1.561  1.00  0.00     0.004 A 
ATOM     14  C   UNL     1      -3.829  -0.658   1.428  1.00  0.00    -0.051 A 
BRANCH  14  15
ATOM     15  C   UNL     1      -5.332  -0.657   1.575  1.00  0.00     0.021 C 
BRANCH  15  16
ATOM     16  Si  UNL     1      -6.016   0.089   3.175  1.00  0.00     0.035 Si
ATOM     17  C   UNL     1      -5.462   1.855   3.403  1.00  0.00    -0.013 C 
ATOM     18  C   UNL     1      -7.883   0.027   3.131  1.00  0.00    -0.013 C 
ATOM     19  H   UNL     1      -5.518  -0.670   4.267  1.00  0.00     0.014 H 
ENDBRANCH  15  16
ENDBRANCH  14  15
ENDBRANCH   7   9
ENDBRANCH   4   7
ENDBRANCH   2   3
ENDBRANCH   1   2
BRANCH   1  20
ATOM     20  C   UNL     1       5.122   1.210   2.268  1.00  0.00     0.118 C 
BRANCH  20  21
ATOM     21  N   UNL     1       6.125   0.494   3.043  1.00  0.00    -0.352 N 
ATOM     22  C   UNL     1       7.480   0.713   3.126  1.00  0.00     0.251 C 
ATOM     23  H   UNL     1       5.785  -0.254   3.585  1.00  0.00     0.163 HD
ATOM     24  O   UNL     1       8.195  -0.120   3.677  1.00  0.00    -0.269 OA
BRANCH  22  25
ATOM     25  C   UNL     1       8.070   1.933   2.534  1.00  0.00     0.039 A 
ATOM     26  C   UNL     1       9.240   1.827   1.777  1.00  0.00     0.014 A 
ATOM     27  C   UNL     1       7.470   3.179   2.728  1.00  0.00     0.014 A 
ATOM     28  C   UNL     1       9.771   2.962   1.158  1.00  0.00     0.010 A 
ATOM     29  C   UNL     1       7.957   4.293   2.051  1.00  0.00     0.010 A 
ATOM     30  C   UNL     1       9.115   4.198   1.262  1.00  0.00    -0.014 A 
BRANCH  30  31
ATOM     31  C   UNL     1       9.621   5.423   0.589  1.00  0.00     0.031 A 
ATOM     32  C   UNL     1      10.036   6.603   1.422  1.00  0.00     0.074 A 
ATOM     33  C   UNL     1       9.604   5.515  -0.754  1.00  0.00     0.049 A 
ATOM     34  N   UNL     1      10.312   7.827   1.054  1.00  0.00    -0.248 NA
ATOM     35  C   UNL     1      10.106   6.378   2.873  1.00  0.00     0.031 C 
ATOM     36  C   UNL     1       9.201   4.447  -1.671  1.00  0.00     0.029 A 
ATOM     37  N   UNL     1       9.905   6.568  -1.582  1.00  0.00    -0.354 N 
ATOM     38  C   UNL     1      10.558   8.528   2.230  1.00  0.00     0.074 A 
ATOM     39  C   UNL     1      10.337   7.602   3.321  1.00  0.00     0.031 C 
ATOM     40  C   UNL     1       9.279   4.900  -2.933  1.00  0.00     0.029 A 
ATOM     41  C   UNL     1       9.682   6.303  -2.914  1.00  0.00     0.049 A 
ATOM     42  H   UNL     1      10.247   7.431  -1.254  1.00  0.00     0.167 HD
ATOM     43  C   UNL     1      10.948   9.819   2.383  1.00  0.00     0.034 A 
ATOM     44  C   UNL     1       9.762   7.106  -3.994  1.00  0.00     0.034 A 
ATOM     45  C   UNL     1      11.173  10.721   1.279  1.00  0.00     0.049 A 
ATOM     46  C   UNL     1      10.172   8.544  -3.807  1.00  0.00     0.074 A 
ATOM     47  C   UNL     1      11.613  12.032   1.310  1.00  0.00     0.029 A 
ATOM     48  N   UNL     1      10.966  10.405  -0.059  1.00  0.00    -0.354 N 
ATOM     49  N   UNL     1      10.427   9.191  -2.693  1.00  0.00    -0.248 NA
ATOM     50  C   UNL     1      10.314   9.358  -5.021  1.00  0.00     0.031 C 
ATOM     51  C   UNL     1      11.609  12.528   0.002  1.00  0.00     0.029 A 
ATOM     52  C   UNL     1      11.245  11.503  -0.858  1.00  0.00     0.049 A 
ATOM     53  H   UNL     1      10.665   9.528  -0.391  1.00  0.00     0.167 HD
ATOM     54  C   UNL     1      10.795  10.478  -3.076  1.00  0.00     0.074 A 
ATOM     55  C   UNL     1      10.726  10.516  -4.523  1.00  0.00     0.031 C 
ATOM     56  C   UNL     1      11.171  11.527  -2.301  1.00  0.00     0.034 A 
BRANCH  43  57
ATOM     57  C   UNL     1      11.114  10.326   3.799  1.00  0.00     0.023 A 
ATOM     58  C   UNL     1      12.030   9.739   4.690  1.00  0.00     0.031 A 
ATOM     59  C   UNL     1      10.298  11.362   4.287  1.00  0.00     0.131 A 
ATOM     60  C   UNL     1      12.030  10.112   6.042  1.00  0.00     0.055 A 
ATOM     61  C   UNL     1      10.375  11.799   5.612  1.00  0.00     0.041 A 
ATOM     62  F   UNL     1       9.391  11.951   3.493  1.00  0.00    -0.206 F 
ATOM     63  C   UNL     1      11.228  11.157   6.504  1.00  0.00     0.022 A 
BRANCH  60  64
ATOM     64  S   UNL     1      12.949   9.081   7.219  1.00  0.00     0.124 S 
ATOM     65  O   UNL     1      12.353   7.767   6.986  1.00  0.00    -0.237 OA
ATOM     66  O   UNL     1      14.327   9.245   6.773  1.00  0.00    -0.237 OA
ATOM     67  O   UNL     1      12.634   9.677   8.515  1.00  0.00    -0.744 OA
ENDBRANCH  60  64
ENDBRANCH  43  57
BRANCH  44  68
ATOM     68  C   UNL     1       9.424   6.572  -5.343  1.00  0.00     0.023 A 
ATOM     69  C   UNL     1      10.411   6.418  -6.329  1.00  0.00     0.031 A 
ATOM     70  C   UNL     1       8.104   6.208  -5.665  1.00  0.00     0.131 A 
ATOM     71  C   UNL     1      10.058   5.941  -7.601  1.00  0.00     0.055 A 
ATOM     72  C   UNL     1       7.766   5.691  -6.917  1.00  0.00     0.041 A 
ATOM     73  F   UNL     1       7.126   6.327  -4.753  1.00  0.00    -0.206 F 
ATOM     74  C   UNL     1       8.745   5.564  -7.897  1.00  0.00     0.022 A 
BRANCH  71  75
ATOM     75  S   UNL     1      11.335   5.865  -8.887  1.00  0.00     0.124 S 
ATOM     76  O   UNL     1      11.726   7.265  -8.999  1.00  0.00    -0.237 OA
ATOM     77  O   UNL     1      12.317   4.969  -8.286  1.00  0.00    -0.237 OA
ATOM     78  O   UNL     1      10.623   5.320 -10.041  1.00  0.00    -0.744 OA
ENDBRANCH  71  75
ENDBRANCH  44  68
BRANCH  56  79
ATOM     79  C   UNL     1      11.606  12.789  -3.005  1.00  0.00     0.023 A 
ATOM     80  C   UNL     1      10.702  13.609  -3.700  1.00  0.00     0.031 A 
ATOM     81  C   UNL     1      12.956  13.185  -2.951  1.00  0.00     0.131 A 
ATOM     82  C   UNL     1      11.165  14.768  -4.343  1.00  0.00     0.055 A 
ATOM     83  C   UNL     1      13.400  14.364  -3.548  1.00  0.00     0.041 A 
ATOM     84  F   UNL     1      13.861  12.435  -2.303  1.00  0.00    -0.206 F 
ATOM     85  C   UNL     1      12.504  15.160  -4.256  1.00  0.00     0.022 A 
BRANCH  82  86
ATOM     86  S   UNL     1      10.005  15.735  -5.349  1.00  0.00     0.124 S 
ATOM     87  O   UNL     1       9.595  14.762  -6.357  1.00  0.00    -0.237 OA
ATOM     88  O   UNL     1       8.986  16.113  -4.376  1.00  0.00    -0.237 OA
ATOM     89  O   UNL     1      10.822  16.839  -5.850  1.00  0.00    -0.744 OA
ENDBRANCH  82  86
ENDBRANCH  56  79
ENDBRANCH  30  31
ENDBRANCH  22  25
ENDBRANCH  20  21
ENDBRANCH   1  20
TORSDOF 16
