REMARK SMILES CC(=O)Nc1ccc(/C=N/c2ccccc2C(=O)NCCCNC(=O)c2ccc(-c3c4nc(c(-c5cc(S(=O)(=O)[O-])ccc5F)c5ccc([nH]5)c(-c5cc(S(=O)(=O)[O-])ccc5F)c5nc(c(-c6cc(S(=O)(=O)[O-])ccc6F)c6ccc3[nH]6)C=C5)C=C4)cc2)cc1
REMARK SMILES IDX 21 1 20 2 19 3 17 4 18 5 16 7 11 8 12 9 13 10 15 11 14 12
REMARK SMILES IDX 10 13 9 14 8 15 5 16 6 17 90 18 7 19 89 20 4 21 1 22 2 23
REMARK SMILES IDX 3 24 22 26 23 27 24 28 25 30 26 31 27 32 88 33 28 34 87 35
REMARK SMILES IDX 29 36 30 37 31 38 81 39 32 40 86 41 80 42 82 43 33 44 85 45
REMARK SMILES IDX 79 46 78 47 34 49 66 50 46 51 65 52 47 53 50 54 64 55 83 56
REMARK SMILES IDX 48 57 49 58 63 60 84 61 51 62 35 63 36 64 44 65 37 66 43 67
REMARK SMILES IDX 45 68 42 69 38 70 39 71 40 72 41 73 67 74 68 75 76 76 69 77
REMARK SMILES IDX 75 78 77 79 74 80 70 81 71 82 72 83 73 84 52 85 53 86 61 87
REMARK SMILES IDX 54 88 60 89 62 90 59 91 55 92 56 93 57 94 58 95
REMARK H PARENT 19 6 4 25 23 29 82 48 50 59
REMARK Flexibility Score: inf
ROOT
ATOM      1  C   UNL     1       4.997   5.083  -3.223  1.00  0.00     0.042 C 
ENDROOT
BRANCH   1   2
ATOM      2  C   UNL     1       5.147   5.510  -1.777  1.00  0.00     0.118 C 
BRANCH   2   3
ATOM      3  N   UNL     1       6.471   5.393  -1.207  1.00  0.00    -0.352 N 
ATOM      4  C   UNL     1       7.014   6.034  -0.121  1.00  0.00     0.253 C 
ATOM      5  O   UNL     1       8.100   5.620   0.294  1.00  0.00    -0.269 OA
ATOM      6  H   UNL     1       7.071   4.761  -1.666  1.00  0.00     0.163 HD
BRANCH   4   7
ATOM      7  C   UNL     1       6.434   7.248   0.521  1.00  0.00     0.065 A 
ATOM      8  C   UNL     1       5.091   7.469   0.888  1.00  0.00     0.076 A 
ATOM      9  C   UNL     1       4.745   8.706   1.460  1.00  0.00     0.029 A 
ATOM     10  C   UNL     1       5.700   9.692   1.714  1.00  0.00     0.002 A 
ATOM     11  C   UNL     1       7.393   8.245   0.811  1.00  0.00     0.016 A 
ATOM     12  C   UNL     1       7.030   9.457   1.399  1.00  0.00     0.001 A 
BRANCH   8  13
ATOM     13  N   UNL     1       4.013   6.610   0.629  1.00  0.00    -0.255 NA
ATOM     14  C   UNL     1       3.936   5.472   1.237  1.00  0.00     0.119 C 
BRANCH  14  15
ATOM     15  C   UNL     1       2.908   4.491   0.817  1.00  0.00    -0.007 A 
ATOM     16  C   UNL     1       1.202   2.534  -0.276  1.00  0.00     0.041 A 
ATOM     17  C   UNL     1       1.032   3.890  -0.590  1.00  0.00     0.027 A 
ATOM     18  C   UNL     1       2.247   2.178   0.580  1.00  0.00     0.027 A 
ATOM     19  C   UNL     1       1.876   4.864  -0.048  1.00  0.00     0.012 A 
ATOM     20  C   UNL     1       3.093   3.148   1.135  1.00  0.00     0.012 A 
BRANCH  16  21
ATOM     21  N   UNL     1       0.319   1.639  -0.905  1.00  0.00    -0.326 N 
ATOM     22  C   UNL     1       0.760  -0.541   0.245  1.00  0.00     0.114 C 
ATOM     23  C   UNL     1       0.099   0.298  -0.806  1.00  0.00     0.221 C 
ATOM     24  O   UNL     1      -0.707  -0.212  -1.590  1.00  0.00    -0.275 OA
ATOM     25  H   UNL     1      -0.269   2.077  -1.561  1.00  0.00     0.169 HD
ENDBRANCH  16  21
ENDBRANCH  14  15
ENDBRANCH   8  13
ENDBRANCH   4   7
ENDBRANCH   2   3
ENDBRANCH   1   2
BRANCH   1  26
ATOM     26  C   UNL     1       5.438   3.659  -3.531  1.00  0.00     0.118 C 
BRANCH  26  27
ATOM     27  N   UNL     1       4.771   2.618  -2.757  1.00  0.00    -0.352 N 
ATOM     28  C   UNL     1       3.771   1.724  -3.058  1.00  0.00     0.251 C 
ATOM     29  H   UNL     1       5.103   2.540  -1.834  1.00  0.00     0.163 HD
ATOM     30  O   UNL     1       3.412   0.929  -2.184  1.00  0.00    -0.269 OA
BRANCH  28  31
ATOM     31  C   UNL     1       3.088   1.717  -4.371  1.00  0.00     0.039 A 
ATOM     32  C   UNL     1       1.713   1.454  -4.423  1.00  0.00     0.014 A 
ATOM     33  C   UNL     1       3.786   1.904  -5.561  1.00  0.00     0.014 A 
ATOM     34  C   UNL     1       1.038   1.446  -5.648  1.00  0.00     0.010 A 
ATOM     35  C   UNL     1       3.102   2.014  -6.766  1.00  0.00     0.010 A 
ATOM     36  C   UNL     1       1.726   1.749  -6.828  1.00  0.00    -0.014 A 
BRANCH  36  37
ATOM     37  C   UNL     1       1.087   1.653  -8.165  1.00  0.00     0.031 A 
ATOM     38  C   UNL     1       1.631   0.648  -9.147  1.00  0.00     0.074 A 
ATOM     39  C   UNL     1       0.106   2.503  -8.520  1.00  0.00     0.049 A 
ATOM     40  N   UNL     1       1.409   0.525 -10.429  1.00  0.00    -0.248 NA
ATOM     41  C   UNL     1       2.614  -0.308  -8.614  1.00  0.00     0.031 C 
ATOM     42  C   UNL     1      -0.477   3.532  -7.657  1.00  0.00     0.029 A 
ATOM     43  N   UNL     1      -0.561   2.651  -9.709  1.00  0.00    -0.354 N 
ATOM     44  C   UNL     1       2.275  -0.475 -10.865  1.00  0.00     0.074 A 
ATOM     45  C   UNL     1       3.064  -0.875  -9.721  1.00  0.00     0.031 C 
ATOM     46  C   UNL     1      -1.424   4.195  -8.341  1.00  0.00     0.029 A 
ATOM     47  C   UNL     1      -1.480   3.675  -9.704  1.00  0.00     0.049 A 
ATOM     48  H   UNL     1      -0.398   2.077 -10.492  1.00  0.00     0.167 HD
ATOM     49  C   UNL     1       2.385  -1.018 -12.103  1.00  0.00     0.034 A 
ATOM     50  C   UNL     1      -2.259   4.149 -10.695  1.00  0.00     0.034 A 
ATOM     51  C   UNL     1       1.535  -0.634 -13.204  1.00  0.00     0.049 A 
ATOM     52  C   UNL     1      -2.173   3.487 -12.048  1.00  0.00     0.074 A 
ATOM     53  C   UNL     1       1.492  -1.146 -14.488  1.00  0.00     0.029 A 
ATOM     54  N   UNL     1       0.562   0.359 -13.140  1.00  0.00    -0.354 N 
ATOM     55  N   UNL     1      -1.364   2.532 -12.450  1.00  0.00    -0.248 NA
ATOM     56  C   UNL     1      -3.112   3.955 -13.073  1.00  0.00     0.031 C 
ATOM     57  C   UNL     1       0.534  -0.428 -15.213  1.00  0.00     0.029 A 
ATOM     58  C   UNL     1      -0.075   0.485 -14.364  1.00  0.00     0.049 A 
ATOM     59  H   UNL     1       0.356   0.895 -12.341  1.00  0.00     0.167 HD
ATOM     60  C   UNL     1      -1.711   2.271 -13.772  1.00  0.00     0.074 A 
ATOM     61  C   UNL     1      -2.819   3.153 -14.086  1.00  0.00     0.031 C 
ATOM     62  C   UNL     1      -1.168   1.387 -14.650  1.00  0.00     0.034 A 
BRANCH  49  63
ATOM     63  C   UNL     1       3.482  -2.040 -12.320  1.00  0.00     0.023 A 
ATOM     64  C   UNL     1       3.554  -3.231 -11.573  1.00  0.00     0.031 A 
ATOM     65  C   UNL     1       4.524  -1.780 -13.229  1.00  0.00     0.131 A 
ATOM     66  C   UNL     1       4.692  -4.049 -11.660  1.00  0.00     0.055 A 
ATOM     67  C   UNL     1       5.604  -2.652 -13.386  1.00  0.00     0.041 A 
ATOM     68  F   UNL     1       4.529  -0.654 -13.960  1.00  0.00    -0.206 F 
ATOM     69  C   UNL     1       5.706  -3.783 -12.581  1.00  0.00     0.022 A 
BRANCH  66  70
ATOM     70  S   UNL     1       4.920  -5.350 -10.415  1.00  0.00     0.124 S 
ATOM     71  O   UNL     1       4.905  -4.576  -9.175  1.00  0.00    -0.237 OA
ATOM     72  O   UNL     1       3.764  -6.211 -10.644  1.00  0.00    -0.237 OA
ATOM     73  O   UNL     1       6.213  -5.934 -10.760  1.00  0.00    -0.744 OA
ENDBRANCH  66  70
ENDBRANCH  49  63
BRANCH  50  74
ATOM     74  C   UNL     1      -3.170   5.305 -10.450  1.00  0.00     0.023 A 
ATOM     75  C   UNL     1      -4.566   5.155 -10.480  1.00  0.00     0.031 A 
ATOM     76  C   UNL     1      -2.652   6.584 -10.178  1.00  0.00     0.131 A 
ATOM     77  C   UNL     1      -5.396   6.269 -10.272  1.00  0.00     0.055 A 
ATOM     78  C   UNL     1      -3.481   7.679  -9.926  1.00  0.00     0.041 A 
ATOM     79  F   UNL     1      -1.325   6.783 -10.127  1.00  0.00    -0.206 F 
ATOM     80  C   UNL     1      -4.862   7.527  -9.982  1.00  0.00     0.022 A 
BRANCH  77  81
ATOM     81  S   UNL     1      -7.191   6.064 -10.437  1.00  0.00     0.124 S 
ATOM     82  O   UNL     1      -7.313   5.589 -11.810  1.00  0.00    -0.237 OA
ATOM     83  O   UNL     1      -7.481   5.088  -9.391  1.00  0.00    -0.237 OA
ATOM     84  O   UNL     1      -7.712   7.407 -10.191  1.00  0.00    -0.744 OA
ENDBRANCH  77  81
ENDBRANCH  50  74
BRANCH  62  85
ATOM     85  C   UNL     1      -1.801   1.317 -16.017  1.00  0.00     0.023 A 
ATOM     86  C   UNL     1      -1.732   2.394 -16.917  1.00  0.00     0.031 A 
ATOM     87  C   UNL     1      -2.502   0.165 -16.414  1.00  0.00     0.131 A 
ATOM     88  C   UNL     1      -2.411   2.324 -18.142  1.00  0.00     0.055 A 
ATOM     89  C   UNL     1      -3.120   0.075 -17.662  1.00  0.00     0.041 A 
ATOM     90  F   UNL     1      -2.600  -0.893 -15.593  1.00  0.00    -0.206 F 
ATOM     91  C   UNL     1      -3.090   1.165 -18.527  1.00  0.00     0.022 A 
BRANCH  88  92
ATOM     92  S   UNL     1      -2.490   3.811 -19.176  1.00  0.00     0.124 S 
ATOM     93  O   UNL     1      -3.085   4.783 -18.264  1.00  0.00    -0.237 OA
ATOM     94  O   UNL     1      -1.088   4.030 -19.516  1.00  0.00    -0.237 OA
ATOM     95  O   UNL     1      -3.343   3.407 -20.293  1.00  0.00    -0.744 OA
ENDBRANCH  88  92
ENDBRANCH  62  85
ENDBRANCH  36  37
ENDBRANCH  28  31
ENDBRANCH  26  27
ENDBRANCH   1  26
TORSDOF 16
