REMARK SMILES CC1(CNS(=O)(=O)Cc2ccc(C(=O)NCCCNC(=O)c3ccc(-c4c5nc(c(-c6cc(S(=O)(=O)[O-])ccc6F)c6ccc([nH]6)c(-c6cc(S(=O)(=O)[O-])ccc6F)c6nc(c(-c7cc(S(=O)(=O)[O-])ccc7F)c7ccc4[nH]7)C=C6)C=C5)cc3)cc2)COC1
REMARK SMILES IDX 16 1 15 2 13 3 14 4 12 6 9 7 10 8 86 9 11 10 85 11 8 12 5 13
REMARK SMILES IDX 6 14 7 15 4 16 3 18 2 19 1 20 87 21 89 22 88 23 17 24 18 25
REMARK SMILES IDX 19 26 20 27 21 29 22 30 23 31 84 32 24 33 83 34 25 35 26 36
REMARK SMILES IDX 27 37 77 38 28 39 82 40 76 41 78 42 29 43 81 44 75 45 74 46
REMARK SMILES IDX 30 48 62 49 42 50 61 51 43 52 46 53 60 54 79 55 44 56 45 57
REMARK SMILES IDX 59 59 80 60 47 61 31 62 32 63 40 64 33 65 39 66 41 67 38 68
REMARK SMILES IDX 34 69 35 70 36 71 37 72 63 73 64 74 72 75 65 76 71 77 73 78
REMARK SMILES IDX 70 79 66 80 67 81 68 82 69 83 48 84 49 85 57 86 50 87 56 88
REMARK SMILES IDX 58 89 55 90 51 91 52 92 53 93 54 94
REMARK H PARENT 15 5 4 17 19 28 78 47 46 58
REMARK Flexibility Score: inf
ROOT
ATOM      1  C   UNL     1       3.865   7.523   0.320  1.00  0.00     0.118 C 
ENDROOT
BRANCH   1   2
ATOM      2  N   UNL     1       3.616   6.511   1.330  1.00  0.00    -0.352 N 
ATOM      3  C   UNL     1       3.310   5.179   1.230  1.00  0.00     0.251 C 
ATOM      4  O   UNL     1       3.220   4.526   2.270  1.00  0.00    -0.269 OA
ATOM      5  H   UNL     1       3.678   6.841   2.256  1.00  0.00     0.163 HD
BRANCH   3   6
ATOM      6  C   UNL     1       3.141   4.485  -0.075  1.00  0.00     0.039 A 
ATOM      7  C   UNL     1       2.862   3.014  -2.466  1.00  0.00    -0.032 A 
ATOM      8  C   UNL     1       3.330   2.393  -1.302  1.00  0.00     0.005 A 
ATOM      9  C   UNL     1       2.537   4.373  -2.422  1.00  0.00     0.005 A 
ATOM     10  C   UNL     1       3.464   3.122  -0.118  1.00  0.00     0.014 A 
ATOM     11  C   UNL     1       2.642   5.090  -1.229  1.00  0.00     0.014 A 
BRANCH   7  12
ATOM     12  C   UNL     1       2.670   2.233  -3.737  1.00  0.00     0.189 C 
BRANCH  12  13
ATOM     13  S   UNL     1       0.921   1.880  -4.006  1.00  0.00     0.215 S 
ATOM     14  O   UNL     1       0.814   0.892  -5.062  1.00  0.00    -0.212 OA
ATOM     15  O   UNL     1       0.176   3.116  -4.081  1.00  0.00    -0.212 OA
BRANCH  13  16
ATOM     16  N   UNL     1       0.432   1.130  -2.579  1.00  0.00    -0.214 NA
ATOM     17  H   UNL     1       0.809   1.674  -1.803  1.00  0.00     0.141 HD
BRANCH  16  18
ATOM     18  C   UNL     1       0.836  -0.269  -2.371  1.00  0.00     0.110 C 
BRANCH  18  19
ATOM     19  C   UNL     1       0.409  -0.809  -1.004  1.00  0.00     0.028 C 
ATOM     20  C   UNL     1       0.864   0.026   0.183  1.00  0.00     0.018 C 
ATOM     21  C   UNL     1       0.745  -2.307  -0.865  1.00  0.00     0.170 C 
ATOM     22  C   UNL     1      -1.049  -1.306  -0.961  1.00  0.00     0.170 C 
ATOM     23  O   UNL     1      -0.616  -2.671  -1.207  1.00  0.00    -0.380 OA
ENDBRANCH  18  19
ENDBRANCH  16  18
ENDBRANCH  13  16
ENDBRANCH  12  13
ENDBRANCH   7  12
ENDBRANCH   3   6
ENDBRANCH   1   2
BRANCH   1  24
ATOM     24  C   UNL     1       2.647   8.426   0.137  1.00  0.00     0.042 C 
BRANCH  24  25
ATOM     25  C   UNL     1       2.477   9.431   1.271  1.00  0.00     0.118 C 
BRANCH  25  26
ATOM     26  N   UNL     1       3.562  10.401   1.292  1.00  0.00    -0.352 N 
ATOM     27  C   UNL     1       3.526  11.764   1.149  1.00  0.00     0.251 C 
ATOM     28  H   UNL     1       4.460  10.020   1.430  1.00  0.00     0.163 HD
ATOM     29  O   UNL     1       4.569  12.368   0.911  1.00  0.00    -0.269 OA
BRANCH  27  30
ATOM     30  C   UNL     1       2.248  12.496   1.274  1.00  0.00     0.039 A 
ATOM     31  C   UNL     1       2.006  13.582   0.430  1.00  0.00     0.014 A 
ATOM     32  C   UNL     1       1.307  12.139   2.245  1.00  0.00     0.014 A 
ATOM     33  C   UNL     1       0.800  14.278   0.527  1.00  0.00     0.010 A 
ATOM     34  C   UNL     1       0.073  12.780   2.284  1.00  0.00     0.010 A 
ATOM     35  C   UNL     1      -0.190  13.863   1.432  1.00  0.00    -0.014 A 
BRANCH  35  36
ATOM     36  C   UNL     1      -1.503  14.553   1.504  1.00  0.00     0.031 A 
ATOM     37  C   UNL     1      -1.923  15.250   2.768  1.00  0.00     0.074 A 
ATOM     38  C   UNL     1      -2.338  14.497   0.449  1.00  0.00     0.049 A 
ATOM     39  N   UNL     1      -3.052  15.850   3.047  1.00  0.00    -0.248 NA
ATOM     40  C   UNL     1      -0.957  15.241   3.876  1.00  0.00     0.031 C 
ATOM     41  C   UNL     1      -2.054  13.812  -0.814  1.00  0.00     0.029 A 
ATOM     42  N   UNL     1      -3.595  15.015   0.269  1.00  0.00    -0.354 N 
ATOM     43  C   UNL     1      -2.937  16.280   4.365  1.00  0.00     0.074 A 
ATOM     44  C   UNL     1      -1.657  15.806   4.847  1.00  0.00     0.031 C 
ATOM     45  C   UNL     1      -3.093  13.977  -1.646  1.00  0.00     0.029 A 
ATOM     46  C   UNL     1      -4.139  14.729  -0.961  1.00  0.00     0.049 A 
ATOM     47  H   UNL     1      -4.064  15.542   0.957  1.00  0.00     0.167 HD
ATOM     48  C   UNL     1      -3.808  17.022   5.095  1.00  0.00     0.034 A 
ATOM     49  C   UNL     1      -5.350  15.023  -1.474  1.00  0.00     0.034 A 
ATOM     50  C   UNL     1      -5.081  17.480   4.591  1.00  0.00     0.049 A 
ATOM     51  C   UNL     1      -6.319  15.814  -0.635  1.00  0.00     0.074 A 
ATOM     52  C   UNL     1      -6.020  18.280   5.218  1.00  0.00     0.029 A 
ATOM     53  N   UNL     1      -5.605  17.162   3.342  1.00  0.00    -0.354 N 
ATOM     54  N   UNL     1      -6.175  16.265   0.590  1.00  0.00    -0.248 NA
ATOM     55  C   UNL     1      -7.609  16.144  -1.252  1.00  0.00     0.031 C 
ATOM     56  C   UNL     1      -7.142  18.373   4.388  1.00  0.00     0.029 A 
ATOM     57  C   UNL     1      -6.870  17.714   3.199  1.00  0.00     0.049 A 
ATOM     58  H   UNL     1      -5.145  16.623   2.659  1.00  0.00     0.167 HD
ATOM     59  C   UNL     1      -7.347  16.957   0.880  1.00  0.00     0.074 A 
ATOM     60  C   UNL     1      -8.178  16.875  -0.305  1.00  0.00     0.031 C 
ATOM     61  C   UNL     1      -7.700  17.608   2.019  1.00  0.00     0.034 A 
BRANCH  48  62
ATOM     62  C   UNL     1      -3.419  17.343   6.521  1.00  0.00     0.023 A 
ATOM     63  C   UNL     1      -2.247  18.060   6.826  1.00  0.00     0.031 A 
ATOM     64  C   UNL     1      -4.199  16.882   7.597  1.00  0.00     0.131 A 
ATOM     65  C   UNL     1      -1.837  18.203   8.160  1.00  0.00     0.055 A 
ATOM     66  C   UNL     1      -3.837  17.115   8.925  1.00  0.00     0.041 A 
ATOM     67  F   UNL     1      -5.317  16.173   7.377  1.00  0.00    -0.206 F 
ATOM     68  C   UNL     1      -2.638  17.761   9.214  1.00  0.00     0.022 A 
BRANCH  65  69
ATOM     69  S   UNL     1      -0.155  18.803   8.486  1.00  0.00     0.124 S 
ATOM     70  O   UNL     1       0.651  17.843   7.734  1.00  0.00    -0.237 OA
ATOM     71  O   UNL     1      -0.196  20.160   7.954  1.00  0.00    -0.237 OA
ATOM     72  O   UNL     1      -0.032  18.703   9.939  1.00  0.00    -0.744 OA
ENDBRANCH  65  69
ENDBRANCH  48  62
BRANCH  49  73
ATOM     73  C   UNL     1      -5.713  14.556  -2.843  1.00  0.00     0.023 A 
ATOM     74  C   UNL     1      -5.938  15.467  -3.886  1.00  0.00     0.031 A 
ATOM     75  C   UNL     1      -5.845  13.184  -3.124  1.00  0.00     0.131 A 
ATOM     76  C   UNL     1      -6.316  14.998  -5.154  1.00  0.00     0.055 A 
ATOM     77  C   UNL     1      -6.168  12.720  -4.400  1.00  0.00     0.041 A 
ATOM     78  F   UNL     1      -5.635  12.270  -2.163  1.00  0.00    -0.206 F 
ATOM     79  C   UNL     1      -6.415  13.630  -5.422  1.00  0.00     0.022 A 
BRANCH  76  80
ATOM     80  S   UNL     1      -6.743  16.206  -6.437  1.00  0.00     0.124 S 
ATOM     81  O   UNL     1      -7.852  16.921  -5.815  1.00  0.00    -0.237 OA
ATOM     82  O   UNL     1      -5.497  16.952  -6.578  1.00  0.00    -0.237 OA
ATOM     83  O   UNL     1      -7.100  15.373  -7.583  1.00  0.00    -0.744 OA
ENDBRANCH  76  80
ENDBRANCH  49  73
BRANCH  61  84
ATOM     84  C   UNL     1      -9.033  18.320   2.020  1.00  0.00     0.023 A 
ATOM     85  C   UNL     1     -10.249  17.622   1.919  1.00  0.00     0.031 A 
ATOM     86  C   UNL     1      -9.083  19.723   2.114  1.00  0.00     0.131 A 
ATOM     87  C   UNL     1     -11.459  18.331   1.856  1.00  0.00     0.055 A 
ATOM     88  C   UNL     1     -10.293  20.418   2.123  1.00  0.00     0.041 A 
ATOM     89  F   UNL     1      -7.953  20.443   2.205  1.00  0.00    -0.206 F 
ATOM     90  C   UNL     1     -11.490  19.723   1.979  1.00  0.00     0.022 A 
BRANCH  87  91
ATOM     91  S   UNL     1     -12.986  17.419   1.504  1.00  0.00     0.124 S 
ATOM     92  O   UNL     1     -12.672  16.787   0.227  1.00  0.00    -0.237 OA
ATOM     93  O   UNL     1     -13.088  16.524   2.651  1.00  0.00    -0.237 OA
ATOM     94  O   UNL     1     -14.005  18.466   1.443  1.00  0.00    -0.744 OA
ENDBRANCH  87  91
ENDBRANCH  61  84
ENDBRANCH  35  36
ENDBRANCH  27  30
ENDBRANCH  25  26
ENDBRANCH  24  25
ENDBRANCH   1  24
TORSDOF 18
