REMARK SMILES C[C@H]1CCC[C@](Cc2cn3ccccc3n2)(C(=O)NCCCNC(=O)c2ccc(-c3c4nc(c(-c5cc(S(=O)(=O)[O-])ccc5F)c5ccc([nH]5)c(-c5cc(S(=O)(=O)[O-])ccc5F)c5nc(c(-c6cc(S(=O)(=O)[O-])ccc6F)c6ccc3[nH]6)C=C5)C=C4)cc2)C1
REMARK SMILES IDX 21 1 20 2 19 3 17 4 18 5 6 7 1 8 2 9 3 10 89 11 4 12 5 13
REMARK SMILES IDX 7 14 8 15 9 16 16 17 10 18 15 19 11 20 14 21 12 22 13 23
REMARK SMILES IDX 22 24 23 25 24 26 25 28 26 29 27 30 88 31 28 32 87 33 29 34
REMARK SMILES IDX 30 35 31 36 81 37 32 38 86 39 80 40 82 41 33 42 85 43 79 44
REMARK SMILES IDX 78 45 34 47 66 48 46 49 65 50 47 51 50 52 64 53 83 54 48 55
REMARK SMILES IDX 49 56 63 58 84 59 51 60 35 61 36 62 44 63 37 64 43 65 45 66
REMARK SMILES IDX 42 67 38 68 39 69 40 70 41 71 67 72 68 73 76 74 69 75 75 76
REMARK SMILES IDX 77 77 74 78 70 79 71 80 72 81 73 82 52 83 53 84 61 85 54 86
REMARK SMILES IDX 60 87 62 88 59 89 55 90 56 91 57 92 58 93
REMARK H PARENT 19 6 23 27 82 46 50 57
REMARK Flexibility Score: inf
ROOT
ATOM      1  C   UNL     1      -1.147   2.109   2.880  1.00  0.00     0.042 C 
ENDROOT
BRANCH   1   2
ATOM      2  C   UNL     1      -0.373   0.855   2.528  1.00  0.00     0.117 C 
BRANCH   2   3
ATOM      3  N   UNL     1      -1.150  -0.356   2.556  1.00  0.00    -0.356 N 
ATOM      4  C   UNL     1      -1.347  -1.329   1.628  1.00  0.00     0.226 C 
ATOM      5  O   UNL     1      -1.855  -2.358   2.093  1.00  0.00    -0.274 OA
ATOM      6  H   UNL     1      -1.627  -0.508   3.404  1.00  0.00     0.163 HD
BRANCH   4   7
ATOM      7  C   UNL     1      -0.961  -1.224   0.106  1.00  0.00     0.055 C 
ATOM      8  C   UNL     1       2.740  -0.173  -0.815  1.00  0.00     0.007 C 
ATOM      9  C   UNL     1       1.339   0.056  -0.238  1.00  0.00    -0.013 C 
ATOM     10  C   UNL     1       0.585   1.087  -1.085  1.00  0.00     0.003 C 
ATOM     11  C   UNL     1       0.584  -1.269  -0.065  1.00  0.00     0.020 C 
ATOM     12  C   UNL     1      -0.894   1.264  -0.763  1.00  0.00     0.001 C 
ATOM     13  C   UNL     1      -1.674  -0.031  -0.578  1.00  0.00     0.017 C 
BRANCH   7  14
ATOM     14  C   UNL     1      -1.560  -2.565  -0.502  1.00  0.00     0.074 C 
BRANCH  14  15
ATOM     15  C   UNL     1      -1.616  -2.728  -1.997  1.00  0.00     0.061 A 
ATOM     16  C   UNL     1      -0.692  -2.448  -2.984  1.00  0.00     0.116 A 
ATOM     17  N   UNL     1      -2.760  -3.256  -2.567  1.00  0.00    -0.234 NA
ATOM     18  N   UNL     1      -1.292  -2.775  -4.173  1.00  0.00    -0.307 N 
ATOM     19  C   UNL     1      -2.550  -3.272  -3.865  1.00  0.00     0.136 A 
ATOM     20  C   UNL     1      -0.804  -2.655  -5.472  1.00  0.00     0.093 A 
ATOM     21  C   UNL     1      -3.366  -3.689  -4.954  1.00  0.00     0.048 A 
ATOM     22  C   UNL     1      -1.580  -3.041  -6.499  1.00  0.00     0.018 A 
ATOM     23  C   UNL     1      -2.904  -3.579  -6.216  1.00  0.00     0.005 A 
ENDBRANCH  14  15
ENDBRANCH   7  14
ENDBRANCH   4   7
ENDBRANCH   2   3
ENDBRANCH   1   2
BRANCH   1  24
ATOM     24  C   UNL     1      -1.061   2.461   4.353  1.00  0.00     0.118 C 
BRANCH  24  25
ATOM     25  N   UNL     1       0.291   2.840   4.760  1.00  0.00    -0.352 N 
ATOM     26  C   UNL     1       0.829   4.059   5.112  1.00  0.00     0.251 C 
ATOM     27  H   UNL     1       0.931   2.092   4.787  1.00  0.00     0.163 HD
ATOM     28  O   UNL     1       2.043   4.167   5.221  1.00  0.00    -0.269 OA
BRANCH  26  29
ATOM     29  C   UNL     1      -0.048   5.235   5.323  1.00  0.00     0.039 A 
ATOM     30  C   UNL     1       0.386   6.496   4.904  1.00  0.00     0.014 A 
ATOM     31  C   UNL     1      -1.296   5.099   5.927  1.00  0.00     0.014 A 
ATOM     32  C   UNL     1      -0.478   7.592   4.996  1.00  0.00     0.010 A 
ATOM     33  C   UNL     1      -2.197   6.155   5.900  1.00  0.00     0.010 A 
ATOM     34  C   UNL     1      -1.800   7.417   5.437  1.00  0.00    -0.014 A 
BRANCH  34  35
ATOM     35  C   UNL     1      -2.791   8.526   5.426  1.00  0.00     0.031 A 
ATOM     36  C   UNL     1      -3.474   8.930   6.707  1.00  0.00     0.074 A 
ATOM     37  C   UNL     1      -3.151   9.089   4.253  1.00  0.00     0.049 A 
ATOM     38  N   UNL     1      -4.463   9.766   6.890  1.00  0.00    -0.248 NA
ATOM     39  C   UNL     1      -3.011   8.276   7.943  1.00  0.00     0.031 C 
ATOM     40  C   UNL     1      -2.599   8.738   2.941  1.00  0.00     0.029 A 
ATOM     41  N   UNL     1      -4.079  10.059   3.967  1.00  0.00    -0.354 N 
ATOM     42  C   UNL     1      -4.763   9.710   8.247  1.00  0.00     0.074 A 
ATOM     43  C   UNL     1      -3.886   8.720   8.832  1.00  0.00     0.031 C 
ATOM     44  C   UNL     1      -3.183   9.494   1.998  1.00  0.00     0.029 A 
ATOM     45  C   UNL     1      -4.193  10.341   2.623  1.00  0.00     0.049 A 
ATOM     46  H   UNL     1      -4.614  10.512   4.658  1.00  0.00     0.167 HD
ATOM     47  C   UNL     1      -5.674  10.433   8.942  1.00  0.00     0.034 A 
ATOM     48  C   UNL     1      -5.033  11.166   1.966  1.00  0.00     0.034 A 
ATOM     49  C   UNL     1      -6.505  11.448   8.346  1.00  0.00     0.049 A 
ATOM     50  C   UNL     1      -6.038  11.958   2.767  1.00  0.00     0.074 A 
ATOM     51  C   UNL     1      -7.377  12.320   8.973  1.00  0.00     0.029 A 
ATOM     52  N   UNL     1      -6.577  11.719   6.986  1.00  0.00    -0.354 N 
ATOM     53  N   UNL     1      -6.242  11.959   4.065  1.00  0.00    -0.248 NA
ATOM     54  C   UNL     1      -6.923  12.861   2.020  1.00  0.00     0.031 C 
ATOM     55  C   UNL     1      -8.036  13.060   7.987  1.00  0.00     0.029 A 
ATOM     56  C   UNL     1      -7.517  12.710   6.751  1.00  0.00     0.049 A 
ATOM     57  H   UNL     1      -6.040  11.273   6.292  1.00  0.00     0.167 HD
ATOM     58  C   UNL     1      -7.261  12.880   4.288  1.00  0.00     0.074 A 
ATOM     59  C   UNL     1      -7.612  13.432   2.996  1.00  0.00     0.031 C 
ATOM     60  C   UNL     1      -7.858  13.239   5.453  1.00  0.00     0.034 A 
BRANCH  47  61
ATOM     61  C   UNL     1      -5.839  10.141  10.413  1.00  0.00     0.023 A 
ATOM     62  C   UNL     1      -4.806  10.363  11.339  1.00  0.00     0.031 A 
ATOM     63  C   UNL     1      -7.062   9.644  10.899  1.00  0.00     0.131 A 
ATOM     64  C   UNL     1      -4.995  10.038  12.691  1.00  0.00     0.055 A 
ATOM     65  C   UNL     1      -7.269   9.394  12.256  1.00  0.00     0.041 A 
ATOM     66  F   UNL     1      -8.078   9.391  10.059  1.00  0.00    -0.206 F 
ATOM     67  C   UNL     1      -6.229   9.581  13.161  1.00  0.00     0.022 A 
BRANCH  64  68
ATOM     68  S   UNL     1      -3.570  10.115  13.810  1.00  0.00     0.124 S 
ATOM     69  O   UNL     1      -2.656   9.158  13.190  1.00  0.00    -0.237 OA
ATOM     70  O   UNL     1      -3.178  11.517  13.727  1.00  0.00    -0.237 OA
ATOM     71  O   UNL     1      -4.121   9.696  15.097  1.00  0.00    -0.744 OA
ENDBRANCH  64  68
ENDBRANCH  47  61
BRANCH  48  72
ATOM     72  C   UNL     1      -5.000  11.268   0.476  1.00  0.00     0.023 A 
ATOM     73  C   UNL     1      -4.715  12.487  -0.160  1.00  0.00     0.031 A 
ATOM     74  C   UNL     1      -5.322  10.166  -0.336  1.00  0.00     0.131 A 
ATOM     75  C   UNL     1      -4.820  12.592  -1.557  1.00  0.00     0.055 A 
ATOM     76  C   UNL     1      -5.361  10.258  -1.729  1.00  0.00     0.041 A 
ATOM     77  F   UNL     1      -5.603   8.974   0.215  1.00  0.00    -0.206 F 
ATOM     78  C   UNL     1      -5.127  11.482  -2.346  1.00  0.00     0.022 A 
BRANCH  75  79
ATOM     79  S   UNL     1      -4.672  14.233  -2.317  1.00  0.00     0.124 S 
ATOM     80  O   UNL     1      -5.687  14.988  -1.591  1.00  0.00    -0.237 OA
ATOM     81  O   UNL     1      -3.284  14.576  -2.025  1.00  0.00    -0.237 OA
ATOM     82  O   UNL     1      -4.968  13.982  -3.726  1.00  0.00    -0.744 OA
ENDBRANCH  75  79
ENDBRANCH  48  72
BRANCH  60  83
ATOM     83  C   UNL     1      -8.927  14.299   5.380  1.00  0.00     0.023 A 
ATOM     84  C   UNL     1     -10.157  14.060   4.744  1.00  0.00     0.031 A 
ATOM     85  C   UNL     1      -8.714  15.561   5.962  1.00  0.00     0.131 A 
ATOM     86  C   UNL     1     -11.111  15.085   4.665  1.00  0.00     0.055 A 
ATOM     87  C   UNL     1      -9.692  16.555   5.936  1.00  0.00     0.041 A 
ATOM     88  F   UNL     1      -7.556  15.843   6.580  1.00  0.00    -0.206 F 
ATOM     89  C   UNL     1     -10.895  16.324   5.274  1.00  0.00     0.022 A 
BRANCH  86  90
ATOM     90  S   UNL     1     -12.612  14.803   3.687  1.00  0.00     0.124 S 
ATOM     91  O   UNL     1     -12.064  14.554   2.357  1.00  0.00    -0.237 OA
ATOM     92  O   UNL     1     -13.210  13.651   4.355  1.00  0.00    -0.237 OA
ATOM     93  O   UNL     1     -13.354  16.054   3.829  1.00  0.00    -0.744 OA
ENDBRANCH  86  90
ENDBRANCH  60  83
ENDBRANCH  34  35
ENDBRANCH  26  29
ENDBRANCH  24  25
ENDBRANCH   1  24
TORSDOF 15
