REMARK SMILES O=C(COc1cccc(NC(=O)c2ccc3c(c2)C(=O)N(c2ccccc2-c2ccccc2)C3=O)c1)NCCCNC(=O)c1ccc(-c2c3nc(c(-c4cc(S(=O)(=O)[O-])ccc4F)c4ccc([nH]4)c(-c4cc(S(=O)(=O)[O-])ccc4F)c4nc(c(-c5cc(S(=O)(=O)[O-])ccc5F)c5ccc2[nH]5)C=C4)C=C3)cc1
REMARK SMILES IDX 1 1 2 2 37 3 3 5 4 6 5 7 6 8 36 9 7 10 9 11 8 12 10 13 11 14
REMARK SMILES IDX 12 16 13 17 14 18 18 19 15 20 17 21 16 22 19 23 34 24 20 25
REMARK SMILES IDX 21 26 35 27 22 28 23 29 27 30 24 31 26 32 25 33 28 34 29 35
REMARK SMILES IDX 33 36 30 37 32 38 31 39 38 40 39 41 40 42 41 43 42 44 43 46
REMARK SMILES IDX 44 47 45 48 106 49 46 50 105 51 47 52 48 53 49 54 99 55
REMARK SMILES IDX 50 56 104 57 98 58 100 59 51 60 103 61 97 62 96 63 52 65
REMARK SMILES IDX 84 66 64 67 83 68 65 69 68 70 82 71 101 72 66 73 67 74 81 76
REMARK SMILES IDX 102 77 69 78 53 79 54 80 62 81 55 82 61 83 63 84 60 85 56 86
REMARK SMILES IDX 57 87 58 88 59 89 85 90 86 91 94 92 87 93 93 94 95 95 92 96
REMARK SMILES IDX 88 97 89 98 90 99 91 100 70 101 71 102 79 103 72 104 78 105
REMARK SMILES IDX 80 106 77 107 73 108 74 109 75 110 76 111
REMARK H PARENT 37 4 10 15 41 45 100 64 68 75
REMARK Flexibility Score: inf
ROOT
ATOM      1  O   UNL     1       0.926   0.835   0.258  1.00  0.00    -0.271 OA
ATOM      2  C   UNL     1       2.058   0.371   0.163  1.00  0.00     0.257 C 
ATOM      3  N   UNL     1       2.779   0.340  -1.014  1.00  0.00    -0.353 N 
ATOM      4  H   UNL     1       3.744   0.148  -0.977  1.00  0.00     0.163 HD
ENDROOT
BRANCH   2   5
ATOM      5  C   UNL     1       2.770  -0.293   1.343  1.00  0.00     0.329 C 
BRANCH   5   6
ATOM      6  O   UNL     1       3.715  -1.306   1.011  1.00  0.00    -0.484 OA
BRANCH   6   7
ATOM      7  C   UNL     1       3.204  -2.530   0.667  1.00  0.00     0.122 A 
ATOM      8  C   UNL     1       3.840  -3.625   1.242  1.00  0.00     0.046 A 
ATOM      9  C   UNL     1       2.234  -2.736  -0.324  1.00  0.00     0.072 A 
ATOM     10  C   UNL     1       3.513  -4.909   0.823  1.00  0.00     0.006 A 
ATOM     11  C   UNL     1       1.915  -4.020  -0.784  1.00  0.00     0.045 A 
ATOM     12  C   UNL     1       2.575  -5.099  -0.199  1.00  0.00     0.026 A 
BRANCH  11  13
ATOM     13  N   UNL     1       1.026  -4.103  -1.889  1.00  0.00    -0.322 N 
ATOM     14  C   UNL     1       0.353  -5.159  -2.475  1.00  0.00     0.255 C 
ATOM     15  H   UNL     1       0.854  -3.236  -2.323  1.00  0.00     0.170 HD
ATOM     16  O   UNL     1      -0.176  -5.063  -3.576  1.00  0.00    -0.269 OA
BRANCH  14  17
ATOM     17  C   UNL     1       0.141  -6.384  -1.694  1.00  0.00     0.041 A 
ATOM     18  C   UNL     1       0.905  -7.542  -1.963  1.00  0.00     0.015 A 
ATOM     19  C   UNL     1      -0.633  -6.255  -0.543  1.00  0.00     0.028 A 
ATOM     20  C   UNL     1       1.060  -8.514  -0.963  1.00  0.00     0.015 A 
ATOM     21  C   UNL     1      -0.437  -7.220   0.413  1.00  0.00     0.054 A 
ATOM     22  C   UNL     1       0.427  -8.276   0.248  1.00  0.00     0.053 A 
ATOM     23  C   UNL     1      -0.779  -7.136   1.814  1.00  0.00     0.266 C 
ATOM     24  C   UNL     1       0.671  -8.817   1.589  1.00  0.00     0.266 C 
ATOM     25  O   UNL     1      -1.730  -6.460   2.160  1.00  0.00    -0.268 OA
ATOM     26  N   UNL     1       0.135  -7.916   2.488  1.00  0.00    -0.242 N 
ATOM     27  O   UNL     1       1.183  -9.914   1.712  1.00  0.00    -0.268 OA
BRANCH  26  28
ATOM     28  C   UNL     1       0.456  -7.722   3.882  1.00  0.00     0.060 A 
ATOM     29  C   UNL     1      -0.338  -6.815   4.630  1.00  0.00     0.027 A 
ATOM     30  C   UNL     1       1.593  -8.253   4.549  1.00  0.00     0.006 A 
ATOM     31  C   UNL     1      -0.063  -6.452   5.951  1.00  0.00     0.002 A 
ATOM     32  C   UNL     1       1.834  -7.894   5.904  1.00  0.00     0.011 A 
ATOM     33  C   UNL     1       1.022  -7.003   6.597  1.00  0.00     0.001 A 
BRANCH  30  34
ATOM     34  C   UNL     1       2.653  -9.072   3.943  1.00  0.00    -0.016 A 
ATOM     35  C   UNL     1       2.701 -10.458   4.162  1.00  0.00     0.009 A 
ATOM     36  C   UNL     1       3.687  -8.473   3.204  1.00  0.00     0.009 A 
ATOM     37  C   UNL     1       3.720 -11.232   3.603  1.00  0.00     0.001 A 
ATOM     38  C   UNL     1       4.709  -9.247   2.649  1.00  0.00     0.001 A 
ATOM     39  C   UNL     1       4.718 -10.628   2.840  1.00  0.00     0.000 A 
ENDBRANCH  30  34
ENDBRANCH  26  28
ENDBRANCH  14  17
ENDBRANCH  11  13
ENDBRANCH   6   7
ENDBRANCH   5   6
ENDBRANCH   2   5
BRANCH   3  40
ATOM     40  C   UNL     1       2.161   0.581  -2.300  1.00  0.00     0.117 C 
BRANCH  40  41
ATOM     41  C   UNL     1       2.494   1.943  -2.878  1.00  0.00     0.042 C 
BRANCH  41  42
ATOM     42  C   UNL     1       3.976   2.146  -3.164  1.00  0.00     0.118 C 
BRANCH  42  43
ATOM     43  N   UNL     1       4.492   1.250  -4.192  1.00  0.00    -0.352 N 
ATOM     44  C   UNL     1       5.154   1.540  -5.362  1.00  0.00     0.251 C 
ATOM     45  H   UNL     1       4.343   0.291  -4.022  1.00  0.00     0.163 HD
ATOM     46  O   UNL     1       5.380   0.637  -6.163  1.00  0.00    -0.269 OA
BRANCH  44  47
ATOM     47  C   UNL     1       5.561   2.929  -5.667  1.00  0.00     0.039 A 
ATOM     48  C   UNL     1       5.361   3.425  -6.959  1.00  0.00     0.014 A 
ATOM     49  C   UNL     1       6.136   3.745  -4.689  1.00  0.00     0.014 A 
ATOM     50  C   UNL     1       5.663   4.759  -7.246  1.00  0.00     0.010 A 
ATOM     51  C   UNL     1       6.359   5.093  -4.954  1.00  0.00     0.010 A 
ATOM     52  C   UNL     1       6.124   5.617  -6.235  1.00  0.00    -0.014 A 
BRANCH  52  53
ATOM     53  C   UNL     1       6.379   7.060  -6.491  1.00  0.00     0.031 A 
ATOM     54  C   UNL     1       7.768   7.617  -6.328  1.00  0.00     0.074 A 
ATOM     55  C   UNL     1       5.353   7.881  -6.789  1.00  0.00     0.049 A 
ATOM     56  N   UNL     1       8.175   8.859  -6.378  1.00  0.00    -0.248 NA
ATOM     57  C   UNL     1       8.833   6.646  -6.037  1.00  0.00     0.031 C 
ATOM     58  C   UNL     1       3.956   7.469  -6.944  1.00  0.00     0.029 A 
ATOM     59  N   UNL     1       5.321   9.237  -7.002  1.00  0.00    -0.354 N 
ATOM     60  C   UNL     1       9.539   8.822  -6.106  1.00  0.00     0.074 A 
ATOM     61  C   UNL     1       9.873   7.440  -5.833  1.00  0.00     0.031 C 
ATOM     62  C   UNL     1       3.210   8.544  -7.243  1.00  0.00     0.029 A 
ATOM     63  C   UNL     1       4.060   9.730  -7.251  1.00  0.00     0.049 A 
ATOM     64  H   UNL     1       6.125   9.805  -6.978  1.00  0.00     0.167 HD
ATOM     65  C   UNL     1      10.433   9.843  -6.105  1.00  0.00     0.034 A 
ATOM     66  C   UNL     1       3.634  10.995  -7.444  1.00  0.00     0.034 A 
ATOM     67  C   UNL     1      10.086  11.213  -6.396  1.00  0.00     0.049 A 
ATOM     68  C   UNL     1       4.641  12.117  -7.411  1.00  0.00     0.074 A 
ATOM     69  C   UNL     1      10.920  12.315  -6.473  1.00  0.00     0.029 A 
ATOM     70  N   UNL     1       8.800  11.672  -6.650  1.00  0.00    -0.354 N 
ATOM     71  N   UNL     1       5.935  12.061  -7.190  1.00  0.00    -0.248 NA
ATOM     72  C   UNL     1       4.132  13.471  -7.662  1.00  0.00     0.031 C 
ATOM     73  C   UNL     1      10.132  13.448  -6.708  1.00  0.00     0.029 A 
ATOM     74  C   UNL     1       8.815  13.044  -6.856  1.00  0.00     0.049 A 
ATOM     75  H   UNL     1       7.995  11.106  -6.681  1.00  0.00     0.167 HD
ATOM     76  C   UNL     1       6.397  13.369  -7.310  1.00  0.00     0.074 A 
ATOM     77  C   UNL     1       5.246  14.187  -7.634  1.00  0.00     0.031 C 
ATOM     78  C   UNL     1       7.659  13.850  -7.171  1.00  0.00     0.034 A 
BRANCH  65  79
ATOM     79  C   UNL     1      11.864   9.511  -5.753  1.00  0.00     0.023 A 
ATOM     80  C   UNL     1      12.635   8.634  -6.537  1.00  0.00     0.031 A 
ATOM     81  C   UNL     1      12.459  10.053  -4.599  1.00  0.00     0.131 A 
ATOM     82  C   UNL     1      13.920   8.262  -6.116  1.00  0.00     0.055 A 
ATOM     83  C   UNL     1      13.771   9.746  -4.232  1.00  0.00     0.041 A 
ATOM     84  F   UNL     1      11.768  10.880  -3.798  1.00  0.00    -0.206 F 
ATOM     85  C   UNL     1      14.504   8.832  -4.983  1.00  0.00     0.022 A 
BRANCH  82  86
ATOM     86  S   UNL     1      14.755   6.906  -6.984  1.00  0.00     0.124 S 
ATOM     87  O   UNL     1      13.803   5.812  -6.806  1.00  0.00    -0.237 OA
ATOM     88  O   UNL     1      14.882   7.429  -8.339  1.00  0.00    -0.237 OA
ATOM     89  O   UNL     1      16.012   6.753  -6.253  1.00  0.00    -0.744 OA
ENDBRANCH  82  86
ENDBRANCH  65  79
BRANCH  66  90
ATOM     90  C   UNL     1       2.188  11.280  -7.670  1.00  0.00     0.023 A 
ATOM     91  C   UNL     1       1.739  11.815  -8.888  1.00  0.00     0.031 A 
ATOM     92  C   UNL     1       1.239  11.065  -6.655  1.00  0.00     0.131 A 
ATOM     93  C   UNL     1       0.389  12.163  -9.044  1.00  0.00     0.055 A 
ATOM     94  C   UNL     1      -0.114  11.361  -6.835  1.00  0.00     0.041 A 
ATOM     95  F   UNL     1       1.613  10.551  -5.472  1.00  0.00    -0.206 F 
ATOM     96  C   UNL     1      -0.543  11.928  -8.031  1.00  0.00     0.022 A 
BRANCH  93  97
ATOM     97  S   UNL     1      -0.117  13.013 -10.565  1.00  0.00     0.124 S 
ATOM     98  O   UNL     1       0.735  14.196 -10.541  1.00  0.00    -0.237 OA
ATOM     99  O   UNL     1       0.194  12.018 -11.585  1.00  0.00    -0.237 OA
ATOM    100  O   UNL     1      -1.542  13.264 -10.356  1.00  0.00    -0.744 OA
ENDBRANCH  93  97
ENDBRANCH  66  90
BRANCH  78 101
ATOM    101  C   UNL     1       7.864  15.324  -7.423  1.00  0.00     0.023 A 
ATOM    102  C   UNL     1       7.320  16.306  -6.577  1.00  0.00     0.031 A 
ATOM    103  C   UNL     1       8.609  15.751  -8.537  1.00  0.00     0.131 A 
ATOM    104  C   UNL     1       7.484  17.665  -6.888  1.00  0.00     0.055 A 
ATOM    105  C   UNL     1       8.820  17.103  -8.808  1.00  0.00     0.041 A 
ATOM    106  F   UNL     1       9.149  14.856  -9.381  1.00  0.00    -0.206 F 
ATOM    107  C   UNL     1       8.244  18.070  -7.988  1.00  0.00     0.022 A 
BRANCH 104 108
ATOM    108  S   UNL     1       6.613  18.900  -5.884  1.00  0.00     0.124 S 
ATOM    109  O   UNL     1       5.220  18.497  -6.047  1.00  0.00    -0.237 OA
ATOM    110  O   UNL     1       7.188  18.687  -4.559  1.00  0.00    -0.237 OA
ATOM    111  O   UNL     1       6.970  20.169  -6.516  1.00  0.00    -0.744 OA
ENDBRANCH 104 108
ENDBRANCH  78 101
ENDBRANCH  52  53
ENDBRANCH  44  47
ENDBRANCH  42  43
ENDBRANCH  41  42
ENDBRANCH  40  41
ENDBRANCH   3  40
TORSDOF 19
