REMARK SMILES CCc1cc(OC(F)(F)F)cc2c1O[C@@H](C(F)(F)F)C(C(=O)NCCCNC(=O)c1ccc(-c3c4nc(c(-c5cc(S(=O)(=O)[O-])ccc5F)c5ccc([nH]5)c(-c5cc(S(=O)(=O)[O-])ccc5F)c5nc(c(-c6cc(S(=O)(=O)[O-])ccc6F)c6ccc3[nH]6)C=C5)C=C4)cc1)=C2
REMARK SMILES IDX 25 1 24 2 23 3 21 4 22 5 20 7 3 8 4 9 13 10 5 11 12 12 14 13
REMARK SMILES IDX 11 14 93 15 15 16 2 17 1 18 6 19 7 20 8 21 9 22 10 23 16 24
REMARK SMILES IDX 17 25 18 26 19 27 26 28 27 29 28 30 29 32 30 33 31 34 92 35
REMARK SMILES IDX 32 36 91 37 33 38 34 39 35 40 85 41 36 42 90 43 84 44 86 45
REMARK SMILES IDX 37 46 89 47 83 48 82 49 38 51 70 52 50 53 69 54 51 55 54 56
REMARK SMILES IDX 68 57 87 58 52 59 53 60 67 62 88 63 55 64 39 65 40 66 48 67
REMARK SMILES IDX 41 68 47 69 49 70 46 71 42 72 43 73 44 74 45 75 71 76 72 77
REMARK SMILES IDX 80 78 73 79 79 80 81 81 78 82 74 83 75 84 76 85 77 86 56 87
REMARK SMILES IDX 57 88 65 89 58 90 64 91 66 92 63 93 59 94 60 95 61 96 62 97
REMARK H PARENT 23 6 27 31 86 50 54 61
REMARK Flexibility Score: inf
ROOT
ATOM      1  C   UNL     1       0.102   9.562   0.947  1.00  0.00     0.042 C 
ENDROOT
BRANCH   1   2
ATOM      2  C   UNL     1       0.278   8.716   2.212  1.00  0.00     0.118 C 
BRANCH   2   3
ATOM      3  N   UNL     1      -0.997   8.156   2.635  1.00  0.00    -0.352 N 
ATOM      4  C   UNL     1      -1.622   6.973   2.402  1.00  0.00     0.251 C 
ATOM      5  O   UNL     1      -2.779   6.853   2.798  1.00  0.00    -0.270 OA
ATOM      6  H   UNL     1      -1.516   8.762   3.212  1.00  0.00     0.163 HD
BRANCH   4   7
ATOM      7  C   UNL     1      -0.954   5.806   1.768  1.00  0.00     0.067 C 
ATOM      8  C   UNL     1       0.979   2.340   0.338  1.00  0.00    -0.002 A 
ATOM      9  C   UNL     1       2.008   2.494  -0.611  1.00  0.00     0.054 A 
ATOM     10  C   UNL     1       0.315   3.492   0.801  1.00  0.00     0.131 A 
ATOM     11  C   UNL     1       2.343   3.752  -1.116  1.00  0.00     0.130 A 
ATOM     12  C   UNL     1       0.631   4.748   0.288  1.00  0.00     0.021 A 
ATOM     13  O   UNL     1      -0.586   3.331   1.814  1.00  0.00    -0.475 OA
ATOM     14  C   UNL     1       1.640   4.872  -0.670  1.00  0.00     0.058 A 
ATOM     15  C   UNL     1      -0.024   5.935   0.812  1.00  0.00     0.025 C 
ATOM     16  C   UNL     1      -1.494   4.426   2.135  1.00  0.00     0.314 C 
BRANCH   8  17
ATOM     17  C   UNL     1       0.602   0.985   0.906  1.00  0.00     0.036 C 
ATOM     18  C   UNL     1       1.002  -0.232   0.078  1.00  0.00     0.009 C 
ENDBRANCH   8  17
BRANCH  11  19
ATOM     19  O   UNL     1       3.327   4.034  -2.019  1.00  0.00    -0.406 OA
BRANCH  19  20
ATOM     20  C   UNL     1       4.072   2.954  -2.551  1.00  0.00     0.573 C 
ATOM     21  F   UNL     1       4.743   2.299  -1.578  1.00  0.00    -0.132 F 
ATOM     22  F   UNL     1       3.272   2.085  -3.206  1.00  0.00    -0.132 F 
ATOM     23  F   UNL     1       4.978   3.438  -3.428  1.00  0.00    -0.132 F 
ENDBRANCH  19  20
ENDBRANCH  11  19
BRANCH  16  24
ATOM     24  C   UNL     1      -1.944   4.212   3.600  1.00  0.00     0.429 C 
ATOM     25  F   UNL     1      -3.211   4.622   3.832  1.00  0.00    -0.167 F 
ATOM     26  F   UNL     1      -1.937   2.887   3.918  1.00  0.00    -0.167 F 
ATOM     27  F   UNL     1      -1.128   4.825   4.489  1.00  0.00    -0.167 F 
ENDBRANCH  16  24
ENDBRANCH   4   7
ENDBRANCH   2   3
ENDBRANCH   1   2
BRANCH   1  28
ATOM     28  C   UNL     1      -0.572  10.907   1.215  1.00  0.00     0.118 C 
BRANCH  28  29
ATOM     29  N   UNL     1       0.288  11.796   1.984  1.00  0.00    -0.352 N 
ATOM     30  C   UNL     1       0.860  12.993   1.625  1.00  0.00     0.251 C 
ATOM     31  H   UNL     1       0.491  11.494   2.898  1.00  0.00     0.163 HD
ATOM     32  O   UNL     1       1.771  13.452   2.305  1.00  0.00    -0.269 OA
BRANCH  30  33
ATOM     33  C   UNL     1       0.387  13.712   0.422  1.00  0.00     0.039 A 
ATOM     34  C   UNL     1       1.325  14.289  -0.438  1.00  0.00     0.014 A 
ATOM     35  C   UNL     1      -0.979  13.834   0.155  1.00  0.00     0.014 A 
ATOM     36  C   UNL     1       0.895  14.919  -1.609  1.00  0.00     0.010 A 
ATOM     37  C   UNL     1      -1.401  14.402  -1.044  1.00  0.00     0.010 A 
ATOM     38  C   UNL     1      -0.468  14.939  -1.943  1.00  0.00    -0.014 A 
BRANCH  38  39
ATOM     39  C   UNL     1      -0.944  15.482  -3.242  1.00  0.00     0.031 A 
ATOM     40  C   UNL     1      -1.848  16.681  -3.277  1.00  0.00     0.074 A 
ATOM     41  C   UNL     1      -0.627  14.838  -4.382  1.00  0.00     0.049 A 
ATOM     42  N   UNL     1      -2.459  17.229  -4.296  1.00  0.00    -0.248 NA
ATOM     43  C   UNL     1      -2.121  17.331  -1.988  1.00  0.00     0.031 C 
ATOM     44  C   UNL     1       0.229  13.654  -4.473  1.00  0.00     0.029 A 
ATOM     45  N   UNL     1      -0.996  15.080  -5.681  1.00  0.00    -0.354 N 
ATOM     46  C   UNL     1      -3.194  18.287  -3.772  1.00  0.00     0.074 A 
ATOM     47  C   UNL     1      -3.004  18.254  -2.336  1.00  0.00     0.031 C 
ATOM     48  C   UNL     1       0.341  13.290  -5.759  1.00  0.00     0.029 A 
ATOM     49  C   UNL     1      -0.481  14.174  -6.579  1.00  0.00     0.049 A 
ATOM     50  H   UNL     1      -1.576  15.830  -5.946  1.00  0.00     0.167 HD
ATOM     51  C   UNL     1      -3.938  19.212  -4.430  1.00  0.00     0.034 A 
ATOM     52  C   UNL     1      -0.665  14.056  -7.908  1.00  0.00     0.034 A 
ATOM     53  C   UNL     1      -4.127  19.217  -5.862  1.00  0.00     0.049 A 
ATOM     54  C   UNL     1      -1.573  15.036  -8.607  1.00  0.00     0.074 A 
ATOM     55  C   UNL     1      -4.827  20.123  -6.638  1.00  0.00     0.029 A 
ATOM     56  N   UNL     1      -3.627  18.256  -6.733  1.00  0.00    -0.354 N 
ATOM     57  N   UNL     1      -2.231  16.055  -8.105  1.00  0.00    -0.248 NA
ATOM     58  C   UNL     1      -1.762  14.847 -10.050  1.00  0.00     0.031 C 
ATOM     59  C   UNL     1      -4.818  19.668  -7.962  1.00  0.00     0.029 A 
ATOM     60  C   UNL     1      -4.041  18.523  -8.030  1.00  0.00     0.049 A 
ATOM     61  H   UNL     1      -3.061  17.495  -6.468  1.00  0.00     0.167 HD
ATOM     62  C   UNL     1      -2.889  16.647  -9.179  1.00  0.00     0.074 A 
ATOM     63  C   UNL     1      -2.539  15.876 -10.355  1.00  0.00     0.031 C 
ATOM     64  C   UNL     1      -3.702  17.734  -9.193  1.00  0.00     0.034 A 
BRANCH  51  65
ATOM     65  C   UNL     1      -4.625  20.267  -3.592  1.00  0.00     0.023 A 
ATOM     66  C   UNL     1      -3.892  21.149  -2.777  1.00  0.00     0.031 A 
ATOM     67  C   UNL     1      -6.027  20.359  -3.558  1.00  0.00     0.131 A 
ATOM     68  C   UNL     1      -4.560  22.005  -1.889  1.00  0.00     0.055 A 
ATOM     69  C   UNL     1      -6.686  21.284  -2.744  1.00  0.00     0.041 A 
ATOM     70  F   UNL     1      -6.786  19.535  -4.297  1.00  0.00    -0.206 F 
ATOM     71  C   UNL     1      -5.953  22.098  -1.886  1.00  0.00     0.022 A 
BRANCH  68  72
ATOM     72  S   UNL     1      -3.587  22.847  -0.610  1.00  0.00     0.124 S 
ATOM     73  O   UNL     1      -2.934  21.721   0.053  1.00  0.00    -0.237 OA
ATOM     74  O   UNL     1      -2.720  23.717  -1.396  1.00  0.00    -0.237 OA
ATOM     75  O   UNL     1      -4.598  23.531   0.194  1.00  0.00    -0.744 OA
ENDBRANCH  68  72
ENDBRANCH  51  65
BRANCH  52  76
ATOM     76  C   UNL     1       0.015  12.970  -8.669  1.00  0.00     0.023 A 
ATOM     77  C   UNL     1       0.974  13.276  -9.646  1.00  0.00     0.031 A 
ATOM     78  C   UNL     1      -0.298  11.616  -8.451  1.00  0.00     0.131 A 
ATOM     79  C   UNL     1       1.561  12.246 -10.397  1.00  0.00     0.055 A 
ATOM     80  C   UNL     1       0.328  10.591  -9.163  1.00  0.00     0.041 A 
ATOM     81  F   UNL     1      -1.205  11.269  -7.524  1.00  0.00    -0.206 F 
ATOM     82  C   UNL     1       1.256  10.905 -10.151  1.00  0.00     0.022 A 
BRANCH  79  83
ATOM     83  S   UNL     1       2.679  12.691 -11.752  1.00  0.00     0.124 S 
ATOM     84  O   UNL     1       1.809  13.497 -12.601  1.00  0.00    -0.237 OA
ATOM     85  O   UNL     1       3.736  13.410 -11.049  1.00  0.00    -0.237 OA
ATOM     86  O   UNL     1       3.071  11.398 -12.308  1.00  0.00    -0.744 OA
ENDBRANCH  79  83
ENDBRANCH  52  76
BRANCH  64  87
ATOM     87  C   UNL     1      -4.240  18.173 -10.534  1.00  0.00     0.023 A 
ATOM     88  C   UNL     1      -5.160  17.392 -11.255  1.00  0.00     0.031 A 
ATOM     89  C   UNL     1      -3.824  19.394 -11.096  1.00  0.00     0.131 A 
ATOM     90  C   UNL     1      -5.599  17.818 -12.518  1.00  0.00     0.055 A 
ATOM     91  C   UNL     1      -4.312  19.841 -12.324  1.00  0.00     0.041 A 
ATOM     92  F   UNL     1      -2.943  20.177 -10.454  1.00  0.00    -0.206 F 
ATOM     93  C   UNL     1      -5.197  19.047 -13.047  1.00  0.00     0.022 A 
BRANCH  90  94
ATOM     94  S   UNL     1      -6.647  16.707 -13.497  1.00  0.00     0.124 S 
ATOM     95  O   UNL     1      -5.784  15.541 -13.657  1.00  0.00    -0.237 OA
ATOM     96  O   UNL     1      -7.808  16.527 -12.632  1.00  0.00    -0.237 OA
ATOM     97  O   UNL     1      -6.899  17.465 -14.722  1.00  0.00    -0.744 OA
ENDBRANCH  90  94
ENDBRANCH  64  87
ENDBRANCH  38  39
ENDBRANCH  30  33
ENDBRANCH  28  29
ENDBRANCH   1  28
TORSDOF 17
