REMARK SMILES CSCC[C@@H](C(=O)NCCCNC(=O)c1ccc(-c2c3nc(c(-c4cc(S(=O)(=O)[O-])ccc4F)c4ccc([nH]4)c(-c4cc(S(=O)(=O)[O-])ccc4F)c4nc(c(-c5cc(S(=O)(=O)[O-])ccc5F)c5ccc2[nH]5)C=C4)C=C3)cc1)N1C(=O)/C(=C/c2ccc(-c3ccccc3Cl)o2)SC1=S
REMARK SMILES IDX 10 1 9 2 8 3 6 4 7 5 5 7 4 8 3 9 2 10 1 11 78 12 79 13 96 14
REMARK SMILES IDX 80 15 81 16 95 17 97 18 82 19 83 20 84 21 94 22 85 23 86 24
REMARK SMILES IDX 87 25 88 26 92 27 89 28 91 29 93 30 90 31 11 32 12 33 13 34
REMARK SMILES IDX 14 36 15 37 16 38 77 39 17 40 76 41 18 42 19 43 20 44 70 45
REMARK SMILES IDX 21 46 75 47 69 48 71 49 22 50 74 51 68 52 67 53 23 55 55 56
REMARK SMILES IDX 35 57 54 58 36 59 39 60 53 61 72 62 37 63 38 64 52 66 73 67
REMARK SMILES IDX 40 68 24 69 25 70 33 71 26 72 32 73 34 74 31 75 27 76 28 77
REMARK SMILES IDX 29 78 30 79 56 80 57 81 65 82 58 83 64 84 66 85 63 86 59 87
REMARK SMILES IDX 60 88 61 89 62 90 41 91 42 92 50 93 43 94 49 95 51 96 48 97
REMARK SMILES IDX 44 98 45 99 46 100 47 101
REMARK H PARENT 8 6 12 35 71 54 39 65
REMARK Flexibility Score: inf
ROOT
ATOM      1  C   UNL     1       3.324  -0.171  -2.903  1.00  0.00     0.042 C 
ENDROOT
BRANCH   1   2
ATOM      2  C   UNL     1       3.063   0.329  -1.494  1.00  0.00     0.117 C 
BRANCH   2   3
ATOM      3  N   UNL     1       3.403   1.716  -1.308  1.00  0.00    -0.354 N 
ATOM      4  C   UNL     1       2.627   2.747  -0.885  1.00  0.00     0.243 C 
ATOM      5  O   UNL     1       3.237   3.657  -0.308  1.00  0.00    -0.273 OA
ATOM      6  H   UNL     1       4.336   1.952  -1.518  1.00  0.00     0.163 HD
BRANCH   4   7
ATOM      7  C   UNL     1       1.070   2.766  -0.994  1.00  0.00     0.182 C 
BRANCH   7   8
ATOM      8  C   UNL     1       0.349   2.334  -2.283  1.00  0.00     0.046 C 
BRANCH   8   9
ATOM      9  C   UNL     1      -0.134   0.891  -2.480  1.00  0.00     0.072 C 
BRANCH   9  10
ATOM     10  S   UNL     1      -1.347   0.179  -1.311  1.00  0.00    -0.165 SA
ATOM     11  C   UNL     1      -0.390  -0.138   0.197  1.00  0.00     0.085 C 
ENDBRANCH   9  10
ENDBRANCH   8   9
ENDBRANCH   7   8
BRANCH   7  12
ATOM     12  N   UNL     1       0.649   4.167  -0.674  1.00  0.00    -0.280 N 
ATOM     13  C   UNL     1      -0.281   4.364   0.332  1.00  0.00     0.267 C 
ATOM     14  C   UNL     1       1.012   5.296  -1.394  1.00  0.00     0.149 C 
ATOM     15  O   UNL     1      -0.807   3.487   1.011  1.00  0.00    -0.268 OA
ATOM     16  C   UNL     1      -0.652   5.799   0.432  1.00  0.00     0.084 C 
ATOM     17  S   UNL     1       0.305   6.722  -0.654  1.00  0.00    -0.054 SA
ATOM     18  S   UNL     1       1.923   5.433  -2.788  1.00  0.00    -0.052 S 
ATOM     19  C   UNL     1      -1.617   6.230   1.256  1.00  0.00     0.068 C 
BRANCH  19  20
ATOM     20  C   UNL     1      -2.001   7.595   1.355  1.00  0.00     0.128 A 
ATOM     21  C   UNL     1      -2.370   8.498   0.362  1.00  0.00     0.051 A 
ATOM     22  O   UNL     1      -2.054   8.262   2.558  1.00  0.00    -0.457 OA
ATOM     23  C   UNL     1      -2.569   9.756   0.971  1.00  0.00     0.051 A 
ATOM     24  C   UNL     1      -2.329   9.571   2.312  1.00  0.00     0.136 A 
BRANCH  24  25
ATOM     25  C   UNL     1      -2.321  10.474   3.453  1.00  0.00     0.036 A 
ATOM     26  C   UNL     1      -3.417  11.340   3.623  1.00  0.00     0.013 A 
ATOM     27  C   UNL     1      -1.240  10.580   4.343  1.00  0.00     0.052 A 
ATOM     28  C   UNL     1      -3.429  12.293   4.643  1.00  0.00     0.001 A 
ATOM     29  C   UNL     1      -1.256  11.539   5.364  1.00  0.00     0.021 A 
ATOM     30  Cl  UNL     1       0.187   9.607   4.208  1.00  0.00    -0.084 Cl
ATOM     31  C   UNL     1      -2.345  12.397   5.510  1.00  0.00     0.002 A 
ENDBRANCH  24  25
ENDBRANCH  19  20
ENDBRANCH   7  12
ENDBRANCH   4   7
ENDBRANCH   2   3
ENDBRANCH   1   2
BRANCH   1  32
ATOM     32  C   UNL     1       4.789  -0.489  -3.151  1.00  0.00     0.118 C 
BRANCH  32  33
ATOM     33  N   UNL     1       5.241  -1.639  -2.373  1.00  0.00    -0.352 N 
ATOM     34  C   UNL     1       5.673  -2.877  -2.786  1.00  0.00     0.251 C 
ATOM     35  H   UNL     1       5.235  -1.507  -1.398  1.00  0.00     0.163 HD
ATOM     36  O   UNL     1       5.790  -3.777  -1.959  1.00  0.00    -0.269 OA
BRANCH  34  37
ATOM     37  C   UNL     1       5.967  -3.125  -4.214  1.00  0.00     0.039 A 
ATOM     38  C   UNL     1       5.614  -4.351  -4.784  1.00  0.00     0.014 A 
ATOM     39  C   UNL     1       6.589  -2.148  -4.993  1.00  0.00     0.014 A 
ATOM     40  C   UNL     1       5.812  -4.560  -6.151  1.00  0.00     0.010 A 
ATOM     41  C   UNL     1       6.676  -2.312  -6.369  1.00  0.00     0.010 A 
ATOM     42  C   UNL     1       6.301  -3.525  -6.964  1.00  0.00    -0.014 A 
BRANCH  42  43
ATOM     43  C   UNL     1       6.456  -3.689  -8.433  1.00  0.00     0.031 A 
ATOM     44  C   UNL     1       7.815  -3.530  -9.062  1.00  0.00     0.074 A 
ATOM     45  C   UNL     1       5.370  -3.902  -9.203  1.00  0.00     0.049 A 
ATOM     46  N   UNL     1       8.148  -3.523 -10.327  1.00  0.00    -0.248 NA
ATOM     47  C   UNL     1       8.945  -3.309  -8.145  1.00  0.00     0.031 C 
ATOM     48  C   UNL     1       3.996  -4.031  -8.710  1.00  0.00     0.029 A 
ATOM     49  N   UNL     1       5.246  -4.041 -10.562  1.00  0.00    -0.354 N 
ATOM     50  C   UNL     1       9.517  -3.279 -10.357  1.00  0.00     0.074 A 
ATOM     51  C   UNL     1       9.936  -3.069  -8.989  1.00  0.00     0.031 C 
ATOM     52  C   UNL     1       3.176  -4.263  -9.748  1.00  0.00     0.029 A 
ATOM     53  C   UNL     1       3.951  -4.242 -10.983  1.00  0.00     0.049 A 
ATOM     54  H   UNL     1       6.012  -4.000 -11.179  1.00  0.00     0.167 HD
ATOM     55  C   UNL     1      10.353  -3.262 -11.424  1.00  0.00     0.034 A 
ATOM     56  C   UNL     1       3.444  -4.377 -12.226  1.00  0.00     0.034 A 
ATOM     57  C   UNL     1       9.917  -3.494 -12.779  1.00  0.00     0.049 A 
ATOM     58  C   UNL     1       4.389  -4.323 -13.401  1.00  0.00     0.074 A 
ATOM     59  C   UNL     1      10.681  -3.558 -13.930  1.00  0.00     0.029 A 
ATOM     60  N   UNL     1       8.597  -3.693 -13.167  1.00  0.00    -0.354 N 
ATOM     61  N   UNL     1       5.690  -4.142 -13.408  1.00  0.00    -0.248 NA
ATOM     62  C   UNL     1       3.798  -4.500 -14.733  1.00  0.00     0.031 C 
ATOM     63  C   UNL     1       9.819  -3.716 -15.020  1.00  0.00     0.029 A 
ATOM     64  C   UNL     1       8.523  -3.843 -14.543  1.00  0.00     0.049 A 
ATOM     65  H   UNL     1       7.828  -3.724 -12.554  1.00  0.00     0.167 HD
ATOM     66  C   UNL     1       6.076  -4.219 -14.744  1.00  0.00     0.074 A 
ATOM     67  C   UNL     1       4.873  -4.477 -15.508  1.00  0.00     0.031 C 
ATOM     68  C   UNL     1       7.313  -4.092 -15.290  1.00  0.00     0.034 A 
BRANCH  55  69
ATOM     69  C   UNL     1      11.811  -2.962 -11.164  1.00  0.00     0.023 A 
ATOM     70  C   UNL     1      12.603  -3.789 -10.349  1.00  0.00     0.031 A 
ATOM     71  C   UNL     1      12.412  -1.816 -11.716  1.00  0.00     0.131 A 
ATOM     72  C   UNL     1      13.921  -3.418 -10.041  1.00  0.00     0.055 A 
ATOM     73  C   UNL     1      13.752  -1.501 -11.479  1.00  0.00     0.041 A 
ATOM     74  F   UNL     1      11.703  -0.974 -12.483  1.00  0.00    -0.206 F 
ATOM     75  C   UNL     1      14.510  -2.294 -10.624  1.00  0.00     0.022 A 
BRANCH  72  76
ATOM     76  S   UNL     1      14.798  -4.337  -8.747  1.00  0.00     0.124 S 
ATOM     77  O   UNL     1      13.910  -4.152  -7.601  1.00  0.00    -0.237 OA
ATOM     78  O   UNL     1      14.854  -5.685  -9.300  1.00  0.00    -0.237 OA
ATOM     79  O   UNL     1      16.083  -3.648  -8.648  1.00  0.00    -0.744 OA
ENDBRANCH  72  76
ENDBRANCH  55  69
BRANCH  56  80
ATOM     80  C   UNL     1       1.978  -4.563 -12.431  1.00  0.00     0.023 A 
ATOM     81  C   UNL     1       1.473  -5.738 -13.011  1.00  0.00     0.031 A 
ATOM     82  C   UNL     1       1.062  -3.552 -12.091  1.00  0.00     0.131 A 
ATOM     83  C   UNL     1       0.100  -5.852 -13.281  1.00  0.00     0.055 A 
ATOM     84  C   UNL     1      -0.311  -3.695 -12.306  1.00  0.00     0.041 A 
ATOM     85  F   UNL     1       1.488  -2.408 -11.531  1.00  0.00    -0.206 F 
ATOM     86  C   UNL     1      -0.797  -4.846 -12.919  1.00  0.00     0.022 A 
BRANCH  83  87
ATOM     87  S   UNL     1      -0.485  -7.299 -14.207  1.00  0.00     0.124 S 
ATOM     88  O   UNL     1       0.303  -7.205 -15.430  1.00  0.00    -0.237 OA
ATOM     89  O   UNL     1      -0.143  -8.393 -13.304  1.00  0.00    -0.237 OA
ATOM     90  O   UNL     1      -1.915  -7.046 -14.363  1.00  0.00    -0.744 OA
ENDBRANCH  83  87
ENDBRANCH  56  80
BRANCH  68  91
ATOM     91  C   UNL     1       7.428  -4.282 -16.783  1.00  0.00     0.023 A 
ATOM     92  C   UNL     1       6.841  -3.386 -17.693  1.00  0.00     0.031 A 
ATOM     93  C   UNL     1       8.141  -5.379 -17.301  1.00  0.00     0.131 A 
ATOM     94  C   UNL     1       6.930  -3.633 -19.071  1.00  0.00     0.055 A 
ATOM     95  C   UNL     1       8.283  -5.581 -18.674  1.00  0.00     0.041 A 
ATOM     96  F   UNL     1       8.719  -6.269 -16.478  1.00  0.00    -0.206 F 
ATOM     97  C   UNL     1       7.664  -4.713 -19.567  1.00  0.00     0.022 A 
BRANCH  94  98
ATOM     98  S   UNL     1       5.991  -2.575 -20.206  1.00  0.00     0.124 S 
ATOM     99  O   UNL     1       4.623  -2.763 -19.733  1.00  0.00    -0.237 OA
ATOM    100  O   UNL     1       6.575  -1.260 -19.964  1.00  0.00    -0.237 OA
ATOM    101  O   UNL     1       6.276  -3.147 -21.522  1.00  0.00    -0.744 OA
ENDBRANCH  94  98
ENDBRANCH  68  91
ENDBRANCH  42  43
ENDBRANCH  34  37
ENDBRANCH  32  33
ENDBRANCH   1  32
TORSDOF 19
