REMARK SMILES CCc1cccc2c3c([nH]c12)[C@](CC)(CC(=O)NCCCNC(=O)c1ccc(-c2c4nc(c(-c5cc(S(=O)(=O)[O-])ccc5F)c5ccc([nH]5)c(-c5cc(S(=O)(=O)[O-])ccc5F)c5nc(c(-c6cc(S(=O)(=O)[O-])ccc6F)c6ccc2[nH]6)C=C5)C=C4)cc1)OCC3
REMARK SMILES IDX 20 1 19 2 18 3 16 4 17 5 15 7 12 8 3 9 4 10 11 11 5 12 7 13
REMARK SMILES IDX 10 14 6 15 8 16 9 17 90 19 89 20 88 21 2 22 1 23 13 24 14 25
REMARK SMILES IDX 21 26 22 27 23 28 24 30 25 31 26 32 87 33 27 34 86 35 28 36
REMARK SMILES IDX 29 37 30 38 80 39 31 40 85 41 79 42 81 43 32 44 84 45 78 46
REMARK SMILES IDX 77 47 33 49 65 50 45 51 64 52 46 53 49 54 63 55 82 56 47 57
REMARK SMILES IDX 48 58 62 60 83 61 50 62 34 63 35 64 43 65 36 66 42 67 44 68
REMARK SMILES IDX 41 69 37 70 38 71 39 72 40 73 66 74 67 75 75 76 68 77 74 78
REMARK SMILES IDX 76 79 73 80 69 81 70 82 71 83 72 84 51 85 52 86 60 87 53 88
REMARK SMILES IDX 59 89 61 90 58 91 54 92 55 93 56 94 57 95
REMARK H PARENT 18 6 10 18 22 29 81 48 49 59
REMARK Flexibility Score: inf
ROOT
ATOM      1  C   UNL     1      -1.052 -10.804   0.041  1.00  0.00     0.042 C 
ENDROOT
BRANCH   1   2
ATOM      2  C   UNL     1      -2.311 -10.050  -0.436  1.00  0.00     0.117 C 
BRANCH   2   3
ATOM      3  N   UNL     1      -2.705  -8.914   0.397  1.00  0.00    -0.356 N 
ATOM      4  C   UNL     1      -2.574  -7.560   0.249  1.00  0.00     0.223 C 
ATOM      5  O   UNL     1      -2.899  -6.852   1.205  1.00  0.00    -0.275 OA
ATOM      6  H   UNL     1      -3.155  -9.176   1.232  1.00  0.00     0.163 HD
BRANCH   4   7
ATOM      7  C   UNL     1      -2.140  -6.953  -1.066  1.00  0.00     0.142 C 
BRANCH   7   8
ATOM      8  C   UNL     1      -0.669  -6.520  -1.277  1.00  0.00     0.117 C 
ATOM      9  C   UNL     1       0.776  -1.966   0.473  1.00  0.00    -0.024 A 
ATOM     10  C   UNL     1       1.539  -1.605   1.609  1.00  0.00     0.006 A 
ATOM     11  C   UNL     1       0.459  -3.340   0.363  1.00  0.00     0.049 A 
ATOM     12  C   UNL     1       1.966  -2.534   2.555  1.00  0.00     0.001 A 
ATOM     13  C   UNL     1       0.928  -4.288   1.271  1.00  0.00     0.003 A 
ATOM     14  N   UNL     1      -0.271  -4.038  -0.594  1.00  0.00    -0.356 N 
ATOM     15  C   UNL     1       1.678  -3.883   2.388  1.00  0.00     0.010 A 
ATOM     16  C   UNL     1       0.599  -5.556   0.747  1.00  0.00    -0.014 A 
ATOM     17  C   UNL     1      -0.185  -5.396  -0.376  1.00  0.00     0.052 A 
ATOM     18  H   UNL     1      -0.779  -3.620  -1.325  1.00  0.00     0.166 HD
ATOM     19  C   UNL     1       1.115  -6.866   1.171  1.00  0.00     0.066 C 
ATOM     20  C   UNL     1       0.592  -7.963   0.257  1.00  0.00     0.166 C 
ATOM     21  O   UNL     1       0.268  -7.609  -1.092  1.00  0.00    -0.368 OA
BRANCH   9  22
ATOM     22  C   UNL     1       0.381  -0.963  -0.584  1.00  0.00     0.034 C 
ATOM     23  C   UNL     1       0.836   0.477  -0.364  1.00  0.00     0.009 C 
ENDBRANCH   9  22
BRANCH   8  24
ATOM     24  C   UNL     1      -0.492  -6.105  -2.774  1.00  0.00     0.039 C 
ATOM     25  C   UNL     1      -0.905  -7.166  -3.797  1.00  0.00     0.007 C 
ENDBRANCH   8  24
ENDBRANCH   7   8
ENDBRANCH   4   7
ENDBRANCH   2   3
ENDBRANCH   1   2
BRANCH   1  26
ATOM     26  C   UNL     1      -0.735 -10.709   1.536  1.00  0.00     0.118 C 
BRANCH  26  27
ATOM     27  N   UNL     1      -1.242 -11.782   2.356  1.00  0.00    -0.352 N 
ATOM     28  C   UNL     1      -0.738 -13.005   2.705  1.00  0.00     0.251 C 
ATOM     29  H   UNL     1      -2.128 -11.596   2.742  1.00  0.00     0.163 HD
ATOM     30  O   UNL     1      -1.365 -13.642   3.553  1.00  0.00    -0.269 OA
BRANCH  28  31
ATOM     31  C   UNL     1       0.443 -13.626   2.054  1.00  0.00     0.039 A 
ATOM     32  C   UNL     1       1.539 -12.937   1.533  1.00  0.00     0.014 A 
ATOM     33  C   UNL     1       0.424 -15.027   1.974  1.00  0.00     0.014 A 
ATOM     34  C   UNL     1       2.511 -13.614   0.803  1.00  0.00     0.010 A 
ATOM     35  C   UNL     1       1.423 -15.713   1.295  1.00  0.00     0.010 A 
ATOM     36  C   UNL     1       2.430 -15.000   0.648  1.00  0.00    -0.014 A 
BRANCH  36  37
ATOM     37  C   UNL     1       3.434 -15.657  -0.187  1.00  0.00     0.031 A 
ATOM     38  C   UNL     1       4.860 -15.539   0.242  1.00  0.00     0.074 A 
ATOM     39  C   UNL     1       3.109 -16.443  -1.232  1.00  0.00     0.049 A 
ATOM     40  N   UNL     1       5.867 -15.029  -0.396  1.00  0.00    -0.248 NA
ATOM     41  C   UNL     1       5.185 -16.000   1.598  1.00  0.00     0.031 C 
ATOM     42  C   UNL     1       1.786 -16.951  -1.611  1.00  0.00     0.029 A 
ATOM     43  N   UNL     1       3.941 -17.049  -2.123  1.00  0.00    -0.354 N 
ATOM     44  C   UNL     1       6.990 -15.238   0.410  1.00  0.00     0.074 A 
ATOM     45  C   UNL     1       6.491 -15.739   1.667  1.00  0.00     0.031 C 
ATOM     46  C   UNL     1       1.938 -17.966  -2.490  1.00  0.00     0.029 A 
ATOM     47  C   UNL     1       3.340 -18.055  -2.857  1.00  0.00     0.049 A 
ATOM     48  H   UNL     1       4.885 -16.794  -2.234  1.00  0.00     0.167 HD
ATOM     49  C   UNL     1       8.271 -15.120  -0.049  1.00  0.00     0.034 A 
ATOM     50  C   UNL     1       3.963 -18.960  -3.647  1.00  0.00     0.034 A 
ATOM     51  C   UNL     1       8.328 -14.428  -1.305  1.00  0.00     0.049 A 
ATOM     52  C   UNL     1       5.303 -18.432  -3.992  1.00  0.00     0.074 A 
ATOM     53  C   UNL     1       8.065 -13.143  -1.729  1.00  0.00     0.029 A 
ATOM     54  N   UNL     1       8.454 -15.180  -2.445  1.00  0.00    -0.354 N 
ATOM     55  N   UNL     1       5.518 -17.400  -4.759  1.00  0.00    -0.248 NA
ATOM     56  C   UNL     1       6.426 -18.838  -3.162  1.00  0.00     0.031 C 
ATOM     57  C   UNL     1       7.588 -13.284  -3.063  1.00  0.00     0.029 A 
ATOM     58  C   UNL     1       7.604 -14.646  -3.377  1.00  0.00     0.049 A 
ATOM     59  H   UNL     1       9.045 -15.957  -2.571  1.00  0.00     0.167 HD
ATOM     60  C   UNL     1       6.629 -16.777  -4.208  1.00  0.00     0.074 A 
ATOM     61  C   UNL     1       7.213 -17.772  -3.314  1.00  0.00     0.031 C 
ATOM     62  C   UNL     1       6.822 -15.428  -4.315  1.00  0.00     0.034 A 
BRANCH  49  63
ATOM     63  C   UNL     1       9.470 -15.854   0.512  1.00  0.00     0.023 A 
ATOM     64  C   UNL     1       9.349 -16.947   1.389  1.00  0.00     0.031 A 
ATOM     65  C   UNL     1      10.768 -15.614   0.009  1.00  0.00     0.131 A 
ATOM     66  C   UNL     1      10.459 -17.723   1.755  1.00  0.00     0.055 A 
ATOM     67  C   UNL     1      11.864 -16.431   0.321  1.00  0.00     0.041 A 
ATOM     68  F   UNL     1      11.006 -14.608  -0.848  1.00  0.00    -0.206 F 
ATOM     69  C   UNL     1      11.713 -17.492   1.203  1.00  0.00     0.022 A 
BRANCH  66  70
ATOM     70  S   UNL     1      10.274 -19.055   2.973  1.00  0.00     0.124 S 
ATOM     71  O   UNL     1      10.562 -20.239   2.162  1.00  0.00    -0.237 OA
ATOM     72  O   UNL     1      11.301 -18.703   3.955  1.00  0.00    -0.237 OA
ATOM     73  O   UNL     1       8.905 -18.910   3.432  1.00  0.00    -0.744 OA
ENDBRANCH  66  70
ENDBRANCH  49  63
BRANCH  50  74
ATOM     74  C   UNL     1       3.647 -20.405  -3.685  1.00  0.00     0.023 A 
ATOM     75  C   UNL     1       3.151 -21.041  -2.529  1.00  0.00     0.031 A 
ATOM     76  C   UNL     1       4.088 -21.221  -4.736  1.00  0.00     0.131 A 
ATOM     77  C   UNL     1       3.141 -22.437  -2.432  1.00  0.00     0.055 A 
ATOM     78  C   UNL     1       4.066 -22.618  -4.643  1.00  0.00     0.041 A 
ATOM     79  F   UNL     1       4.603 -20.677  -5.849  1.00  0.00    -0.206 F 
ATOM     80  C   UNL     1       3.602 -23.232  -3.482  1.00  0.00     0.022 A 
BRANCH  77  81
ATOM     81  S   UNL     1       2.586 -23.245  -0.906  1.00  0.00     0.124 S 
ATOM     82  O   UNL     1       1.698 -24.288  -1.415  1.00  0.00    -0.237 OA
ATOM     83  O   UNL     1       3.847 -23.714  -0.343  1.00  0.00    -0.237 OA
ATOM     84  O   UNL     1       1.919 -22.173  -0.174  1.00  0.00    -0.744 OA
ENDBRANCH  77  81
ENDBRANCH  50  74
BRANCH  62  85
ATOM     85  C   UNL     1       5.950 -14.627  -5.258  1.00  0.00     0.023 A 
ATOM     86  C   UNL     1       6.590 -13.728  -6.132  1.00  0.00     0.031 A 
ATOM     87  C   UNL     1       4.551 -14.529  -5.135  1.00  0.00     0.131 A 
ATOM     88  C   UNL     1       5.849 -12.745  -6.800  1.00  0.00     0.055 A 
ATOM     89  C   UNL     1       3.808 -13.592  -5.859  1.00  0.00     0.041 A 
ATOM     90  F   UNL     1       3.875 -15.263  -4.243  1.00  0.00    -0.206 F 
ATOM     91  C   UNL     1       4.458 -12.681  -6.683  1.00  0.00     0.022 A 
BRANCH  88  92
ATOM     92  S   UNL     1       6.688 -11.419  -7.706  1.00  0.00     0.124 S 
ATOM     93  O   UNL     1       6.164 -11.588  -9.059  1.00  0.00    -0.237 OA
ATOM     94  O   UNL     1       6.224 -10.224  -7.003  1.00  0.00    -0.237 OA
ATOM     95  O   UNL     1       8.107 -11.720  -7.545  1.00  0.00    -0.744 OA
ENDBRANCH  88  92
ENDBRANCH  62  85
ENDBRANCH  36  37
ENDBRANCH  28  31
ENDBRANCH  26  27
ENDBRANCH   1  26
TORSDOF 16
