REMARK SMILES CC1(C)CCC[C@H]1NS(=O)(=O)c1ccc(CC(=O)NCCCNC(=O)c2ccc(-c3c4nc(c(-c5cc(S(=O)(=O)[O-])ccc5F)c5ccc([nH]5)c(-c5cc(S(=O)(=O)[O-])ccc5F)c5nc(c(-c6cc(S(=O)(=O)[O-])ccc6F)c6ccc3[nH]6)C=C5)C=C4)cc2)cc1
REMARK SMILES IDX 20 1 19 2 17 3 18 4 16 6 15 7 12 8 13 9 90 10 14 11 89 12
REMARK SMILES IDX 9 13 10 14 11 15 8 16 7 18 1 19 2 20 3 21 4 22 5 23 6 24
REMARK SMILES IDX 21 25 22 26 23 27 24 28 25 30 26 31 27 32 88 33 28 34 87 35
REMARK SMILES IDX 29 36 30 37 31 38 81 39 32 40 86 41 80 42 82 43 33 44 85 45
REMARK SMILES IDX 79 46 78 47 34 49 66 50 46 51 65 52 47 53 50 54 64 55 83 56
REMARK SMILES IDX 48 57 49 58 63 60 84 61 51 62 35 63 36 64 44 65 37 66 43 67
REMARK SMILES IDX 45 68 42 69 38 70 39 71 40 72 41 73 67 74 68 75 76 76 69 77
REMARK SMILES IDX 75 78 77 79 74 80 70 81 71 82 72 83 73 84 52 85 53 86 61 87
REMARK SMILES IDX 54 88 60 89 62 90 59 91 55 92 56 93 57 94 58 95
REMARK H PARENT 19 5 8 17 23 29 82 48 50 59
REMARK Flexibility Score: inf
ROOT
ATOM      1  C   UNL     1       1.238   9.139   0.869  1.00  0.00     0.117 C 
ENDROOT
BRANCH   1   2
ATOM      2  N   UNL     1       1.911   8.912  -0.398  1.00  0.00    -0.356 N 
ATOM      3  C   UNL     1       1.447   8.284  -1.518  1.00  0.00     0.224 C 
ATOM      4  O   UNL     1       2.198   8.173  -2.489  1.00  0.00    -0.275 OA
ATOM      5  H   UNL     1       2.830   9.260  -0.458  1.00  0.00     0.163 HD
BRANCH   3   6
ATOM      6  C   UNL     1       0.020   7.771  -1.564  1.00  0.00     0.135 C 
BRANCH   6   7
ATOM      7  C   UNL     1      -0.248   6.585  -0.668  1.00  0.00    -0.039 A 
ATOM      8  C   UNL     1      -0.790   4.395   0.986  1.00  0.00     0.082 A 
ATOM      9  C   UNL     1       0.353   4.385   0.189  1.00  0.00     0.022 A 
ATOM     10  C   UNL     1      -1.659   5.491   0.971  1.00  0.00     0.022 A 
ATOM     11  C   UNL     1       0.610   5.472  -0.652  1.00  0.00     0.005 A 
ATOM     12  C   UNL     1      -1.389   6.580   0.147  1.00  0.00     0.005 A 
BRANCH   8  13
ATOM     13  S   UNL     1      -1.271   3.013   1.983  1.00  0.00     0.240 S 
ATOM     14  O   UNL     1      -2.659   2.744   1.684  1.00  0.00    -0.207 OA
ATOM     15  O   UNL     1      -0.832   3.304   3.329  1.00  0.00    -0.207 OA
BRANCH  13  16
ATOM     16  N   UNL     1      -0.353   1.704   1.480  1.00  0.00    -0.208 NA
ATOM     17  H   UNL     1       0.617   2.019   1.505  1.00  0.00     0.141 HD
BRANCH  16  18
ATOM     18  C   UNL     1      -0.528   1.044   0.180  1.00  0.00     0.075 C 
ATOM     19  C   UNL     1       1.895   0.171   0.686  1.00  0.00     0.013 C 
ATOM     20  C   UNL     1       0.562  -0.050  -0.045  1.00  0.00    -0.019 C 
ATOM     21  C   UNL     1       0.875  -0.170  -1.552  1.00  0.00     0.013 C 
ATOM     22  C   UNL     1      -0.127  -1.325   0.468  1.00  0.00     0.008 C 
ATOM     23  C   UNL     1      -1.562  -1.192  -0.010  1.00  0.00     0.002 C 
ATOM     24  C   UNL     1      -1.871   0.297   0.088  1.00  0.00     0.020 C 
ENDBRANCH  16  18
ENDBRANCH  13  16
ENDBRANCH   8  13
ENDBRANCH   6   7
ENDBRANCH   3   6
ENDBRANCH   1   2
BRANCH   1  25
ATOM     25  C   UNL     1       1.686   8.169   1.961  1.00  0.00     0.042 C 
BRANCH  25  26
ATOM     26  C   UNL     1       3.156   8.288   2.363  1.00  0.00     0.118 C 
BRANCH  26  27
ATOM     27  N   UNL     1       3.483   9.598   2.901  1.00  0.00    -0.352 N 
ATOM     28  C   UNL     1       4.081   9.964   4.079  1.00  0.00     0.251 C 
ATOM     29  H   UNL     1       3.233  10.351   2.319  1.00  0.00     0.163 HD
ATOM     30  O   UNL     1       4.076  11.156   4.384  1.00  0.00    -0.269 OA
BRANCH  28  31
ATOM     31  C   UNL     1       4.710   8.974   4.987  1.00  0.00     0.039 A 
ATOM     32  C   UNL     1       4.620   9.197   6.365  1.00  0.00     0.014 A 
ATOM     33  C   UNL     1       5.446   7.883   4.514  1.00  0.00     0.014 A 
ATOM     34  C   UNL     1       5.224   8.312   7.262  1.00  0.00     0.010 A 
ATOM     35  C   UNL     1       5.999   6.965   5.412  1.00  0.00     0.010 A 
ATOM     36  C   UNL     1       5.899   7.173   6.796  1.00  0.00    -0.014 A 
BRANCH  36  37
ATOM     37  C   UNL     1       6.486   6.202   7.758  1.00  0.00     0.031 A 
ATOM     38  C   UNL     1       7.977   6.024   7.863  1.00  0.00     0.074 A 
ATOM     39  C   UNL     1       5.665   5.459   8.526  1.00  0.00     0.049 A 
ATOM     40  N   UNL     1       8.663   5.239   8.655  1.00  0.00    -0.248 NA
ATOM     41  C   UNL     1       8.803   6.814   6.939  1.00  0.00     0.031 C 
ATOM     42  C   UNL     1       4.202   5.498   8.477  1.00  0.00     0.029 A 
ATOM     43  N   UNL     1       5.940   4.529   9.496  1.00  0.00    -0.354 N 
ATOM     44  C   UNL     1      10.000   5.433   8.323  1.00  0.00     0.074 A 
ATOM     45  C   UNL     1      10.020   6.371   7.219  1.00  0.00     0.031 C 
ATOM     46  C   UNL     1       3.709   4.652   9.396  1.00  0.00     0.029 A 
ATOM     47  C   UNL     1       4.816   3.992  10.080  1.00  0.00     0.049 A 
ATOM     48  H   UNL     1       6.855   4.270   9.751  1.00  0.00     0.167 HD
ATOM     49  C   UNL     1      11.107   4.895   8.895  1.00  0.00     0.034 A 
ATOM     50  C   UNL     1       4.690   3.075  11.058  1.00  0.00     0.034 A 
ATOM     51  C   UNL     1      11.074   3.966  10.001  1.00  0.00     0.049 A 
ATOM     52  C   UNL     1       5.931   2.512  11.696  1.00  0.00     0.074 A 
ATOM     53  C   UNL     1      12.135   3.401  10.689  1.00  0.00     0.029 A 
ATOM     54  N   UNL     1       9.917   3.457  10.579  1.00  0.00    -0.354 N 
ATOM     55  N   UNL     1       7.190   2.751  11.408  1.00  0.00    -0.248 NA
ATOM     56  C   UNL     1       5.732   1.571  12.805  1.00  0.00     0.031 C 
ATOM     57  C   UNL     1      11.623   2.513  11.643  1.00  0.00     0.029 A 
ATOM     58  C   UNL     1      10.239   2.570  11.597  1.00  0.00     0.049 A 
ATOM     59  H   UNL     1       9.001   3.693  10.306  1.00  0.00     0.167 HD
ATOM     60  C   UNL     1       7.933   2.002  12.315  1.00  0.00     0.074 A 
ATOM     61  C   UNL     1       6.981   1.328  13.175  1.00  0.00     0.031 C 
ATOM     62  C   UNL     1       9.281   1.880  12.428  1.00  0.00     0.034 A 
BRANCH  49  63
ATOM     63  C   UNL     1      12.446   5.282   8.311  1.00  0.00     0.023 A 
ATOM     64  C   UNL     1      12.914   6.607   8.351  1.00  0.00     0.031 A 
ATOM     65  C   UNL     1      13.255   4.319   7.681  1.00  0.00     0.131 A 
ATOM     66  C   UNL     1      14.115   6.947   7.709  1.00  0.00     0.055 A 
ATOM     67  C   UNL     1      14.486   4.649   7.112  1.00  0.00     0.041 A 
ATOM     68  F   UNL     1      12.854   3.041   7.596  1.00  0.00    -0.206 F 
ATOM     69  C   UNL     1      14.916   5.973   7.110  1.00  0.00     0.022 A 
BRANCH  66  70
ATOM     70  S   UNL     1      14.547   8.702   7.549  1.00  0.00     0.124 S 
ATOM     71  O   UNL     1      13.403   9.220   6.803  1.00  0.00    -0.237 OA
ATOM     72  O   UNL     1      14.650   9.130   8.940  1.00  0.00    -0.237 OA
ATOM     73  O   UNL     1      15.807   8.679   6.808  1.00  0.00    -0.744 OA
ENDBRANCH  66  70
ENDBRANCH  49  63
BRANCH  50  74
ATOM     74  C   UNL     1       3.339   2.634  11.504  1.00  0.00     0.023 A 
ATOM     75  C   UNL     1       2.864   2.944  12.787  1.00  0.00     0.031 A 
ATOM     76  C   UNL     1       2.518   1.865  10.661  1.00  0.00     0.131 A 
ATOM     77  C   UNL     1       1.620   2.451  13.210  1.00  0.00     0.055 A 
ATOM     78  C   UNL     1       1.262   1.415  11.069  1.00  0.00     0.041 A 
ATOM     79  F   UNL     1       2.925   1.550   9.421  1.00  0.00    -0.206 F 
ATOM     80  C   UNL     1       0.812   1.698  12.355  1.00  0.00     0.022 A 
BRANCH  77  81
ATOM     81  S   UNL     1       1.104   2.750  14.922  1.00  0.00     0.124 S 
ATOM     82  O   UNL     1       2.197   2.143  15.674  1.00  0.00    -0.237 OA
ATOM     83  O   UNL     1       1.029   4.207  14.965  1.00  0.00    -0.237 OA
ATOM     84  O   UNL     1      -0.179   2.059  15.017  1.00  0.00    -0.744 OA
ENDBRANCH  77  81
ENDBRANCH  50  74
BRANCH  62  85
ATOM     85  C   UNL     1       9.786   0.996  13.542  1.00  0.00     0.023 A 
ATOM     86  C   UNL     1       9.556  -0.392  13.540  1.00  0.00     0.031 A 
ATOM     87  C   UNL     1      10.457   1.554  14.643  1.00  0.00     0.131 A 
ATOM     88  C   UNL     1       9.927  -1.164  14.651  1.00  0.00     0.055 A 
ATOM     89  C   UNL     1      10.878   0.771  15.720  1.00  0.00     0.041 A 
ATOM     90  F   UNL     1      10.702   2.873  14.699  1.00  0.00    -0.206 F 
ATOM     91  C   UNL     1      10.598  -0.593  15.736  1.00  0.00     0.022 A 
BRANCH  88  92
ATOM     92  S   UNL     1       9.413  -2.902  14.713  1.00  0.00     0.124 S 
ATOM     93  O   UNL     1       7.969  -2.801  14.527  1.00  0.00    -0.237 OA
ATOM     94  O   UNL     1      10.159  -3.487  13.604  1.00  0.00    -0.237 OA
ATOM     95  O   UNL     1       9.836  -3.338  16.043  1.00  0.00    -0.744 OA
ENDBRANCH  88  92
ENDBRANCH  62  85
ENDBRANCH  36  37
ENDBRANCH  28  31
ENDBRANCH  26  27
ENDBRANCH  25  26
ENDBRANCH   1  25
TORSDOF 17
