REMARK SMILES O=C1NC(=O)/C(=C/c2ccc(OCc3cn(-c4ccc(C(=O)NCCCNC(=O)c5ccc(-c6c7nc(c(-c8cc(S(=O)(=O)[O-])ccc8F)c8ccc([nH]8)c(-c8cc(S(=O)(=O)[O-])ccc8F)c8nc(c(-c9cc(S(=O)(=O)[O-])ccc9F)c9ccc6[nH]9)C=C8)C=C7)cc5)cc4)nn3)cc2)S1
REMARK SMILES IDX 24 1 23 2 21 3 22 4 20 6 17 7 18 8 94 9 19 10 93 11 16 12
REMARK SMILES IDX 14 13 15 14 96 15 95 16 13 17 12 18 11 19 8 20 9 21 98 22
REMARK SMILES IDX 10 23 97 24 7 25 1 26 2 27 3 28 99 29 4 30 6 32 5 33 25 34
REMARK SMILES IDX 26 35 27 36 28 37 29 39 30 40 31 41 92 42 32 43 91 44 33 45
REMARK SMILES IDX 34 46 35 47 85 48 36 49 90 50 84 51 86 52 37 53 89 54 83 55
REMARK SMILES IDX 82 56 38 58 70 59 50 60 69 61 51 62 54 63 68 64 87 65 52 66
REMARK SMILES IDX 53 67 67 69 88 70 55 71 39 72 40 73 48 74 41 75 47 76 49 77
REMARK SMILES IDX 46 78 42 79 43 80 44 81 45 82 71 83 72 84 80 85 73 86 79 87
REMARK SMILES IDX 81 88 78 89 74 90 75 91 76 92 77 93 56 94 57 95 65 96 58 97
REMARK SMILES IDX 64 98 66 99 63 100 59 101 60 102 61 103 62 104
REMARK H PARENT 23 5 3 31 27 38 86 57 54 68
REMARK Flexibility Score: inf
ROOT
ATOM      1  C   UNL     1      -7.455  10.666  -0.935  1.00  0.00     0.118 C 
ENDROOT
BRANCH   1   2
ATOM      2  N   UNL     1      -8.187   9.713  -0.114  1.00  0.00    -0.352 N 
ATOM      3  C   UNL     1      -7.772   8.647   0.648  1.00  0.00     0.251 C 
ATOM      4  O   UNL     1      -8.613   8.045   1.313  1.00  0.00    -0.269 OA
ATOM      5  H   UNL     1      -9.161   9.858  -0.103  1.00  0.00     0.163 HD
BRANCH   3   6
ATOM      6  C   UNL     1      -6.344   8.236   0.751  1.00  0.00     0.039 A 
ATOM      7  C   UNL     1      -3.652   7.586   1.158  1.00  0.00     0.066 A 
ATOM      8  C   UNL     1      -4.615   7.161   2.081  1.00  0.00     0.029 A 
ATOM      9  C   UNL     1      -4.032   8.258   0.002  1.00  0.00     0.029 A 
ATOM     10  C   UNL     1      -5.953   7.516   1.889  1.00  0.00     0.016 A 
ATOM     11  C   UNL     1      -5.378   8.520  -0.217  1.00  0.00     0.016 A 
BRANCH   7  12
ATOM     12  N   UNL     1      -2.292   7.326   1.385  1.00  0.00    -0.220 N 
ATOM     13  C   UNL     1      -0.114   7.350   1.410  1.00  0.00     0.120 A 
ATOM     14  C   UNL     1      -1.205   8.053   0.952  1.00  0.00     0.144 A 
ATOM     15  N   UNL     1      -0.564   6.271   2.126  1.00  0.00    -0.131 NA
ATOM     16  N   UNL     1      -1.884   6.285   2.135  1.00  0.00    -0.062 NA
BRANCH  13  17
ATOM     17  C   UNL     1       1.345   7.657   1.339  1.00  0.00     0.289 C 
BRANCH  17  18
ATOM     18  O   UNL     1       2.079   6.985   0.300  1.00  0.00    -0.487 OA
BRANCH  18  19
ATOM     19  C   UNL     1       2.199   5.623   0.360  1.00  0.00     0.119 A 
ATOM     20  C   UNL     1       2.218   2.823   0.122  1.00  0.00    -0.024 A 
ATOM     21  C   UNL     1       2.689   3.619  -0.924  1.00  0.00     0.012 A 
ATOM     22  C   UNL     1       1.833   3.431   1.318  1.00  0.00     0.012 A 
ATOM     23  C   UNL     1       2.670   5.015  -0.806  1.00  0.00     0.047 A 
ATOM     24  C   UNL     1       1.862   4.821   1.446  1.00  0.00     0.047 A 
BRANCH  20  25
ATOM     25  C   UNL     1       2.145   1.366  -0.013  1.00  0.00     0.029 C 
ATOM     26  O   UNL     1      -2.446  -0.719   0.028  1.00  0.00    -0.261 OA
ATOM     27  C   UNL     1      -1.251  -0.435  -0.001  1.00  0.00     0.290 C 
ATOM     28  N   UNL     1      -0.235  -1.325  -0.050  1.00  0.00    -0.282 N 
ATOM     29  S   UNL     1      -0.619   1.196   0.015  1.00  0.00    -0.022 SA
ATOM     30  C   UNL     1       1.041  -0.843  -0.079  1.00  0.00     0.265 C 
ATOM     31  H   UNL     1      -0.411  -2.293  -0.063  1.00  0.00     0.174 HD
ATOM     32  C   UNL     1       1.016   0.643  -0.032  1.00  0.00     0.083 C 
ATOM     33  O   UNL     1       2.045  -1.531  -0.119  1.00  0.00    -0.268 OA
ENDBRANCH  20  25
ENDBRANCH  18  19
ENDBRANCH  17  18
ENDBRANCH  13  17
ENDBRANCH   7  12
ENDBRANCH   3   6
ENDBRANCH   1   2
BRANCH   1  34
ATOM     34  C   UNL     1      -7.346  10.201  -2.397  1.00  0.00     0.042 C 
BRANCH  34  35
ATOM     35  C   UNL     1      -8.558  10.605  -3.204  1.00  0.00     0.118 C 
BRANCH  35  36
ATOM     36  N   UNL     1      -8.602  12.052  -3.466  1.00  0.00    -0.352 N 
ATOM     37  C   UNL     1      -9.584  12.778  -4.128  1.00  0.00     0.251 C 
ATOM     38  H   UNL     1      -7.837  12.572  -3.130  1.00  0.00     0.163 HD
ATOM     39  O   UNL     1      -9.338  13.883  -4.596  1.00  0.00    -0.269 OA
BRANCH  37  40
ATOM     40  C   UNL     1     -10.923  12.177  -4.238  1.00  0.00     0.039 A 
ATOM     41  C   UNL     1     -11.743  12.275  -5.364  1.00  0.00     0.014 A 
ATOM     42  C   UNL     1     -11.300  11.393  -3.163  1.00  0.00     0.014 A 
ATOM     43  C   UNL     1     -12.921  11.527  -5.380  1.00  0.00     0.010 A 
ATOM     44  C   UNL     1     -12.187  10.392  -3.375  1.00  0.00     0.010 A 
ATOM     45  C   UNL     1     -13.128  10.584  -4.363  1.00  0.00    -0.014 A 
BRANCH  45  46
ATOM     46  C   UNL     1     -14.276   9.701  -4.268  1.00  0.00     0.031 A 
ATOM     47  C   UNL     1     -14.449   8.828  -5.446  1.00  0.00     0.074 A 
ATOM     48  C   UNL     1     -14.918   9.488  -3.094  1.00  0.00     0.049 A 
ATOM     49  N   UNL     1     -15.325   8.954  -6.384  1.00  0.00    -0.248 NA
ATOM     50  C   UNL     1     -13.410   7.825  -5.736  1.00  0.00     0.031 C 
ATOM     51  C   UNL     1     -14.633  10.030  -1.756  1.00  0.00     0.029 A 
ATOM     52  N   UNL     1     -15.920   8.614  -2.830  1.00  0.00    -0.354 N 
ATOM     53  C   UNL     1     -15.128   7.867  -7.224  1.00  0.00     0.074 A 
ATOM     54  C   UNL     1     -13.803   7.387  -6.935  1.00  0.00     0.031 C 
ATOM     55  C   UNL     1     -15.265   9.291  -0.815  1.00  0.00     0.029 A 
ATOM     56  C   UNL     1     -16.134   8.338  -1.481  1.00  0.00     0.049 A 
ATOM     57  H   UNL     1     -16.460   8.202  -3.543  1.00  0.00     0.167 HD
ATOM     58  C   UNL     1     -16.177   7.286  -7.868  1.00  0.00     0.034 A 
ATOM     59  C   UNL     1     -16.944   7.368  -0.971  1.00  0.00     0.034 A 
ATOM     60  C   UNL     1     -17.361   8.119  -7.782  1.00  0.00     0.049 A 
ATOM     61  C   UNL     1     -17.920   7.049  -2.052  1.00  0.00     0.074 A 
ATOM     62  C   UNL     1     -17.642   9.431  -8.120  1.00  0.00     0.029 A 
ATOM     63  N   UNL     1     -18.334   7.766  -6.868  1.00  0.00    -0.354 N 
ATOM     64  N   UNL     1     -18.784   7.924  -2.502  1.00  0.00    -0.248 NA
ATOM     65  C   UNL     1     -17.566   5.995  -2.994  1.00  0.00     0.031 C 
ATOM     66  C   UNL     1     -18.379   9.939  -7.006  1.00  0.00     0.029 A 
ATOM     67  C   UNL     1     -18.608   8.886  -6.116  1.00  0.00     0.049 A 
ATOM     68  H   UNL     1     -18.753   6.880  -6.772  1.00  0.00     0.167 HD
ATOM     69  C   UNL     1     -18.749   7.794  -3.884  1.00  0.00     0.074 A 
ATOM     70  C   UNL     1     -18.036   6.536  -4.125  1.00  0.00     0.031 C 
ATOM     71  C   UNL     1     -19.002   8.851  -4.717  1.00  0.00     0.034 A 
BRANCH  58  72
ATOM     72  C   UNL     1     -16.263   5.825  -8.240  1.00  0.00     0.023 A 
ATOM     73  C   UNL     1     -17.392   5.420  -8.975  1.00  0.00     0.031 A 
ATOM     74  C   UNL     1     -15.478   4.784  -7.694  1.00  0.00     0.131 A 
ATOM     75  C   UNL     1     -17.754   4.066  -9.054  1.00  0.00     0.055 A 
ATOM     76  C   UNL     1     -15.803   3.433  -7.837  1.00  0.00     0.041 A 
ATOM     77  F   UNL     1     -14.416   5.006  -6.912  1.00  0.00    -0.206 F 
ATOM     78  C   UNL     1     -16.965   3.067  -8.491  1.00  0.00     0.022 A 
BRANCH  75  79
ATOM     79  S   UNL     1     -19.375   3.654  -9.745  1.00  0.00     0.124 S 
ATOM     80  O   UNL     1     -20.259   4.499  -8.950  1.00  0.00    -0.237 OA
ATOM     81  O   UNL     1     -19.209   4.034 -11.144  1.00  0.00    -0.237 OA
ATOM     82  O   UNL     1     -19.494   2.219  -9.498  1.00  0.00    -0.744 OA
ENDBRANCH  75  79
ENDBRANCH  58  72
BRANCH  59  83
ATOM     83  C   UNL     1     -16.645   6.471   0.191  1.00  0.00     0.023 A 
ATOM     84  C   UNL     1     -17.626   5.710   0.868  1.00  0.00     0.031 A 
ATOM     85  C   UNL     1     -15.298   6.176   0.510  1.00  0.00     0.131 A 
ATOM     86  C   UNL     1     -17.243   4.719   1.812  1.00  0.00     0.055 A 
ATOM     87  C   UNL     1     -14.927   5.198   1.438  1.00  0.00     0.041 A 
ATOM     88  F   UNL     1     -14.284   6.774  -0.134  1.00  0.00    -0.206 F 
ATOM     89  C   UNL     1     -15.899   4.458   2.088  1.00  0.00     0.022 A 
BRANCH  86  90
ATOM     90  S   UNL     1     -18.494   3.684   2.650  1.00  0.00     0.124 S 
ATOM     91  O   UNL     1     -19.148   4.642   3.534  1.00  0.00    -0.237 OA
ATOM     92  O   UNL     1     -19.289   3.183   1.535  1.00  0.00    -0.237 OA
ATOM     93  O   UNL     1     -17.696   2.666   3.336  1.00  0.00    -0.744 OA
ENDBRANCH  86  90
ENDBRANCH  59  83
BRANCH  71  94
ATOM     94  C   UNL     1     -19.537  10.148  -4.125  1.00  0.00     0.023 A 
ATOM     95  C   UNL     1     -18.899  10.915  -3.119  1.00  0.00     0.031 A 
ATOM     96  C   UNL     1     -20.680  10.702  -4.729  1.00  0.00     0.131 A 
ATOM     97  C   UNL     1     -19.416  12.178  -2.754  1.00  0.00     0.055 A 
ATOM     98  C   UNL     1     -21.175  11.959  -4.380  1.00  0.00     0.041 A 
ATOM     99  F   UNL     1     -21.319  10.042  -5.709  1.00  0.00    -0.206 F 
ATOM    100  C   UNL     1     -20.548  12.700  -3.388  1.00  0.00     0.022 A 
BRANCH  97 101
ATOM    101  S   UNL     1     -18.639  13.168  -1.431  1.00  0.00     0.124 S 
ATOM    102  O   UNL     1     -18.461  12.209  -0.347  1.00  0.00    -0.237 OA
ATOM    103  O   UNL     1     -17.415  13.647  -2.069  1.00  0.00    -0.237 OA
ATOM    104  O   UNL     1     -19.630  14.212  -1.161  1.00  0.00    -0.744 OA
ENDBRANCH  97 101
ENDBRANCH  71  94
ENDBRANCH  45  46
ENDBRANCH  37  40
ENDBRANCH  35  36
ENDBRANCH  34  35
ENDBRANCH   1  34
TORSDOF 18
