REMARK SMILES CCN1C(=O)/C(=C/c2cc([N+](=O)[O-])ccc2O)S/C1=[NH+]\c1ccc(C(=O)NCCCNC(=O)c2ccc(-c3c4nc(c(-c5cc(S(=O)(=O)[O-])ccc5F)c5ccc([nH]5)c(-c5cc(S(=O)(=O)[O-])ccc5F)c5nc(c(-c6cc(S(=O)(=O)[O-])ccc6F)c6ccc3[nH]6)C=C5)C=C4)cc2)cc1
REMARK SMILES IDX 29 1 28 2 27 3 25 4 26 5 24 7 21 8 22 9 98 10 23 11 97 12
REMARK SMILES IDX 20 13 3 14 4 15 19 16 5 17 6 18 18 19 7 20 2 22 1 23 8 24
REMARK SMILES IDX 9 25 16 26 10 27 15 28 14 29 17 30 11 32 12 33 13 34 30 35
REMARK SMILES IDX 31 36 32 37 33 39 34 40 35 41 96 42 36 43 95 44 37 45 38 46
REMARK SMILES IDX 39 47 89 48 40 49 94 50 88 51 90 52 41 53 93 54 87 55 86 56
REMARK SMILES IDX 42 58 74 59 54 60 73 61 55 62 58 63 72 64 91 65 56 66 57 67
REMARK SMILES IDX 71 69 92 70 59 71 43 72 44 73 52 74 45 75 51 76 53 77 50 78
REMARK SMILES IDX 46 79 47 80 48 81 49 82 75 83 76 84 84 85 77 86 83 87 85 88
REMARK SMILES IDX 82 89 78 90 79 91 80 92 81 93 60 94 61 95 69 96 62 97 68 98
REMARK SMILES IDX 70 99 67 100 63 101 64 102 65 103 66 104
REMARK H PARENT 27 6 20 21 17 31 31 38 90 57 58 68
REMARK Flexibility Score: inf
ROOT
ATOM      1  C   UNL     1       8.093  -4.033   4.552  1.00  0.00     0.042 C 
ENDROOT
BRANCH   1   2
ATOM      2  C   UNL     1       6.728  -4.379   5.147  1.00  0.00     0.118 C 
BRANCH   2   3
ATOM      3  N   UNL     1       6.290  -3.353   6.076  1.00  0.00    -0.352 N 
ATOM      4  C   UNL     1       5.369  -2.345   5.955  1.00  0.00     0.251 C 
ATOM      5  O   UNL     1       5.146  -1.640   6.938  1.00  0.00    -0.269 OA
ATOM      6  H   UNL     1       6.736  -3.386   6.953  1.00  0.00     0.163 HD
BRANCH   4   7
ATOM      7  C   UNL     1       4.583  -2.126   4.712  1.00  0.00     0.040 A 
ATOM      8  C   UNL     1       2.918  -1.792   2.470  1.00  0.00     0.125 A 
ATOM      9  C   UNL     1       2.452  -1.471   3.744  1.00  0.00     0.052 A 
ATOM     10  C   UNL     1       4.247  -2.188   2.313  1.00  0.00     0.052 A 
ATOM     11  C   UNL     1       3.276  -1.641   4.860  1.00  0.00     0.018 A 
ATOM     12  C   UNL     1       5.079  -2.341   3.424  1.00  0.00     0.018 A 
BRANCH   8  13
ATOM     13  N   UNL     1       2.087  -1.611   1.364  1.00  0.00    -0.234 N 
ATOM     14  N   UNL     1       0.855  -2.441  -0.442  1.00  0.00    -0.186 N 
ATOM     15  C   UNL     1       0.497  -3.601  -1.106  1.00  0.00     0.348 C 
ATOM     16  C   UNL     1       1.641  -2.604   0.672  1.00  0.00     0.324 C 
ATOM     17  O   UNL     1      -0.157  -3.662  -2.143  1.00  0.00    -0.240 OA
ATOM     18  C   UNL     1       1.021  -4.797  -0.397  1.00  0.00     0.110 C 
ATOM     19  S   UNL     1       1.925  -4.309   0.976  1.00  0.00     0.007 SA
ATOM     20  C   UNL     1       0.775  -6.041  -0.835  1.00  0.00     0.036 C 
ATOM     21  H   UNL     1       1.832  -0.696   1.104  1.00  0.00     0.313 HD
BRANCH  14  22
ATOM     22  C   UNL     1       0.402  -1.173  -1.015  1.00  0.00     0.244 C 
ATOM     23  C   UNL     1       0.715   0.125  -0.289  1.00  0.00     0.055 C 
ENDBRANCH  14  22
BRANCH  20  24
ATOM     24  C   UNL     1       1.189  -7.293  -0.183  1.00  0.00     0.024 A 
ATOM     25  C   UNL     1       2.056  -8.158  -0.865  1.00  0.00     0.097 A 
ATOM     26  C   UNL     1       0.706  -7.672   1.081  1.00  0.00     0.123 A 
ATOM     27  C   UNL     1       2.442  -9.369  -0.270  1.00  0.00     0.270 A 
ATOM     28  C   UNL     1       1.103  -8.870   1.679  1.00  0.00     0.054 A 
ATOM     29  C   UNL     1       1.976  -9.724   1.004  1.00  0.00     0.089 A 
BRANCH  26  30
ATOM     30  O   UNL     1      -0.190  -6.863   1.726  1.00  0.00    -0.507 OA
ATOM     31  H   UNL     1      -0.462  -6.058   1.333  1.00  0.00     0.293 HD
ENDBRANCH  26  30
BRANCH  27  32
ATOM     32  N   UNL     1       3.326 -10.290  -0.997  1.00  0.00     0.062 N 
ATOM     33  O   UNL     1       3.727  -9.942  -2.116  1.00  0.00    -0.258 OA
ATOM     34  O   UNL     1       3.604 -11.369  -0.454  1.00  0.00    -0.258 OA
ENDBRANCH  27  32
ENDBRANCH  20  24
ENDBRANCH   8  13
ENDBRANCH   4   7
ENDBRANCH   2   3
ENDBRANCH   1   2
BRANCH   1  35
ATOM     35  C   UNL     1       9.242  -4.197   5.543  1.00  0.00     0.118 C 
BRANCH  35  36
ATOM     36  N   UNL     1       9.415  -5.587   5.935  1.00  0.00    -0.352 N 
ATOM     37  C   UNL     1      10.503  -6.412   5.829  1.00  0.00     0.251 C 
ATOM     38  H   UNL     1       8.621  -6.002   6.343  1.00  0.00     0.163 HD
ATOM     39  O   UNL     1      10.334  -7.622   5.963  1.00  0.00    -0.269 OA
BRANCH  37  40
ATOM     40  C   UNL     1      11.855  -5.874   5.558  1.00  0.00     0.039 A 
ATOM     41  C   UNL     1      12.735  -6.649   4.799  1.00  0.00     0.014 A 
ATOM     42  C   UNL     1      12.291  -4.660   6.099  1.00  0.00     0.014 A 
ATOM     43  C   UNL     1      14.032  -6.196   4.560  1.00  0.00     0.010 A 
ATOM     44  C   UNL     1      13.560  -4.169   5.789  1.00  0.00     0.010 A 
ATOM     45  C   UNL     1      14.450  -4.939   5.029  1.00  0.00    -0.014 A 
BRANCH  45  46
ATOM     46  C   UNL     1      15.814  -4.440   4.710  1.00  0.00     0.031 A 
ATOM     47  C   UNL     1      16.821  -4.194   5.803  1.00  0.00     0.074 A 
ATOM     48  C   UNL     1      16.136  -4.203   3.421  1.00  0.00     0.049 A 
ATOM     49  N   UNL     1      18.069  -3.813   5.703  1.00  0.00    -0.248 NA
ATOM     50  C   UNL     1      16.364  -4.377   7.190  1.00  0.00     0.031 C 
ATOM     51  C   UNL     1      15.221  -4.350   2.285  1.00  0.00     0.029 A 
ATOM     52  N   UNL     1      17.314  -3.802   2.844  1.00  0.00    -0.354 N 
ATOM     53  C   UNL     1      18.541  -3.699   7.007  1.00  0.00     0.074 A 
ATOM     54  C   UNL     1      17.430  -4.003   7.882  1.00  0.00     0.031 C 
ATOM     55  C   UNL     1      15.883  -4.088   1.148  1.00  0.00     0.029 A 
ATOM     56  C   UNL     1      17.254  -3.708   1.471  1.00  0.00     0.049 A 
ATOM     57  H   UNL     1      18.126  -3.600   3.362  1.00  0.00     0.167 HD
ATOM     58  C   UNL     1      19.791  -3.385   7.431  1.00  0.00     0.034 A 
ATOM     59  C   UNL     1      18.195  -3.352   0.574  1.00  0.00     0.034 A 
ATOM     60  C   UNL     1      20.890  -3.103   6.538  1.00  0.00     0.049 A 
ATOM     61  C   UNL     1      19.578  -3.019   1.078  1.00  0.00     0.074 A 
ATOM     62  C   UNL     1      22.215  -2.857   6.858  1.00  0.00     0.029 A 
ATOM     63  N   UNL     1      20.794  -3.011   5.156  1.00  0.00    -0.354 N 
ATOM     64  N   UNL     1      20.030  -3.013   2.312  1.00  0.00    -0.248 NA
ATOM     65  C   UNL     1      20.581  -2.666   0.067  1.00  0.00     0.031 C 
ATOM     66  C   UNL     1      22.897  -2.531   5.681  1.00  0.00     0.029 A 
ATOM     67  C   UNL     1      22.024  -2.668   4.614  1.00  0.00     0.049 A 
ATOM     68  H   UNL     1      19.973  -3.168   4.636  1.00  0.00     0.167 HD
ATOM     69  C   UNL     1      21.379  -2.683   2.218  1.00  0.00     0.074 A 
ATOM     70  C   UNL     1      21.671  -2.539   0.806  1.00  0.00     0.031 C 
ATOM     71  C   UNL     1      22.296  -2.509   3.205  1.00  0.00     0.034 A 
BRANCH  58  72
ATOM     72  C   UNL     1      20.035  -3.294   8.919  1.00  0.00     0.023 A 
ATOM     73  C   UNL     1      19.924  -4.410   9.767  1.00  0.00     0.031 A 
ATOM     74  C   UNL     1      20.414  -2.068   9.496  1.00  0.00     0.131 A 
ATOM     75  C   UNL     1      20.140  -4.268  11.147  1.00  0.00     0.055 A 
ATOM     76  C   UNL     1      20.700  -1.948  10.857  1.00  0.00     0.041 A 
ATOM     77  F   UNL     1      20.514  -0.961   8.743  1.00  0.00    -0.206 F 
ATOM     78  C   UNL     1      20.555  -3.051  11.693  1.00  0.00     0.022 A 
BRANCH  75  79
ATOM     79  S   UNL     1      19.765  -5.667  12.238  1.00  0.00     0.124 S 
ATOM     80  O   UNL     1      18.346  -5.883  11.965  1.00  0.00    -0.237 OA
ATOM     81  O   UNL     1      20.673  -6.699  11.752  1.00  0.00    -0.237 OA
ATOM     82  O   UNL     1      20.063  -5.152  13.573  1.00  0.00    -0.744 OA
ENDBRANCH  75  79
ENDBRANCH  58  72
BRANCH  59  83
ATOM     83  C   UNL     1      17.875  -3.274  -0.883  1.00  0.00     0.023 A 
ATOM     84  C   UNL     1      18.562  -4.060  -1.822  1.00  0.00     0.031 A 
ATOM     85  C   UNL     1      16.931  -2.350  -1.367  1.00  0.00     0.131 A 
ATOM     86  C   UNL     1      18.352  -3.855  -3.195  1.00  0.00     0.055 A 
ATOM     87  C   UNL     1      16.673  -2.202  -2.730  1.00  0.00     0.041 A 
ATOM     88  F   UNL     1      16.242  -1.573  -0.516  1.00  0.00    -0.206 F 
ATOM     89  C   UNL     1      17.401  -2.942  -3.655  1.00  0.00     0.022 A 
BRANCH  86  90
ATOM     90  S   UNL     1      19.441  -4.702  -4.375  1.00  0.00     0.124 S 
ATOM     91  O   UNL     1      20.760  -4.295  -3.905  1.00  0.00    -0.237 OA
ATOM     92  O   UNL     1      19.086  -6.101  -4.161  1.00  0.00    -0.237 OA
ATOM     93  O   UNL     1      19.038  -4.147  -5.666  1.00  0.00    -0.744 OA
ENDBRANCH  86  90
ENDBRANCH  59  83
BRANCH  71  94
ATOM     94  C   UNL     1      23.706  -2.179   2.772  1.00  0.00     0.023 A 
ATOM     95  C   UNL     1      24.004  -0.999   2.067  1.00  0.00     0.031 A 
ATOM     96  C   UNL     1      24.756  -3.080   3.020  1.00  0.00     0.131 A 
ATOM     97  C   UNL     1      25.293  -0.797   1.554  1.00  0.00     0.055 A 
ATOM     98  C   UNL     1      26.058  -2.833   2.580  1.00  0.00     0.041 A 
ATOM     99  F   UNL     1      24.534  -4.225   3.686  1.00  0.00    -0.206 F 
ATOM    100  C   UNL     1      26.327  -1.697   1.823  1.00  0.00     0.022 A 
BRANCH  97 101
ATOM    101  S   UNL     1      25.562   0.579   0.403  1.00  0.00     0.124 S 
ATOM    102  O   UNL     1      24.566   0.309  -0.629  1.00  0.00    -0.237 OA
ATOM    103  O   UNL     1      25.307   1.743   1.245  1.00  0.00    -0.237 OA
ATOM    104  O   UNL     1      26.952   0.409  -0.016  1.00  0.00    -0.744 OA
ENDBRANCH  97 101
ENDBRANCH  71  94
ENDBRANCH  45  46
ENDBRANCH  37  40
ENDBRANCH  35  36
ENDBRANCH   1  35
TORSDOF 18
