REMARK SMILES O=C(NCCCNC(=O)[C@H]1Cc2[nH]cnc2CN1C(=O)c1ccncc1Cl)c1ccc(-c2c3nc(c(-c4cc(S(=O)(=O)[O-])ccc4F)c4ccc([nH]4)c(-c4cc(S(=O)(=O)[O-])ccc4F)c4nc(c(-c5cc(S(=O)(=O)[O-])ccc5F)c5ccc2[nH]5)C=C4)C=C3)cc1
REMARK SMILES IDX 4 1 3 2 1 3 2 4 28 6 29 7 90 8 30 9 89 10 31 11 32 12 33 13
REMARK SMILES IDX 83 14 34 15 88 16 82 17 84 18 35 19 87 20 81 21 80 22 36 24
REMARK SMILES IDX 68 25 48 26 67 27 49 28 52 29 66 30 85 31 50 32 51 33 65 35
REMARK SMILES IDX 86 36 53 37 37 38 38 39 46 40 39 41 45 42 47 43 44 44 40 45
REMARK SMILES IDX 41 46 42 47 43 48 69 49 70 50 78 51 71 52 77 53 79 54 76 55
REMARK SMILES IDX 72 56 73 57 74 58 75 59 54 60 55 61 63 62 56 63 62 64 64 65
REMARK SMILES IDX 61 66 57 67 58 68 59 69 60 70 5 71 6 72 7 73 8 74 9 76 10 77
REMARK SMILES IDX 11 78 18 79 12 80 17 81 13 82 16 83 14 84 15 86 19 87 20 88
REMARK SMILES IDX 21 89 22 90 26 91 23 92 25 93 27 94 24 95
REMARK H PARENT 3 5 84 23 52 34 7 75 13 85
REMARK Flexibility Score: inf
ROOT
ATOM      1  C   UNL     1       4.649   0.627  -0.916  1.00  0.00     0.118 C 
ENDROOT
BRANCH   1   2
ATOM      2  N   UNL     1       3.302   1.119  -0.696  1.00  0.00    -0.352 N 
ATOM      3  O   UNL     1       1.206   1.329  -0.004  1.00  0.00    -0.269 OA
ATOM      4  C   UNL     1       2.232   0.648   0.018  1.00  0.00     0.251 C 
ATOM      5  H   UNL     1       3.118   1.970  -1.156  1.00  0.00     0.163 HD
BRANCH   4   6
ATOM      6  C   UNL     1       2.226  -0.654   0.735  1.00  0.00     0.039 A 
ATOM      7  C   UNL     1       3.369  -1.351   1.137  1.00  0.00     0.014 A 
ATOM      8  C   UNL     1       0.966  -1.209   1.002  1.00  0.00     0.014 A 
ATOM      9  C   UNL     1       3.271  -2.634   1.659  1.00  0.00     0.010 A 
ATOM     10  C   UNL     1       0.859  -2.465   1.583  1.00  0.00     0.010 A 
ATOM     11  C   UNL     1       2.015  -3.196   1.864  1.00  0.00    -0.014 A 
BRANCH  11  12
ATOM     12  C   UNL     1       1.939  -4.495   2.531  1.00  0.00     0.031 A 
ATOM     13  C   UNL     1       2.417  -4.521   3.952  1.00  0.00     0.074 A 
ATOM     14  C   UNL     1       1.270  -5.524   1.972  1.00  0.00     0.049 A 
ATOM     15  N   UNL     1       3.173  -5.386   4.551  1.00  0.00    -0.248 NA
ATOM     16  C   UNL     1       2.053  -3.373   4.805  1.00  0.00     0.031 C 
ATOM     17  C   UNL     1       0.522  -5.512   0.710  1.00  0.00     0.029 A 
ATOM     18  N   UNL     1       0.970  -6.744   2.497  1.00  0.00    -0.354 N 
ATOM     19  C   UNL     1       3.223  -5.000   5.892  1.00  0.00     0.074 A 
ATOM     20  C   UNL     1       2.634  -3.691   5.959  1.00  0.00     0.031 C 
ATOM     21  C   UNL     1      -0.348  -6.544   0.705  1.00  0.00     0.029 A 
ATOM     22  C   UNL     1      -0.131  -7.346   1.897  1.00  0.00     0.049 A 
ATOM     23  H   UNL     1       1.482  -7.159   3.229  1.00  0.00     0.167 HD
ATOM     24  C   UNL     1       3.577  -5.854   6.893  1.00  0.00     0.034 A 
ATOM     25  C   UNL     1      -0.893  -8.352   2.400  1.00  0.00     0.034 A 
ATOM     26  C   UNL     1       4.362  -6.954   6.402  1.00  0.00     0.049 A 
ATOM     27  C   UNL     1      -0.089  -9.031   3.444  1.00  0.00     0.074 A 
ATOM     28  C   UNL     1       5.579  -7.061   5.755  1.00  0.00     0.029 A 
ATOM     29  N   UNL     1       3.764  -8.182   6.247  1.00  0.00    -0.354 N 
ATOM     30  N   UNL     1       1.021  -9.670   3.194  1.00  0.00    -0.248 NA
ATOM     31  C   UNL     1      -0.262  -8.611   4.827  1.00  0.00     0.031 C 
ATOM     32  C   UNL     1       5.401  -8.121   4.819  1.00  0.00     0.029 A 
ATOM     33  C   UNL     1       4.110  -8.624   4.994  1.00  0.00     0.049 A 
ATOM     34  H   UNL     1       3.200  -8.650   6.904  1.00  0.00     0.167 HD
ATOM     35  C   UNL     1       1.859  -9.366   4.255  1.00  0.00     0.074 A 
ATOM     36  C   UNL     1       0.982  -8.798   5.278  1.00  0.00     0.031 C 
ATOM     37  C   UNL     1       3.217  -9.340   4.108  1.00  0.00     0.034 A 
BRANCH  24  38
ATOM     38  C   UNL     1       2.955  -5.854   8.275  1.00  0.00     0.023 A 
ATOM     39  C   UNL     1       3.446  -6.776   9.221  1.00  0.00     0.031 A 
ATOM     40  C   UNL     1       1.738  -5.218   8.613  1.00  0.00     0.131 A 
ATOM     41  C   UNL     1       2.706  -7.091  10.376  1.00  0.00     0.055 A 
ATOM     42  C   UNL     1       1.042  -5.483   9.796  1.00  0.00     0.041 A 
ATOM     43  F   UNL     1       1.105  -4.382   7.781  1.00  0.00    -0.206 F 
ATOM     44  C   UNL     1       1.507  -6.448  10.671  1.00  0.00     0.022 A 
BRANCH  41  45
ATOM     45  S   UNL     1       3.235  -8.502  11.385  1.00  0.00     0.124 S 
ATOM     46  O   UNL     1       3.436  -9.535  10.375  1.00  0.00    -0.237 OA
ATOM     47  O   UNL     1       4.439  -7.979  12.021  1.00  0.00    -0.237 OA
ATOM     48  O   UNL     1       2.100  -8.721  12.280  1.00  0.00    -0.744 OA
ENDBRANCH  41  45
ENDBRANCH  24  38
BRANCH  25  49
ATOM     49  C   UNL     1      -2.374  -8.452   2.282  1.00  0.00     0.023 A 
ATOM     50  C   UNL     1      -3.076  -9.667   2.397  1.00  0.00     0.031 A 
ATOM     51  C   UNL     1      -3.153  -7.270   2.243  1.00  0.00     0.131 A 
ATOM     52  C   UNL     1      -4.492  -9.666   2.440  1.00  0.00     0.055 A 
ATOM     53  C   UNL     1      -4.548  -7.277   2.269  1.00  0.00     0.041 A 
ATOM     54  F   UNL     1      -2.577  -6.057   2.255  1.00  0.00    -0.206 F 
ATOM     55  C   UNL     1      -5.225  -8.479   2.372  1.00  0.00     0.022 A 
BRANCH  52  56
ATOM     56  S   UNL     1      -5.404 -11.226   2.671  1.00  0.00     0.124 S 
ATOM     57  O   UNL     1      -5.124 -11.934   1.423  1.00  0.00    -0.237 OA
ATOM     58  O   UNL     1      -4.796 -11.769   3.874  1.00  0.00    -0.237 OA
ATOM     59  O   UNL     1      -6.793 -10.789   2.827  1.00  0.00    -0.744 OA
ENDBRANCH  52  56
ENDBRANCH  25  49
BRANCH  37  60
ATOM     60  C   UNL     1       3.815  -9.861   2.817  1.00  0.00     0.023 A 
ATOM     61  C   UNL     1       3.561  -9.303   1.541  1.00  0.00     0.031 A 
ATOM     62  C   UNL     1       4.803 -10.854   2.910  1.00  0.00     0.131 A 
ATOM     63  C   UNL     1       4.286  -9.747   0.417  1.00  0.00     0.055 A 
ATOM     64  C   UNL     1       5.526 -11.285   1.798  1.00  0.00     0.041 A 
ATOM     65  F   UNL     1       5.120 -11.389   4.101  1.00  0.00    -0.206 F 
ATOM     66  C   UNL     1       5.267 -10.736   0.546  1.00  0.00     0.022 A 
BRANCH  63  67
ATOM     67  S   UNL     1       3.972  -9.037  -1.234  1.00  0.00     0.124 S 
ATOM     68  O   UNL     1       2.527  -9.148  -1.387  1.00  0.00    -0.237 OA
ATOM     69  O   UNL     1       4.499  -7.679  -1.114  1.00  0.00    -0.237 OA
ATOM     70  O   UNL     1       4.746  -9.898  -2.131  1.00  0.00    -0.744 OA
ENDBRANCH  63  67
ENDBRANCH  37  60
ENDBRANCH  11  12
ENDBRANCH   4   6
ENDBRANCH   1   2
BRANCH   1  71
ATOM     71  C   UNL     1       4.721  -0.639  -1.772  1.00  0.00     0.042 C 
BRANCH  71  72
ATOM     72  C   UNL     1       4.203  -0.392  -3.181  1.00  0.00     0.117 C 
BRANCH  72  73
ATOM     73  N   UNL     1       5.162   0.406  -3.924  1.00  0.00    -0.354 N 
ATOM     74  C   UNL     1       6.057   0.134  -4.906  1.00  0.00     0.243 C 
ATOM     75  H   UNL     1       5.163   1.353  -3.655  1.00  0.00     0.163 HD
ATOM     76  O   UNL     1       6.889   1.026  -5.116  1.00  0.00    -0.273 OA
BRANCH  74  77
ATOM     77  C   UNL     1       5.965  -1.081  -5.852  1.00  0.00     0.181 C 
ATOM     78  C   UNL     1       5.662  -2.443  -5.181  1.00  0.00     0.091 C 
ATOM     79  N   UNL     1       5.293  -0.942  -7.205  1.00  0.00    -0.320 N 
ATOM     80  C   UNL     1       5.847  -3.510  -6.185  1.00  0.00     0.042 A 
ATOM     81  C   UNL     1       5.654  -1.985  -8.208  1.00  0.00     0.178 C 
ATOM     82  N   UNL     1       5.931  -4.855  -5.985  1.00  0.00    -0.348 N 
ATOM     83  C   UNL     1       5.817  -3.317  -7.546  1.00  0.00     0.081 A 
ATOM     84  C   UNL     1       5.955  -5.424  -7.233  1.00  0.00     0.197 A 
ATOM     85  H   UNL     1       5.966  -5.324  -5.120  1.00  0.00     0.167 HD
ATOM     86  N   UNL     1       5.918  -4.520  -8.193  1.00  0.00    -0.240 NA
BRANCH  79  87
ATOM     87  C   UNL     1       4.318  -0.029  -7.607  1.00  0.00     0.256 C 
ATOM     88  O   UNL     1       3.711  -0.094  -8.675  1.00  0.00    -0.269 OA
BRANCH  87  89
ATOM     89  C   UNL     1       3.972   1.127  -6.777  1.00  0.00     0.061 A 
ATOM     90  C   UNL     1       2.805   1.067  -6.012  1.00  0.00     0.035 A 
ATOM     91  C   UNL     1       4.730   2.296  -6.814  1.00  0.00     0.072 A 
ATOM     92  C   UNL     1       2.501   2.156  -5.214  1.00  0.00     0.112 A 
ATOM     93  C   UNL     1       4.354   3.316  -5.955  1.00  0.00     0.132 A 
ATOM     94  Cl  UNL     1       6.080   2.522  -7.860  1.00  0.00    -0.082 Cl
ATOM     95  N   UNL     1       3.269   3.267  -5.140  1.00  0.00    -0.263 NA
ENDBRANCH  87  89
ENDBRANCH  79  87
ENDBRANCH  74  77
ENDBRANCH  72  73
ENDBRANCH  71  72
ENDBRANCH   1  71
TORSDOF 15
