REMARK SMILES Nc1oc2ccc(F)cc2c(=O)c1[C@@H]1[NH2+][C@H](C(=O)NCCCNC(=O)c2ccc(-c3c4nc(c(-c5cc(S(=O)(=O)[O-])ccc5F)c5ccc([nH]5)c(-c5cc(S(=O)(=O)[O-])ccc5F)c5nc(c(-c6cc(S(=O)(=O)[O-])ccc6F)c6ccc3[nH]6)C=C5)C=C4)cc2)CS1
REMARK SMILES IDX 21 1 20 2 19 3 17 4 18 5 16 7 14 8 15 9 90 10 89 13 13 14
REMARK SMILES IDX 2 15 3 16 4 17 11 18 5 19 10 20 12 21 6 22 9 23 7 24 8 25
REMARK SMILES IDX 1 26 22 29 23 30 24 31 25 33 26 34 27 35 88 36 28 37 87 38
REMARK SMILES IDX 29 39 30 40 31 41 81 42 32 43 86 44 80 45 82 46 33 47 85 48
REMARK SMILES IDX 79 49 78 50 34 52 66 53 46 54 65 55 47 56 50 57 64 58 83 59
REMARK SMILES IDX 48 60 49 61 63 63 84 64 51 65 35 66 36 67 44 68 37 69 43 70
REMARK SMILES IDX 45 71 42 72 38 73 39 74 40 75 41 76 67 77 68 78 76 79 69 80
REMARK SMILES IDX 75 81 77 82 74 83 70 84 71 85 72 86 73 87 52 88 53 89 61 90
REMARK SMILES IDX 54 91 60 92 62 93 59 94 55 95 56 96 57 97 58 98
REMARK H PARENT 19 6 15 11 15 12 1 27 1 28 23 32 82 51 50 62
REMARK Flexibility Score: inf
ROOT
ATOM      1  C   UNL     1      -1.701  -1.454   0.464  1.00  0.00     0.042 C 
ENDROOT
BRANCH   1   2
ATOM      2  C   UNL     1      -0.910  -0.155   0.402  1.00  0.00     0.118 C 
BRANCH   2   3
ATOM      3  N   UNL     1      -0.704   0.459   1.698  1.00  0.00    -0.351 N 
ATOM      4  C   UNL     1       0.349   0.367   2.561  1.00  0.00     0.279 C 
ATOM      5  O   UNL     1       0.352   1.162   3.511  1.00  0.00    -0.268 OA
ATOM      6  H   UNL     1      -1.441   1.034   2.006  1.00  0.00     0.163 HD
BRANCH   4   7
ATOM      7  C   UNL     1       1.556  -0.577   2.364  1.00  0.00     0.283 C 
ATOM      8  C   UNL     1       2.287  -2.275   0.763  1.00  0.00     0.283 C 
ATOM      9  N   UNL     1       1.216  -1.841   1.681  1.00  0.00    -0.320 N 
ATOM     10  S   UNL     1       3.691  -1.140   0.952  1.00  0.00    -0.087 SA
ATOM     11  H   UNL     1       1.069  -2.566   2.382  1.00  0.00     0.348 HD
ATOM     12  H   UNL     1       0.371  -1.685   1.130  1.00  0.00     0.348 HD
ATOM     13  C   UNL     1       2.671   0.171   1.654  1.00  0.00     0.151 C 
BRANCH   8  14
ATOM     14  C   UNL     1       1.714  -2.386  -0.638  1.00  0.00     0.128 A 
ATOM     15  C   UNL     1       1.679  -1.465  -1.629  1.00  0.00     0.205 A 
ATOM     16  O   UNL     1       0.913  -1.592  -2.773  1.00  0.00    -0.440 OA
ATOM     17  C   UNL     1       0.131  -2.693  -2.947  1.00  0.00     0.140 A 
ATOM     18  C   UNL     1       1.005  -3.682  -0.883  1.00  0.00     0.205 A 
ATOM     19  C   UNL     1      -0.704  -2.698  -4.063  1.00  0.00     0.051 A 
ATOM     20  C   UNL     1       0.172  -3.783  -2.089  1.00  0.00     0.068 A 
ATOM     21  O   UNL     1       1.079  -4.623  -0.100  1.00  0.00    -0.288 OA
ATOM     22  C   UNL     1      -1.447  -3.836  -4.356  1.00  0.00     0.043 A 
ATOM     23  C   UNL     1      -0.583  -4.924  -2.368  1.00  0.00     0.055 A 
ATOM     24  C   UNL     1      -1.365  -4.942  -3.518  1.00  0.00     0.124 A 
ATOM     25  F   UNL     1      -2.053  -6.042  -3.838  1.00  0.00    -0.207 F 
BRANCH  15  26
ATOM     26  N   UNL     1       2.306  -0.256  -1.608  1.00  0.00    -0.369 N 
ATOM     27  H   UNL     1       2.225   0.354  -2.377  1.00  0.00     0.159 HD
ATOM     28  H   UNL     1       2.840   0.009  -0.824  1.00  0.00     0.159 HD
ENDBRANCH  15  26
ENDBRANCH   8  14
ENDBRANCH   4   7
ENDBRANCH   2   3
ENDBRANCH   1   2
BRANCH   1  29
ATOM     29  C   UNL     1      -3.103  -1.382  -0.124  1.00  0.00     0.118 C 
BRANCH  29  30
ATOM     30  N   UNL     1      -3.178  -0.979  -1.528  1.00  0.00    -0.352 N 
ATOM     31  C   UNL     1      -3.921  -1.477  -2.581  1.00  0.00     0.251 C 
ATOM     32  H   UNL     1      -2.598  -0.219  -1.764  1.00  0.00     0.163 HD
ATOM     33  O   UNL     1      -3.823  -0.939  -3.682  1.00  0.00    -0.269 OA
BRANCH  31  34
ATOM     34  C   UNL     1      -4.750  -2.698  -2.422  1.00  0.00     0.039 A 
ATOM     35  C   UNL     1      -5.410  -2.977  -1.232  1.00  0.00     0.014 A 
ATOM     36  C   UNL     1      -4.800  -3.629  -3.468  1.00  0.00     0.014 A 
ATOM     37  C   UNL     1      -5.845  -4.269  -0.978  1.00  0.00     0.010 A 
ATOM     38  C   UNL     1      -5.346  -4.899  -3.254  1.00  0.00     0.010 A 
ATOM     39  C   UNL     1      -5.808  -5.251  -1.982  1.00  0.00    -0.014 A 
BRANCH  39  40
ATOM     40  C   UNL     1      -6.340  -6.600  -1.668  1.00  0.00     0.031 A 
ATOM     41  C   UNL     1      -5.452  -7.810  -1.619  1.00  0.00     0.074 A 
ATOM     42  C   UNL     1      -7.640  -6.690  -1.333  1.00  0.00     0.049 A 
ATOM     43  N   UNL     1      -5.745  -9.037  -1.273  1.00  0.00    -0.248 NA
ATOM     44  C   UNL     1      -4.052  -7.626  -2.018  1.00  0.00     0.031 C 
ATOM     45  C   UNL     1      -8.577  -5.564  -1.353  1.00  0.00     0.029 A 
ATOM     46  N   UNL     1      -8.386  -7.739  -0.869  1.00  0.00    -0.354 N 
ATOM     47  C   UNL     1      -4.573  -9.773  -1.434  1.00  0.00     0.074 A 
ATOM     48  C   UNL     1      -3.575  -8.862  -1.946  1.00  0.00     0.031 C 
ATOM     49  C   UNL     1      -9.747  -5.962  -0.845  1.00  0.00     0.029 A 
ATOM     50  C   UNL     1      -9.675  -7.388  -0.546  1.00  0.00     0.049 A 
ATOM     51  H   UNL     1      -8.035  -8.654  -0.777  1.00  0.00     0.167 HD
ATOM     52  C   UNL     1      -4.359 -11.082  -1.158  1.00  0.00     0.034 A 
ATOM     53  C   UNL     1     -10.692  -8.131  -0.067  1.00  0.00     0.034 A 
ATOM     54  C   UNL     1      -5.377 -11.947  -0.608  1.00  0.00     0.049 A 
ATOM     55  C   UNL     1     -10.428  -9.577   0.245  1.00  0.00     0.074 A 
ATOM     56  C   UNL     1      -5.268 -13.280  -0.256  1.00  0.00     0.029 A 
ATOM     57  N   UNL     1      -6.680 -11.564  -0.317  1.00  0.00    -0.354 N 
ATOM     58  N   UNL     1      -9.308 -10.252   0.122  1.00  0.00    -0.248 NA
ATOM     59  C   UNL     1     -11.548 -10.364   0.772  1.00  0.00     0.031 C 
ATOM     60  C   UNL     1      -6.518 -13.720   0.177  1.00  0.00     0.029 A 
ATOM     61  C   UNL     1      -7.388 -12.641   0.189  1.00  0.00     0.049 A 
ATOM     62  H   UNL     1      -7.047 -10.660  -0.451  1.00  0.00     0.167 HD
ATOM     63  C   UNL     1      -9.582 -11.536   0.579  1.00  0.00     0.074 A 
ATOM     64  C   UNL     1     -10.967 -11.534   1.006  1.00  0.00     0.031 C 
ATOM     65  C   UNL     1      -8.763 -12.617   0.635  1.00  0.00     0.034 A 
BRANCH  52  66
ATOM     66  C   UNL     1      -2.994 -11.685  -1.411  1.00  0.00     0.023 A 
ATOM     67  C   UNL     1      -2.861 -12.780  -2.291  1.00  0.00     0.031 A 
ATOM     68  C   UNL     1      -1.862 -11.294  -0.674  1.00  0.00     0.131 A 
ATOM     69  C   UNL     1      -1.644 -13.471  -2.373  1.00  0.00     0.055 A 
ATOM     70  C   UNL     1      -0.637 -11.954  -0.799  1.00  0.00     0.041 A 
ATOM     71  F   UNL     1      -1.930 -10.265   0.186  1.00  0.00    -0.206 F 
ATOM     72  C   UNL     1      -0.529 -13.058  -1.639  1.00  0.00     0.022 A 
BRANCH  69  73
ATOM     73  S   UNL     1      -1.487 -14.982  -3.368  1.00  0.00     0.124 S 
ATOM     74  O   UNL     1      -0.408 -14.624  -4.289  1.00  0.00    -0.237 OA
ATOM     75  O   UNL     1      -1.133 -15.977  -2.356  1.00  0.00    -0.237 OA
ATOM     76  O   UNL     1      -2.798 -15.141  -3.978  1.00  0.00    -0.744 OA
ENDBRANCH  69  73
ENDBRANCH  52  66
BRANCH  53  77
ATOM     77  C   UNL     1     -12.004  -7.468   0.188  1.00  0.00     0.023 A 
ATOM     78  C   UNL     1     -12.691  -6.822  -0.859  1.00  0.00     0.031 A 
ATOM     79  C   UNL     1     -12.505  -7.327   1.491  1.00  0.00     0.131 A 
ATOM     80  C   UNL     1     -13.778  -5.989  -0.571  1.00  0.00     0.055 A 
ATOM     81  C   UNL     1     -13.644  -6.566   1.762  1.00  0.00     0.041 A 
ATOM     82  F   UNL     1     -11.874  -7.904   2.525  1.00  0.00    -0.206 F 
ATOM     83  C   UNL     1     -14.271  -5.872   0.732  1.00  0.00     0.022 A 
BRANCH  80  84
ATOM     84  S   UNL     1     -14.466  -4.894  -1.844  1.00  0.00     0.124 S 
ATOM     85  O   UNL     1     -15.845  -5.362  -1.934  1.00  0.00    -0.237 OA
ATOM     86  O   UNL     1     -14.285  -3.577  -1.236  1.00  0.00    -0.237 OA
ATOM     87  O   UNL     1     -13.632  -5.154  -3.011  1.00  0.00    -0.744 OA
ENDBRANCH  80  84
ENDBRANCH  53  77
BRANCH  65  88
ATOM     88  C   UNL     1      -9.309 -13.906   1.200  1.00  0.00     0.023 A 
ATOM     89  C   UNL     1      -8.710 -14.472   2.342  1.00  0.00     0.031 A 
ATOM     90  C   UNL     1     -10.290 -14.650   0.524  1.00  0.00     0.131 A 
ATOM     91  C   UNL     1      -9.059 -15.767   2.742  1.00  0.00     0.055 A 
ATOM     92  C   UNL     1     -10.678 -15.917   0.963  1.00  0.00     0.041 A 
ATOM     93  F   UNL     1     -10.880 -14.160  -0.578  1.00  0.00    -0.206 F 
ATOM     94  C   UNL     1     -10.048 -16.488   2.066  1.00  0.00     0.022 A 
BRANCH  91  95
ATOM     95  S   UNL     1      -8.166 -16.602   4.082  1.00  0.00     0.124 S 
ATOM     96  O   UNL     1      -9.235 -16.851   5.047  1.00  0.00    -0.237 OA
ATOM     97  O   UNL     1      -7.645 -17.789   3.409  1.00  0.00    -0.237 OA
ATOM     98  O   UNL     1      -7.165 -15.627   4.502  1.00  0.00    -0.744 OA
ENDBRANCH  91  95
ENDBRANCH  65  88
ENDBRANCH  39  40
ENDBRANCH  31  34
ENDBRANCH  29  30
ENDBRANCH   1  29
TORSDOF 15
