REMARK SMILES CC(C)(C)OC(=O)N1CCN(N[C@@H](C(=O)NCCCNC(=O)c2ccc(-c3c4nc(c(-c5cc(S(=O)(=O)[O-])ccc5F)c5ccc([nH]5)c(-c5cc(S(=O)(=O)[O-])ccc5F)c5nc(c(-c6cc(S(=O)(=O)[O-])ccc6F)c6ccc3[nH]6)C=C5)C=C4)cc2)c2ccccc2Cl)CC1
REMARK SMILES IDX 17 1 16 2 14 3 15 4 13 6 12 7 11 9 6 10 7 11 8 12 9 13 94 14
REMARK SMILES IDX 10 15 93 16 5 17 2 18 1 19 3 20 4 21 86 22 87 23 91 24 88 25
REMARK SMILES IDX 90 26 92 27 89 28 18 29 19 30 20 31 21 32 22 34 23 35 24 36
REMARK SMILES IDX 85 37 25 38 84 39 26 40 27 41 28 42 78 43 29 44 83 45 77 46
REMARK SMILES IDX 79 47 30 48 82 49 76 50 75 51 31 53 63 54 43 55 62 56 44 57
REMARK SMILES IDX 47 58 61 59 80 60 45 61 46 62 60 64 81 65 48 66 32 67 33 68
REMARK SMILES IDX 41 69 34 70 40 71 42 72 39 73 35 74 36 75 37 76 38 77 64 78
REMARK SMILES IDX 65 79 73 80 66 81 72 82 74 83 71 84 67 85 68 86 69 87 70 88
REMARK SMILES IDX 49 89 50 90 58 91 51 92 57 93 59 94 56 95 52 96 53 97 54 98
REMARK SMILES IDX 55 99
REMARK H PARENT 16 5 12 8 20 33 79 52 47 63
REMARK Flexibility Score: inf
ROOT
ATOM      1  C   UNL     1       0.026  -1.355   8.586  1.00  0.00     0.117 C 
ENDROOT
BRANCH   1   2
ATOM      2  N   UNL     1       0.998  -1.120   9.641  1.00  0.00    -0.354 N 
ATOM      3  C   UNL     1       1.901  -0.091   9.742  1.00  0.00     0.243 C 
ATOM      4  O   UNL     1       2.968  -0.377  10.296  1.00  0.00    -0.273 OA
ATOM      5  H   UNL     1       1.009  -1.778  10.373  1.00  0.00     0.163 HD
BRANCH   3   6
ATOM      6  C   UNL     1       1.579   1.338   9.177  1.00  0.00     0.190 C 
BRANCH   6   7
ATOM      7  N   UNL     1       2.273   1.512   7.851  1.00  0.00    -0.238 NA
ATOM      8  H   UNL     1       2.296   2.505   7.617  1.00  0.00     0.143 HD
BRANCH   7   9
ATOM      9  N   UNL     1       1.580   0.787   6.785  1.00  0.00    -0.240 NA
ATOM     10  C   UNL     1       0.706   2.242   3.011  1.00  0.00     0.410 C 
ATOM     11  O   UNL     1      -0.282   2.930   2.807  1.00  0.00    -0.224 OA
ATOM     12  N   UNL     1       1.347   2.205   4.232  1.00  0.00    -0.306 N 
ATOM     13  C   UNL     1       0.649   2.695   5.404  1.00  0.00     0.140 C 
ATOM     14  C   UNL     1       2.619   1.555   4.532  1.00  0.00     0.140 C 
ATOM     15  C   UNL     1       0.366   1.504   6.323  1.00  0.00     0.124 C 
ATOM     16  C   UNL     1       2.472   0.477   5.632  1.00  0.00     0.124 C 
BRANCH  10  17
ATOM     17  O   UNL     1       1.261   1.403   2.099  1.00  0.00    -0.444 OA
BRANCH  17  18
ATOM     18  C   UNL     1       0.707   1.317   0.756  1.00  0.00     0.106 C 
ATOM     19  C   UNL     1       1.397   0.105   0.112  1.00  0.00     0.056 C 
ATOM     20  C   UNL     1       1.075   2.581  -0.025  1.00  0.00     0.056 C 
ATOM     21  C   UNL     1      -0.809   1.058   0.731  1.00  0.00     0.056 C 
ENDBRANCH  17  18
ENDBRANCH  10  17
ENDBRANCH   7   9
ENDBRANCH   6   7
BRANCH   6  22
ATOM     22  C   UNL     1       1.953   2.521  10.105  1.00  0.00    -0.002 A 
ATOM     23  C   UNL     1       2.776   2.374  11.241  1.00  0.00     0.007 A 
ATOM     24  C   UNL     1       1.491   3.832   9.842  1.00  0.00     0.046 A 
ATOM     25  C   UNL     1       3.141   3.463  12.046  1.00  0.00     0.000 A 
ATOM     26  C   UNL     1       1.879   4.924  10.634  1.00  0.00     0.021 A 
ATOM     27  Cl  UNL     1       0.379   4.206   8.574  1.00  0.00    -0.084 Cl
ATOM     28  C   UNL     1       2.706   4.742  11.735  1.00  0.00     0.002 A 
ENDBRANCH   6  22
ENDBRANCH   3   6
ENDBRANCH   1   2
BRANCH   1  29
ATOM     29  C   UNL     1       0.662  -2.124   7.424  1.00  0.00     0.042 C 
BRANCH  29  30
ATOM     30  C   UNL     1       0.837  -3.617   7.673  1.00  0.00     0.118 C 
BRANCH  30  31
ATOM     31  N   UNL     1      -0.421  -4.340   7.594  1.00  0.00    -0.352 N 
ATOM     32  C   UNL     1      -0.798  -5.372   6.769  1.00  0.00     0.251 C 
ATOM     33  H   UNL     1      -1.111  -4.044   8.231  1.00  0.00     0.163 HD
ATOM     34  O   UNL     1      -1.984  -5.692   6.729  1.00  0.00    -0.269 OA
BRANCH  32  35
ATOM     35  C   UNL     1       0.191  -6.082   5.919  1.00  0.00     0.039 A 
ATOM     36  C   UNL     1      -0.191  -6.472   4.631  1.00  0.00     0.014 A 
ATOM     37  C   UNL     1       1.467  -6.407   6.387  1.00  0.00     0.014 A 
ATOM     38  C   UNL     1       0.720  -7.129   3.797  1.00  0.00     0.010 A 
ATOM     39  C   UNL     1       2.397  -6.999   5.531  1.00  0.00     0.010 A 
ATOM     40  C   UNL     1       2.034  -7.367   4.227  1.00  0.00    -0.014 A 
BRANCH  40  41
ATOM     41  C   UNL     1       3.042  -7.995   3.328  1.00  0.00     0.031 A 
ATOM     42  C   UNL     1       3.636  -9.335   3.672  1.00  0.00     0.074 A 
ATOM     43  C   UNL     1       3.469  -7.327   2.238  1.00  0.00     0.049 A 
ATOM     44  N   UNL     1       4.589  -9.999   3.068  1.00  0.00    -0.248 NA
ATOM     45  C   UNL     1       3.108 -10.001   4.872  1.00  0.00     0.031 C 
ATOM     46  C   UNL     1       2.990  -6.009   1.815  1.00  0.00     0.029 A 
ATOM     47  N   UNL     1       4.409  -7.655   1.293  1.00  0.00    -0.354 N 
ATOM     48  C   UNL     1       4.789 -11.150   3.824  1.00  0.00     0.074 A 
ATOM     49  C   UNL     1       3.891 -11.066   4.957  1.00  0.00     0.031 C 
ATOM     50  C   UNL     1       3.622  -5.653   0.684  1.00  0.00     0.029 A 
ATOM     51  C   UNL     1       4.585  -6.690   0.328  1.00  0.00     0.049 A 
ATOM     52  H   UNL     1       4.910  -8.503   1.304  1.00  0.00     0.167 HD
ATOM     53  C   UNL     1       5.630 -12.188   3.584  1.00  0.00     0.034 A 
ATOM     54  C   UNL     1       5.438  -6.636  -0.715  1.00  0.00     0.034 A 
ATOM     55  C   UNL     1       6.504 -12.265   2.438  1.00  0.00     0.049 A 
ATOM     56  C   UNL     1       6.386  -7.786  -0.941  1.00  0.00     0.074 A 
ATOM     57  C   UNL     1       7.338 -13.302   2.058  1.00  0.00     0.029 A 
ATOM     58  N   UNL     1       6.667 -11.261   1.492  1.00  0.00    -0.354 N 
ATOM     59  N   UNL     1       6.524  -8.891  -0.246  1.00  0.00    -0.248 NA
ATOM     60  C   UNL     1       7.289  -7.681  -2.094  1.00  0.00     0.031 C 
ATOM     61  C   UNL     1       8.055 -12.898   0.926  1.00  0.00     0.029 A 
ATOM     62  C   UNL     1       7.616 -11.637   0.554  1.00  0.00     0.049 A 
ATOM     63  H   UNL     1       6.179 -10.405   1.488  1.00  0.00     0.167 HD
ATOM     64  C   UNL     1       7.513  -9.625  -0.895  1.00  0.00     0.074 A 
ATOM     65  C   UNL     1       7.924  -8.843  -2.043  1.00  0.00     0.031 C 
ATOM     66  C   UNL     1       8.031 -10.838  -0.575  1.00  0.00     0.034 A 
BRANCH  53  67
ATOM     67  C   UNL     1       5.665 -13.306   4.600  1.00  0.00     0.023 A 
ATOM     68  C   UNL     1       4.538 -14.105   4.863  1.00  0.00     0.031 A 
ATOM     69  C   UNL     1       6.837 -13.563   5.334  1.00  0.00     0.131 A 
ATOM     70  C   UNL     1       4.583 -15.067   5.885  1.00  0.00     0.055 A 
ATOM     71  C   UNL     1       6.900 -14.576   6.293  1.00  0.00     0.041 A 
ATOM     72  F   UNL     1       7.940 -12.823   5.141  1.00  0.00    -0.206 F 
ATOM     73  C   UNL     1       5.763 -15.325   6.585  1.00  0.00     0.022 A 
BRANCH  70  74
ATOM     74  S   UNL     1       3.037 -15.873   6.384  1.00  0.00     0.124 S 
ATOM     75  O   UNL     1       2.216 -14.726   6.766  1.00  0.00    -0.237 OA
ATOM     76  O   UNL     1       2.636 -16.568   5.166  1.00  0.00    -0.237 OA
ATOM     77  O   UNL     1       3.442 -16.736   7.491  1.00  0.00    -0.744 OA
ENDBRANCH  70  74
ENDBRANCH  53  67
BRANCH  54  78
ATOM     78  C   UNL     1       5.450  -5.451  -1.619  1.00  0.00     0.023 A 
ATOM     79  C   UNL     1       5.082  -5.571  -2.968  1.00  0.00     0.031 A 
ATOM     80  C   UNL     1       5.866  -4.189  -1.159  1.00  0.00     0.131 A 
ATOM     81  C   UNL     1       5.174  -4.460  -3.821  1.00  0.00     0.055 A 
ATOM     82  C   UNL     1       5.909  -3.075  -1.999  1.00  0.00     0.041 A 
ATOM     83  F   UNL     1       6.225  -4.018   0.124  1.00  0.00    -0.206 F 
ATOM     84  C   UNL     1       5.573  -3.210  -3.342  1.00  0.00     0.022 A 
BRANCH  81  85
ATOM     85  S   UNL     1       4.836  -4.691  -5.588  1.00  0.00     0.124 S 
ATOM     86  O   UNL     1       5.818  -5.708  -5.947  1.00  0.00    -0.237 OA
ATOM     87  O   UNL     1       3.442  -5.120  -5.575  1.00  0.00    -0.237 OA
ATOM     88  O   UNL     1       5.073  -3.366  -6.155  1.00  0.00    -0.744 OA
ENDBRANCH  81  85
ENDBRANCH  54  78
BRANCH  66  89
ATOM     89  C   UNL     1       9.076 -11.402  -1.505  1.00  0.00     0.023 A 
ATOM     90  C   UNL     1      10.351 -10.820  -1.621  1.00  0.00     0.031 A 
ATOM     91  C   UNL     1       8.788 -12.529  -2.294  1.00  0.00     0.131 A 
ATOM     92  C   UNL     1      11.273 -11.338  -2.543  1.00  0.00     0.055 A 
ATOM     93  C   UNL     1       9.729 -13.074  -3.168  1.00  0.00     0.041 A 
ATOM     94  F   UNL     1       7.585 -13.122  -2.225  1.00  0.00    -0.206 F 
ATOM     95  C   UNL     1      10.976 -12.471  -3.305  1.00  0.00     0.022 A 
BRANCH  92  96
ATOM     96  S   UNL     1      12.841 -10.460  -2.794  1.00  0.00     0.124 S 
ATOM     97  O   UNL     1      12.385  -9.149  -3.245  1.00  0.00    -0.237 OA
ATOM     98  O   UNL     1      13.441 -10.504  -1.465  1.00  0.00    -0.237 OA
ATOM     99  O   UNL     1      13.524 -11.262  -3.808  1.00  0.00    -0.744 OA
ENDBRANCH  92  96
ENDBRANCH  66  89
ENDBRANCH  40  41
ENDBRANCH  32  35
ENDBRANCH  30  31
ENDBRANCH  29  30
ENDBRANCH   1  29
TORSDOF 18
