REMARK SMILES COc1cccc(C[N@@H+]2C[C@H](C(=O)NCCCNC(=O)c3ccc(-c4c5nc(c(-c6cc(S(=O)(=O)[O-])ccc6F)c6ccc([nH]6)c(-c6cc(S(=O)(=O)[O-])ccc6F)c6nc(c(-c7cc(S(=O)(=O)[O-])ccc7F)c7ccc4[nH]7)C=C6)C=C5)cc3)C3(CC[NH+](C)CC3)C2)c1
REMARK SMILES IDX 16 1 15 2 14 3 12 4 13 5 11 7 9 8 10 9 91 10 84 12 85 13
REMARK SMILES IDX 90 14 86 15 89 16 87 17 88 18 8 20 7 21 3 22 4 23 92 24 5 25
REMARK SMILES IDX 6 26 2 27 1 28 17 29 18 30 19 31 20 33 21 34 22 35 83 36
REMARK SMILES IDX 23 37 82 38 24 39 25 40 26 41 76 42 27 43 81 44 75 45 77 46
REMARK SMILES IDX 28 47 80 48 74 49 73 50 29 52 61 53 41 54 60 55 42 56 45 57
REMARK SMILES IDX 59 58 78 59 43 60 44 61 58 63 79 64 46 65 30 66 31 67 39 68
REMARK SMILES IDX 32 69 38 70 40 71 37 72 33 73 34 74 35 75 36 76 62 77 63 78
REMARK SMILES IDX 71 79 64 80 70 81 72 82 69 83 65 84 66 85 67 86 68 87 47 88
REMARK SMILES IDX 48 89 56 90 49 91 55 92 57 93 54 94 50 95 51 96 52 97 53 98
REMARK H PARENT 14 6 9 11 87 19 18 32 77 51 45 62
REMARK Flexibility Score: inf
ROOT
ATOM      1  C   UNL     1      -0.544  -1.122  -6.286  1.00  0.00     0.042 C 
ENDROOT
BRANCH   1   2
ATOM      2  C   UNL     1       0.828  -1.711  -6.508  1.00  0.00     0.117 C 
BRANCH   2   3
ATOM      3  N   UNL     1       1.381  -1.518  -7.829  1.00  0.00    -0.356 N 
ATOM      4  C   UNL     1       2.682  -1.599  -8.223  1.00  0.00     0.229 C 
ATOM      5  O   UNL     1       2.898  -1.638  -9.439  1.00  0.00    -0.275 OA
ATOM      6  H   UNL     1       0.733  -1.298  -8.537  1.00  0.00     0.163 HD
BRANCH   4   7
ATOM      7  C   UNL     1       3.853  -1.534  -7.246  1.00  0.00     0.145 C 
ATOM      8  N   UNL     1       4.546  -0.316  -5.315  1.00  0.00    -0.330 N 
ATOM      9  C   UNL     1       3.856  -0.158  -6.584  1.00  0.00     0.276 C 
ATOM     10  C   UNL     1       4.452  -1.708  -4.887  1.00  0.00     0.270 C 
ATOM     11  H   UNL     1       5.537  -0.113  -5.450  1.00  0.00     0.348 HD
ATOM     12  C   UNL     1       4.157  -2.586  -6.133  1.00  0.00     0.047 C 
ATOM     13  C   UNL     1       5.392  -3.440  -6.551  1.00  0.00     0.075 C 
ATOM     14  C   UNL     1       3.122  -3.652  -5.722  1.00  0.00     0.075 C 
ATOM     15  C   UNL     1       5.041  -4.468  -7.650  1.00  0.00     0.262 C 
ATOM     16  C   UNL     1       2.745  -4.599  -6.857  1.00  0.00     0.262 C 
ATOM     17  N   UNL     1       3.897  -5.346  -7.360  1.00  0.00    -0.337 N 
ATOM     18  C   UNL     1       4.230  -6.465  -6.484  1.00  0.00     0.332 C 
ATOM     19  H   UNL     1       3.636  -5.755  -8.257  1.00  0.00     0.347 HD
BRANCH   8  20
ATOM     20  C   UNL     1       4.178   0.691  -4.303  1.00  0.00     0.299 C 
BRANCH  20  21
ATOM     21  C   UNL     1       2.742   0.686  -3.793  1.00  0.00     0.010 A 
ATOM     22  C   UNL     1       1.072  -0.085  -2.206  1.00  0.00     0.119 A 
ATOM     23  C   UNL     1       0.070   0.601  -2.884  1.00  0.00     0.046 A 
ATOM     24  C   UNL     1       2.393  -0.058  -2.655  1.00  0.00     0.056 A 
ATOM     25  C   UNL     1       0.405   1.371  -3.994  1.00  0.00     0.004 A 
ATOM     26  C   UNL     1       1.732   1.422  -4.438  1.00  0.00     0.010 A 
BRANCH  22  27
ATOM     27  O   UNL     1       0.733  -0.845  -1.120  1.00  0.00    -0.497 OA
ATOM     28  C   UNL     1       1.003  -0.120   0.082  1.00  0.00     0.278 C 
ENDBRANCH  22  27
ENDBRANCH  20  21
ENDBRANCH   8  20
ENDBRANCH   4   7
ENDBRANCH   2   3
ENDBRANCH   1   2
BRANCH   1  29
ATOM     29  C   UNL     1      -1.630  -1.880  -7.034  1.00  0.00     0.118 C 
BRANCH  29  30
ATOM     30  N   UNL     1      -1.807  -3.259  -6.580  1.00  0.00    -0.352 N 
ATOM     31  C   UNL     1      -2.710  -3.866  -5.732  1.00  0.00     0.251 C 
ATOM     32  H   UNL     1      -1.145  -3.883  -6.958  1.00  0.00     0.163 HD
ATOM     33  O   UNL     1      -2.525  -5.034  -5.422  1.00  0.00    -0.269 OA
BRANCH  31  34
ATOM     34  C   UNL     1      -3.857  -3.121  -5.160  1.00  0.00     0.039 A 
ATOM     35  C   UNL     1      -4.321  -3.454  -3.883  1.00  0.00     0.014 A 
ATOM     36  C   UNL     1      -4.492  -2.103  -5.862  1.00  0.00     0.014 A 
ATOM     37  C   UNL     1      -5.334  -2.695  -3.288  1.00  0.00     0.010 A 
ATOM     38  C   UNL     1      -5.371  -1.247  -5.212  1.00  0.00     0.010 A 
ATOM     39  C   UNL     1      -5.819  -1.537  -3.919  1.00  0.00    -0.014 A 
BRANCH  39  40
ATOM     40  C   UNL     1      -6.795  -0.628  -3.257  1.00  0.00     0.031 A 
ATOM     41  C   UNL     1      -8.098  -0.280  -3.936  1.00  0.00     0.074 A 
ATOM     42  C   UNL     1      -6.473  -0.051  -2.080  1.00  0.00     0.049 A 
ATOM     43  N   UNL     1      -9.032   0.557  -3.560  1.00  0.00    -0.248 NA
ATOM     44  C   UNL     1      -8.363  -0.918  -5.236  1.00  0.00     0.031 C 
ATOM     45  C   UNL     1      -5.210  -0.241  -1.360  1.00  0.00     0.029 A 
ATOM     46  N   UNL     1      -7.178   0.812  -1.280  1.00  0.00    -0.354 N 
ATOM     47  C   UNL     1      -9.973   0.564  -4.586  1.00  0.00     0.074 A 
ATOM     48  C   UNL     1      -9.453  -0.283  -5.636  1.00  0.00     0.031 C 
ATOM     49  C   UNL     1      -5.255   0.435  -0.202  1.00  0.00     0.029 A 
ATOM     50  C   UNL     1      -6.521   1.153  -0.119  1.00  0.00     0.049 A 
ATOM     51  H   UNL     1      -8.070   1.156  -1.513  1.00  0.00     0.167 HD
ATOM     52  C   UNL     1     -11.178   1.186  -4.635  1.00  0.00     0.034 A 
ATOM     53  C   UNL     1      -6.896   1.954   0.898  1.00  0.00     0.034 A 
ATOM     54  C   UNL     1     -11.699   1.995  -3.561  1.00  0.00     0.049 A 
ATOM     55  C   UNL     1      -8.247   2.617   0.833  1.00  0.00     0.074 A 
ATOM     56  C   UNL     1     -12.934   2.613  -3.467  1.00  0.00     0.029 A 
ATOM     57  N   UNL     1     -11.014   2.301  -2.392  1.00  0.00    -0.354 N 
ATOM     58  N   UNL     1      -9.153   2.558  -0.117  1.00  0.00    -0.248 NA
ATOM     59  C   UNL     1      -8.632   3.442   1.983  1.00  0.00     0.031 C 
ATOM     60  C   UNL     1     -12.969   3.344  -2.275  1.00  0.00     0.029 A 
ATOM     61  C   UNL     1     -11.788   3.121  -1.585  1.00  0.00     0.049 A 
ATOM     62  H   UNL     1     -10.110   1.981  -2.168  1.00  0.00     0.167 HD
ATOM     63  C   UNL     1     -10.225   3.322   0.335  1.00  0.00     0.074 A 
ATOM     64  C   UNL     1      -9.863   3.801   1.654  1.00  0.00     0.031 C 
ATOM     65  C   UNL     1     -11.401   3.608  -0.282  1.00  0.00     0.034 A 
BRANCH  52  66
ATOM     66  C   UNL     1     -12.001   1.016  -5.893  1.00  0.00     0.023 A 
ATOM     67  C   UNL     1     -12.444  -0.248  -6.323  1.00  0.00     0.031 A 
ATOM     68  C   UNL     1     -12.320   2.127  -6.693  1.00  0.00     0.131 A 
ATOM     69  C   UNL     1     -13.102  -0.382  -7.555  1.00  0.00     0.055 A 
ATOM     70  C   UNL     1     -13.055   1.999  -7.875  1.00  0.00     0.041 A 
ATOM     71  F   UNL     1     -11.910   3.358  -6.350  1.00  0.00    -0.206 F 
ATOM     72  C   UNL     1     -13.436   0.736  -8.321  1.00  0.00     0.022 A 
BRANCH  69  73
ATOM     73  S   UNL     1     -13.375  -2.050  -8.213  1.00  0.00     0.124 S 
ATOM     74  O   UNL     1     -12.009  -2.561  -8.294  1.00  0.00    -0.237 OA
ATOM     75  O   UNL     1     -14.225  -2.656  -7.195  1.00  0.00    -0.237 OA
ATOM     76  O   UNL     1     -14.019  -1.808  -9.503  1.00  0.00    -0.744 OA
ENDBRANCH  69  73
ENDBRANCH  52  66
BRANCH  53  77
ATOM     77  C   UNL     1      -5.992   2.173   2.065  1.00  0.00     0.023 A 
ATOM     78  C   UNL     1      -6.361   1.750   3.353  1.00  0.00     0.031 A 
ATOM     79  C   UNL     1      -4.765   2.844   1.920  1.00  0.00     0.131 A 
ATOM     80  C   UNL     1      -5.539   2.047   4.451  1.00  0.00     0.055 A 
ATOM     81  C   UNL     1      -3.924   3.087   3.007  1.00  0.00     0.041 A 
ATOM     82  F   UNL     1      -4.359   3.262   0.711  1.00  0.00    -0.206 F 
ATOM     83  C   UNL     1      -4.316   2.701   4.285  1.00  0.00     0.022 A 
BRANCH  80  84
ATOM     84  S   UNL     1      -6.134   1.645   6.117  1.00  0.00     0.124 S 
ATOM     85  O   UNL     1      -7.391   2.383   6.169  1.00  0.00    -0.237 OA
ATOM     86  O   UNL     1      -6.244   0.192   6.055  1.00  0.00    -0.237 OA
ATOM     87  O   UNL     1      -5.075   2.152   6.987  1.00  0.00    -0.744 OA
ENDBRANCH  80  84
ENDBRANCH  53  77
BRANCH  65  88
ATOM     88  C   UNL     1     -12.380   4.460   0.489  1.00  0.00     0.023 A 
ATOM     89  C   UNL     1     -12.084   5.791   0.834  1.00  0.00     0.031 A 
ATOM     90  C   UNL     1     -13.605   3.922   0.921  1.00  0.00     0.131 A 
ATOM     91  C   UNL     1     -12.962   6.512   1.656  1.00  0.00     0.055 A 
ATOM     92  C   UNL     1     -14.509   4.670   1.677  1.00  0.00     0.041 A 
ATOM     93  F   UNL     1     -13.941   2.657   0.624  1.00  0.00    -0.206 F 
ATOM     94  C   UNL     1     -14.181   5.966   2.064  1.00  0.00     0.022 A 
BRANCH  91  95
ATOM     95  S   UNL     1     -12.427   8.124   2.291  1.00  0.00     0.124 S 
ATOM     96  O   UNL     1     -11.177   7.784   2.963  1.00  0.00    -0.237 OA
ATOM     97  O   UNL     1     -12.299   8.913   1.070  1.00  0.00    -0.237 OA
ATOM     98  O   UNL     1     -13.519   8.523   3.176  1.00  0.00    -0.744 OA
ENDBRANCH  91  95
ENDBRANCH  65  88
ENDBRANCH  39  40
ENDBRANCH  31  34
ENDBRANCH  29  30
ENDBRANCH   1  29
TORSDOF 16
