REMARK SMILES CS(=O)(=O)c1ccc(/C=C(/C(=O)NCCCNC(=O)c2ccc(-c3c4nc(c(-c5cc(S(=O)(=O)[O-])ccc5F)c5ccc([nH]5)c(-c5cc(S(=O)(=O)[O-])ccc5F)c5nc(c(-c6cc(S(=O)(=O)[O-])ccc6F)c6ccc3[nH]6)C=C5)C=C4)cc2)c2ccc(-c3ccc(F)cc3F)cc2)cc1
REMARK SMILES IDX 15 1 14 2 13 3 11 4 12 5 10 7 9 8 8 9 5 10 6 11 98 12 7 13
REMARK SMILES IDX 97 14 2 15 1 16 3 17 4 18 83 19 84 20 96 21 85 22 95 23
REMARK SMILES IDX 86 24 87 25 88 26 93 27 89 28 92 29 94 30 90 31 91 32 16 33
REMARK SMILES IDX 17 34 18 35 19 37 20 38 21 39 82 40 22 41 81 42 23 43 24 44
REMARK SMILES IDX 25 45 75 46 26 47 80 48 74 49 76 50 27 51 79 52 73 53 72 54
REMARK SMILES IDX 28 56 60 57 40 58 59 59 41 60 44 61 58 62 77 63 42 64 43 65
REMARK SMILES IDX 57 67 78 68 45 69 29 70 30 71 38 72 31 73 37 74 39 75 36 76
REMARK SMILES IDX 32 77 33 78 34 79 35 80 61 81 62 82 70 83 63 84 69 85 71 86
REMARK SMILES IDX 68 87 64 88 65 89 66 90 67 91 46 92 47 93 55 94 48 95 54 96
REMARK SMILES IDX 56 97 53 98 49 99 50 100 51 101 52 102
REMARK H PARENT 13 6 17 36 76 55 44 66
REMARK Flexibility Score: inf
ROOT
ATOM      1  C   UNL     1       5.020  -8.037   3.510  1.00  0.00     0.042 C 
ENDROOT
BRANCH   1   2
ATOM      2  C   UNL     1       4.583  -8.057   2.044  1.00  0.00     0.118 C 
BRANCH   2   3
ATOM      3  N   UNL     1       3.450  -8.942   1.857  1.00  0.00    -0.352 N 
ATOM      4  C   UNL     1       2.115  -8.756   1.702  1.00  0.00     0.251 C 
ATOM      5  O   UNL     1       1.441  -9.784   1.590  1.00  0.00    -0.269 OA
ATOM      6  H   UNL     1       3.707  -9.893   1.838  1.00  0.00     0.163 HD
BRANCH   4   7
ATOM      7  C   UNL     1       1.459  -7.397   1.579  1.00  0.00     0.047 C 
ATOM      8  C   UNL     1       1.913  -6.310   2.245  1.00  0.00     0.022 C 
BRANCH   8   9
ATOM      9  C   UNL     1       1.465  -4.897   2.189  1.00  0.00    -0.025 A 
ATOM     10  C   UNL     1       0.789  -2.178   1.933  1.00  0.00     0.067 A 
ATOM     11  C   UNL     1      -0.216  -3.141   1.988  1.00  0.00     0.021 A 
ATOM     12  C   UNL     1       2.127  -2.546   2.073  1.00  0.00     0.021 A 
ATOM     13  C   UNL     1       0.125  -4.489   2.145  1.00  0.00     0.009 A 
ATOM     14  C   UNL     1       2.458  -3.901   2.192  1.00  0.00     0.009 A 
BRANCH  10  15
ATOM     15  S   UNL     1       0.373  -0.466   1.710  1.00  0.00     0.175 S 
ATOM     16  C   UNL     1       1.024  -0.074   0.106  1.00  0.00     0.163 C 
ATOM     17  O   UNL     1       1.117   0.290   2.697  1.00  0.00    -0.224 OA
ATOM     18  O   UNL     1      -1.073  -0.365   1.623  1.00  0.00    -0.224 OA
ENDBRANCH  10  15
ENDBRANCH   8   9
BRANCH   7  19
ATOM     19  C   UNL     1       0.162  -7.354   0.857  1.00  0.00    -0.013 A 
ATOM     20  C   UNL     1      -0.932  -8.016   1.431  1.00  0.00     0.009 A 
ATOM     21  C   UNL     1      -0.042  -6.600  -0.302  1.00  0.00     0.009 A 
ATOM     22  C   UNL     1      -2.213  -7.871   0.902  1.00  0.00     0.009 A 
ATOM     23  C   UNL     1      -1.339  -6.436  -0.816  1.00  0.00     0.009 A 
ATOM     24  C   UNL     1      -2.453  -7.039  -0.202  1.00  0.00    -0.015 A 
BRANCH  24  25
ATOM     25  C   UNL     1      -3.837  -6.776  -0.644  1.00  0.00     0.018 A 
ATOM     26  C   UNL     1      -4.851  -6.540   0.310  1.00  0.00     0.015 A 
ATOM     27  C   UNL     1      -4.211  -6.741  -1.997  1.00  0.00     0.133 A 
ATOM     28  C   UNL     1      -6.172  -6.301  -0.075  1.00  0.00     0.040 A 
ATOM     29  C   UNL     1      -5.526  -6.499  -2.391  1.00  0.00     0.079 A 
ATOM     30  F   UNL     1      -3.300  -6.952  -2.960  1.00  0.00    -0.206 F 
ATOM     31  C   UNL     1      -6.496  -6.285  -1.424  1.00  0.00     0.126 A 
ATOM     32  F   UNL     1      -7.762  -6.057  -1.795  1.00  0.00    -0.207 F 
ENDBRANCH  24  25
ENDBRANCH   7  19
ENDBRANCH   4   7
ENDBRANCH   2   3
ENDBRANCH   1   2
BRANCH   1  33
ATOM     33  C   UNL     1       5.616  -9.361   3.993  1.00  0.00     0.118 C 
BRANCH  33  34
ATOM     34  N   UNL     1       6.874  -9.668   3.330  1.00  0.00    -0.352 N 
ATOM     35  C   UNL     1       8.127  -9.859   3.854  1.00  0.00     0.251 C 
ATOM     36  H   UNL     1       6.817  -9.751   2.350  1.00  0.00     0.163 HD
ATOM     37  O   UNL     1       9.093  -9.854   3.095  1.00  0.00    -0.269 OA
BRANCH  35  38
ATOM     38  C   UNL     1       8.325 -10.059   5.308  1.00  0.00     0.039 A 
ATOM     39  C   UNL     1       9.441  -9.479   5.919  1.00  0.00     0.014 A 
ATOM     40  C   UNL     1       7.460 -10.861   6.059  1.00  0.00     0.014 A 
ATOM     41  C   UNL     1       9.663  -9.665   7.287  1.00  0.00     0.010 A 
ATOM     42  C   UNL     1       7.646 -10.991   7.436  1.00  0.00     0.010 A 
ATOM     43  C   UNL     1       8.754 -10.401   8.063  1.00  0.00    -0.014 A 
BRANCH  43  44
ATOM     44  C   UNL     1       8.959 -10.571   9.526  1.00  0.00     0.031 A 
ATOM     45  C   UNL     1       9.220 -11.937  10.103  1.00  0.00     0.074 A 
ATOM     46  C   UNL     1       8.864  -9.500  10.339  1.00  0.00     0.049 A 
ATOM     47  N   UNL     1       9.369 -12.294  11.354  1.00  0.00    -0.248 NA
ATOM     48  C   UNL     1       9.295 -13.052   9.148  1.00  0.00     0.031 C 
ATOM     49  C   UNL     1       8.576  -8.132   9.902  1.00  0.00     0.029 A 
ATOM     50  N   UNL     1       8.992  -9.392  11.701  1.00  0.00    -0.354 N 
ATOM     51  C   UNL     1       9.544 -13.675  11.337  1.00  0.00     0.074 A 
ATOM     52  C   UNL     1       9.420 -14.093   9.956  1.00  0.00     0.031 C 
ATOM     53  C   UNL     1       8.573  -7.320  10.971  1.00  0.00     0.029 A 
ATOM     54  C   UNL     1       8.816  -8.111  12.173  1.00  0.00     0.049 A 
ATOM     55  H   UNL     1       9.192 -10.158  12.286  1.00  0.00     0.167 HD
ATOM     56  C   UNL     1       9.808 -14.511  12.373  1.00  0.00     0.034 A 
ATOM     57  C   UNL     1       8.838  -7.631  13.432  1.00  0.00     0.034 A 
ATOM     58  C   UNL     1       9.938 -14.075  13.743  1.00  0.00     0.049 A 
ATOM     59  C   UNL     1       9.119  -8.581  14.568  1.00  0.00     0.074 A 
ATOM     60  C   UNL     1      10.246 -14.828  14.864  1.00  0.00     0.029 A 
ATOM     61  N   UNL     1       9.761 -12.769  14.182  1.00  0.00    -0.354 N 
ATOM     62  N   UNL     1       9.330  -9.876  14.530  1.00  0.00    -0.248 NA
ATOM     63  C   UNL     1       9.182  -7.999  15.915  1.00  0.00     0.031 C 
ATOM     64  C   UNL     1      10.194 -13.991  15.985  1.00  0.00     0.029 A 
ATOM     65  C   UNL     1       9.928 -12.700  15.558  1.00  0.00     0.049 A 
ATOM     66  H   UNL     1       9.548 -12.003  13.602  1.00  0.00     0.167 HD
ATOM     67  C   UNL     1       9.580 -10.258  15.845  1.00  0.00     0.074 A 
ATOM     68  C   UNL     1       9.513  -9.053  16.646  1.00  0.00     0.031 C 
ATOM     69  C   UNL     1       9.845 -11.492  16.346  1.00  0.00     0.034 A 
BRANCH  56  70
ATOM     70  C   UNL     1       9.948 -15.983  12.057  1.00  0.00     0.023 A 
ATOM     71  C   UNL     1      10.964 -16.463  11.211  1.00  0.00     0.031 A 
ATOM     72  C   UNL     1       9.037 -16.917  12.582  1.00  0.00     0.131 A 
ATOM     73  C   UNL     1      10.995 -17.819  10.850  1.00  0.00     0.055 A 
ATOM     74  C   UNL     1       9.126 -18.280  12.287  1.00  0.00     0.041 A 
ATOM     75  F   UNL     1       8.034 -16.520  13.381  1.00  0.00    -0.206 F 
ATOM     76  C   UNL     1      10.099 -18.735  11.402  1.00  0.00     0.022 A 
BRANCH  73  77
ATOM     77  S   UNL     1      12.129 -18.337   9.533  1.00  0.00     0.124 S 
ATOM     78  O   UNL     1      11.681 -17.508   8.416  1.00  0.00    -0.237 OA
ATOM     79  O   UNL     1      13.435 -18.005  10.091  1.00  0.00    -0.237 OA
ATOM     80  O   UNL     1      11.856 -19.765   9.387  1.00  0.00    -0.744 OA
ENDBRANCH  73  77
ENDBRANCH  56  70
BRANCH  57  81
ATOM     81  C   UNL     1       8.586  -6.184  13.693  1.00  0.00     0.023 A 
ATOM     82  C   UNL     1       9.588  -5.361  14.230  1.00  0.00     0.031 A 
ATOM     83  C   UNL     1       7.324  -5.614  13.448  1.00  0.00     0.131 A 
ATOM     84  C   UNL     1       9.299  -4.025  14.550  1.00  0.00     0.055 A 
ATOM     85  C   UNL     1       7.057  -4.271  13.719  1.00  0.00     0.041 A 
ATOM     86  F   UNL     1       6.333  -6.355  12.928  1.00  0.00    -0.206 F 
ATOM     87  C   UNL     1       8.044  -3.472  14.287  1.00  0.00     0.022 A 
BRANCH  84  88
ATOM     88  S   UNL     1      10.566  -3.043  15.399  1.00  0.00     0.124 S 
ATOM     89  O   UNL     1      10.815  -3.845  16.591  1.00  0.00    -0.237 OA
ATOM     90  O   UNL     1      11.637  -3.014  14.409  1.00  0.00    -0.237 OA
ATOM     91  O   UNL     1       9.902  -1.763  15.634  1.00  0.00    -0.744 OA
ENDBRANCH  84  88
ENDBRANCH  57  81
BRANCH  69  92
ATOM     92  C   UNL     1      10.126 -11.581  17.827  1.00  0.00     0.023 A 
ATOM     93  C   UNL     1       9.136 -11.305  18.786  1.00  0.00     0.031 A 
ATOM     94  C   UNL     1      11.413 -11.920  18.282  1.00  0.00     0.131 A 
ATOM     95  C   UNL     1       9.465 -11.311  20.150  1.00  0.00     0.055 A 
ATOM     96  C   UNL     1      11.717 -11.986  19.642  1.00  0.00     0.041 A 
ATOM     97  F   UNL     1      12.398 -12.191  17.410  1.00  0.00    -0.206 F 
ATOM     98  C   UNL     1      10.744 -11.665  20.585  1.00  0.00     0.022 A 
BRANCH  95  99
ATOM     99  S   UNL     1       8.223 -10.748  21.347  1.00  0.00     0.124 S 
ATOM    100  O   UNL     1       7.931  -9.400  20.869  1.00  0.00    -0.237 OA
ATOM    101  O   UNL     1       7.157 -11.729  21.175  1.00  0.00    -0.237 OA
ATOM    102  O   UNL     1       8.925 -10.813  22.627  1.00  0.00    -0.744 OA
ENDBRANCH  95  99
ENDBRANCH  69  92
ENDBRANCH  43  44
ENDBRANCH  35  38
ENDBRANCH  33  34
ENDBRANCH   1  33
TORSDOF 17
