REMARK SMILES COCC[C@@]1(C(=O)NCCCNC(=O)c2ccc(-c3c4nc(c(-c5cc(S(=O)(=O)[O-])ccc5F)c5ccc([nH]5)c(-c5cc(S(=O)(=O)[O-])ccc5F)c5nc(c(-c6cc(S(=O)(=O)[O-])ccc6F)c6ccc3[nH]6)C=C5)C=C4)cc2)CCC[N@@H+](Cc2cccc3c2OC(C)(C)C3)C1
REMARK SMILES IDX 10 1 9 2 8 3 6 4 7 5 5 7 78 8 94 9 79 10 81 11 80 12 4 14
REMARK SMILES IDX 3 15 2 16 1 17 82 18 83 19 84 20 88 21 85 22 87 23 89 24
REMARK SMILES IDX 86 25 93 26 90 27 91 28 92 29 11 30 12 31 13 32 14 34 15 35
REMARK SMILES IDX 16 36 77 37 17 38 76 39 18 40 19 41 20 42 70 43 21 44 75 45
REMARK SMILES IDX 69 46 71 47 22 48 74 49 68 50 67 51 23 53 55 54 35 55 54 56
REMARK SMILES IDX 36 57 39 58 53 59 72 60 37 61 38 62 52 64 73 65 40 66 24 67
REMARK SMILES IDX 25 68 33 69 26 70 32 71 34 72 31 73 27 74 28 75 29 76 30 77
REMARK SMILES IDX 56 78 57 79 65 80 58 81 64 82 66 83 63 84 59 85 60 86 61 87
REMARK SMILES IDX 62 88 41 89 42 90 50 91 43 92 49 93 51 94 48 95 44 96 45 97
REMARK SMILES IDX 46 98 47 99
REMARK H PARENT 8 6 81 13 12 33 71 52 39 63
REMARK Flexibility Score: inf
ROOT
ATOM      1  C   UNL     1      -2.014   4.147   3.397  1.00  0.00     0.042 C 
ENDROOT
BRANCH   1   2
ATOM      2  C   UNL     1      -2.024   2.890   2.550  1.00  0.00     0.117 C 
BRANCH   2   3
ATOM      3  N   UNL     1      -1.046   2.936   1.487  1.00  0.00    -0.355 N 
ATOM      4  C   UNL     1       0.039   2.204   1.170  1.00  0.00     0.232 C 
ATOM      5  O   UNL     1       0.505   2.477   0.052  1.00  0.00    -0.274 OA
ATOM      6  H   UNL     1      -1.210   3.669   0.851  1.00  0.00     0.163 HD
BRANCH   4   7
ATOM      7  C   UNL     1       0.766   1.164   2.062  1.00  0.00     0.100 C 
ATOM      8  C   UNL     1       1.005  -0.072   1.155  1.00  0.00     0.029 C 
ATOM      9  C   UNL     1       0.049   0.623   3.343  1.00  0.00     0.279 C 
ATOM     10  C   UNL     1      -0.307  -0.814   0.884  1.00  0.00     0.063 C 
ATOM     11  N   UNL     1      -1.192  -0.139   3.094  1.00  0.00    -0.330 N 
ATOM     12  C   UNL     1      -0.970  -1.264   2.187  1.00  0.00     0.262 C 
ATOM     13  H   UNL     1      -1.812   0.502   2.599  1.00  0.00     0.348 HD
BRANCH   7  14
ATOM     14  C   UNL     1       2.094   1.896   2.520  1.00  0.00     0.051 C 
BRANCH  14  15
ATOM     15  C   UNL     1       3.462   1.383   2.041  1.00  0.00     0.161 C 
BRANCH  15  16
ATOM     16  O   UNL     1       4.018   2.138   0.968  1.00  0.00    -0.385 OA
ATOM     17  C   UNL     1       3.729   1.629  -0.324  1.00  0.00     0.194 C 
ENDBRANCH  15  16
ENDBRANCH  14  15
ENDBRANCH   7  14
BRANCH  11  18
ATOM     18  C   UNL     1      -1.993  -0.468   4.320  1.00  0.00     0.303 C 
BRANCH  18  19
ATOM     19  C   UNL     1      -1.405  -1.530   5.226  1.00  0.00     0.049 A 
ATOM     20  C   UNL     1      -1.525  -2.885   4.921  1.00  0.00     0.013 A 
ATOM     21  C   UNL     1      -0.426  -1.212   6.137  1.00  0.00     0.132 A 
ATOM     22  C   UNL     1      -0.498  -3.768   5.290  1.00  0.00     0.001 A 
ATOM     23  C   UNL     1       0.725  -1.953   6.229  1.00  0.00    -0.001 A 
ATOM     24  O   UNL     1      -0.507  -0.268   7.123  1.00  0.00    -0.487 OA
ATOM     25  C   UNL     1       0.697  -3.273   5.838  1.00  0.00     0.008 A 
ATOM     26  C   UNL     1       1.754  -1.052   6.814  1.00  0.00     0.087 C 
ATOM     27  C   UNL     1       0.818  -0.253   7.746  1.00  0.00     0.108 C 
ATOM     28  C   UNL     1       0.931  -0.911   9.140  1.00  0.00     0.057 C 
ATOM     29  C   UNL     1       1.065   1.246   7.879  1.00  0.00     0.057 C 
ENDBRANCH  18  19
ENDBRANCH  11  18
ENDBRANCH   4   7
ENDBRANCH   2   3
ENDBRANCH   1   2
BRANCH   1  30
ATOM     30  C   UNL     1      -2.495   5.370   2.633  1.00  0.00     0.118 C 
BRANCH  30  31
ATOM     31  N   UNL     1      -3.855   5.200   2.130  1.00  0.00    -0.352 N 
ATOM     32  C   UNL     1      -5.041   5.725   2.584  1.00  0.00     0.251 C 
ATOM     33  H   UNL     1      -3.934   4.618   1.340  1.00  0.00     0.163 HD
ATOM     34  O   UNL     1      -6.100   5.233   2.218  1.00  0.00    -0.269 OA
BRANCH  32  35
ATOM     35  C   UNL     1      -5.026   6.868   3.520  1.00  0.00     0.039 A 
ATOM     36  C   UNL     1      -5.946   6.905   4.569  1.00  0.00     0.014 A 
ATOM     37  C   UNL     1      -4.107   7.906   3.355  1.00  0.00     0.014 A 
ATOM     38  C   UNL     1      -5.888   7.947   5.497  1.00  0.00     0.010 A 
ATOM     39  C   UNL     1      -3.981   8.880   4.335  1.00  0.00     0.010 A 
ATOM     40  C   UNL     1      -4.874   8.916   5.414  1.00  0.00    -0.014 A 
BRANCH  40  41
ATOM     41  C   UNL     1      -4.724   9.971   6.447  1.00  0.00     0.031 A 
ATOM     42  C   UNL     1      -4.835  11.421   6.063  1.00  0.00     0.074 A 
ATOM     43  C   UNL     1      -4.408   9.620   7.709  1.00  0.00     0.049 A 
ATOM     44  N   UNL     1      -4.651  12.488   6.798  1.00  0.00    -0.248 NA
ATOM     45  C   UNL     1      -5.160  11.710   4.658  1.00  0.00     0.031 C 
ATOM     46  C   UNL     1      -4.221   8.246   8.181  1.00  0.00     0.029 A 
ATOM     47  N   UNL     1      -4.175  10.386   8.823  1.00  0.00    -0.354 N 
ATOM     48  C   UNL     1      -4.820  13.571   5.943  1.00  0.00     0.074 A 
ATOM     49  C   UNL     1      -5.055  13.029   4.622  1.00  0.00     0.031 C 
ATOM     50  C   UNL     1      -3.931   8.266   9.491  1.00  0.00     0.029 A 
ATOM     51  C   UNL     1      -3.853   9.651   9.941  1.00  0.00     0.049 A 
ATOM     52  H   UNL     1      -4.234  11.369   8.823  1.00  0.00     0.167 HD
ATOM     53  C   UNL     1      -4.803  14.894   6.239  1.00  0.00     0.034 A 
ATOM     54  C   UNL     1      -3.513  10.048  11.183  1.00  0.00     0.034 A 
ATOM     55  C   UNL     1      -4.576  15.408   7.568  1.00  0.00     0.049 A 
ATOM     56  C   UNL     1      -3.476  11.524  11.485  1.00  0.00     0.074 A 
ATOM     57  C   UNL     1      -4.613  16.722   8.000  1.00  0.00     0.029 A 
ATOM     58  N   UNL     1      -4.252  14.635   8.677  1.00  0.00    -0.354 N 
ATOM     59  N   UNL     1      -3.713  12.536  10.682  1.00  0.00    -0.248 NA
ATOM     60  C   UNL     1      -3.136  11.910  12.858  1.00  0.00     0.031 C 
ATOM     61  C   UNL     1      -4.227  16.751   9.344  1.00  0.00     0.029 A 
ATOM     62  C   UNL     1      -4.038  15.449   9.780  1.00  0.00     0.049 A 
ATOM     63  H   UNL     1      -4.183  13.653   8.679  1.00  0.00     0.167 HD
ATOM     64  C   UNL     1      -3.569  13.680  11.461  1.00  0.00     0.074 A 
ATOM     65  C   UNL     1      -3.248  13.229  12.801  1.00  0.00     0.031 C 
ATOM     66  C   UNL     1      -3.694  14.985  11.105  1.00  0.00     0.034 A 
BRANCH  53  67
ATOM     67  C   UNL     1      -5.000  15.868   5.100  1.00  0.00     0.023 A 
ATOM     68  C   UNL     1      -6.179  15.885   4.332  1.00  0.00     0.031 A 
ATOM     69  C   UNL     1      -3.982  16.774   4.754  1.00  0.00     0.131 A 
ATOM     70  C   UNL     1      -6.276  16.725   3.212  1.00  0.00     0.055 A 
ATOM     71  C   UNL     1      -4.121  17.672   3.694  1.00  0.00     0.041 A 
ATOM     72  F   UNL     1      -2.824  16.792   5.433  1.00  0.00    -0.206 F 
ATOM     73  C   UNL     1      -5.266  17.639   2.904  1.00  0.00     0.022 A 
BRANCH  70  74
ATOM     74  S   UNL     1      -7.668  16.492   2.073  1.00  0.00     0.124 S 
ATOM     75  O   UNL     1      -7.515  15.086   1.704  1.00  0.00    -0.237 OA
ATOM     76  O   UNL     1      -8.818  16.811   2.911  1.00  0.00    -0.237 OA
ATOM     77  O   UNL     1      -7.395  17.444   0.998  1.00  0.00    -0.744 OA
ENDBRANCH  70  74
ENDBRANCH  53  67
BRANCH  54  78
ATOM     78  C   UNL     1      -3.159   9.039  12.223  1.00  0.00     0.023 A 
ATOM     79  C   UNL     1      -3.939   8.880  13.378  1.00  0.00     0.031 A 
ATOM     80  C   UNL     1      -2.015   8.231  12.084  1.00  0.00     0.131 A 
ATOM     81  C   UNL     1      -3.547   7.963  14.367  1.00  0.00     0.055 A 
ATOM     82  C   UNL     1      -1.660   7.281  13.043  1.00  0.00     0.041 A 
ATOM     83  F   UNL     1      -1.234   8.339  10.997  1.00  0.00    -0.206 F 
ATOM     84  C   UNL     1      -2.422   7.152  14.199  1.00  0.00     0.022 A 
BRANCH  81  85
ATOM     85  S   UNL     1      -4.485   7.902  15.918  1.00  0.00     0.124 S 
ATOM     86  O   UNL     1      -4.357   9.274  16.396  1.00  0.00    -0.237 OA
ATOM     87  O   UNL     1      -5.810   7.503  15.455  1.00  0.00    -0.237 OA
ATOM     88  O   UNL     1      -3.774   6.897  16.705  1.00  0.00    -0.744 OA
ENDBRANCH  81  85
ENDBRANCH  54  78
BRANCH  66  89
ATOM     89  C   UNL     1      -3.508  16.014  12.194  1.00  0.00     0.023 A 
ATOM     90  C   UNL     1      -2.267  16.204  12.826  1.00  0.00     0.031 A 
ATOM     91  C   UNL     1      -4.590  16.812  12.607  1.00  0.00     0.131 A 
ATOM     92  C   UNL     1      -2.152  17.129  13.875  1.00  0.00     0.055 A 
ATOM     93  C   UNL     1      -4.452  17.779  13.603  1.00  0.00     0.041 A 
ATOM     94  F   UNL     1      -5.800  16.670  12.042  1.00  0.00    -0.206 F 
ATOM     95  C   UNL     1      -3.231  17.932  14.253  1.00  0.00     0.022 A 
BRANCH  92  96
ATOM     96  S   UNL     1      -0.599  17.198  14.808  1.00  0.00     0.124 S 
ATOM     97  O   UNL     1      -0.486  15.832  15.310  1.00  0.00    -0.237 OA
ATOM     98  O   UNL     1       0.366  17.582  13.783  1.00  0.00    -0.237 OA
ATOM     99  O   UNL     1      -0.856  18.213  15.828  1.00  0.00    -0.744 OA
ENDBRANCH  92  96
ENDBRANCH  66  89
ENDBRANCH  40  41
ENDBRANCH  32  35
ENDBRANCH  30  31
ENDBRANCH   1  30
TORSDOF 18
