REMARK SMILES CC1=Nc2ncnn2[C@H](c2ccc(F)cc2)[C@@H]1C(=O)NCCCNC(=O)c1ccc(-c2c3nc(c(-c4cc(S(=O)(=O)[O-])ccc4F)c4ccc([nH]4)c(-c4cc(S(=O)(=O)[O-])ccc4F)c4nc(c(-c5cc(S(=O)(=O)[O-])ccc5F)c5ccc2[nH]5)C=C4)C=C3)cc1
REMARK SMILES IDX 23 1 22 2 21 3 20 4 18 5 19 6 17 8 1 9 2 10 3 11 4 12 9 13
REMARK SMILES IDX 5 14 8 15 6 16 7 17 10 18 11 19 16 20 12 21 15 22 13 23
REMARK SMILES IDX 14 24 24 25 25 26 26 28 27 29 28 30 89 31 29 32 88 33 30 34
REMARK SMILES IDX 31 35 32 36 82 37 33 38 87 39 81 40 83 41 34 42 86 43 80 44
REMARK SMILES IDX 79 45 35 47 67 48 47 49 66 50 48 51 51 52 65 53 84 54 49 55
REMARK SMILES IDX 50 56 64 58 85 59 52 60 36 61 37 62 45 63 38 64 44 65 46 66
REMARK SMILES IDX 43 67 39 68 40 69 41 70 42 71 68 72 69 73 77 74 70 75 76 76
REMARK SMILES IDX 78 77 75 78 71 79 72 80 73 81 74 82 53 83 54 84 62 85 55 86
REMARK SMILES IDX 61 87 63 88 60 89 56 90 57 91 58 92 59 93
REMARK H PARENT 20 7 24 27 83 46 51 57
REMARK Flexibility Score: inf
ROOT
ATOM      1  C   UNL     1      -1.682  -7.296  -1.594  1.00  0.00     0.118 C 
ENDROOT
BRANCH   1   2
ATOM      2  C   UNL     1      -1.108  -5.678  -1.966  1.00  0.00     0.042 C 
BRANCH   2   3
ATOM      3  C   UNL     1      -1.714  -3.652  -1.403  1.00  0.00     0.117 C 
BRANCH   3   4
ATOM      4  N   UNL     1      -1.310  -2.733  -0.209  1.00  0.00    -0.355 N 
ATOM      5  C   UNL     1      -0.202  -1.986  -0.000  1.00  0.00     0.231 C 
ATOM      6  O   UNL     1      -0.064  -1.522   1.136  1.00  0.00    -0.274 OA
ATOM      7  H   UNL     1      -1.975  -2.690   0.516  1.00  0.00     0.163 HD
BRANCH   5   8
ATOM      8  C   UNL     1       0.874  -1.732  -1.071  1.00  0.00     0.152 C 
ATOM      9  C   UNL     1       1.413   0.688  -0.185  1.00  0.00     0.063 C 
ATOM     10  C   UNL     1       0.897  -0.213  -1.290  1.00  0.00     0.034 C 
ATOM     11  N   UNL     1       0.457   0.377  -2.354  1.00  0.00    -0.220 NA
ATOM     12  C   UNL     1       0.063  -0.392  -3.384  1.00  0.00     0.248 A 
ATOM     13  C   UNL     1       0.905  -2.557  -2.407  1.00  0.00     0.159 C 
ATOM     14  N   UNL     1      -0.589  -0.040  -4.471  1.00  0.00    -0.198 NA
ATOM     15  N   UNL     1       0.399  -1.719  -3.499  1.00  0.00    -0.221 N 
ATOM     16  C   UNL     1      -0.473  -1.127  -5.279  1.00  0.00     0.248 A 
ATOM     17  N   UNL     1       0.244  -2.137  -4.775  1.00  0.00    -0.157 NA
BRANCH  13  18
ATOM     18  C   UNL     1       0.138  -3.951  -2.304  1.00  0.00    -0.022 A 
ATOM     19  C   UNL     1      -1.290  -4.146  -3.419  1.00  0.00     0.009 A 
ATOM     20  C   UNL     1       0.047  -4.574  -0.599  1.00  0.00     0.009 A 
ATOM     21  C   UNL     1      -2.838  -4.794  -2.782  1.00  0.00     0.039 A 
ATOM     22  C   UNL     1      -1.522  -5.191   0.029  1.00  0.00     0.039 A 
ATOM     23  C   UNL     1      -2.962  -5.266  -1.052  1.00  0.00     0.123 A 
ATOM     24  F   UNL     1      -4.187  -5.407  -0.530  1.00  0.00    -0.207 F 
ENDBRANCH  13  18
ENDBRANCH   5   8
ENDBRANCH   3   4
ENDBRANCH   2   3
ENDBRANCH   1   2
BRANCH   1  25
ATOM     25  N   UNL     1      -2.998  -7.702  -2.128  1.00  0.00    -0.352 N 
ATOM     26  C   UNL     1      -3.994  -8.495  -1.578  1.00  0.00     0.251 C 
ATOM     27  H   UNL     1      -3.203  -7.351  -3.024  1.00  0.00     0.163 HD
ATOM     28  O   UNL     1      -4.939  -8.857  -2.273  1.00  0.00    -0.269 OA
BRANCH  26  29
ATOM     29  C   UNL     1      -3.896  -8.920  -0.165  1.00  0.00     0.039 A 
ATOM     30  C   UNL     1      -4.117 -10.238   0.222  1.00  0.00     0.014 A 
ATOM     31  C   UNL     1      -3.485  -7.991   0.782  1.00  0.00     0.014 A 
ATOM     32  C   UNL     1      -3.771 -10.616   1.522  1.00  0.00     0.010 A 
ATOM     33  C   UNL     1      -3.014  -8.372   2.009  1.00  0.00     0.010 A 
ATOM     34  C   UNL     1      -3.158  -9.687   2.392  1.00  0.00    -0.014 A 
BRANCH  34  35
ATOM     35  C   UNL     1      -2.361 -10.123   3.540  1.00  0.00     0.031 A 
ATOM     36  C   UNL     1      -1.407 -11.192   3.130  1.00  0.00     0.074 A 
ATOM     37  C   UNL     1      -2.317  -9.503   4.745  1.00  0.00     0.049 A 
ATOM     38  N   UNL     1      -1.573 -12.457   3.314  1.00  0.00    -0.248 NA
ATOM     39  C   UNL     1      -0.315 -10.886   2.182  1.00  0.00     0.031 C 
ATOM     40  C   UNL     1      -3.021  -8.286   5.174  1.00  0.00     0.029 A 
ATOM     41  N   UNL     1      -1.581  -9.809   5.856  1.00  0.00    -0.354 N 
ATOM     42  C   UNL     1      -0.442 -13.069   2.793  1.00  0.00     0.074 A 
ATOM     43  C   UNL     1       0.153 -12.109   1.906  1.00  0.00     0.031 C 
ATOM     44  C   UNL     1      -2.532  -7.853   6.363  1.00  0.00     0.029 A 
ATOM     45  C   UNL     1      -1.598  -8.842   6.875  1.00  0.00     0.049 A 
ATOM     46  H   UNL     1      -1.073 -10.648   5.935  1.00  0.00     0.167 HD
ATOM     47  C   UNL     1       0.061 -14.179   3.401  1.00  0.00     0.034 A 
ATOM     48  C   UNL     1      -0.970  -8.903   8.088  1.00  0.00     0.034 A 
ATOM     49  C   UNL     1      -0.897 -14.697   4.353  1.00  0.00     0.049 A 
ATOM     50  C   UNL     1      -0.789 -10.344   8.356  1.00  0.00     0.074 A 
ATOM     51  C   UNL     1      -2.123 -15.324   4.279  1.00  0.00     0.029 A 
ATOM     52  N   UNL     1      -0.823 -14.096   5.587  1.00  0.00    -0.354 N 
ATOM     53  N   UNL     1      -1.791 -11.160   8.531  1.00  0.00    -0.248 NA
ATOM     54  C   UNL     1       0.473 -10.967   7.989  1.00  0.00     0.031 C 
ATOM     55  C   UNL     1      -2.872 -14.845   5.398  1.00  0.00     0.029 A 
ATOM     56  C   UNL     1      -2.058 -14.024   6.177  1.00  0.00     0.049 A 
ATOM     57  H   UNL     1       0.009 -13.761   5.993  1.00  0.00     0.167 HD
ATOM     58  C   UNL     1      -1.413 -12.314   7.875  1.00  0.00     0.074 A 
ATOM     59  C   UNL     1       0.036 -12.198   7.707  1.00  0.00     0.031 C 
ATOM     60  C   UNL     1      -2.345 -13.098   7.259  1.00  0.00     0.034 A 
BRANCH  47  61
ATOM     61  C   UNL     1       1.536 -14.495   3.522  1.00  0.00     0.023 A 
ATOM     62  C   UNL     1       1.909 -15.736   4.075  1.00  0.00     0.031 A 
ATOM     63  C   UNL     1       2.574 -13.545   3.385  1.00  0.00     0.131 A 
ATOM     64  C   UNL     1       3.238 -15.977   4.476  1.00  0.00     0.055 A 
ATOM     65  C   UNL     1       3.899 -13.804   3.743  1.00  0.00     0.041 A 
ATOM     66  F   UNL     1       2.350 -12.284   2.995  1.00  0.00    -0.206 F 
ATOM     67  C   UNL     1       4.236 -15.020   4.306  1.00  0.00     0.022 A 
BRANCH  64  68
ATOM     68  S   UNL     1       3.638 -17.537   5.310  1.00  0.00     0.124 S 
ATOM     69  O   UNL     1       2.809 -17.462   6.507  1.00  0.00    -0.237 OA
ATOM     70  O   UNL     1       3.242 -18.523   4.310  1.00  0.00    -0.237 OA
ATOM     71  O   UNL     1       5.078 -17.437   5.541  1.00  0.00    -0.744 OA
ENDBRANCH  64  68
ENDBRANCH  47  61
BRANCH  48  72
ATOM     72  C   UNL     1      -0.213  -7.868   8.867  1.00  0.00     0.023 A 
ATOM     73  C   UNL     1       0.242  -8.086  10.198  1.00  0.00     0.031 A 
ATOM     74  C   UNL     1       0.358  -6.774   8.187  1.00  0.00     0.131 A 
ATOM     75  C   UNL     1       1.243  -7.257  10.770  1.00  0.00     0.055 A 
ATOM     76  C   UNL     1       1.356  -5.969   8.752  1.00  0.00     0.041 A 
ATOM     77  F   UNL     1       0.036  -6.512   6.911  1.00  0.00    -0.206 F 
ATOM     78  C   UNL     1       1.815  -6.217  10.038  1.00  0.00     0.022 A 
BRANCH  75  79
ATOM     79  S   UNL     1       1.923  -7.588  12.438  1.00  0.00     0.124 S 
ATOM     80  O   UNL     1       0.868  -7.079  13.307  1.00  0.00    -0.237 OA
ATOM     81  O   UNL     1       2.113  -9.034  12.428  1.00  0.00    -0.237 OA
ATOM     82  O   UNL     1       3.163  -6.811  12.460  1.00  0.00    -0.744 OA
ENDBRANCH  75  79
ENDBRANCH  48  72
BRANCH  60  83
ATOM     83  C   UNL     1      -3.787 -12.951   7.698  1.00  0.00     0.023 A 
ATOM     84  C   UNL     1      -4.627 -11.833   7.477  1.00  0.00     0.031 A 
ATOM     85  C   UNL     1      -4.347 -14.079   8.321  1.00  0.00     0.131 A 
ATOM     86  C   UNL     1      -5.982 -11.889   7.876  1.00  0.00     0.055 A 
ATOM     87  C   UNL     1      -5.686 -14.137   8.691  1.00  0.00     0.041 A 
ATOM     88  F   UNL     1      -3.595 -15.169   8.548  1.00  0.00    -0.206 F 
ATOM     89  C   UNL     1      -6.510 -13.041   8.471  1.00  0.00     0.022 A 
BRANCH  86  90
ATOM     90  S   UNL     1      -7.100 -10.466   7.623  1.00  0.00     0.124 S 
ATOM     91  O   UNL     1      -6.433  -9.384   8.338  1.00  0.00    -0.237 OA
ATOM     92  O   UNL     1      -7.141 -10.342   6.169  1.00  0.00    -0.237 OA
ATOM     93  O   UNL     1      -8.360 -10.907   8.228  1.00  0.00    -0.744 OA
ENDBRANCH  86  90
ENDBRANCH  60  83
ENDBRANCH  34  35
ENDBRANCH  26  29
ENDBRANCH   1  25
TORSDOF 14
