REMARK SMILES Cn1nc(N2CCC(CC(=O)NCCCNC(=O)c3ccc(-c4c5nc(c(-c6cc(S(=O)(=O)[O-])ccc6F)c6ccc([nH]6)c(-c6cc(S(=O)(=O)[O-])ccc6F)c6nc(c(-c7cc(S(=O)(=O)[O-])ccc7F)c7ccc4[nH]7)C=C6)C=C5)cc3)CC2)c(=O)n(C)c1=O
REMARK SMILES IDX 14 1 13 2 12 3 10 4 11 5 9 7 8 8 5 9 6 10 83 11 7 12 82 13
REMARK SMILES IDX 4 14 1 15 2 16 3 17 88 18 86 19 89 20 84 21 87 22 85 23
REMARK SMILES IDX 15 24 16 25 17 26 18 28 19 29 20 30 81 31 21 32 80 33 22 34
REMARK SMILES IDX 23 35 24 36 74 37 25 38 79 39 73 40 75 41 26 42 78 43 72 44
REMARK SMILES IDX 71 45 27 47 59 48 39 49 58 50 40 51 43 52 57 53 76 54 41 55
REMARK SMILES IDX 42 56 56 58 77 59 44 60 28 61 29 62 37 63 30 64 36 65 38 66
REMARK SMILES IDX 35 67 31 68 32 69 33 70 34 71 60 72 61 73 69 74 62 75 68 76
REMARK SMILES IDX 70 77 67 78 63 79 64 80 65 81 66 82 45 83 46 84 54 85 47 86
REMARK SMILES IDX 53 87 55 88 52 89 48 90 49 91 50 92 51 93
REMARK H PARENT 12 6 16 27 75 46 43 57
REMARK Flexibility Score: inf
ROOT
ATOM      1  C   UNL     1       1.411  -4.928   4.530  1.00  0.00     0.042 C 
ENDROOT
BRANCH   1   2
ATOM      2  C   UNL     1       2.927  -5.124   4.439  1.00  0.00     0.117 C 
BRANCH   2   3
ATOM      3  N   UNL     1       3.310  -6.513   4.212  1.00  0.00    -0.356 N 
ATOM      4  C   UNL     1       3.868  -7.133   3.132  1.00  0.00     0.220 C 
ATOM      5  O   UNL     1       4.108  -8.339   3.214  1.00  0.00    -0.275 OA
ATOM      6  H   UNL     1       3.135  -7.111   4.974  1.00  0.00     0.163 HD
BRANCH   4   7
ATOM      7  C   UNL     1       4.178  -6.370   1.855  1.00  0.00     0.103 C 
BRANCH   7   8
ATOM      8  C   UNL     1       3.075  -6.488   0.782  1.00  0.00     0.002 C 
ATOM      9  N   UNL     1       1.298  -4.913  -0.831  1.00  0.00    -0.351 N 
ATOM     10  C   UNL     1       0.697  -5.660   0.250  1.00  0.00     0.118 C 
ATOM     11  C   UNL     1       2.387  -5.576  -1.518  1.00  0.00     0.118 C 
ATOM     12  C   UNL     1       1.758  -5.901   1.306  1.00  0.00     0.025 C 
ATOM     13  C   UNL     1       3.530  -5.791  -0.520  1.00  0.00     0.025 C 
BRANCH   9  14
ATOM     14  C   UNL     1       0.812  -3.677  -1.207  1.00  0.00     0.215 A 
ATOM     15  C   UNL     1       0.926  -0.267  -0.093  1.00  0.00     0.180 C 
ATOM     16  N   UNL     1       0.542  -1.411  -0.904  1.00  0.00    -0.216 N 
ATOM     17  N   UNL     1       1.071  -2.612  -0.503  1.00  0.00    -0.145 NA
ATOM     18  C   UNL     1      -0.346  -1.242  -1.966  1.00  0.00     0.346 A 
ATOM     19  N   UNL     1      -0.678  -2.382  -2.671  1.00  0.00    -0.259 N 
ATOM     20  O   UNL     1      -0.788  -0.133  -2.274  1.00  0.00    -0.246 OA
ATOM     21  C   UNL     1      -0.072  -3.597  -2.449  1.00  0.00     0.299 A 
ATOM     22  C   UNL     1      -1.644  -2.311  -3.745  1.00  0.00     0.159 C 
ATOM     23  O   UNL     1      -0.192  -4.591  -3.158  1.00  0.00    -0.265 OA
ENDBRANCH   9  14
ENDBRANCH   7   8
ENDBRANCH   4   7
ENDBRANCH   2   3
ENDBRANCH   1   2
BRANCH   1  24
ATOM     24  C   UNL     1       0.765  -5.561   5.757  1.00  0.00     0.118 C 
BRANCH  24  25
ATOM     25  N   UNL     1       0.685  -4.619   6.857  1.00  0.00    -0.352 N 
ATOM     26  C   UNL     1      -0.389  -3.893   7.314  1.00  0.00     0.251 C 
ATOM     27  H   UNL     1       1.526  -4.479   7.349  1.00  0.00     0.163 HD
ATOM     28  O   UNL     1      -0.175  -2.931   8.050  1.00  0.00    -0.269 OA
BRANCH  26  29
ATOM     29  C   UNL     1      -1.784  -4.237   6.935  1.00  0.00     0.039 A 
ATOM     30  C   UNL     1      -2.703  -3.199   6.744  1.00  0.00     0.014 A 
ATOM     31  C   UNL     1      -2.226  -5.562   6.858  1.00  0.00     0.014 A 
ATOM     32  C   UNL     1      -4.041  -3.485   6.452  1.00  0.00     0.010 A 
ATOM     33  C   UNL     1      -3.546  -5.847   6.496  1.00  0.00     0.010 A 
ATOM     34  C   UNL     1      -4.475  -4.813   6.311  1.00  0.00    -0.014 A 
BRANCH  34  35
ATOM     35  C   UNL     1      -5.904  -5.131   6.038  1.00  0.00     0.031 A 
ATOM     36  C   UNL     1      -6.726  -5.851   7.077  1.00  0.00     0.074 A 
ATOM     37  C   UNL     1      -6.465  -4.785   4.862  1.00  0.00     0.049 A 
ATOM     38  N   UNL     1      -7.964  -6.272   7.008  1.00  0.00    -0.248 NA
ATOM     39  C   UNL     1      -6.063  -6.153   8.356  1.00  0.00     0.031 C 
ATOM     40  C   UNL     1      -5.781  -4.087   3.772  1.00  0.00     0.029 A 
ATOM     41  N   UNL     1      -7.742  -4.966   4.388  1.00  0.00    -0.354 N 
ATOM     42  C   UNL     1      -8.225  -6.891   8.226  1.00  0.00     0.074 A 
ATOM     43  C   UNL     1      -7.001  -6.838   8.995  1.00  0.00     0.031 C 
ATOM     44  C   UNL     1      -6.653  -3.867   2.774  1.00  0.00     0.029 A 
ATOM     45  C   UNL     1      -7.946  -4.445   3.131  1.00  0.00     0.049 A 
ATOM     46  H   UNL     1      -8.445  -5.426   4.901  1.00  0.00     0.167 HD
ATOM     47  C   UNL     1      -9.384  -7.431   8.674  1.00  0.00     0.034 A 
ATOM     48  C   UNL     1      -9.047  -4.436   2.352  1.00  0.00     0.034 A 
ATOM     49  C   UNL     1     -10.610  -7.456   7.919  1.00  0.00     0.049 A 
ATOM     50  C   UNL     1     -10.312  -5.081   2.856  1.00  0.00     0.074 A 
ATOM     51  C   UNL     1     -11.845  -7.956   8.299  1.00  0.00     0.029 A 
ATOM     52  N   UNL     1     -10.762  -6.955   6.635  1.00  0.00    -0.354 N 
ATOM     53  N   UNL     1     -10.531  -5.676   4.005  1.00  0.00    -0.248 NA
ATOM     54  C   UNL     1     -11.475  -5.058   1.958  1.00  0.00     0.031 C 
ATOM     55  C   UNL     1     -12.729  -7.800   7.227  1.00  0.00     0.029 A 
ATOM     56  C   UNL     1     -12.063  -7.151   6.201  1.00  0.00     0.049 A 
ATOM     57  H   UNL     1     -10.050  -6.522   6.109  1.00  0.00     0.167 HD
ATOM     58  C   UNL     1     -11.863  -6.078   3.974  1.00  0.00     0.074 A 
ATOM     59  C   UNL     1     -12.400  -5.654   2.698  1.00  0.00     0.031 C 
ATOM     60  C   UNL     1     -12.579  -6.735   4.920  1.00  0.00     0.034 A 
BRANCH  47  61
ATOM     61  C   UNL     1      -9.381  -8.048  10.049  1.00  0.00     0.023 A 
ATOM     62  C   UNL     1      -9.256  -7.259  11.204  1.00  0.00     0.031 A 
ATOM     63  C   UNL     1      -9.529  -9.437  10.206  1.00  0.00     0.131 A 
ATOM     64  C   UNL     1      -9.237  -7.870  12.467  1.00  0.00     0.055 A 
ATOM     65  C   UNL     1      -9.571 -10.032  11.468  1.00  0.00     0.041 A 
ATOM     66  F   UNL     1      -9.636 -10.238   9.134  1.00  0.00    -0.206 F 
ATOM     67  C   UNL     1      -9.418  -9.248  12.608  1.00  0.00     0.022 A 
BRANCH  64  68
ATOM     68  S   UNL     1      -8.899  -6.845  13.924  1.00  0.00     0.124 S 
ATOM     69  O   UNL     1      -7.513  -6.447  13.686  1.00  0.00    -0.237 OA
ATOM     70  O   UNL     1      -9.895  -5.787  13.808  1.00  0.00    -0.237 OA
ATOM     71  O   UNL     1      -9.095  -7.765  15.042  1.00  0.00    -0.744 OA
ENDBRANCH  64  68
ENDBRANCH  47  61
BRANCH  48  72
ATOM     72  C   UNL     1      -9.007  -3.803   1.004  1.00  0.00     0.023 A 
ATOM     73  C   UNL     1      -9.732  -2.631   0.738  1.00  0.00     0.031 A 
ATOM     74  C   UNL     1      -8.260  -4.373  -0.042  1.00  0.00     0.131 A 
ATOM     75  C   UNL     1      -9.718  -2.080  -0.553  1.00  0.00     0.055 A 
ATOM     76  C   UNL     1      -8.218  -3.799  -1.313  1.00  0.00     0.041 A 
ATOM     77  F   UNL     1      -7.545  -5.490   0.165  1.00  0.00    -0.206 F 
ATOM     78  C   UNL     1      -8.957  -2.650  -1.577  1.00  0.00     0.022 A 
BRANCH  75  79
ATOM     79  S   UNL     1     -10.747  -0.625  -0.889  1.00  0.00     0.124 S 
ATOM     80  O   UNL     1     -12.088  -1.153  -0.665  1.00  0.00    -0.237 OA
ATOM     81  O   UNL     1     -10.258   0.329   0.100  1.00  0.00    -0.237 OA
ATOM     82  O   UNL     1     -10.428  -0.297  -2.277  1.00  0.00    -0.744 OA
ENDBRANCH  75  79
ENDBRANCH  48  72
BRANCH  60  83
ATOM     83  C   UNL     1     -14.027  -7.016   4.623  1.00  0.00     0.023 A 
ATOM     84  C   UNL     1     -14.407  -7.996   3.692  1.00  0.00     0.031 A 
ATOM     85  C   UNL     1     -15.038  -6.322   5.313  1.00  0.00     0.131 A 
ATOM     86  C   UNL     1     -15.767  -8.239   3.454  1.00  0.00     0.055 A 
ATOM     87  C   UNL     1     -16.389  -6.599   5.103  1.00  0.00     0.041 A 
ATOM     88  F   UNL     1     -14.724  -5.379   6.215  1.00  0.00    -0.206 F 
ATOM     89  C   UNL     1     -16.760  -7.559   4.165  1.00  0.00     0.022 A 
BRANCH  86  90
ATOM     90  S   UNL     1     -16.228  -9.443   2.178  1.00  0.00     0.124 S 
ATOM     91  O   UNL     1     -15.736  -8.799   0.964  1.00  0.00    -0.237 OA
ATOM     92  O   UNL     1     -15.510 -10.641   2.599  1.00  0.00    -0.237 OA
ATOM     93  O   UNL     1     -17.683  -9.523   2.292  1.00  0.00    -0.744 OA
ENDBRANCH  86  90
ENDBRANCH  60  83
ENDBRANCH  34  35
ENDBRANCH  26  29
ENDBRANCH  24  25
ENDBRANCH   1  24
TORSDOF 15
