REMARK SMILES C[N@H+]1CCO[C@](C)(C(=O)NCCCNC(=O)c2ccc(-c3c4nc(c(-c5cc(S(=O)(=O)[O-])ccc5F)c5ccc([nH]5)c(-c5cc(S(=O)(=O)[O-])ccc5F)c5nc(c(-c6cc(S(=O)(=O)[O-])ccc6F)c6ccc3[nH]6)C=C5)C=C4)cc2)C1
REMARK SMILES IDX 14 1 15 2 16 3 13 5 12 6 11 7 10 8 8 9 9 10 6 12 1 13 2 14
REMARK SMILES IDX 3 15 80 16 4 18 5 19 7 20 17 21 18 22 79 23 19 24 78 25
REMARK SMILES IDX 20 26 21 27 22 28 72 29 23 30 77 31 71 32 73 33 24 34 76 35
REMARK SMILES IDX 70 36 69 37 25 39 57 40 37 41 56 42 38 43 41 44 55 45 74 46
REMARK SMILES IDX 39 47 40 48 54 50 75 51 42 52 26 53 27 54 35 55 28 56 34 57
REMARK SMILES IDX 36 58 33 59 29 60 30 61 31 62 32 63 58 64 59 65 67 66 60 67
REMARK SMILES IDX 66 68 68 69 65 70 61 71 62 72 63 73 64 74 43 75 44 76 52 77
REMARK SMILES IDX 45 78 51 79 53 80 50 81 46 82 47 83 48 84 49 85
REMARK H PARENT 14 4 10 11 2 17 73 38 41 49
REMARK Flexibility Score: inf
ROOT
ATOM      1  N   UNL     1      -4.708  -3.048  -1.910  1.00  0.00    -0.352 N 
ATOM      2  C   UNL     1      -5.335  -4.254  -1.725  1.00  0.00     0.251 C 
ATOM      3  O   UNL     1      -5.064  -5.191  -2.477  1.00  0.00    -0.269 OA
ATOM      4  H   UNL     1      -4.222  -2.958  -2.761  1.00  0.00     0.163 HD
ENDROOT
BRANCH   1   5
ATOM      5  C   UNL     1      -4.651  -1.881  -1.040  1.00  0.00     0.118 C 
BRANCH   5   6
ATOM      6  C   UNL     1      -3.232  -1.569  -0.592  1.00  0.00     0.042 C 
BRANCH   6   7
ATOM      7  C   UNL     1      -2.303  -1.200  -1.738  1.00  0.00     0.117 C 
BRANCH   7   8
ATOM      8  N   UNL     1      -2.620   0.100  -2.313  1.00  0.00    -0.353 N 
ATOM      9  C   UNL     1      -1.926   1.281  -2.336  1.00  0.00     0.257 C 
ATOM     10  O   UNL     1      -2.475   2.224  -2.914  1.00  0.00    -0.271 OA
ATOM     11  H   UNL     1      -3.492   0.137  -2.768  1.00  0.00     0.163 HD
BRANCH   9  12
ATOM     12  C   UNL     1      -0.512   1.402  -1.692  1.00  0.00     0.192 C 
ATOM     13  C   UNL     1       1.412   0.245   0.692  1.00  0.00     0.332 C 
ATOM     14  N   UNL     1       0.516   1.389   0.673  1.00  0.00    -0.333 N 
ATOM     15  C   UNL     1       1.122   2.680   0.335  1.00  0.00     0.290 C 
ATOM     16  C   UNL     1      -0.678   1.170  -0.159  1.00  0.00     0.308 C 
ATOM     17  H   UNL     1       0.242   1.457   1.653  1.00  0.00     0.348 HD
ATOM     18  C   UNL     1       1.213   2.999  -1.164  1.00  0.00     0.223 C 
ATOM     19  O   UNL     1      -0.014   2.755  -1.866  1.00  0.00    -0.354 OA
ATOM     20  C   UNL     1       0.429   0.486  -2.498  1.00  0.00     0.059 C 
ENDBRANCH   9  12
ENDBRANCH   7   8
ENDBRANCH   6   7
ENDBRANCH   5   6
ENDBRANCH   1   5
BRANCH   2  21
ATOM     21  C   UNL     1      -6.306  -4.433  -0.625  1.00  0.00     0.039 A 
ATOM     22  C   UNL     1      -6.317  -5.638   0.081  1.00  0.00     0.014 A 
ATOM     23  C   UNL     1      -7.212  -3.422  -0.295  1.00  0.00     0.014 A 
ATOM     24  C   UNL     1      -7.190  -5.800   1.159  1.00  0.00     0.010 A 
ATOM     25  C   UNL     1      -8.009  -3.547   0.838  1.00  0.00     0.010 A 
ATOM     26  C   UNL     1      -8.014  -4.741   1.573  1.00  0.00    -0.014 A 
BRANCH  26  27
ATOM     27  C   UNL     1      -8.895  -4.865   2.764  1.00  0.00     0.031 A 
ATOM     28  C   UNL     1     -10.387  -4.744   2.613  1.00  0.00     0.074 A 
ATOM     29  C   UNL     1      -8.347  -5.029   3.985  1.00  0.00     0.049 A 
ATOM     30  N   UNL     1     -11.316  -4.747   3.534  1.00  0.00    -0.248 NA
ATOM     31  C   UNL     1     -10.901  -4.563   1.246  1.00  0.00     0.031 C 
ATOM     32  C   UNL     1      -6.911  -5.121   4.260  1.00  0.00     0.029 A 
ATOM     33  N   UNL     1      -8.927  -5.139   5.223  1.00  0.00    -0.354 N 
ATOM     34  C   UNL     1     -12.519  -4.558   2.862  1.00  0.00     0.074 A 
ATOM     35  C   UNL     1     -12.193  -4.374   1.464  1.00  0.00     0.031 C 
ATOM     36  C   UNL     1      -6.726  -5.306   5.577  1.00  0.00     0.029 A 
ATOM     37  C   UNL     1      -8.022  -5.289   6.248  1.00  0.00     0.049 A 
ATOM     38  H   UNL     1      -9.901  -5.113   5.365  1.00  0.00     0.167 HD
ATOM     39  C   UNL     1     -13.780  -4.562   3.361  1.00  0.00     0.034 A 
ATOM     40  C   UNL     1      -8.211  -5.386   7.579  1.00  0.00     0.034 A 
ATOM     41  C   UNL     1     -14.085  -4.755   4.758  1.00  0.00     0.049 A 
ATOM     42  C   UNL     1      -9.621  -5.349   8.115  1.00  0.00     0.074 A 
ATOM     43  C   UNL     1     -15.326  -4.829   5.366  1.00  0.00     0.029 A 
ATOM     44  N   UNL     1     -13.142  -4.895   5.769  1.00  0.00    -0.354 N 
ATOM     45  N   UNL     1     -10.752  -5.221   7.459  1.00  0.00    -0.248 NA
ATOM     46  C   UNL     1      -9.780  -5.482   9.569  1.00  0.00     0.031 C 
ATOM     47  C   UNL     1     -15.134  -4.933   6.747  1.00  0.00     0.029 A 
ATOM     48  C   UNL     1     -13.773  -5.018   6.997  1.00  0.00     0.049 A 
ATOM     49  H   UNL     1     -12.166  -4.906   5.632  1.00  0.00     0.167 HD
ATOM     50  C   UNL     1     -11.758  -5.293   8.420  1.00  0.00     0.074 A 
ATOM     51  C   UNL     1     -11.099  -5.492   9.694  1.00  0.00     0.031 C 
ATOM     52  C   UNL     1     -13.104  -5.207   8.263  1.00  0.00     0.034 A 
BRANCH  39  53
ATOM     53  C   UNL     1     -14.914  -4.326   2.392  1.00  0.00     0.023 A 
ATOM     54  C   UNL     1     -15.167  -5.202   1.321  1.00  0.00     0.031 A 
ATOM     55  C   UNL     1     -15.743  -3.198   2.525  1.00  0.00     0.131 A 
ATOM     56  C   UNL     1     -16.167  -4.897   0.385  1.00  0.00     0.055 A 
ATOM     57  C   UNL     1     -16.794  -2.947   1.641  1.00  0.00     0.041 A 
ATOM     58  F   UNL     1     -15.539  -2.312   3.513  1.00  0.00    -0.206 F 
ATOM     59  C   UNL     1     -17.001  -3.790   0.553  1.00  0.00     0.022 A 
BRANCH  56  60
ATOM     60  S   UNL     1     -16.260  -5.883  -1.135  1.00  0.00     0.124 S 
ATOM     61  O   UNL     1     -14.924  -5.688  -1.694  1.00  0.00    -0.237 OA
ATOM     62  O   UNL     1     -16.552  -7.218  -0.627  1.00  0.00    -0.237 OA
ATOM     63  O   UNL     1     -17.341  -5.250  -1.888  1.00  0.00    -0.744 OA
ENDBRANCH  56  60
ENDBRANCH  39  53
BRANCH  40  64
ATOM     64  C   UNL     1      -7.047  -5.512   8.504  1.00  0.00     0.023 A 
ATOM     65  C   UNL     1      -6.878  -6.655   9.302  1.00  0.00     0.031 A 
ATOM     66  C   UNL     1      -6.112  -4.470   8.641  1.00  0.00     0.131 A 
ATOM     67  C   UNL     1      -5.832  -6.707  10.237  1.00  0.00     0.055 A 
ATOM     68  C   UNL     1      -5.038  -4.553   9.528  1.00  0.00     0.041 A 
ATOM     69  F   UNL     1      -6.224  -3.355   7.901  1.00  0.00    -0.206 F 
ATOM     70  C   UNL     1      -4.902  -5.671  10.345  1.00  0.00     0.022 A 
BRANCH  67  71
ATOM     71  S   UNL     1      -5.764  -8.110  11.385  1.00  0.00     0.124 S 
ATOM     72  O   UNL     1      -7.068  -8.026  12.033  1.00  0.00    -0.237 OA
ATOM     73  O   UNL     1      -5.571  -9.235  10.476  1.00  0.00    -0.237 OA
ATOM     74  O   UNL     1      -4.620  -7.796  12.238  1.00  0.00    -0.744 OA
ENDBRANCH  67  71
ENDBRANCH  40  64
BRANCH  52  75
ATOM     75  C   UNL     1     -13.953  -5.382   9.500  1.00  0.00     0.023 A 
ATOM     76  C   UNL     1     -13.919  -4.461  10.562  1.00  0.00     0.031 A 
ATOM     77  C   UNL     1     -14.803  -6.496   9.619  1.00  0.00     0.131 A 
ATOM     78  C   UNL     1     -14.673  -4.703  11.720  1.00  0.00     0.055 A 
ATOM     79  C   UNL     1     -15.604  -6.694  10.745  1.00  0.00     0.041 A 
ATOM     80  F   UNL     1     -14.873  -7.411   8.639  1.00  0.00    -0.206 F 
ATOM     81  C   UNL     1     -15.530  -5.803  11.810  1.00  0.00     0.022 A 
BRANCH  78  82
ATOM     82  S   UNL     1     -14.440  -3.615  13.153  1.00  0.00     0.124 S 
ATOM     83  O   UNL     1     -13.011  -3.756  13.411  1.00  0.00    -0.237 OA
ATOM     84  O   UNL     1     -14.870  -2.321  12.636  1.00  0.00    -0.237 OA
ATOM     85  O   UNL     1     -15.314  -4.197  14.171  1.00  0.00    -0.744 OA
ENDBRANCH  78  82
ENDBRANCH  52  75
ENDBRANCH  26  27
ENDBRANCH   2  21
TORSDOF 13
