REMARK SMILES O=C(NCCCNC(=O)[C@H]1Cc2[nH]cnc2CN1C(=O)C[C@]12C[C@H]3C[C@H](C[C@H](C3)C1)C2)c1ccc(-c2c3nc(c(-c4cc(S(=O)(=O)[O-])ccc4F)c4ccc([nH]4)c(-c4cc(S(=O)(=O)[O-])ccc4F)c4nc(c(-c5cc(S(=O)(=O)[O-])ccc5F)c5ccc2[nH]5)C=C4)C=C3)cc1
REMARK SMILES IDX 5 1 4 2 3 3 1 4 2 5 32 7 33 8 94 9 34 10 93 11 35 12 36 13
REMARK SMILES IDX 37 14 87 15 38 16 92 17 86 18 88 19 39 20 91 21 85 22 84 23
REMARK SMILES IDX 40 25 72 26 52 27 71 28 53 29 56 30 70 31 89 32 54 33 55 34
REMARK SMILES IDX 69 36 90 37 57 38 41 39 42 40 50 41 43 42 49 43 51 44 48 45
REMARK SMILES IDX 44 46 45 47 46 48 47 49 73 50 74 51 82 52 75 53 81 54 83 55
REMARK SMILES IDX 80 56 76 57 77 58 78 59 79 60 58 61 59 62 67 63 60 64 66 65
REMARK SMILES IDX 68 66 65 67 61 68 62 69 63 70 64 71 6 72 7 73 8 74 9 76
REMARK SMILES IDX 10 77 11 78 18 79 12 80 17 81 13 82 16 83 14 84 15 86 19 87
REMARK SMILES IDX 20 88 21 89 22 90 23 91 30 92 31 93 24 94 28 95 26 96 25 97
REMARK SMILES IDX 29 98 27 99
REMARK H PARENT 3 6 88 24 56 35 7 75 13 85
REMARK Flexibility Score: inf
ROOT
ATOM      1  C   UNL     1       4.629  -2.437  -0.213  1.00  0.00     0.042 C 
ENDROOT
BRANCH   1   2
ATOM      2  C   UNL     1       4.509  -0.992  -0.711  1.00  0.00     0.118 C 
BRANCH   2   3
ATOM      3  N   UNL     1       3.166  -0.517  -0.977  1.00  0.00    -0.352 N 
ATOM      4  O   UNL     1       1.207   0.485  -0.791  1.00  0.00    -0.269 OA
ATOM      5  C   UNL     1       2.149  -0.043  -0.194  1.00  0.00     0.251 C 
ATOM      6  H   UNL     1       2.934  -0.540  -1.933  1.00  0.00     0.163 HD
BRANCH   5   7
ATOM      7  C   UNL     1       2.070  -0.211   1.280  1.00  0.00     0.039 A 
ATOM      8  C   UNL     1       3.131  -0.547   2.120  1.00  0.00     0.014 A 
ATOM      9  C   UNL     1       0.788  -0.061   1.841  1.00  0.00     0.014 A 
ATOM     10  C   UNL     1       2.895  -0.877   3.452  1.00  0.00     0.010 A 
ATOM     11  C   UNL     1       0.551  -0.357   3.177  1.00  0.00     0.010 A 
ATOM     12  C   UNL     1       1.597  -0.818   3.970  1.00  0.00    -0.014 A 
BRANCH  12  13
ATOM     13  C   UNL     1       1.405  -1.033   5.403  1.00  0.00     0.031 A 
ATOM     14  C   UNL     1       2.062   0.004   6.247  1.00  0.00     0.074 A 
ATOM     15  C   UNL     1       0.583  -1.968   5.928  1.00  0.00     0.049 A 
ATOM     16  N   UNL     1       3.038  -0.146   7.080  1.00  0.00    -0.248 NA
ATOM     17  C   UNL     1       1.703   1.413   6.006  1.00  0.00     0.031 C 
ATOM     18  C   UNL     1      -0.323  -2.868   5.214  1.00  0.00     0.029 A 
ATOM     19  N   UNL     1       0.307  -2.242   7.237  1.00  0.00    -0.354 N 
ATOM     20  C   UNL     1       3.252   1.108   7.651  1.00  0.00     0.074 A 
ATOM     21  C   UNL     1       2.558   2.043   6.811  1.00  0.00     0.031 C 
ATOM     22  C   UNL     1      -1.202  -3.410   6.089  1.00  0.00     0.029 A 
ATOM     23  C   UNL     1      -0.849  -2.998   7.440  1.00  0.00     0.049 A 
ATOM     24  H   UNL     1       0.876  -1.931   7.978  1.00  0.00     0.167 HD
ATOM     25  C   UNL     1       3.773   1.232   8.904  1.00  0.00     0.034 A 
ATOM     26  C   UNL     1      -1.502  -3.222   8.617  1.00  0.00     0.034 A 
ATOM     27  C   UNL     1       4.438   0.010   9.306  1.00  0.00     0.049 A 
ATOM     28  C   UNL     1      -0.522  -2.975   9.704  1.00  0.00     0.074 A 
ATOM     29  C   UNL     1       5.482  -0.739   8.795  1.00  0.00     0.029 A 
ATOM     30  N   UNL     1       3.791  -0.826  10.191  1.00  0.00    -0.354 N 
ATOM     31  N   UNL     1       0.533  -3.718   9.894  1.00  0.00    -0.248 NA
ATOM     32  C   UNL     1      -0.440  -1.630  10.255  1.00  0.00     0.031 C 
ATOM     33  C   UNL     1       5.089  -2.096   8.992  1.00  0.00     0.029 A 
ATOM     34  C   UNL     1       3.879  -2.099   9.687  1.00  0.00     0.049 A 
ATOM     35  H   UNL     1       3.349  -0.559  11.028  1.00  0.00     0.167 HD
ATOM     36  C   UNL     1       1.553  -2.823  10.176  1.00  0.00     0.074 A 
ATOM     37  C   UNL     1       0.877  -1.560  10.472  1.00  0.00     0.031 C 
ATOM     38  C   UNL     1       2.853  -3.107   9.866  1.00  0.00     0.034 A 
BRANCH  25  39
ATOM     39  C   UNL     1       3.324   2.269   9.922  1.00  0.00     0.023 A 
ATOM     40  C   UNL     1       3.833   2.123  11.227  1.00  0.00     0.031 A 
ATOM     41  C   UNL     1       2.222   3.145   9.798  1.00  0.00     0.131 A 
ATOM     42  C   UNL     1       3.154   2.655  12.335  1.00  0.00     0.055 A 
ATOM     43  C   UNL     1       1.592   3.734  10.899  1.00  0.00     0.041 A 
ATOM     44  F   UNL     1       1.641   3.429   8.629  1.00  0.00    -0.206 F 
ATOM     45  C   UNL     1       2.026   3.452  12.181  1.00  0.00     0.022 A 
BRANCH  42  46
ATOM     46  S   UNL     1       3.649   2.084  13.980  1.00  0.00     0.124 S 
ATOM     47  O   UNL     1       3.576   0.639  13.813  1.00  0.00    -0.237 OA
ATOM     48  O   UNL     1       4.983   2.656  14.105  1.00  0.00    -0.237 OA
ATOM     49  O   UNL     1       2.632   2.668  14.857  1.00  0.00    -0.744 OA
ENDBRANCH  42  46
ENDBRANCH  25  39
BRANCH  26  50
ATOM     50  C   UNL     1      -2.981  -3.285   8.848  1.00  0.00     0.023 A 
ATOM     51  C   UNL     1      -3.576  -3.842  10.006  1.00  0.00     0.031 A 
ATOM     52  C   UNL     1      -3.838  -2.547   8.000  1.00  0.00     0.131 A 
ATOM     53  C   UNL     1      -4.960  -3.655  10.264  1.00  0.00     0.055 A 
ATOM     54  C   UNL     1      -5.198  -2.364   8.261  1.00  0.00     0.041 A 
ATOM     55  F   UNL     1      -3.362  -1.899   6.925  1.00  0.00    -0.206 F 
ATOM     56  C   UNL     1      -5.764  -2.910   9.399  1.00  0.00     0.022 A 
BRANCH  53  57
ATOM     57  S   UNL     1      -5.741  -4.314  11.780  1.00  0.00     0.124 S 
ATOM     58  O   UNL     1      -5.675  -5.754  11.564  1.00  0.00    -0.237 OA
ATOM     59  O   UNL     1      -4.891  -3.774  12.835  1.00  0.00    -0.237 OA
ATOM     60  O   UNL     1      -7.093  -3.752  11.741  1.00  0.00    -0.744 OA
ENDBRANCH  53  57
ENDBRANCH  26  50
BRANCH  38  61
ATOM     61  C   UNL     1       3.218  -4.527   9.488  1.00  0.00     0.023 A 
ATOM     62  C   UNL     1       2.660  -5.253   8.410  1.00  0.00     0.031 A 
ATOM     63  C   UNL     1       4.283  -5.118  10.191  1.00  0.00     0.131 A 
ATOM     64  C   UNL     1       3.170  -6.526   8.080  1.00  0.00     0.055 A 
ATOM     65  C   UNL     1       4.798  -6.367   9.849  1.00  0.00     0.041 A 
ATOM     66  F   UNL     1       4.874  -4.466  11.206  1.00  0.00    -0.206 F 
ATOM     67  C   UNL     1       4.239  -7.078   8.795  1.00  0.00     0.022 A 
BRANCH  64  68
ATOM     68  S   UNL     1       2.447  -7.498   6.718  1.00  0.00     0.124 S 
ATOM     69  O   UNL     1       1.013  -7.437   6.976  1.00  0.00    -0.237 OA
ATOM     70  O   UNL     1       2.914  -6.783   5.533  1.00  0.00    -0.237 OA
ATOM     71  O   UNL     1       3.040  -8.825   6.894  1.00  0.00    -0.744 OA
ENDBRANCH  64  68
ENDBRANCH  38  61
ENDBRANCH  12  13
ENDBRANCH   5   7
ENDBRANCH   2   3
ENDBRANCH   1   2
BRANCH   1  72
ATOM     72  C   UNL     1       3.938  -3.490  -1.083  1.00  0.00     0.117 C 
BRANCH  72  73
ATOM     73  N   UNL     1       4.389  -3.421  -2.461  1.00  0.00    -0.354 N 
ATOM     74  C   UNL     1       5.691  -3.690  -2.796  1.00  0.00     0.243 C 
ATOM     75  H   UNL     1       3.749  -3.176  -3.168  1.00  0.00     0.163 HD
ATOM     76  O   UNL     1       6.344  -2.728  -3.187  1.00  0.00    -0.273 OA
BRANCH  74  77
ATOM     77  C   UNL     1       6.247  -5.116  -2.557  1.00  0.00     0.180 C 
ATOM     78  C   UNL     1       5.155  -6.224  -2.860  1.00  0.00     0.091 C 
ATOM     79  N   UNL     1       7.655  -5.521  -3.012  1.00  0.00    -0.324 N 
ATOM     80  C   UNL     1       5.775  -7.569  -2.826  1.00  0.00     0.042 A 
ATOM     81  C   UNL     1       8.122  -6.765  -2.334  1.00  0.00     0.178 C 
ATOM     82  N   UNL     1       5.185  -8.779  -3.038  1.00  0.00    -0.348 N 
ATOM     83  C   UNL     1       7.105  -7.830  -2.596  1.00  0.00     0.081 A 
ATOM     84  C   UNL     1       6.170  -9.723  -2.903  1.00  0.00     0.197 A 
ATOM     85  H   UNL     1       4.237  -8.944  -3.247  1.00  0.00     0.167 HD
ATOM     86  N   UNL     1       7.341  -9.179  -2.645  1.00  0.00    -0.240 NA
BRANCH  79  87
ATOM     87  C   UNL     1       8.458  -5.121  -4.080  1.00  0.00     0.224 C 
ATOM     88  O   UNL     1       9.539  -5.694  -4.295  1.00  0.00    -0.275 OA
BRANCH  87  89
ATOM     89  C   UNL     1       8.153  -3.959  -5.027  1.00  0.00     0.107 C 
BRANCH  89  90
ATOM     90  C   UNL     1       7.178  -4.216  -6.202  1.00  0.00    -0.020 C 
ATOM     91  C   UNL     1       6.133  -5.279  -5.850  1.00  0.00     0.011 C 
ATOM     92  C   UNL     1       7.934  -4.683  -7.472  1.00  0.00     0.011 C 
ATOM     93  C   UNL     1       6.419  -2.910  -6.575  1.00  0.00     0.011 C 
ATOM     94  C   UNL     1       5.155  -5.559  -6.985  1.00  0.00    -0.010 C 
ATOM     95  C   UNL     1       6.947  -4.947  -8.629  1.00  0.00    -0.010 C 
ATOM     96  C   UNL     1       5.412  -3.169  -7.714  1.00  0.00    -0.010 C 
ATOM     97  C   UNL     1       4.408  -4.254  -7.291  1.00  0.00     0.007 C 
ATOM     98  C   UNL     1       5.948  -6.034  -8.205  1.00  0.00     0.007 C 
ATOM     99  C   UNL     1       6.172  -3.658  -8.956  1.00  0.00     0.007 C 
ENDBRANCH  89  90
ENDBRANCH  87  89
ENDBRANCH  79  87
ENDBRANCH  74  77
ENDBRANCH  72  73
ENDBRANCH   1  72
TORSDOF 16
