REMARK SMILES O=C1OC(c2ccc(Cl)cc2)=N/C1=C/Nc1ccc(O)c(C(=O)NCCCNC(=O)c2ccc(-c3c4nc(c(-c5cc(S(=O)(=O)[O-])ccc5F)c5ccc([nH]5)c(-c5cc(S(=O)(=O)[O-])ccc5F)c5nc(c(-c6cc(S(=O)(=O)[O-])ccc6F)c6ccc3[nH]6)C=C5)C=C4)cc2)c1
REMARK SMILES IDX 26 1 25 2 24 3 22 4 23 5 21 7 16 8 17 9 94 10 18 11 19 12
REMARK SMILES IDX 15 13 14 15 1 16 2 17 3 18 13 19 4 20 12 21 5 22 6 23 11 24
REMARK SMILES IDX 7 25 10 26 8 27 9 28 20 29 27 31 28 32 29 33 30 35 31 36
REMARK SMILES IDX 32 37 93 38 33 39 92 40 34 41 35 42 36 43 86 44 37 45 91 46
REMARK SMILES IDX 85 47 87 48 38 49 90 50 84 51 83 52 39 54 71 55 51 56 70 57
REMARK SMILES IDX 52 58 55 59 69 60 88 61 53 62 54 63 68 65 89 66 56 67 40 68
REMARK SMILES IDX 41 69 49 70 42 71 48 72 50 73 47 74 43 75 44 76 45 77 46 78
REMARK SMILES IDX 72 79 73 80 81 81 74 82 80 83 82 84 79 85 75 86 76 87 77 88
REMARK SMILES IDX 78 89 57 90 58 91 66 92 59 93 65 94 67 95 64 96 60 97 61 98
REMARK SMILES IDX 62 99 63 100
REMARK H PARENT 24 6 15 14 20 30 28 34 87 53 55 64
REMARK Flexibility Score: inf
ROOT
ATOM      1  C   UNL     1      -2.647 -10.281  -0.214  1.00  0.00     0.042 C 
ENDROOT
BRANCH   1   2
ATOM      2  C   UNL     1      -1.987  -9.458  -1.322  1.00  0.00     0.118 C 
BRANCH   2   3
ATOM      3  N   UNL     1      -2.824  -8.337  -1.690  1.00  0.00    -0.352 N 
ATOM      4  C   UNL     1      -2.856  -7.030  -1.285  1.00  0.00     0.255 C 
ATOM      5  O   UNL     1      -3.757  -6.342  -1.779  1.00  0.00    -0.269 OA
ATOM      6  H   UNL     1      -3.505  -8.557  -2.365  1.00  0.00     0.163 HD
BRANCH   4   7
ATOM      7  C   UNL     1      -1.855  -6.360  -0.395  1.00  0.00     0.083 A 
ATOM      8  C   UNL     1      -0.840  -4.168   0.097  1.00  0.00     0.039 A 
ATOM      9  C   UNL     1       0.010  -4.782   1.015  1.00  0.00     0.030 A 
ATOM     10  C   UNL     1      -1.743  -4.968  -0.611  1.00  0.00     0.043 A 
ATOM     11  C   UNL     1      -0.114  -6.140   1.292  1.00  0.00     0.049 A 
ATOM     12  C   UNL     1      -1.062  -6.916   0.615  1.00  0.00     0.128 A 
BRANCH   8  13
ATOM     13  N   UNL     1      -0.777  -2.797  -0.178  1.00  0.00    -0.360 N 
ATOM     14  H   UNL     1      -1.621  -2.355  -0.429  1.00  0.00     0.166 HD
BRANCH  13  15
ATOM     15  C   UNL     1       0.342  -2.010  -0.134  1.00  0.00     0.119 C 
ATOM     16  O   UNL     1      -1.896   0.023  -0.019  1.00  0.00    -0.244 OA
ATOM     17  C   UNL     1      -0.707   0.256  -0.014  1.00  0.00     0.365 C 
ATOM     18  O   UNL     1      -0.097   1.474   0.083  1.00  0.00    -0.402 OA
ATOM     19  C   UNL     1       0.446  -0.679  -0.108  1.00  0.00     0.168 C 
ATOM     20  C   UNL     1       1.230   1.232  -0.006  1.00  0.00     0.231 C 
ATOM     21  N   UNL     1       1.629   0.009  -0.127  1.00  0.00    -0.204 NA
BRANCH  20  22
ATOM     22  C   UNL     1       2.077   2.417  -0.022  1.00  0.00     0.037 A 
ATOM     23  C   UNL     1       1.980   3.374   0.990  1.00  0.00     0.015 A 
ATOM     24  C   UNL     1       3.015   2.550  -1.051  1.00  0.00     0.015 A 
ATOM     25  C   UNL     1       2.839   4.475   0.971  1.00  0.00     0.021 A 
ATOM     26  C   UNL     1       3.856   3.662  -1.076  1.00  0.00     0.021 A 
ATOM     27  C   UNL     1       3.768   4.617  -0.062  1.00  0.00     0.041 A 
ATOM     28  Cl  UNL     1       4.820   5.977  -0.084  1.00  0.00    -0.084 Cl
ENDBRANCH  20  22
ENDBRANCH  13  15
ENDBRANCH   8  13
BRANCH  12  29
ATOM     29  O   UNL     1      -1.204  -8.203   1.039  1.00  0.00    -0.507 OA
ATOM     30  H   UNL     1      -0.652  -8.536   1.718  1.00  0.00     0.293 HD
ENDBRANCH  12  29
ENDBRANCH   4   7
ENDBRANCH   2   3
ENDBRANCH   1   2
BRANCH   1  31
ATOM     31  C   UNL     1      -3.714 -11.238  -0.733  1.00  0.00     0.118 C 
BRANCH  31  32
ATOM     32  N   UNL     1      -3.126 -12.320  -1.511  1.00  0.00    -0.352 N 
ATOM     33  C   UNL     1      -3.109 -13.670  -1.266  1.00  0.00     0.251 C 
ATOM     34  H   UNL     1      -2.673 -12.041  -2.339  1.00  0.00     0.163 HD
ATOM     35  O   UNL     1      -2.320 -14.382  -1.882  1.00  0.00    -0.269 OA
BRANCH  33  36
ATOM     36  C   UNL     1      -4.020 -14.260  -0.261  1.00  0.00     0.039 A 
ATOM     37  C   UNL     1      -3.545 -15.280   0.567  1.00  0.00     0.014 A 
ATOM     38  C   UNL     1      -5.345 -13.828  -0.151  1.00  0.00     0.014 A 
ATOM     39  C   UNL     1      -4.378 -15.818   1.550  1.00  0.00     0.010 A 
ATOM     40  C   UNL     1      -6.148 -14.309   0.880  1.00  0.00     0.010 A 
ATOM     41  C   UNL     1      -5.671 -15.306   1.743  1.00  0.00    -0.014 A 
BRANCH  41  42
ATOM     42  C   UNL     1      -6.531 -15.780   2.858  1.00  0.00     0.031 A 
ATOM     43  C   UNL     1      -7.835 -16.470   2.571  1.00  0.00     0.074 A 
ATOM     44  C   UNL     1      -6.163 -15.522   4.128  1.00  0.00     0.049 A 
ATOM     45  N   UNL     1      -8.757 -16.876   3.405  1.00  0.00    -0.248 NA
ATOM     46  C   UNL     1      -8.153 -16.709   1.156  1.00  0.00     0.031 C 
ATOM     47  C   UNL     1      -4.933 -14.835   4.527  1.00  0.00     0.029 A 
ATOM     48  N   UNL     1      -6.788 -15.799   5.318  1.00  0.00    -0.354 N 
ATOM     49  C   UNL     1      -9.769 -17.414   2.617  1.00  0.00     0.074 A 
ATOM     50  C   UNL     1      -9.373 -17.217   1.238  1.00  0.00     0.031 C 
ATOM     51  C   UNL     1      -4.878 -14.772   5.866  1.00  0.00     0.029 A 
ATOM     52  C   UNL     1      -6.095 -15.356   6.421  1.00  0.00     0.049 A 
ATOM     53  H   UNL     1      -7.650 -16.269   5.378  1.00  0.00     0.167 HD
ATOM     54  C   UNL     1     -10.911 -18.034   3.010  1.00  0.00     0.034 A 
ATOM     55  C   UNL     1      -6.412 -15.396   7.730  1.00  0.00     0.034 A 
ATOM     56  C   UNL     1     -11.290 -18.207   4.392  1.00  0.00     0.049 A 
ATOM     57  C   UNL     1      -7.720 -16.021   8.140  1.00  0.00     0.074 A 
ATOM     58  C   UNL     1     -12.399 -18.855   4.907  1.00  0.00     0.029 A 
ATOM     59  N   UNL     1     -10.581 -17.714   5.481  1.00  0.00    -0.354 N 
ATOM     60  N   UNL     1      -8.646 -16.570   7.387  1.00  0.00    -0.248 NA
ATOM     61  C   UNL     1      -8.025 -16.034   9.576  1.00  0.00     0.031 C 
ATOM     62  C   UNL     1     -12.406 -18.679   6.294  1.00  0.00     0.029 A 
ATOM     63  C   UNL     1     -11.253 -18.002   6.660  1.00  0.00     0.049 A 
ATOM     64  H   UNL     1      -9.725 -17.230   5.424  1.00  0.00     0.167 HD
ATOM     65  C   UNL     1      -9.630 -17.019   8.263  1.00  0.00     0.074 A 
ATOM     66  C   UNL     1      -9.176 -16.691   9.599  1.00  0.00     0.031 C 
ATOM     67  C   UNL     1     -10.800 -17.652   7.987  1.00  0.00     0.034 A 
BRANCH  54  68
ATOM     68  C   UNL     1     -11.838 -18.532   1.925  1.00  0.00     0.023 A 
ATOM     69  C   UNL     1     -11.422 -19.490   0.982  1.00  0.00     0.031 A 
ATOM     70  C   UNL     1     -13.139 -18.014   1.800  1.00  0.00     0.131 A 
ATOM     71  C   UNL     1     -12.259 -19.828  -0.092  1.00  0.00     0.055 A 
ATOM     72  C   UNL     1     -14.003 -18.427   0.783  1.00  0.00     0.041 A 
ATOM     73  F   UNL     1     -13.590 -17.081   2.654  1.00  0.00    -0.206 F 
ATOM     74  C   UNL     1     -13.558 -19.325  -0.182  1.00  0.00     0.022 A 
BRANCH  71  75
ATOM     75  S   UNL     1     -11.559 -20.792  -1.460  1.00  0.00     0.124 S 
ATOM     76  O   UNL     1     -10.428 -19.958  -1.860  1.00  0.00    -0.237 OA
ATOM     77  O   UNL     1     -11.225 -22.057  -0.816  1.00  0.00    -0.237 OA
ATOM     78  O   UNL     1     -12.651 -20.854  -2.429  1.00  0.00    -0.744 OA
ENDBRANCH  71  75
ENDBRANCH  54  68
BRANCH  55  79
ATOM     79  C   UNL     1      -5.486 -14.819   8.746  1.00  0.00     0.023 A 
ATOM     80  C   UNL     1      -4.882 -15.634   9.716  1.00  0.00     0.031 A 
ATOM     81  C   UNL     1      -5.209 -13.440   8.780  1.00  0.00     0.131 A 
ATOM     82  C   UNL     1      -4.065 -15.061  10.702  1.00  0.00     0.055 A 
ATOM     83  C   UNL     1      -4.350 -12.882   9.728  1.00  0.00     0.041 A 
ATOM     84  F   UNL     1      -5.759 -12.614   7.875  1.00  0.00    -0.206 F 
ATOM     85  C   UNL     1      -3.781 -13.693  10.704  1.00  0.00     0.022 A 
BRANCH  82  86
ATOM     86  S   UNL     1      -3.443 -16.119  12.037  1.00  0.00     0.124 S 
ATOM     87  O   UNL     1      -4.682 -16.619  12.621  1.00  0.00    -0.237 OA
ATOM     88  O   UNL     1      -2.640 -17.092  11.303  1.00  0.00    -0.237 OA
ATOM     89  O   UNL     1      -2.683 -15.195  12.877  1.00  0.00    -0.744 OA
ENDBRANCH  82  86
ENDBRANCH  55  79
BRANCH  67  90
ATOM     90  C   UNL     1     -11.653 -18.063   9.163  1.00  0.00     0.023 A 
ATOM     91  C   UNL     1     -12.262 -17.116  10.005  1.00  0.00     0.031 A 
ATOM     92  C   UNL     1     -11.862 -19.426   9.443  1.00  0.00     0.131 A 
ATOM     93  C   UNL     1     -13.007 -17.544  11.114  1.00  0.00     0.055 A 
ATOM     94  C   UNL     1     -12.659 -19.845  10.508  1.00  0.00     0.041 A 
ATOM     95  F   UNL     1     -11.299 -20.375   8.678  1.00  0.00    -0.206 F 
ATOM     96  C   UNL     1     -13.228 -18.902  11.358  1.00  0.00     0.022 A 
BRANCH  93  97
ATOM     97  S   UNL     1     -13.610 -16.302  12.291  1.00  0.00     0.124 S 
ATOM     98  O   UNL     1     -12.368 -15.673  12.729  1.00  0.00    -0.237 OA
ATOM     99  O   UNL     1     -14.482 -15.479  11.460  1.00  0.00    -0.237 OA
ATOM    100  O   UNL     1     -14.294 -17.097  13.309  1.00  0.00    -0.744 OA
ENDBRANCH  93  97
ENDBRANCH  67  90
ENDBRANCH  41  42
ENDBRANCH  33  36
ENDBRANCH  31  32
ENDBRANCH   1  31
TORSDOF 17
