REMARK SMILES CC[C@H]([NH2+]C1c2ccccc2-c2ccccc21)C(=O)NCCCNC(=O)c1ccc(-c2c3nc(c(-c4cc(S(=O)(=O)[O-])ccc4F)c4ccc([nH]4)c(-c4cc(S(=O)(=O)[O-])ccc4F)c4nc(c(-c5cc(S(=O)(=O)[O-])ccc5F)c5ccc2[nH]5)C=C4)C=C3)cc1
REMARK SMILES IDX 22 1 21 2 20 3 18 4 19 5 3 7 2 8 1 9 4 10 5 13 6 14 17 15
REMARK SMILES IDX 7 16 11 17 12 18 16 19 8 20 10 21 13 22 15 23 9 24 14 25
REMARK SMILES IDX 23 26 24 27 25 28 26 30 27 31 28 32 89 33 29 34 88 35 30 36
REMARK SMILES IDX 31 37 32 38 82 39 33 40 87 41 81 42 83 43 34 44 86 45 80 46
REMARK SMILES IDX 79 47 35 49 67 50 47 51 66 52 48 53 51 54 65 55 84 56 49 57
REMARK SMILES IDX 50 58 64 60 85 61 52 62 36 63 37 64 45 65 38 66 44 67 46 68
REMARK SMILES IDX 43 69 39 70 40 71 41 72 42 73 68 74 69 75 77 76 70 77 76 78
REMARK SMILES IDX 78 79 75 80 71 81 72 82 73 83 74 84 53 85 54 86 62 87 55 88
REMARK SMILES IDX 61 89 63 90 60 91 56 92 57 93 58 94 59 95
REMARK H PARENT 20 6 4 11 4 12 24 29 83 48 51 59
REMARK Flexibility Score: inf
ROOT
ATOM      1  C   UNL     1      -2.227  -3.839   0.028  1.00  0.00     0.042 C 
ENDROOT
BRANCH   1   2
ATOM      2  C   UNL     1      -1.391  -4.091   1.281  1.00  0.00     0.118 C 
BRANCH   2   3
ATOM      3  N   UNL     1       0.025  -4.198   0.966  1.00  0.00    -0.351 N 
ATOM      4  C   UNL     1       0.976  -3.222   0.844  1.00  0.00     0.278 C 
ATOM      5  O   UNL     1       2.110  -3.568   0.498  1.00  0.00    -0.268 OA
ATOM      6  H   UNL     1       0.350  -5.116   0.818  1.00  0.00     0.163 HD
BRANCH   4   7
ATOM      7  C   UNL     1       0.668  -1.739   1.201  1.00  0.00     0.273 C 
BRANCH   7   8
ATOM      8  C   UNL     1       0.674  -1.639   2.741  1.00  0.00     0.072 C 
ATOM      9  C   UNL     1       1.649  -0.583   3.251  1.00  0.00     0.011 C 
ENDBRANCH   7   8
BRANCH   7  10
ATOM     10  N   UNL     1      -0.496  -1.312   0.401  1.00  0.00    -0.326 N 
ATOM     11  H   UNL     1      -1.188  -2.057   0.490  1.00  0.00     0.347 HD
ATOM     12  H   UNL     1      -0.067  -1.127  -0.505  1.00  0.00     0.347 HD
BRANCH  10  13
ATOM     13  C   UNL     1      -1.210  -0.066   0.652  1.00  0.00     0.246 C 
ATOM     14  C   UNL     1      -2.055  -0.054   1.915  1.00  0.00     0.022 A 
ATOM     15  C   UNL     1      -0.367   1.185   0.810  1.00  0.00     0.022 A 
ATOM     16  C   UNL     1      -3.070  -0.920   2.293  1.00  0.00     0.011 A 
ATOM     17  C   UNL     1      -1.680   1.032   2.734  1.00  0.00    -0.008 A 
ATOM     18  C   UNL     1      -0.688   1.823   2.033  1.00  0.00    -0.008 A 
ATOM     19  C   UNL     1       0.537   1.743  -0.080  1.00  0.00     0.011 A 
ATOM     20  C   UNL     1      -3.637  -0.769   3.557  1.00  0.00     0.001 A 
ATOM     21  C   UNL     1      -2.239   1.181   3.993  1.00  0.00     0.009 A 
ATOM     22  C   UNL     1      -0.097   3.028   2.372  1.00  0.00     0.009 A 
ATOM     23  C   UNL     1       1.132   2.959   0.266  1.00  0.00     0.001 A 
ATOM     24  C   UNL     1      -3.208   0.260   4.409  1.00  0.00     0.001 A 
ATOM     25  C   UNL     1       0.816   3.595   1.478  1.00  0.00     0.001 A 
ENDBRANCH  10  13
ENDBRANCH   7  10
ENDBRANCH   4   7
ENDBRANCH   2   3
ENDBRANCH   1   2
BRANCH   1  26
ATOM     26  C   UNL     1      -3.528  -4.623  -0.037  1.00  0.00     0.118 C 
BRANCH  26  27
ATOM     27  N   UNL     1      -4.441  -4.410   1.073  1.00  0.00    -0.352 N 
ATOM     28  C   UNL     1      -5.820  -4.439   1.089  1.00  0.00     0.251 C 
ATOM     29  H   UNL     1      -4.013  -4.218   1.939  1.00  0.00     0.163 HD
ATOM     30  O   UNL     1      -6.400  -4.218   2.151  1.00  0.00    -0.269 OA
BRANCH  28  31
ATOM     31  C   UNL     1      -6.604  -4.664  -0.156  1.00  0.00     0.039 A 
ATOM     32  C   UNL     1      -7.802  -3.960  -0.330  1.00  0.00     0.014 A 
ATOM     33  C   UNL     1      -6.176  -5.531  -1.162  1.00  0.00     0.014 A 
ATOM     34  C   UNL     1      -8.503  -4.050  -1.539  1.00  0.00     0.010 A 
ATOM     35  C   UNL     1      -6.815  -5.540  -2.400  1.00  0.00     0.010 A 
ATOM     36  C   UNL     1      -7.984  -4.796  -2.608  1.00  0.00    -0.014 A 
BRANCH  36  37
ATOM     37  C   UNL     1      -8.634  -4.816  -3.949  1.00  0.00     0.031 A 
ATOM     38  C   UNL     1      -9.098  -6.120  -4.543  1.00  0.00     0.074 A 
ATOM     39  C   UNL     1      -8.717  -3.679  -4.671  1.00  0.00     0.049 A 
ATOM     40  N   UNL     1      -9.549  -6.372  -5.745  1.00  0.00    -0.248 NA
ATOM     41  C   UNL     1      -8.998  -7.307  -3.680  1.00  0.00     0.031 C 
ATOM     42  C   UNL     1      -8.258  -2.360  -4.231  1.00  0.00     0.029 A 
ATOM     43  N   UNL     1      -9.204  -3.452  -5.935  1.00  0.00    -0.354 N 
ATOM     44  C   UNL     1      -9.757  -7.747  -5.793  1.00  0.00     0.074 A 
ATOM     45  C   UNL     1      -9.323  -8.279  -4.518  1.00  0.00     0.031 C 
ATOM     46  C   UNL     1      -8.509  -1.460  -5.195  1.00  0.00     0.029 A 
ATOM     47  C   UNL     1      -9.098  -2.141  -6.343  1.00  0.00     0.049 A 
ATOM     48  H   UNL     1      -9.591  -4.161  -6.498  1.00  0.00     0.167 HD
ATOM     49  C   UNL     1     -10.284  -8.495  -6.795  1.00  0.00     0.034 A 
ATOM     50  C   UNL     1      -9.425  -1.556  -7.512  1.00  0.00     0.034 A 
ATOM     51  C   UNL     1     -10.744  -7.945  -8.048  1.00  0.00     0.049 A 
ATOM     52  C   UNL     1     -10.015  -2.404  -8.610  1.00  0.00     0.074 A 
ATOM     53  C   UNL     1     -11.352  -8.597  -9.106  1.00  0.00     0.029 A 
ATOM     54  N   UNL     1     -10.646  -6.607  -8.411  1.00  0.00    -0.354 N 
ATOM     55  N   UNL     1     -10.244  -3.697  -8.623  1.00  0.00    -0.248 NA
ATOM     56  C   UNL     1     -10.400  -1.712  -9.847  1.00  0.00     0.031 C 
ATOM     57  C   UNL     1     -11.571  -7.667 -10.129  1.00  0.00     0.029 A 
ATOM     58  C   UNL     1     -11.162  -6.420  -9.684  1.00  0.00     0.049 A 
ATOM     59  H   UNL     1     -10.265  -5.896  -7.847  1.00  0.00     0.167 HD
ATOM     60  C   UNL     1     -10.827  -3.966  -9.857  1.00  0.00     0.074 A 
ATOM     61  C   UNL     1     -10.927  -2.700 -10.554  1.00  0.00     0.031 C 
ATOM     62  C   UNL     1     -11.247  -5.151 -10.368  1.00  0.00     0.034 A 
BRANCH  49  63
ATOM     63  C   UNL     1     -10.370  -9.988  -6.577  1.00  0.00     0.023 A 
ATOM     64  C   UNL     1     -11.151 -10.539  -5.546  1.00  0.00     0.031 A 
ATOM     65  C   UNL     1      -9.635 -10.872  -7.387  1.00  0.00     0.131 A 
ATOM     66  C   UNL     1     -11.108 -11.919  -5.294  1.00  0.00     0.055 A 
ATOM     67  C   UNL     1      -9.667 -12.254  -7.186  1.00  0.00     0.041 A 
ATOM     68  F   UNL     1      -8.857 -10.406  -8.377  1.00  0.00    -0.206 F 
ATOM     69  C   UNL     1     -10.392 -12.784  -6.123  1.00  0.00     0.022 A 
BRANCH  66  70
ATOM     70  S   UNL     1     -11.878 -12.543  -3.775  1.00  0.00     0.124 S 
ATOM     71  O   UNL     1     -11.137 -11.813  -2.749  1.00  0.00    -0.237 OA
ATOM     72  O   UNL     1     -13.274 -12.162  -3.948  1.00  0.00    -0.237 OA
ATOM     73  O   UNL     1     -11.611 -13.980  -3.821  1.00  0.00    -0.744 OA
ENDBRANCH  66  70
ENDBRANCH  49  63
BRANCH  50  74
ATOM     74  C   UNL     1      -9.202  -0.096  -7.717  1.00  0.00     0.023 A 
ATOM     75  C   UNL     1     -10.285   0.780  -7.891  1.00  0.00     0.031 A 
ATOM     76  C   UNL     1      -7.904   0.440  -7.779  1.00  0.00     0.131 A 
ATOM     77  C   UNL     1     -10.052   2.137  -8.165  1.00  0.00     0.055 A 
ATOM     78  C   UNL     1      -7.677   1.800  -8.001  1.00  0.00     0.041 A 
ATOM     79  F   UNL     1      -6.833  -0.352  -7.611  1.00  0.00    -0.206 F 
ATOM     80  C   UNL     1      -8.755   2.655  -8.209  1.00  0.00     0.022 A 
BRANCH  77  81
ATOM     81  S   UNL     1     -11.470   3.203  -8.543  1.00  0.00     0.124 S 
ATOM     82  O   UNL     1     -12.054   2.523  -9.693  1.00  0.00    -0.237 OA
ATOM     83  O   UNL     1     -12.235   3.139  -7.302  1.00  0.00    -0.237 OA
ATOM     84  O   UNL     1     -10.856   4.498  -8.828  1.00  0.00    -0.744 OA
ENDBRANCH  77  81
ENDBRANCH  50  74
BRANCH  62  85
ATOM     85  C   UNL     1     -11.898  -5.117 -11.728  1.00  0.00     0.023 A 
ATOM     86  C   UNL     1     -11.169  -4.809 -12.890  1.00  0.00     0.031 A 
ATOM     87  C   UNL     1     -13.272  -5.384 -11.859  1.00  0.00     0.131 A 
ATOM     88  C   UNL     1     -11.828  -4.725 -14.125  1.00  0.00     0.055 A 
ATOM     89  C   UNL     1     -13.912  -5.354 -13.098  1.00  0.00     0.041 A 
ATOM     90  F   UNL     1     -14.016  -5.682 -10.781  1.00  0.00    -0.206 F 
ATOM     91  C   UNL     1     -13.192  -5.011 -14.239  1.00  0.00     0.022 A 
BRANCH  88  92
ATOM     92  S   UNL     1     -10.897  -4.153 -15.573  1.00  0.00     0.124 S 
ATOM     93  O   UNL     1     -10.451  -2.831 -15.144  1.00  0.00    -0.237 OA
ATOM     94  O   UNL     1      -9.855  -5.168 -15.695  1.00  0.00    -0.237 OA
ATOM     95  O   UNL     1     -11.892  -4.156 -16.644  1.00  0.00    -0.744 OA
ENDBRANCH  88  92
ENDBRANCH  62  85
ENDBRANCH  36  37
ENDBRANCH  28  31
ENDBRANCH  26  27
ENDBRANCH   1  26
TORSDOF 16
