REMARK SMILES CCOc1ccccc1N1CCN(c2ccc(NC(=O)C(C)(C)C)c(C(=O)NCCCNC(=O)c3ccc(-c4c5nc(c(-c6cc(S(=O)(=O)[O-])ccc6F)c6ccc([nH]6)c(-c6cc(S(=O)(=O)[O-])ccc6F)c6nc(c(-c7cc(S(=O)(=O)[O-])ccc7F)c7ccc4[nH]7)C=C6)C=C5)cc3)c2)CC1
REMARK SMILES IDX 29 1 28 2 26 3 27 4 25 6 14 7 15 8 98 9 16 10 17 11 13 12
REMARK SMILES IDX 10 13 11 14 100 15 12 16 99 17 9 18 4 19 5 20 6 21 8 22 7 23
REMARK SMILES IDX 3 24 2 25 1 26 18 27 19 28 20 30 21 31 22 32 23 33 24 34
REMARK SMILES IDX 30 35 31 36 32 37 33 38 34 40 35 41 36 42 97 43 37 44 96 45
REMARK SMILES IDX 38 46 39 47 40 48 90 49 41 50 95 51 89 52 91 53 42 54 94 55
REMARK SMILES IDX 88 56 87 57 43 59 75 60 55 61 74 62 56 63 59 64 73 65 92 66
REMARK SMILES IDX 57 67 58 68 72 70 93 71 60 72 44 73 45 74 53 75 46 76 52 77
REMARK SMILES IDX 54 78 51 79 47 80 48 81 49 82 50 83 76 84 77 85 85 86 78 87
REMARK SMILES IDX 84 88 86 89 83 90 79 91 80 92 81 93 82 94 61 95 62 96 70 97
REMARK SMILES IDX 63 98 69 99 71 100 68 101 64 102 65 103 66 104 67 105
REMARK H PARENT 28 5 18 29 32 39 91 58 59 69
REMARK Flexibility Score: inf
ROOT
ATOM      1  C   UNL     1       0.986  -2.218  -5.017  1.00  0.00     0.118 C 
ENDROOT
BRANCH   1   2
ATOM      2  N   UNL     1       0.197  -3.398  -5.391  1.00  0.00    -0.352 N 
ATOM      3  C   UNL     1      -0.704  -4.183  -4.675  1.00  0.00     0.253 C 
ATOM      4  O   UNL     1      -1.267  -5.113  -5.251  1.00  0.00    -0.269 OA
ATOM      5  H   UNL     1       0.329  -3.689  -6.322  1.00  0.00     0.163 HD
BRANCH   3   6
ATOM      6  C   UNL     1      -0.933  -3.993  -3.208  1.00  0.00     0.065 A 
ATOM      7  C   UNL     1      -0.138  -2.576  -1.449  1.00  0.00     0.038 A 
ATOM      8  C   UNL     1      -0.288  -3.642  -0.573  1.00  0.00     0.028 A 
ATOM      9  C   UNL     1      -0.739  -2.719  -2.688  1.00  0.00     0.042 A 
ATOM     10  C   UNL     1      -0.891  -4.832  -0.986  1.00  0.00     0.029 A 
ATOM     11  C   UNL     1      -1.194  -5.059  -2.326  1.00  0.00     0.054 A 
BRANCH   7  12
ATOM     12  N   UNL     1       0.711  -1.513  -1.200  1.00  0.00    -0.368 N 
ATOM     13  N   UNL     1       2.468   0.621  -0.595  1.00  0.00    -0.365 N 
ATOM     14  C   UNL     1       3.001  -0.720  -0.425  1.00  0.00     0.138 C 
ATOM     15  C   UNL     1       1.606   0.789  -1.760  1.00  0.00     0.138 C 
ATOM     16  C   UNL     1       1.833  -1.712  -0.249  1.00  0.00     0.138 C 
ATOM     17  C   UNL     1       0.390  -0.147  -1.673  1.00  0.00     0.138 C 
BRANCH  13  18
ATOM     18  C   UNL     1       3.075   1.740  -0.068  1.00  0.00     0.079 A 
ATOM     19  C   UNL     1       2.312   2.741   0.570  1.00  0.00     0.142 A 
ATOM     20  C   UNL     1       2.906   3.906   1.057  1.00  0.00     0.048 A 
ATOM     21  C   UNL     1       4.283   4.080   0.936  1.00  0.00     0.004 A 
ATOM     22  C   UNL     1       4.458   1.933  -0.165  1.00  0.00     0.030 A 
ATOM     23  C   UNL     1       5.058   3.095   0.325  1.00  0.00     0.002 A 
BRANCH  19  24
ATOM     24  O   UNL     1       0.942   2.611   0.639  1.00  0.00    -0.492 OA
BRANCH  24  25
ATOM     25  C   UNL     1       0.498   2.184   1.932  1.00  0.00     0.226 C 
ATOM     26  C   UNL     1       0.337   0.676   2.000  1.00  0.00     0.049 C 
ENDBRANCH  24  25
ENDBRANCH  19  24
ENDBRANCH  13  18
ENDBRANCH   7  12
BRANCH  11  27
ATOM     27  N   UNL     1      -1.764  -6.251  -2.834  1.00  0.00    -0.325 N 
ATOM     28  C   UNL     1      -2.414  -7.343  -2.327  1.00  0.00     0.229 C 
ATOM     29  H   UNL     1      -1.665  -6.311  -3.812  1.00  0.00     0.169 HD
ATOM     30  O   UNL     1      -2.799  -8.178  -3.158  1.00  0.00    -0.274 OA
BRANCH  28  31
ATOM     31  C   UNL     1      -2.703  -7.585  -0.830  1.00  0.00     0.041 C 
ATOM     32  C   UNL     1      -1.383  -7.929  -0.107  1.00  0.00     0.021 C 
ATOM     33  C   UNL     1      -3.502  -6.412  -0.218  1.00  0.00     0.021 C 
ATOM     34  C   UNL     1      -3.610  -8.830  -0.650  1.00  0.00     0.021 C 
ENDBRANCH  28  31
ENDBRANCH  11  27
ENDBRANCH   3   6
ENDBRANCH   1   2
BRANCH   1  35
ATOM     35  C   UNL     1       2.455  -2.236  -5.383  1.00  0.00     0.042 C 
BRANCH  35  36
ATOM     36  C   UNL     1       2.749  -2.067  -6.857  1.00  0.00     0.118 C 
BRANCH  36  37
ATOM     37  N   UNL     1       2.306  -0.779  -7.384  1.00  0.00    -0.352 N 
ATOM     38  C   UNL     1       3.019   0.314  -7.819  1.00  0.00     0.251 C 
ATOM     39  H   UNL     1       1.329  -0.675  -7.436  1.00  0.00     0.163 HD
ATOM     40  O   UNL     1       2.415   1.364  -8.046  1.00  0.00    -0.269 OA
BRANCH  38  41
ATOM     41  C   UNL     1       4.489   0.253  -7.988  1.00  0.00     0.039 A 
ATOM     42  C   UNL     1       5.262   1.379  -7.685  1.00  0.00     0.014 A 
ATOM     43  C   UNL     1       5.114  -0.902  -8.455  1.00  0.00     0.014 A 
ATOM     44  C   UNL     1       6.657   1.309  -7.766  1.00  0.00     0.010 A 
ATOM     45  C   UNL     1       6.499  -1.012  -8.412  1.00  0.00     0.010 A 
ATOM     46  C   UNL     1       7.290   0.096  -8.080  1.00  0.00    -0.014 A 
BRANCH  46  47
ATOM     47  C   UNL     1       8.771  -0.040  -8.095  1.00  0.00     0.031 A 
ATOM     48  C   UNL     1       9.473  -0.466  -9.360  1.00  0.00     0.074 A 
ATOM     49  C   UNL     1       9.472   0.143  -6.957  1.00  0.00     0.049 A 
ATOM     50  N   UNL     1      10.736  -0.744  -9.552  1.00  0.00    -0.248 NA
ATOM     51  C   UNL     1       8.634  -0.639 -10.557  1.00  0.00     0.031 C 
ATOM     52  C   UNL     1       8.900   0.515  -5.660  1.00  0.00     0.029 A 
ATOM     53  N   UNL     1      10.817   0.034  -6.702  1.00  0.00    -0.354 N 
ATOM     54  C   UNL     1      10.839  -1.144 -10.881  1.00  0.00     0.074 A 
ATOM     55  C   UNL     1       9.499  -1.139 -11.426  1.00  0.00     0.031 C 
ATOM     56  C   UNL     1       9.889   0.639  -4.761  1.00  0.00     0.029 A 
ATOM     57  C   UNL     1      11.158   0.299  -5.395  1.00  0.00     0.049 A 
ATOM     58  H   UNL     1      11.476  -0.211  -7.391  1.00  0.00     0.167 HD
ATOM     59  C   UNL     1      11.950  -1.460 -11.589  1.00  0.00     0.034 A 
ATOM     60  C   UNL     1      12.354   0.258  -4.774  1.00  0.00     0.034 A 
ATOM     61  C   UNL     1      13.281  -1.435 -11.036  1.00  0.00     0.049 A 
ATOM     62  C   UNL     1      13.573  -0.123  -5.579  1.00  0.00     0.074 A 
ATOM     63  C   UNL     1      14.484  -1.673 -11.677  1.00  0.00     0.029 A 
ATOM     64  N   UNL     1      13.586  -1.162  -9.708  1.00  0.00    -0.354 N 
ATOM     65  N   UNL     1      13.658  -0.444  -6.850  1.00  0.00    -0.248 NA
ATOM     66  C   UNL     1      14.858  -0.137  -4.869  1.00  0.00     0.031 C 
ATOM     67  C   UNL     1      15.506  -1.624 -10.723  1.00  0.00     0.029 A 
ATOM     68  C   UNL     1      14.954  -1.263  -9.505  1.00  0.00     0.049 A 
ATOM     69  H   UNL     1      12.928  -0.931  -9.014  1.00  0.00     0.167 HD
ATOM     70  C   UNL     1      15.011  -0.659  -7.097  1.00  0.00     0.074 A 
ATOM     71  C   UNL     1      15.704  -0.415  -5.849  1.00  0.00     0.031 C 
ATOM     72  C   UNL     1      15.628  -1.020  -8.251  1.00  0.00     0.034 A 
BRANCH  59  73
ATOM     73  C   UNL     1      11.770  -1.881 -13.030  1.00  0.00     0.023 A 
ATOM     74  C   UNL     1      11.230  -1.013 -13.995  1.00  0.00     0.031 A 
ATOM     75  C   UNL     1      12.136  -3.175 -13.443  1.00  0.00     0.131 A 
ATOM     76  C   UNL     1      11.005  -1.469 -15.302  1.00  0.00     0.055 A 
ATOM     77  C   UNL     1      11.990  -3.595 -14.766  1.00  0.00     0.041 A 
ATOM     78  F   UNL     1      12.635  -4.058 -12.564  1.00  0.00    -0.206 F 
ATOM     79  C   UNL     1      11.408  -2.745 -15.702  1.00  0.00     0.022 A 
BRANCH  76  80
ATOM     80  S   UNL     1      10.052  -0.421 -16.434  1.00  0.00     0.124 S 
ATOM     81  O   UNL     1       8.791  -0.276 -15.709  1.00  0.00    -0.237 OA
ATOM     82  O   UNL     1      10.877   0.778 -16.525  1.00  0.00    -0.237 OA
ATOM     83  O   UNL     1       9.972  -1.219 -17.655  1.00  0.00    -0.744 OA
ENDBRANCH  76  80
ENDBRANCH  59  73
BRANCH  60  84
ATOM     84  C   UNL     1      12.473   0.575  -3.320  1.00  0.00     0.023 A 
ATOM     85  C   UNL     1      13.251   1.657  -2.879  1.00  0.00     0.031 A 
ATOM     86  C   UNL     1      11.862  -0.234  -2.345  1.00  0.00     0.131 A 
ATOM     87  C   UNL     1      13.451   1.864  -1.506  1.00  0.00     0.055 A 
ATOM     88  C   UNL     1      12.010   0.015  -0.979  1.00  0.00     0.041 A 
ATOM     89  F   UNL     1      11.103  -1.281  -2.707  1.00  0.00    -0.206 F 
ATOM     90  C   UNL     1      12.823   1.060  -0.552  1.00  0.00     0.022 A 
BRANCH  87  91
ATOM     91  S   UNL     1      14.638   3.133  -0.984  1.00  0.00     0.124 S 
ATOM     92  O   UNL     1      15.852   2.700  -1.665  1.00  0.00    -0.237 OA
ATOM     93  O   UNL     1      14.017   4.353  -1.489  1.00  0.00    -0.237 OA
ATOM     94  O   UNL     1      14.657   3.001   0.472  1.00  0.00    -0.744 OA
ENDBRANCH  87  91
ENDBRANCH  60  84
BRANCH  72  95
ATOM     95  C   UNL     1      17.135  -1.117  -8.226  1.00  0.00     0.023 A 
ATOM     96  C   UNL     1      17.804  -2.081  -7.452  1.00  0.00     0.031 A 
ATOM     97  C   UNL     1      17.912  -0.223  -8.984  1.00  0.00     0.131 A 
ATOM     98  C   UNL     1      19.206  -2.089  -7.407  1.00  0.00     0.055 A 
ATOM     99  C   UNL     1      19.305  -0.282  -8.991  1.00  0.00     0.041 A 
ATOM    100  F   UNL     1      17.326   0.721  -9.738  1.00  0.00    -0.206 F 
ATOM    101  C   UNL     1      19.961  -1.209  -8.187  1.00  0.00     0.022 A 
BRANCH  98 102
ATOM    102  S   UNL     1      20.032  -3.198  -6.232  1.00  0.00     0.124 S 
ATOM    103  O   UNL     1      19.462  -2.768  -4.959  1.00  0.00    -0.237 OA
ATOM    104  O   UNL     1      19.618  -4.516  -6.703  1.00  0.00    -0.237 OA
ATOM    105  O   UNL     1      21.450  -2.893  -6.412  1.00  0.00    -0.744 OA
ENDBRANCH  98 102
ENDBRANCH  72  95
ENDBRANCH  46  47
ENDBRANCH  38  41
ENDBRANCH  36  37
ENDBRANCH  35  36
ENDBRANCH   1  35
TORSDOF 19
