REMARK SMILES O=C(NCCCNC(=O)c1cccc(Nc2ccnc3ccc(F)cc23)c1)c1ccc(-c2c3nc(c(-c4cc(S(=O)(=O)[O-])ccc4F)c4ccc([nH]4)c(-c4cc(S(=O)(=O)[O-])ccc4F)c4nc(c(-c5cc(S(=O)(=O)[O-])ccc5F)c5ccc2[nH]5)C=C4)C=C3)cc1
REMARK SMILES IDX 4 1 3 2 1 3 2 4 28 6 29 7 90 8 30 9 89 10 31 11 32 12 33 13
REMARK SMILES IDX 83 14 34 15 88 16 82 17 84 18 35 19 87 20 81 21 80 22 36 24
REMARK SMILES IDX 68 25 48 26 67 27 49 28 52 29 66 30 85 31 50 32 51 33 65 35
REMARK SMILES IDX 86 36 53 37 37 38 38 39 46 40 39 41 45 42 47 43 44 44 40 45
REMARK SMILES IDX 41 46 42 47 43 48 69 49 70 50 78 51 71 52 77 53 79 54 76 55
REMARK SMILES IDX 72 56 73 57 74 58 75 59 54 60 55 61 63 62 56 63 62 64 64 65
REMARK SMILES IDX 61 66 57 67 58 68 59 69 60 70 5 71 6 72 7 73 8 74 9 76 10 77
REMARK SMILES IDX 11 78 27 79 12 80 14 81 13 82 15 83 16 85 17 86 26 87 18 88
REMARK SMILES IDX 20 89 25 90 19 91 21 92 23 93 22 94 24 95
REMARK H PARENT 3 5 84 23 52 34 7 75 15 84
REMARK Flexibility Score: inf
ROOT
ATOM      1  C   UNL     1       4.421  -0.935   0.911  1.00  0.00     0.118 C 
ENDROOT
BRANCH   1   2
ATOM      2  N   UNL     1       2.975  -0.899   0.754  1.00  0.00    -0.352 N 
ATOM      3  O   UNL     1       0.980  -0.109   0.075  1.00  0.00    -0.269 OA
ATOM      4  C   UNL     1       2.203  -0.079  -0.029  1.00  0.00     0.251 C 
ATOM      5  H   UNL     1       2.477  -1.560   1.288  1.00  0.00     0.163 HD
BRANCH   4   6
ATOM      6  C   UNL     1       2.851   0.867  -0.958  1.00  0.00     0.039 A 
ATOM      7  C   UNL     1       3.916   0.474  -1.776  1.00  0.00     0.014 A 
ATOM      8  C   UNL     1       2.385   2.181  -0.988  1.00  0.00     0.014 A 
ATOM      9  C   UNL     1       4.598   1.423  -2.530  1.00  0.00     0.010 A 
ATOM     10  C   UNL     1       2.997   3.103  -1.832  1.00  0.00     0.010 A 
ATOM     11  C   UNL     1       4.113   2.734  -2.603  1.00  0.00    -0.014 A 
BRANCH  11  12
ATOM     12  C   UNL     1       4.726   3.716  -3.528  1.00  0.00     0.031 A 
ATOM     13  C   UNL     1       5.338   4.971  -2.997  1.00  0.00     0.074 A 
ATOM     14  C   UNL     1       4.677   3.504  -4.859  1.00  0.00     0.049 A 
ATOM     15  N   UNL     1       5.812   5.988  -3.664  1.00  0.00    -0.248 NA
ATOM     16  C   UNL     1       5.416   5.106  -1.536  1.00  0.00     0.031 C 
ATOM     17  C   UNL     1       4.128   2.305  -5.490  1.00  0.00     0.029 A 
ATOM     18  N   UNL     1       5.077   4.284  -5.917  1.00  0.00    -0.354 N 
ATOM     19  C   UNL     1       6.236   6.896  -2.708  1.00  0.00     0.074 A 
ATOM     20  C   UNL     1       5.916   6.327  -1.415  1.00  0.00     0.031 C 
ATOM     21  C   UNL     1       4.244   2.418  -6.820  1.00  0.00     0.029 A 
ATOM     22  C   UNL     1       4.806   3.726  -7.147  1.00  0.00     0.049 A 
ATOM     23  H   UNL     1       5.516   5.158  -5.807  1.00  0.00     0.167 HD
ATOM     24  C   UNL     1       6.839   8.093  -2.905  1.00  0.00     0.034 A 
ATOM     25  C   UNL     1       4.943   4.212  -8.399  1.00  0.00     0.034 A 
ATOM     26  C   UNL     1       7.098   8.657  -4.202  1.00  0.00     0.049 A 
ATOM     27  C   UNL     1       5.483   5.600  -8.593  1.00  0.00     0.074 A 
ATOM     28  C   UNL     1       7.709   9.863  -4.491  1.00  0.00     0.029 A 
ATOM     29  N   UNL     1       6.724   8.095  -5.416  1.00  0.00    -0.354 N 
ATOM     30  N   UNL     1       5.870   6.454  -7.675  1.00  0.00    -0.248 NA
ATOM     31  C   UNL     1       5.600   6.102  -9.970  1.00  0.00     0.031 C 
ATOM     32  C   UNL     1       7.597  10.089  -5.859  1.00  0.00     0.029 A 
ATOM     33  C   UNL     1       7.042   8.964  -6.447  1.00  0.00     0.049 A 
ATOM     34  H   UNL     1       6.298   7.215  -5.527  1.00  0.00     0.167 HD
ATOM     35  C   UNL     1       6.315   7.575  -8.364  1.00  0.00     0.074 A 
ATOM     36  C   UNL     1       6.135   7.301  -9.774  1.00  0.00     0.031 C 
ATOM     37  C   UNL     1       6.852   8.710  -7.856  1.00  0.00     0.034 A 
BRANCH  24  38
ATOM     38  C   UNL     1       7.160   8.910  -1.683  1.00  0.00     0.023 A 
ATOM     39  C   UNL     1       7.984   8.418  -0.660  1.00  0.00     0.031 A 
ATOM     40  C   UNL     1       6.565  10.172  -1.508  1.00  0.00     0.131 A 
ATOM     41  C   UNL     1       8.058   9.111   0.553  1.00  0.00     0.055 A 
ATOM     42  C   UNL     1       6.760  10.921  -0.351  1.00  0.00     0.041 A 
ATOM     43  F   UNL     1       5.759  10.690  -2.449  1.00  0.00    -0.206 F 
ATOM     44  C   UNL     1       7.483  10.376   0.703  1.00  0.00     0.022 A 
BRANCH  41  45
ATOM     45  S   UNL     1       8.668   8.217   2.009  1.00  0.00     0.124 S 
ATOM     46  O   UNL     1       7.787   7.050   2.024  1.00  0.00    -0.237 OA
ATOM     47  O   UNL     1      10.061   7.960   1.665  1.00  0.00    -0.237 OA
ATOM     48  O   UNL     1       8.454   9.162   3.103  1.00  0.00    -0.744 OA
ENDBRANCH  41  45
ENDBRANCH  24  38
BRANCH  25  49
ATOM     49  C   UNL     1       4.475   3.398  -9.557  1.00  0.00     0.023 A 
ATOM     50  C   UNL     1       5.349   2.937 -10.554  1.00  0.00     0.031 A 
ATOM     51  C   UNL     1       3.108   3.082  -9.675  1.00  0.00     0.131 A 
ATOM     52  C   UNL     1       4.836   2.199 -11.634  1.00  0.00     0.055 A 
ATOM     53  C   UNL     1       2.623   2.272 -10.698  1.00  0.00     0.041 A 
ATOM     54  F   UNL     1       2.227   3.536  -8.770  1.00  0.00    -0.206 F 
ATOM     55  C   UNL     1       3.489   1.828 -11.688  1.00  0.00     0.022 A 
BRANCH  52  56
ATOM     56  S   UNL     1       5.906   1.857 -13.062  1.00  0.00     0.124 S 
ATOM     57  O   UNL     1       6.290   3.204 -13.466  1.00  0.00    -0.237 OA
ATOM     58  O   UNL     1       6.958   1.036 -12.473  1.00  0.00    -0.237 OA
ATOM     59  O   UNL     1       5.018   1.159 -13.990  1.00  0.00    -0.744 OA
ENDBRANCH  52  56
ENDBRANCH  25  49
BRANCH  37  60
ATOM     60  C   UNL     1       7.396   9.741  -8.809  1.00  0.00     0.023 A 
ATOM     61  C   UNL     1       6.586  10.497  -9.670  1.00  0.00     0.031 A 
ATOM     62  C   UNL     1       8.778  10.015  -8.781  1.00  0.00     0.131 A 
ATOM     63  C   UNL     1       7.181  11.462 -10.498  1.00  0.00     0.055 A 
ATOM     64  C   UNL     1       9.341  11.046  -9.525  1.00  0.00     0.041 A 
ATOM     65  F   UNL     1       9.599   9.306  -7.989  1.00  0.00    -0.206 F 
ATOM     66  C   UNL     1       8.541  11.772 -10.398  1.00  0.00     0.022 A 
BRANCH  63  67
ATOM     67  S   UNL     1       6.199  12.200 -11.833  1.00  0.00     0.124 S 
ATOM     68  O   UNL     1       5.767  11.017 -12.571  1.00  0.00    -0.237 OA
ATOM     69  O   UNL     1       5.157  12.917 -11.107  1.00  0.00    -0.237 OA
ATOM     70  O   UNL     1       7.162  13.048 -12.535  1.00  0.00    -0.744 OA
ENDBRANCH  63  67
ENDBRANCH  37  60
ENDBRANCH  11  12
ENDBRANCH   4   6
ENDBRANCH   1   2
BRANCH   1  71
ATOM     71  C   UNL     1       4.873  -0.568   2.313  1.00  0.00     0.042 C 
BRANCH  71  72
ATOM     72  C   UNL     1       4.347  -1.488   3.401  1.00  0.00     0.118 C 
BRANCH  72  73
ATOM     73  N   UNL     1       4.803  -2.851   3.272  1.00  0.00    -0.352 N 
ATOM     74  C   UNL     1       5.536  -3.599   4.156  1.00  0.00     0.251 C 
ATOM     75  H   UNL     1       4.554  -3.305   2.435  1.00  0.00     0.163 HD
ATOM     76  O   UNL     1       5.926  -4.702   3.766  1.00  0.00    -0.269 OA
BRANCH  74  77
ATOM     77  C   UNL     1       6.012  -3.041   5.479  1.00  0.00     0.041 A 
ATOM     78  C   UNL     1       7.364  -3.316   5.680  1.00  0.00     0.014 A 
ATOM     79  C   UNL     1       5.286  -2.326   6.515  1.00  0.00     0.039 A 
ATOM     80  C   UNL     1       8.033  -2.643   6.678  1.00  0.00     0.003 A 
ATOM     81  C   UNL     1       5.997  -1.692   7.595  1.00  0.00     0.039 A 
ATOM     82  C   UNL     1       7.378  -1.664   7.429  1.00  0.00     0.026 A 
BRANCH  81  83
ATOM     83  N   UNL     1       5.473  -1.206   8.962  1.00  0.00    -0.355 N 
ATOM     84  H   UNL     1       4.948  -0.373   8.964  1.00  0.00     0.167 HD
BRANCH  83  85
ATOM     85  C   UNL     1       5.709  -1.966  10.469  1.00  0.00     0.050 A 
ATOM     86  C   UNL     1       5.583  -3.288  10.375  1.00  0.00     0.047 A 
ATOM     87  C   UNL     1       6.913  -1.706  11.463  1.00  0.00     0.027 A 
ATOM     88  C   UNL     1       6.779  -3.314   9.727  1.00  0.00     0.114 A 
ATOM     89  C   UNL     1       7.739  -1.074  10.779  1.00  0.00     0.072 A 
ATOM     90  C   UNL     1       7.897  -2.180  12.550  1.00  0.00     0.051 A 
ATOM     91  N   UNL     1       7.926  -2.270   9.895  1.00  0.00    -0.256 NA
ATOM     92  C   UNL     1       7.518   0.150  11.683  1.00  0.00     0.032 A 
ATOM     93  C   UNL     1       8.347  -1.184  13.407  1.00  0.00     0.124 A 
ATOM     94  C   UNL     1       7.904   0.059  13.052  1.00  0.00     0.041 A 
ATOM     95  F   UNL     1       9.182  -1.390  14.434  1.00  0.00    -0.207 F 
ENDBRANCH  83  85
ENDBRANCH  81  83
ENDBRANCH  74  77
ENDBRANCH  72  73
ENDBRANCH  71  72
ENDBRANCH   1  71
TORSDOF 15
