REMARK SMILES Cc1cc(Nc2ccc(C(=O)NCCCNC(=O)c3ccc(-c4c5nc(c(-c6cc(S(=O)(=O)[O-])ccc6F)c6ccc([nH]6)c(-c6cc(S(=O)(=O)[O-])ccc6F)c6nc(c(-c7cc(S(=O)(=O)[O-])ccc7F)c7ccc4[nH]7)C=C6)C=C5)cc3)cc2)nc(-n2nc(C)cc2C)n1
REMARK SMILES IDX 14 1 13 2 12 3 10 4 11 5 9 7 6 8 7 9 83 10 8 11 82 12 5 13
REMARK SMILES IDX 4 15 1 16 2 17 3 18 93 19 85 20 84 21 86 22 87 23 91 24
REMARK SMILES IDX 88 25 90 26 92 27 89 28 15 29 16 30 17 31 18 33 19 34 20 35
REMARK SMILES IDX 81 36 21 37 80 38 22 39 23 40 24 41 74 42 25 43 79 44 73 45
REMARK SMILES IDX 75 46 26 47 78 48 72 49 71 50 27 52 59 53 39 54 58 55 40 56
REMARK SMILES IDX 43 57 57 58 76 59 41 60 42 61 56 63 77 64 44 65 28 66 29 67
REMARK SMILES IDX 37 68 30 69 36 70 38 71 35 72 31 73 32 74 33 75 34 76 60 77
REMARK SMILES IDX 61 78 69 79 62 80 68 81 70 82 67 83 63 84 64 85 65 86 66 87
REMARK SMILES IDX 45 88 46 89 54 90 47 91 53 92 55 93 52 94 48 95 49 96 50 97
REMARK SMILES IDX 51 98
REMARK H PARENT 12 6 5 14 16 32 75 51 43 62
REMARK Flexibility Score: inf
ROOT
ATOM      1  C   UNL     1       7.855  -0.729   3.366  1.00  0.00     0.042 C 
ENDROOT
BRANCH   1   2
ATOM      2  C   UNL     1       7.772  -0.374   1.880  1.00  0.00     0.118 C 
BRANCH   2   3
ATOM      3  N   UNL     1       8.212  -1.482   1.047  1.00  0.00    -0.352 N 
ATOM      4  C   UNL     1       7.525  -2.381   0.271  1.00  0.00     0.251 C 
ATOM      5  O   UNL     1       8.178  -3.178  -0.403  1.00  0.00    -0.269 OA
ATOM      6  H   UNL     1       9.187  -1.612   1.040  1.00  0.00     0.163 HD
BRANCH   4   7
ATOM      7  C   UNL     1       6.042  -2.396   0.162  1.00  0.00     0.039 A 
ATOM      8  C   UNL     1       3.256  -2.333  -0.264  1.00  0.00     0.040 A 
ATOM      9  C   UNL     1       4.108  -2.793  -1.267  1.00  0.00     0.027 A 
ATOM     10  C   UNL     1       3.798  -2.019   0.988  1.00  0.00     0.027 A 
ATOM     11  C   UNL     1       5.492  -2.803  -1.063  1.00  0.00     0.016 A 
ATOM     12  C   UNL     1       5.178  -2.068   1.207  1.00  0.00     0.016 A 
BRANCH   8  13
ATOM     13  N   UNL     1       1.870  -2.273  -0.485  1.00  0.00    -0.340 N 
ATOM     14  H   UNL     1       1.419  -3.088  -0.804  1.00  0.00     0.168 HD
BRANCH  13  15
ATOM     15  C   UNL     1       1.086  -1.125  -0.282  1.00  0.00     0.136 A 
ATOM     16  C   UNL     1      -2.480  -0.108   0.262  1.00  0.00     0.067 C 
ATOM     17  C   UNL     1      -0.985  -0.093   0.160  1.00  0.00     0.045 A 
ATOM     18  C   UNL     1      -0.282  -1.244  -0.138  1.00  0.00     0.070 A 
ATOM     19  N   UNL     1      -0.384   1.103   0.307  1.00  0.00    -0.216 NA
ATOM     20  C   UNL     1       0.943   1.152   0.049  1.00  0.00     0.252 A 
ATOM     21  N   UNL     1       1.687   0.074  -0.255  1.00  0.00    -0.194 NA
BRANCH  20  22
ATOM     22  N   UNL     1       1.589   2.437   0.065  1.00  0.00    -0.203 N 
ATOM     23  N   UNL     1       2.628   2.723  -0.777  1.00  0.00    -0.170 NA
ATOM     24  C   UNL     1       1.255   3.543   0.838  1.00  0.00     0.045 A 
ATOM     25  C   UNL     1       2.817   4.040  -0.654  1.00  0.00     0.060 A 
ATOM     26  C   UNL     1       2.012   4.591   0.361  1.00  0.00     0.049 A 
ATOM     27  C   UNL     1       0.317   3.484   1.986  1.00  0.00     0.067 C 
ATOM     28  C   UNL     1       3.790   4.739  -1.527  1.00  0.00     0.069 C 
ENDBRANCH  20  22
ENDBRANCH  13  15
ENDBRANCH   8  13
ENDBRANCH   4   7
ENDBRANCH   2   3
ENDBRANCH   1   2
BRANCH   1  29
ATOM     29  C   UNL     1       9.284  -0.776   3.909  1.00  0.00     0.118 C 
BRANCH  29  30
ATOM     30  N   UNL     1       9.886   0.545   3.972  1.00  0.00    -0.352 N 
ATOM     31  C   UNL     1      10.528   1.184   5.003  1.00  0.00     0.251 C 
ATOM     32  H   UNL     1       9.823   1.067   3.139  1.00  0.00     0.163 HD
ATOM     33  O   UNL     1      10.765   2.385   4.888  1.00  0.00    -0.269 OA
BRANCH  31  34
ATOM     34  C   UNL     1      10.923   0.468   6.240  1.00  0.00     0.039 A 
ATOM     35  C   UNL     1      10.861   1.164   7.452  1.00  0.00     0.014 A 
ATOM     36  C   UNL     1      11.422  -0.838   6.221  1.00  0.00     0.014 A 
ATOM     37  C   UNL     1      11.266   0.547   8.638  1.00  0.00     0.010 A 
ATOM     38  C   UNL     1      11.768  -1.476   7.415  1.00  0.00     0.010 A 
ATOM     39  C   UNL     1      11.706  -0.786   8.635  1.00  0.00    -0.014 A 
BRANCH  39  40
ATOM     40  C   UNL     1      12.109  -1.447   9.905  1.00  0.00     0.031 A 
ATOM     41  C   UNL     1      13.541  -1.850  10.140  1.00  0.00     0.074 A 
ATOM     42  C   UNL     1      11.176  -1.698  10.845  1.00  0.00     0.049 A 
ATOM     43  N   UNL     1      14.082  -2.415  11.190  1.00  0.00    -0.248 NA
ATOM     44  C   UNL     1      14.484  -1.609   9.038  1.00  0.00     0.031 C 
ATOM     45  C   UNL     1       9.748  -1.401  10.713  1.00  0.00     0.029 A 
ATOM     46  N   UNL     1      11.285  -2.254  12.094  1.00  0.00    -0.354 N 
ATOM     47  C   UNL     1      15.424  -2.604  10.875  1.00  0.00     0.074 A 
ATOM     48  C   UNL     1      15.598  -2.147   9.512  1.00  0.00     0.031 C 
ATOM     49  C   UNL     1       9.120  -1.748  11.848  1.00  0.00     0.029 A 
ATOM     50  C   UNL     1      10.091  -2.318  12.776  1.00  0.00     0.049 A 
ATOM     51  H   UNL     1      12.136  -2.576  12.468  1.00  0.00     0.167 HD
ATOM     52  C   UNL     1      16.422  -3.091  11.656  1.00  0.00     0.034 A 
ATOM     53  C   UNL     1       9.811  -2.780  14.010  1.00  0.00     0.034 A 
ATOM     54  C   UNL     1      16.233  -3.535  13.017  1.00  0.00     0.049 A 
ATOM     55  C   UNL     1      10.937  -3.301  14.864  1.00  0.00     0.074 A 
ATOM     56  C   UNL     1      17.180  -4.002  13.914  1.00  0.00     0.029 A 
ATOM     57  N   UNL     1      15.012  -3.575  13.679  1.00  0.00    -0.354 N 
ATOM     58  N   UNL     1      12.212  -3.418  14.572  1.00  0.00    -0.248 NA
ATOM     59  C   UNL     1      10.587  -3.731  16.224  1.00  0.00     0.031 C 
ATOM     60  C   UNL     1      16.524  -4.378  15.093  1.00  0.00     0.029 A 
ATOM     61  C   UNL     1      15.177  -4.080  14.961  1.00  0.00     0.049 A 
ATOM     62  H   UNL     1      14.153  -3.287  13.294  1.00  0.00     0.167 HD
ATOM     63  C   UNL     1      12.820  -3.913  15.722  1.00  0.00     0.074 A 
ATOM     64  C   UNL     1      11.775  -4.046  16.717  1.00  0.00     0.031 C 
ATOM     65  C   UNL     1      14.123  -4.228  15.938  1.00  0.00     0.034 A 
BRANCH  52  66
ATOM     66  C   UNL     1      17.799  -3.188  11.040  1.00  0.00     0.023 A 
ATOM     67  C   UNL     1      18.499  -2.047  10.608  1.00  0.00     0.031 A 
ATOM     68  C   UNL     1      18.412  -4.441  10.854  1.00  0.00     0.131 A 
ATOM     69  C   UNL     1      19.726  -2.185   9.942  1.00  0.00     0.055 A 
ATOM     70  C   UNL     1      19.672  -4.565  10.264  1.00  0.00     0.041 A 
ATOM     71  F   UNL     1      17.788  -5.569  11.229  1.00  0.00    -0.206 F 
ATOM     72  C   UNL     1      20.330  -3.435   9.789  1.00  0.00     0.022 A 
BRANCH  69  73
ATOM     73  S   UNL     1      20.453  -0.723   9.152  1.00  0.00     0.124 S 
ATOM     74  O   UNL     1      19.398  -0.337   8.218  1.00  0.00    -0.237 OA
ATOM     75  O   UNL     1      20.666   0.174  10.282  1.00  0.00    -0.237 OA
ATOM     76  O   UNL     1      21.670  -1.239   8.527  1.00  0.00    -0.744 OA
ENDBRANCH  69  73
ENDBRANCH  52  66
BRANCH  53  77
ATOM     77  C   UNL     1       8.411  -2.762  14.521  1.00  0.00     0.023 A 
ATOM     78  C   UNL     1       8.045  -1.947  15.603  1.00  0.00     0.031 A 
ATOM     79  C   UNL     1       7.425  -3.588  13.953  1.00  0.00     0.131 A 
ATOM     80  C   UNL     1       6.739  -2.008  16.114  1.00  0.00     0.055 A 
ATOM     81  C   UNL     1       6.115  -3.610  14.433  1.00  0.00     0.041 A 
ATOM     82  F   UNL     1       7.721  -4.380  12.909  1.00  0.00    -0.206 F 
ATOM     83  C   UNL     1       5.769  -2.825  15.530  1.00  0.00     0.022 A 
BRANCH  80  84
ATOM     84  S   UNL     1       6.345  -1.056  17.607  1.00  0.00     0.124 S 
ATOM     85  O   UNL     1       7.314  -1.582  18.561  1.00  0.00    -0.237 OA
ATOM     86  O   UNL     1       6.565   0.315  17.158  1.00  0.00    -0.237 OA
ATOM     87  O   UNL     1       4.951  -1.405  17.875  1.00  0.00    -0.744 OA
ENDBRANCH  80  84
ENDBRANCH  53  77
BRANCH  65  88
ATOM     88  C   UNL     1      14.481  -4.717  17.320  1.00  0.00     0.023 A 
ATOM     89  C   UNL     1      13.989  -5.935  17.823  1.00  0.00     0.031 A 
ATOM     90  C   UNL     1      15.288  -3.933  18.163  1.00  0.00     0.131 A 
ATOM     91  C   UNL     1      14.245  -6.298  19.154  1.00  0.00     0.055 A 
ATOM     92  C   UNL     1      15.593  -4.330  19.466  1.00  0.00     0.041 A 
ATOM     93  F   UNL     1      15.784  -2.760  17.737  1.00  0.00    -0.206 F 
ATOM     94  C   UNL     1      15.056  -5.510  19.974  1.00  0.00     0.022 A 
BRANCH  91  95
ATOM     95  S   UNL     1      13.403  -7.752  19.836  1.00  0.00     0.124 S 
ATOM     96  O   UNL     1      12.000  -7.436  19.588  1.00  0.00    -0.237 OA
ATOM     97  O   UNL     1      13.962  -8.838  19.038  1.00  0.00    -0.237 OA
ATOM     98  O   UNL     1      13.799  -7.750  21.243  1.00  0.00    -0.744 OA
ENDBRANCH  91  95
ENDBRANCH  65  88
ENDBRANCH  39  40
ENDBRANCH  31  34
ENDBRANCH  29  30
ENDBRANCH   1  29
TORSDOF 16
