REMARK SMILES CC(C)(C[S@@](=O)c1ccc(C(C)(C)C)cc1)C(=O)NCCCNC(=O)c1ccc(-c2c3nc(c(-c4cc(S(=O)(=O)[O-])ccc4F)c4ccc([nH]4)c(-c4cc(S(=O)(=O)[O-])ccc4F)c4nc(c(-c5cc(S(=O)(=O)[O-])ccc5F)c5ccc2[nH]5)C=C4)C=C3)cc1
REMARK SMILES IDX 20 1 19 2 17 3 18 4 2 6 1 7 3 8 4 9 5 10 6 11 7 12 8 13
REMARK SMILES IDX 16 14 9 15 15 16 10 17 11 18 12 19 13 20 14 21 21 22 22 23
REMARK SMILES IDX 23 24 24 25 25 27 26 28 27 29 88 30 28 31 87 32 29 33 30 34
REMARK SMILES IDX 31 35 81 36 32 37 86 38 80 39 82 40 33 41 85 42 79 43 78 44
REMARK SMILES IDX 34 46 66 47 46 48 65 49 47 50 50 51 64 52 83 53 48 54 49 55
REMARK SMILES IDX 63 57 84 58 51 59 35 60 36 61 44 62 37 63 43 64 45 65 42 66
REMARK SMILES IDX 38 67 39 68 40 69 41 70 67 71 68 72 76 73 69 74 75 75 77 76
REMARK SMILES IDX 74 77 70 78 71 79 72 80 73 81 52 82 53 83 61 84 54 85 60 86
REMARK SMILES IDX 62 87 59 88 55 89 56 90 57 91 58 92
REMARK H PARENT 19 5 23 26 82 45 50 56
REMARK Flexibility Score: inf
ROOT
ATOM      1  C   UNL     1      -0.343   4.110   1.236  1.00  0.00     0.117 C 
ENDROOT
BRANCH   1   2
ATOM      2  N   UNL     1       0.584   3.099   1.725  1.00  0.00    -0.356 N 
ATOM      3  C   UNL     1       1.079   1.964   1.153  1.00  0.00     0.226 C 
ATOM      4  O   UNL     1       1.929   1.344   1.798  1.00  0.00    -0.274 OA
ATOM      5  H   UNL     1       0.914   3.265   2.638  1.00  0.00     0.163 HD
BRANCH   3   6
ATOM      6  C   UNL     1       0.550   1.421  -0.186  1.00  0.00     0.055 C 
ATOM      7  C   UNL     1       1.415   0.231  -0.670  1.00  0.00     0.022 C 
ATOM      8  C   UNL     1       0.769   2.455  -1.319  1.00  0.00     0.022 C 
BRANCH   6   9
ATOM      9  C   UNL     1      -0.928   0.974  -0.052  1.00  0.00     0.126 C 
BRANCH   9  10
ATOM     10  S   UNL     1      -1.438   0.310   1.601  1.00  0.00     0.054 S 
ATOM     11  O   UNL     1      -2.939   0.350   1.620  1.00  0.00    -0.254 OA
BRANCH  10  12
ATOM     12  C   UNL     1      -1.006  -1.434   1.423  1.00  0.00     0.039 A 
ATOM     13  C   UNL     1      -1.945  -2.389   1.038  1.00  0.00     0.018 A 
ATOM     14  C   UNL     1       0.287  -1.861   1.718  1.00  0.00     0.018 A 
ATOM     15  C   UNL     1      -1.557  -3.718   0.811  1.00  0.00     0.005 A 
ATOM     16  C   UNL     1       0.686  -3.175   1.442  1.00  0.00     0.005 A 
ATOM     17  C   UNL     1      -0.215  -4.123   0.931  1.00  0.00    -0.043 A 
BRANCH  17  18
ATOM     18  C   UNL     1       0.241  -5.545   0.556  1.00  0.00    -0.013 C 
ATOM     19  C   UNL     1       0.099  -6.453   1.789  1.00  0.00     0.016 C 
ATOM     20  C   UNL     1      -0.596  -6.139  -0.602  1.00  0.00     0.016 C 
ATOM     21  C   UNL     1       1.715  -5.588   0.081  1.00  0.00     0.016 C 
ENDBRANCH  17  18
ENDBRANCH  10  12
ENDBRANCH   9  10
ENDBRANCH   6   9
ENDBRANCH   3   6
ENDBRANCH   1   2
BRANCH   1  22
ATOM     22  C   UNL     1      -1.504   4.399   2.170  1.00  0.00     0.042 C 
BRANCH  22  23
ATOM     23  C   UNL     1      -1.114   5.001   3.509  1.00  0.00     0.118 C 
BRANCH  23  24
ATOM     24  N   UNL     1      -0.474   6.305   3.380  1.00  0.00    -0.352 N 
ATOM     25  C   UNL     1      -0.918   7.556   3.737  1.00  0.00     0.251 C 
ATOM     26  H   UNL     1       0.421   6.286   2.971  1.00  0.00     0.163 HD
ATOM     27  O   UNL     1      -0.291   8.543   3.351  1.00  0.00    -0.269 OA
BRANCH  25  28
ATOM     28  C   UNL     1      -2.145   7.724   4.547  1.00  0.00     0.039 A 
ATOM     29  C   UNL     1      -3.020   8.773   4.248  1.00  0.00     0.014 A 
ATOM     30  C   UNL     1      -2.435   6.863   5.607  1.00  0.00     0.014 A 
ATOM     31  C   UNL     1      -4.218   8.901   4.957  1.00  0.00     0.010 A 
ATOM     32  C   UNL     1      -3.673   6.926   6.237  1.00  0.00     0.010 A 
ATOM     33  C   UNL     1      -4.579   7.951   5.926  1.00  0.00    -0.014 A 
BRANCH  33  34
ATOM     34  C   UNL     1      -5.887   8.014   6.631  1.00  0.00     0.031 A 
ATOM     35  C   UNL     1      -5.930   8.166   8.129  1.00  0.00     0.074 A 
ATOM     36  C   UNL     1      -7.031   7.866   5.933  1.00  0.00     0.049 A 
ATOM     37  N   UNL     1      -6.961   8.157   8.934  1.00  0.00    -0.248 NA
ATOM     38  C   UNL     1      -4.637   8.315   8.814  1.00  0.00     0.031 C 
ATOM     39  C   UNL     1      -7.117   7.669   4.484  1.00  0.00     0.029 A 
ATOM     40  N   UNL     1      -8.340   7.851   6.345  1.00  0.00    -0.354 N 
ATOM     41  C   UNL     1      -6.442   8.284  10.218  1.00  0.00     0.074 A 
ATOM     42  C   UNL     1      -5.001   8.297  10.087  1.00  0.00     0.031 C 
ATOM     43  C   UNL     1      -8.408   7.586   4.126  1.00  0.00     0.029 A 
ATOM     44  C   UNL     1      -9.242   7.665   5.322  1.00  0.00     0.049 A 
ATOM     45  H   UNL     1      -8.610   7.963   7.285  1.00  0.00     0.167 HD
ATOM     46  C   UNL     1      -7.106   8.406  11.395  1.00  0.00     0.034 A 
ATOM     47  C   UNL     1     -10.585   7.553   5.343  1.00  0.00     0.034 A 
ATOM     48  C   UNL     1      -8.544   8.399  11.505  1.00  0.00     0.049 A 
ATOM     49  C   UNL     1     -11.300   7.653   6.668  1.00  0.00     0.074 A 
ATOM     50  C   UNL     1      -9.322   8.568  12.637  1.00  0.00     0.029 A 
ATOM     51  N   UNL     1      -9.424   8.200  10.447  1.00  0.00    -0.354 N 
ATOM     52  N   UNL     1     -10.796   7.828   7.869  1.00  0.00    -0.248 NA
ATOM     53  C   UNL     1     -12.764   7.550   6.639  1.00  0.00     0.031 C 
ATOM     54  C   UNL     1     -10.663   8.392  12.279  1.00  0.00     0.029 A 
ATOM     55  C   UNL     1     -10.732   8.205  10.907  1.00  0.00     0.049 A 
ATOM     56  H   UNL     1      -9.157   8.074   9.508  1.00  0.00     0.167 HD
ATOM     57  C   UNL     1     -11.887   7.890   8.732  1.00  0.00     0.074 A 
ATOM     58  C   UNL     1     -13.073   7.750   7.911  1.00  0.00     0.031 C 
ATOM     59  C   UNL     1     -11.907   8.054  10.080  1.00  0.00     0.034 A 
BRANCH  46  60
ATOM     60  C   UNL     1      -6.276   8.528  12.653  1.00  0.00     0.023 A 
ATOM     61  C   UNL     1      -5.387   9.599  12.853  1.00  0.00     0.031 A 
ATOM     62  C   UNL     1      -6.353   7.545  13.656  1.00  0.00     0.131 A 
ATOM     63  C   UNL     1      -4.554   9.620  13.982  1.00  0.00     0.055 A 
ATOM     64  C   UNL     1      -5.587   7.620  14.822  1.00  0.00     0.041 A 
ATOM     65  F   UNL     1      -7.166   6.486  13.516  1.00  0.00    -0.206 F 
ATOM     66  C   UNL     1      -4.668   8.652  14.982  1.00  0.00     0.022 A 
BRANCH  63  67
ATOM     67  S   UNL     1      -3.212  10.838  14.045  1.00  0.00     0.124 S 
ATOM     68  O   UNL     1      -2.470  10.523  12.826  1.00  0.00    -0.237 OA
ATOM     69  O   UNL     1      -3.935  12.105  14.042  1.00  0.00    -0.237 OA
ATOM     70  O   UNL     1      -2.516  10.518  15.289  1.00  0.00    -0.744 OA
ENDBRANCH  63  67
ENDBRANCH  46  60
BRANCH  47  71
ATOM     71  C   UNL     1     -11.346   7.322   4.081  1.00  0.00     0.023 A 
ATOM     72  C   UNL     1     -12.273   8.267   3.611  1.00  0.00     0.031 A 
ATOM     73  C   UNL     1     -11.190   6.133   3.346  1.00  0.00     0.131 A 
ATOM     74  C   UNL     1     -13.042   7.986   2.470  1.00  0.00     0.055 A 
ATOM     75  C   UNL     1     -11.913   5.885   2.179  1.00  0.00     0.041 A 
ATOM     76  F   UNL     1     -10.316   5.196   3.749  1.00  0.00    -0.206 F 
ATOM     77  C   UNL     1     -12.857   6.809   1.742  1.00  0.00     0.022 A 
BRANCH  74  78
ATOM     78  S   UNL     1     -14.359   9.143   2.004  1.00  0.00     0.124 S 
ATOM     79  O   UNL     1     -15.180   9.159   3.209  1.00  0.00    -0.237 OA
ATOM     80  O   UNL     1     -13.607  10.361   1.723  1.00  0.00    -0.237 OA
ATOM     81  O   UNL     1     -14.972   8.509   0.839  1.00  0.00    -0.744 OA
ENDBRANCH  74  78
ENDBRANCH  47  71
BRANCH  59  82
ATOM     82  C   UNL     1     -13.262   8.142  10.743  1.00  0.00     0.023 A 
ATOM     83  C   UNL     1     -14.152   7.054  10.764  1.00  0.00     0.031 A 
ATOM     84  C   UNL     1     -13.669   9.340  11.357  1.00  0.00     0.131 A 
ATOM     85  C   UNL     1     -15.427   7.205  11.332  1.00  0.00     0.055 A 
ATOM     86  C   UNL     1     -14.910   9.462  11.982  1.00  0.00     0.041 A 
ATOM     87  F   UNL     1     -12.863  10.414  11.363  1.00  0.00    -0.206 F 
ATOM     88  C   UNL     1     -15.803   8.396  11.960  1.00  0.00     0.022 A 
BRANCH  85  89
ATOM     89  S   UNL     1     -16.627   5.858  11.150  1.00  0.00     0.124 S 
ATOM     90  O   UNL     1     -16.707   5.718   9.699  1.00  0.00    -0.237 OA
ATOM     91  O   UNL     1     -15.978   4.762  11.861  1.00  0.00    -0.237 OA
ATOM     92  O   UNL     1     -17.832   6.384  11.789  1.00  0.00    -0.744 OA
ENDBRANCH  85  89
ENDBRANCH  59  82
ENDBRANCH  33  34
ENDBRANCH  25  28
ENDBRANCH  23  24
ENDBRANCH  22  23
ENDBRANCH   1  22
TORSDOF 17
