REMARK SMILES CC[NH2+][C@@]1(C(=O)NCCCNC(=O)c2ccc(-c3c4nc(c(-c5cc(S(=O)(=O)[O-])ccc5F)c5ccc([nH]5)c(-c5cc(S(=O)(=O)[O-])ccc5F)c5nc(c(-c6cc(S(=O)(=O)[O-])ccc6F)c6ccc3[nH]6)C=C5)C=C4)cc2)CC[C@@H](SCC2CCCC2)C1
REMARK SMILES IDX 9 1 8 2 7 3 5 4 6 5 4 7 77 8 87 9 78 10 79 11 3 12 2 15 1 16
REMARK SMILES IDX 80 17 81 18 82 19 83 20 86 21 84 22 85 23 10 24 11 25 12 26
REMARK SMILES IDX 13 28 14 29 15 30 76 31 16 32 75 33 17 34 18 35 19 36 69 37
REMARK SMILES IDX 20 38 74 39 68 40 70 41 21 42 73 43 67 44 66 45 22 47 54 48
REMARK SMILES IDX 34 49 53 50 35 51 38 52 52 53 71 54 36 55 37 56 51 58 72 59
REMARK SMILES IDX 39 60 23 61 24 62 32 63 25 64 31 65 33 66 30 67 26 68 27 69
REMARK SMILES IDX 28 70 29 71 55 72 56 73 64 74 57 75 63 76 65 77 62 78 58 79
REMARK SMILES IDX 59 80 60 81 61 82 40 83 41 84 49 85 42 86 48 87 50 88 47 89
REMARK SMILES IDX 43 90 44 91 45 92 46 93
REMARK H PARENT 7 6 3 13 3 14 11 27 70 46 38 57
REMARK Flexibility Score: inf
ROOT
ATOM      1  C   UNL     1      -2.644  -3.338  -5.981  1.00  0.00     0.042 C 
ENDROOT
BRANCH   1   2
ATOM      2  C   UNL     1      -2.261  -2.076  -5.246  1.00  0.00     0.118 C 
BRANCH   2   3
ATOM      3  N   UNL     1      -2.177  -2.251  -3.825  1.00  0.00    -0.351 N 
ATOM      4  C   UNL     1      -1.133  -2.105  -2.968  1.00  0.00     0.281 C 
ATOM      5  O   UNL     1      -1.406  -2.365  -1.788  1.00  0.00    -0.268 OA
ATOM      6  H   UNL     1      -3.021  -2.523  -3.397  1.00  0.00     0.163 HD
BRANCH   4   7
ATOM      7  C   UNL     1       0.334  -1.679  -3.422  1.00  0.00     0.176 C 
ATOM      8  C   UNL     1       0.442  -0.584  -4.505  1.00  0.00     0.080 C 
ATOM      9  C   UNL     1       1.082  -2.906  -3.998  1.00  0.00     0.093 C 
ATOM     10  C   UNL     1       0.907  -1.236  -5.813  1.00  0.00     0.022 C 
ATOM     11  C   UNL     1       1.259  -2.679  -5.500  1.00  0.00     0.053 C 
BRANCH   7  12
ATOM     12  N   UNL     1       1.071  -1.259  -2.193  1.00  0.00    -0.334 N 
ATOM     13  H   UNL     1       1.020  -2.023  -1.519  1.00  0.00     0.347 HD
ATOM     14  H   UNL     1       2.021  -1.043  -2.496  1.00  0.00     0.347 HD
BRANCH  12  15
ATOM     15  C   UNL     1       0.571  -0.049  -1.543  1.00  0.00     0.257 C 
ATOM     16  C   UNL     1       1.068  -0.022  -0.105  1.00  0.00     0.071 C 
ENDBRANCH  12  15
ENDBRANCH   7  12
BRANCH  11  17
ATOM     17  S   UNL     1       2.851  -3.173  -6.270  1.00  0.00    -0.158 SA
BRANCH  17  18
ATOM     18  C   UNL     1       4.150  -2.419  -5.224  1.00  0.00     0.073 C 
BRANCH  18  19
ATOM     19  C   UNL     1       4.639  -1.008  -5.598  1.00  0.00    -0.001 C 
ATOM     20  C   UNL     1       3.810   0.144  -5.035  1.00  0.00     0.004 C 
ATOM     21  C   UNL     1       6.006  -0.737  -4.956  1.00  0.00     0.004 C 
ATOM     22  C   UNL     1       4.739   1.332  -4.866  1.00  0.00     0.000 C 
ATOM     23  C   UNL     1       6.149   0.777  -4.926  1.00  0.00     0.000 C 
ENDBRANCH  18  19
ENDBRANCH  17  18
ENDBRANCH  11  17
ENDBRANCH   4   7
ENDBRANCH   2   3
ENDBRANCH   1   2
BRANCH   1  24
ATOM     24  C   UNL     1      -4.099  -3.298  -6.387  1.00  0.00     0.118 C 
BRANCH  24  25
ATOM     25  N   UNL     1      -4.363  -2.282  -7.407  1.00  0.00    -0.352 N 
ATOM     26  C   UNL     1      -4.837  -2.422  -8.694  1.00  0.00     0.251 C 
ATOM     27  H   UNL     1      -4.171  -1.356  -7.133  1.00  0.00     0.163 HD
ATOM     28  O   UNL     1      -4.822  -1.469  -9.457  1.00  0.00    -0.269 OA
BRANCH  26  29
ATOM     29  C   UNL     1      -5.323  -3.746  -9.136  1.00  0.00     0.039 A 
ATOM     30  C   UNL     1      -4.995  -4.218 -10.408  1.00  0.00     0.014 A 
ATOM     31  C   UNL     1      -6.048  -4.546  -8.255  1.00  0.00     0.014 A 
ATOM     32  C   UNL     1      -5.317  -5.532 -10.754  1.00  0.00     0.010 A 
ATOM     33  C   UNL     1      -6.217  -5.888  -8.537  1.00  0.00     0.010 A 
ATOM     34  C   UNL     1      -5.885  -6.394  -9.802  1.00  0.00    -0.014 A 
BRANCH  34  35
ATOM     35  C   UNL     1      -6.218  -7.811 -10.095  1.00  0.00     0.031 A 
ATOM     36  C   UNL     1      -7.636  -8.279  -9.884  1.00  0.00     0.074 A 
ATOM     37  C   UNL     1      -5.251  -8.685 -10.434  1.00  0.00     0.049 A 
ATOM     38  N   UNL     1      -8.117  -9.494  -9.864  1.00  0.00    -0.248 NA
ATOM     39  C   UNL     1      -8.633  -7.237  -9.581  1.00  0.00     0.031 C 
ATOM     40  C   UNL     1      -3.833  -8.362 -10.613  1.00  0.00     0.029 A 
ATOM     41  N   UNL     1      -5.313 -10.034 -10.675  1.00  0.00    -0.354 N 
ATOM     42  C   UNL     1      -9.453  -9.361  -9.495  1.00  0.00     0.074 A 
ATOM     43  C   UNL     1      -9.677  -7.961  -9.216  1.00  0.00     0.031 C 
ATOM     44  C   UNL     1      -3.169  -9.473 -10.970  1.00  0.00     0.029 A 
ATOM     45  C   UNL     1      -4.099 -10.597 -10.992  1.00  0.00     0.049 A 
ATOM     46  H   UNL     1      -6.149 -10.551 -10.626  1.00  0.00     0.167 HD
ATOM     47  C   UNL     1     -10.415 -10.314  -9.433  1.00  0.00     0.034 A 
ATOM     48  C   UNL     1      -3.776 -11.878 -11.258  1.00  0.00     0.034 A 
ATOM     49  C   UNL     1     -10.181 -11.692  -9.781  1.00  0.00     0.049 A 
ATOM     50  C   UNL     1      -4.867 -12.918 -11.221  1.00  0.00     0.074 A 
ATOM     51  C   UNL     1     -11.087 -12.736  -9.833  1.00  0.00     0.029 A 
ATOM     52  N   UNL     1      -8.948 -12.214 -10.152  1.00  0.00    -0.354 N 
ATOM     53  N   UNL     1      -6.136 -12.774 -10.908  1.00  0.00    -0.248 NA
ATOM     54  C   UNL     1      -4.488 -14.289 -11.584  1.00  0.00     0.031 C 
ATOM     55  C   UNL     1     -10.392 -13.898 -10.186  1.00  0.00     0.029 A 
ATOM     56  C   UNL     1      -9.067 -13.567 -10.421  1.00  0.00     0.049 A 
ATOM     57  H   UNL     1      -8.112 -11.697 -10.215  1.00  0.00     0.167 HD
ATOM     58  C   UNL     1      -6.711 -14.031 -11.071  1.00  0.00     0.074 A 
ATOM     59  C   UNL     1      -5.654 -14.915 -11.520  1.00  0.00     0.031 C 
ATOM     60  C   UNL     1      -7.995 -14.424 -10.871  1.00  0.00     0.034 A 
BRANCH  47  61
ATOM     61  C   UNL     1     -11.788  -9.886  -8.968  1.00  0.00     0.023 A 
ATOM     62  C   UNL     1     -12.533  -8.915  -9.661  1.00  0.00     0.031 A 
ATOM     63  C   UNL     1     -12.336 -10.410  -7.785  1.00  0.00     0.131 A 
ATOM     64  C   UNL     1     -13.728  -8.424  -9.114  1.00  0.00     0.055 A 
ATOM     65  C   UNL     1     -13.575  -9.987  -7.297  1.00  0.00     0.041 A 
ATOM     66  F   UNL     1     -11.666 -11.325  -7.066  1.00  0.00    -0.206 F 
ATOM     67  C   UNL     1     -14.270  -8.974  -7.951  1.00  0.00     0.022 A 
BRANCH  64  68
ATOM     68  S   UNL     1     -14.471  -6.944  -9.854  1.00  0.00     0.124 S 
ATOM     69  O   UNL     1     -13.401  -5.963  -9.686  1.00  0.00    -0.237 OA
ATOM     70  O   UNL     1     -14.734  -7.372 -11.223  1.00  0.00    -0.237 OA
ATOM     71  O   UNL     1     -15.657  -6.708  -9.034  1.00  0.00    -0.744 OA
ENDBRANCH  64  68
ENDBRANCH  47  61
BRANCH  48  72
ATOM     72  C   UNL     1      -2.372 -12.254 -11.590  1.00  0.00     0.023 A 
ATOM     73  C   UNL     1      -2.040 -12.738 -12.865  1.00  0.00     0.031 A 
ATOM     74  C   UNL     1      -1.347 -12.168 -10.631  1.00  0.00     0.131 A 
ATOM     75  C   UNL     1      -0.730 -13.164 -13.135  1.00  0.00     0.055 A 
ATOM     76  C   UNL     1      -0.034 -12.546 -10.919  1.00  0.00     0.041 A 
ATOM     77  F   UNL     1      -1.607 -11.703  -9.399  1.00  0.00    -0.206 F 
ATOM     78  C   UNL     1       0.278 -13.061 -12.174  1.00  0.00     0.022 A 
BRANCH  75  79
ATOM     79  S   UNL     1      -0.382 -13.935 -14.740  1.00  0.00     0.124 S 
ATOM     80  O   UNL     1      -1.320 -15.052 -14.743  1.00  0.00    -0.237 OA
ATOM     81  O   UNL     1      -0.675 -12.847 -15.667  1.00  0.00    -0.237 OA
ATOM     82  O   UNL     1       1.028 -14.304 -14.641  1.00  0.00    -0.744 OA
ENDBRANCH  75  79
ENDBRANCH  48  72
BRANCH  60  83
ATOM     83  C   UNL     1      -8.330 -15.856 -11.197  1.00  0.00     0.023 A 
ATOM     84  C   UNL     1      -7.832 -16.925 -10.434  1.00  0.00     0.031 A 
ATOM     85  C   UNL     1      -9.164 -16.150 -12.291  1.00  0.00     0.131 A 
ATOM     86  C   UNL     1      -8.131 -18.243 -10.806  1.00  0.00     0.055 A 
ATOM     87  C   UNL     1      -9.505 -17.462 -12.621  1.00  0.00     0.041 A 
ATOM     88  F   UNL     1      -9.666 -15.164 -13.052  1.00  0.00    -0.206 F 
ATOM     89  C   UNL     1      -8.977 -18.518 -11.884  1.00  0.00     0.022 A 
BRANCH  86  90
ATOM     90  S   UNL     1      -7.330 -19.602  -9.910  1.00  0.00     0.124 S 
ATOM     91  O   UNL     1      -5.916 -19.317 -10.129  1.00  0.00    -0.237 OA
ATOM     92  O   UNL     1      -7.816 -19.407  -8.548  1.00  0.00    -0.237 OA
ATOM     93  O   UNL     1      -7.834 -20.799 -10.581  1.00  0.00    -0.744 OA
ENDBRANCH  86  90
ENDBRANCH  60  83
ENDBRANCH  34  35
ENDBRANCH  26  29
ENDBRANCH  24  25
ENDBRANCH   1  24
TORSDOF 18
