REMARK SMILES O=C(C[C@@H]([NH2+]Cc1ccccc1)C(=O)NCCCNC(=O)c1ccc(-c2c3nc(c(-c4cc(S(=O)(=O)[O-])ccc4F)c4ccc([nH]4)c(-c4cc(S(=O)(=O)[O-])ccc4F)c4nc(c(-c5cc(S(=O)(=O)[O-])ccc5F)c5ccc2[nH]5)C=C4)C=C3)cc1)Nc1cccc(Cl)c1Cl
REMARK SMILES IDX 17 1 16 2 15 3 13 4 14 5 4 7 3 8 2 9 1 10 85 11 86 13 87 14
REMARK SMILES IDX 92 15 88 16 90 17 93 18 89 19 91 20 5 21 6 24 7 25 8 26
REMARK SMILES IDX 12 27 9 28 11 29 10 30 18 31 19 32 20 33 21 35 22 36 23 37
REMARK SMILES IDX 84 38 24 39 83 40 25 41 26 42 27 43 77 44 28 45 82 46 76 47
REMARK SMILES IDX 78 48 29 49 81 50 75 51 74 52 30 54 62 55 42 56 61 57 43 58
REMARK SMILES IDX 46 59 60 60 79 61 44 62 45 63 59 65 80 66 47 67 31 68 32 69
REMARK SMILES IDX 40 70 33 71 39 72 41 73 38 74 34 75 35 76 36 77 37 78 63 79
REMARK SMILES IDX 64 80 72 81 65 82 71 83 73 84 70 85 66 86 67 87 68 88 69 89
REMARK SMILES IDX 48 90 49 91 57 92 50 93 56 94 58 95 55 96 51 97 52 98 53 99
REMARK SMILES IDX 54 100
REMARK H PARENT 15 6 85 12 5 22 5 23 19 34 78 53 46 64
REMARK Flexibility Score: inf
ROOT
ATOM      1  C   UNL     1       5.656   2.569  -2.144  1.00  0.00     0.042 C 
ENDROOT
BRANCH   1   2
ATOM      2  C   UNL     1       6.068   1.970  -0.803  1.00  0.00     0.118 C 
BRANCH   2   3
ATOM      3  N   UNL     1       5.604   2.788   0.304  1.00  0.00    -0.351 N 
ATOM      4  C   UNL     1       4.634   2.556   1.232  1.00  0.00     0.278 C 
ATOM      5  O   UNL     1       4.418   3.444   2.061  1.00  0.00    -0.268 OA
ATOM      6  H   UNL     1       6.067   3.651   0.399  1.00  0.00     0.163 HD
BRANCH   4   7
ATOM      7  C   UNL     1       3.863   1.223   1.284  1.00  0.00     0.282 C 
BRANCH   7   8
ATOM      8  C   UNL     1       2.954   1.104   0.054  1.00  0.00     0.175 C 
BRANCH   8   9
ATOM      9  C   UNL     1       2.077  -0.122   0.111  1.00  0.00     0.230 C 
ATOM     10  O   UNL     1       0.913  -0.074   0.493  1.00  0.00    -0.274 OA
ATOM     11  N   UNL     1       2.765  -1.279  -0.221  1.00  0.00    -0.325 N 
ATOM     12  H   UNL     1       3.732  -1.212  -0.392  1.00  0.00     0.169 HD
BRANCH  11  13
ATOM     13  C   UNL     1       2.156  -2.546  -0.326  1.00  0.00     0.061 A 
ATOM     14  C   UNL     1       2.781  -3.593   0.366  1.00  0.00     0.028 A 
ATOM     15  C   UNL     1       1.006  -2.803  -1.102  1.00  0.00     0.083 A 
ATOM     16  C   UNL     1       2.228  -4.872   0.361  1.00  0.00     0.004 A 
ATOM     17  C   UNL     1       0.471  -4.100  -1.117  1.00  0.00     0.061 A 
ATOM     18  Cl  UNL     1       0.372  -1.592  -2.176  1.00  0.00    -0.080 Cl
ATOM     19  C   UNL     1       1.072  -5.123  -0.374  1.00  0.00     0.022 A 
ATOM     20  Cl  UNL     1      -0.915  -4.530  -2.061  1.00  0.00    -0.083 Cl
ENDBRANCH  11  13
ENDBRANCH   8   9
ENDBRANCH   7   8
BRANCH   7  21
ATOM     21  N   UNL     1       4.778   0.049   1.461  1.00  0.00    -0.332 N 
ATOM     22  H   UNL     1       5.325  -0.067   0.608  1.00  0.00     0.347 HD
ATOM     23  H   UNL     1       4.194  -0.764   1.656  1.00  0.00     0.347 HD
BRANCH  21  24
ATOM     24  C   UNL     1       5.708   0.205   2.598  1.00  0.00     0.297 C 
BRANCH  24  25
ATOM     25  C   UNL     1       5.011   0.037   3.926  1.00  0.00     0.006 A 
ATOM     26  C   UNL     1       4.607   1.157   4.666  1.00  0.00     0.009 A 
ATOM     27  C   UNL     1       4.680  -1.243   4.394  1.00  0.00     0.009 A 
ATOM     28  C   UNL     1       3.862   1.001   5.834  1.00  0.00     0.001 A 
ATOM     29  C   UNL     1       3.940  -1.397   5.566  1.00  0.00     0.001 A 
ATOM     30  C   UNL     1       3.525  -0.275   6.281  1.00  0.00     0.000 A 
ENDBRANCH  24  25
ENDBRANCH  21  24
ENDBRANCH   7  21
ENDBRANCH   4   7
ENDBRANCH   2   3
ENDBRANCH   1   2
BRANCH   1  31
ATOM     31  C   UNL     1       6.314   3.912  -2.442  1.00  0.00     0.118 C 
BRANCH  31  32
ATOM     32  N   UNL     1       7.759   3.801  -2.593  1.00  0.00    -0.352 N 
ATOM     33  C   UNL     1       8.548   4.049  -3.690  1.00  0.00     0.251 C 
ATOM     34  H   UNL     1       8.242   3.503  -1.789  1.00  0.00     0.163 HD
ATOM     35  O   UNL     1       9.722   3.685  -3.683  1.00  0.00    -0.269 OA
BRANCH  33  36
ATOM     36  C   UNL     1       7.978   4.721  -4.877  1.00  0.00     0.039 A 
ATOM     37  C   UNL     1       8.263   4.212  -6.146  1.00  0.00     0.014 A 
ATOM     38  C   UNL     1       7.157   5.844  -4.738  1.00  0.00     0.014 A 
ATOM     39  C   UNL     1       7.652   4.775  -7.269  1.00  0.00     0.010 A 
ATOM     40  C   UNL     1       6.491   6.355  -5.849  1.00  0.00     0.010 A 
ATOM     41  C   UNL     1       6.720   5.817  -7.124  1.00  0.00    -0.014 A 
BRANCH  41  42
ATOM     42  C   UNL     1       5.947   6.331  -8.285  1.00  0.00     0.031 A 
ATOM     43  C   UNL     1       6.095   7.761  -8.723  1.00  0.00     0.074 A 
ATOM     44  C   UNL     1       5.052   5.525  -8.892  1.00  0.00     0.049 A 
ATOM     45  N   UNL     1       5.433   8.418  -9.640  1.00  0.00    -0.248 NA
ATOM     46  C   UNL     1       7.104   8.565  -8.017  1.00  0.00     0.031 C 
ATOM     47  C   UNL     1       4.797   4.127  -8.536  1.00  0.00     0.029 A 
ATOM     48  N   UNL     1       4.180   5.766  -9.925  1.00  0.00    -0.354 N 
ATOM     49  C   UNL     1       5.937   9.714  -9.618  1.00  0.00     0.074 A 
ATOM     50  C   UNL     1       6.920   9.761  -8.556  1.00  0.00     0.031 C 
ATOM     51  C   UNL     1       3.851   3.631  -9.348  1.00  0.00     0.029 A 
ATOM     52  C   UNL     1       3.388   4.686 -10.244  1.00  0.00     0.049 A 
ATOM     53  H   UNL     1       4.126   6.630 -10.394  1.00  0.00     0.167 HD
ATOM     54  C   UNL     1       5.623  10.759 -10.423  1.00  0.00     0.034 A 
ATOM     55  C   UNL     1       2.386   4.564 -11.137  1.00  0.00     0.034 A 
ATOM     56  C   UNL     1       4.640  10.692 -11.478  1.00  0.00     0.049 A 
ATOM     57  C   UNL     1       2.012   5.758 -11.978  1.00  0.00     0.074 A 
ATOM     58  C   UNL     1       4.284  11.674 -12.386  1.00  0.00     0.029 A 
ATOM     59  N   UNL     1       3.843   9.588 -11.757  1.00  0.00    -0.354 N 
ATOM     60  N   UNL     1       2.535   6.963 -11.980  1.00  0.00    -0.248 NA
ATOM     61  C   UNL     1       0.915   5.577 -12.937  1.00  0.00     0.031 C 
ATOM     62  C   UNL     1       3.221  11.194 -13.158  1.00  0.00     0.029 A 
ATOM     63  C   UNL     1       2.968   9.881 -12.793  1.00  0.00     0.049 A 
ATOM     64  H   UNL     1       3.892   8.724 -11.288  1.00  0.00     0.167 HD
ATOM     65  C   UNL     1       1.848   7.673 -12.961  1.00  0.00     0.074 A 
ATOM     66  C   UNL     1       0.886   6.757 -13.539  1.00  0.00     0.031 C 
ATOM     67  C   UNL     1       2.002   8.964 -13.351  1.00  0.00     0.034 A 
BRANCH  54  68
ATOM     68  C   UNL     1       6.329  12.070 -10.171  1.00  0.00     0.023 A 
ATOM     69  C   UNL     1       7.723  12.197 -10.308  1.00  0.00     0.031 A 
ATOM     70  C   UNL     1       5.603  13.207  -9.774  1.00  0.00     0.131 A 
ATOM     71  C   UNL     1       8.352  13.407  -9.980  1.00  0.00     0.055 A 
ATOM     72  C   UNL     1       6.226  14.432  -9.530  1.00  0.00     0.041 A 
ATOM     73  F   UNL     1       4.272  13.144  -9.605  1.00  0.00    -0.206 F 
ATOM     74  C   UNL     1       7.611  14.534  -9.617  1.00  0.00     0.022 A 
BRANCH  71  75
ATOM     75  S   UNL     1      10.164  13.443  -9.891  1.00  0.00     0.124 S 
ATOM     76  O   UNL     1      10.431  12.407  -8.897  1.00  0.00    -0.237 OA
ATOM     77  O   UNL     1      10.553  13.130 -11.261  1.00  0.00    -0.237 OA
ATOM     78  O   UNL     1      10.458  14.806  -9.454  1.00  0.00    -0.744 OA
ENDBRANCH  71  75
ENDBRANCH  54  68
BRANCH  55  79
ATOM     79  C   UNL     1       1.642   3.277 -11.268  1.00  0.00     0.023 A 
ATOM     80  C   UNL     1       1.667   2.548 -12.467  1.00  0.00     0.031 A 
ATOM     81  C   UNL     1       0.858   2.780 -10.212  1.00  0.00     0.131 A 
ATOM     82  C   UNL     1       0.886   1.389 -12.598  1.00  0.00     0.055 A 
ATOM     83  C   UNL     1       0.129   1.595 -10.326  1.00  0.00     0.041 A 
ATOM     84  F   UNL     1       0.798   3.437  -9.042  1.00  0.00    -0.206 F 
ATOM     85  C   UNL     1       0.130   0.899 -11.531  1.00  0.00     0.022 A 
BRANCH  82  86
ATOM     86  S   UNL     1       0.801   0.580 -14.219  1.00  0.00     0.124 S 
ATOM     87  O   UNL     1       0.301   1.659 -15.063  1.00  0.00    -0.237 OA
ATOM     88  O   UNL     1       2.189   0.186 -14.434  1.00  0.00    -0.237 OA
ATOM     89  O   UNL     1      -0.131  -0.524 -14.000  1.00  0.00    -0.744 OA
ENDBRANCH  82  86
ENDBRANCH  55  79
BRANCH  67  90
ATOM     90  C   UNL     1       1.131   9.449 -14.485  1.00  0.00     0.023 A 
ATOM     91  C   UNL     1      -0.262   9.580 -14.345  1.00  0.00     0.031 A 
ATOM     92  C   UNL     1       1.706   9.787 -15.723  1.00  0.00     0.131 A 
ATOM     93  C   UNL     1      -1.038   9.993 -15.439  1.00  0.00     0.055 A 
ATOM     94  C   UNL     1       0.936  10.256 -16.788  1.00  0.00     0.041 A 
ATOM     95  F   UNL     1       3.031   9.676 -15.914  1.00  0.00    -0.206 F 
ATOM     96  C   UNL     1      -0.445  10.350 -16.653  1.00  0.00     0.022 A 
BRANCH  93  97
ATOM     97  S   UNL     1      -2.845   9.979 -15.282  1.00  0.00     0.124 S 
ATOM     98  O   UNL     1      -3.113   8.574 -14.993  1.00  0.00    -0.237 OA
ATOM     99  O   UNL     1      -3.071  10.910 -14.182  1.00  0.00    -0.237 OA
ATOM    100  O   UNL     1      -3.307  10.442 -16.589  1.00  0.00    -0.744 OA
ENDBRANCH  93  97
ENDBRANCH  67  90
ENDBRANCH  41  42
ENDBRANCH  33  36
ENDBRANCH  31  32
ENDBRANCH   1  31
TORSDOF 19
