REMARK SMILES C[C@@H](O)[C@@H](NC(=O)CN(C)C(=O)c1cccs1)C(=O)NCCCNC(=O)c1ccc(-c2c3nc(c(-c4cc(S(=O)(=O)[O-])ccc4F)c4ccc([nH]4)c(-c4cc(S(=O)(=O)[O-])ccc4F)c4nc(c(-c5cc(S(=O)(=O)[O-])ccc5F)c5ccc2[nH]5)C=C4)C=C3)cc1
REMARK SMILES IDX 21 1 20 2 18 3 19 4 4 6 2 7 1 8 3 9 5 11 6 12 7 14 8 15 9 16
REMARK SMILES IDX 10 17 11 18 12 19 13 20 14 21 17 22 15 23 16 24 22 25 23 26
REMARK SMILES IDX 24 27 25 28 26 30 27 31 28 32 89 33 29 34 88 35 30 36 31 37
REMARK SMILES IDX 32 38 82 39 33 40 87 41 81 42 83 43 34 44 86 45 80 46 79 47
REMARK SMILES IDX 35 49 67 50 47 51 66 52 48 53 51 54 65 55 84 56 49 57 50 58
REMARK SMILES IDX 64 60 85 61 52 62 36 63 37 64 45 65 38 66 44 67 46 68 43 69
REMARK SMILES IDX 39 70 40 71 41 72 42 73 68 74 69 75 77 76 70 77 76 78 78 79
REMARK SMILES IDX 75 80 71 81 72 82 73 83 74 84 53 85 54 86 62 87 55 88 61 89
REMARK SMILES IDX 63 90 60 91 56 92 57 93 58 94 59 95
REMARK H PARENT 20 5 3 10 5 13 24 29 83 48 51 59
REMARK Flexibility Score: inf
ROOT
ATOM      1  C   UNL     1       0.752  -2.383   3.337  1.00  0.00     0.117 C 
ENDROOT
BRANCH   1   2
ATOM      2  N   UNL     1      -0.482  -1.638   3.400  1.00  0.00    -0.354 N 
ATOM      3  C   UNL     1      -1.188  -1.065   2.379  1.00  0.00     0.245 C 
ATOM      4  O   UNL     1      -2.352  -0.732   2.648  1.00  0.00    -0.273 OA
ATOM      5  H   UNL     1      -0.868  -1.528   4.299  1.00  0.00     0.163 HD
BRANCH   3   6
ATOM      6  C   UNL     1      -0.655  -0.863   0.922  1.00  0.00     0.200 C 
BRANCH   6   7
ATOM      7  C   UNL     1       0.680  -0.069   0.879  1.00  0.00     0.143 C 
ATOM      8  C   UNL     1       0.950   0.568  -0.491  1.00  0.00     0.041 C 
BRANCH   7   9
ATOM      9  O   UNL     1       0.696   0.986   1.838  1.00  0.00    -0.391 OA
ATOM     10  H   UNL     1       0.004   1.630   1.622  1.00  0.00     0.211 HD
ENDBRANCH   7   9
ENDBRANCH   6   7
BRANCH   6  11
ATOM     11  N   UNL     1      -0.549  -2.030   0.020  1.00  0.00    -0.341 N 
ATOM     12  C   UNL     1      -1.534  -2.890  -0.355  1.00  0.00     0.240 C 
ATOM     13  H   UNL     1       0.344  -2.205  -0.354  1.00  0.00     0.164 HD
ATOM     14  O   UNL     1      -1.697  -3.095  -1.560  1.00  0.00    -0.273 OA
BRANCH  12  15
ATOM     15  C   UNL     1      -2.386  -3.570   0.692  1.00  0.00     0.219 C 
BRANCH  15  16
ATOM     16  N   UNL     1      -1.596  -4.320   1.669  1.00  0.00    -0.332 N 
ATOM     17  C   UNL     1      -2.358  -4.580   2.874  1.00  0.00     0.147 C 
BRANCH  16  18
ATOM     18  C   UNL     1      -0.889  -5.426   1.143  1.00  0.00     0.264 C 
ATOM     19  O   UNL     1      -1.503  -6.385   0.678  1.00  0.00    -0.268 OA
BRANCH  18  20
ATOM     20  C   UNL     1       0.573  -5.346   1.151  1.00  0.00     0.092 A 
ATOM     21  C   UNL     1       1.460  -5.506   2.197  1.00  0.00     0.025 A 
ATOM     22  S   UNL     1       1.435  -5.145  -0.318  1.00  0.00    -0.139 S 
ATOM     23  C   UNL     1       2.831  -5.442   1.819  1.00  0.00     0.012 A 
ATOM     24  C   UNL     1       2.960  -5.254   0.465  1.00  0.00     0.065 A 
ENDBRANCH  18  20
ENDBRANCH  16  18
ENDBRANCH  15  16
ENDBRANCH  12  15
ENDBRANCH   6  11
ENDBRANCH   3   6
ENDBRANCH   1   2
BRANCH   1  25
ATOM     25  C   UNL     1       1.263  -3.021   4.645  1.00  0.00     0.042 C 
BRANCH  25  26
ATOM     26  C   UNL     1       0.343  -3.786   5.613  1.00  0.00     0.118 C 
BRANCH  26  27
ATOM     27  N   UNL     1      -0.258  -5.059   5.227  1.00  0.00    -0.352 N 
ATOM     28  C   UNL     1       0.097  -6.389   5.247  1.00  0.00     0.251 C 
ATOM     29  H   UNL     1      -1.160  -4.933   4.852  1.00  0.00     0.163 HD
ATOM     30  O   UNL     1      -0.733  -7.207   4.851  1.00  0.00    -0.269 OA
BRANCH  28  31
ATOM     31  C   UNL     1       1.440  -6.864   5.637  1.00  0.00     0.039 A 
ATOM     32  C   UNL     1       2.027  -7.932   4.931  1.00  0.00     0.014 A 
ATOM     33  C   UNL     1       2.102  -6.313   6.723  1.00  0.00     0.014 A 
ATOM     34  C   UNL     1       3.305  -8.394   5.273  1.00  0.00     0.010 A 
ATOM     35  C   UNL     1       3.394  -6.726   7.022  1.00  0.00     0.010 A 
ATOM     36  C   UNL     1       4.006  -7.774   6.311  1.00  0.00    -0.014 A 
BRANCH  36  37
ATOM     37  C   UNL     1       5.335  -8.226   6.799  1.00  0.00     0.031 A 
ATOM     38  C   UNL     1       5.436  -8.684   8.227  1.00  0.00     0.074 A 
ATOM     39  C   UNL     1       6.445  -8.054   6.060  1.00  0.00     0.049 A 
ATOM     40  N   UNL     1       6.471  -8.724   9.021  1.00  0.00    -0.248 NA
ATOM     41  C   UNL     1       4.165  -9.067   8.860  1.00  0.00     0.031 C 
ATOM     42  C   UNL     1       6.485  -7.625   4.663  1.00  0.00     0.029 A 
ATOM     43  N   UNL     1       7.766  -8.173   6.413  1.00  0.00    -0.354 N 
ATOM     44  C   UNL     1       5.966  -9.062  10.272  1.00  0.00     0.074 A 
ATOM     45  C   UNL     1       4.527  -9.166  10.129  1.00  0.00     0.031 C 
ATOM     46  C   UNL     1       7.768  -7.498   4.282  1.00  0.00     0.029 A 
ATOM     47  C   UNL     1       8.636  -7.778   5.423  1.00  0.00     0.049 A 
ATOM     48  H   UNL     1       8.063  -8.508   7.290  1.00  0.00     0.167 HD
ATOM     49  C   UNL     1       6.643  -9.275  11.428  1.00  0.00     0.034 A 
ATOM     50  C   UNL     1       9.974  -7.622   5.452  1.00  0.00     0.034 A 
ATOM     51  C   UNL     1       8.080  -9.226  11.524  1.00  0.00     0.049 A 
ATOM     52  C   UNL     1      10.717  -7.888   6.740  1.00  0.00     0.074 A 
ATOM     53  C   UNL     1       8.884  -9.498  12.617  1.00  0.00     0.029 A 
ATOM     54  N   UNL     1       8.932  -8.896  10.477  1.00  0.00    -0.354 N 
ATOM     55  N   UNL     1      10.240  -8.205   7.922  1.00  0.00    -0.248 NA
ATOM     56  C   UNL     1      12.181  -7.777   6.694  1.00  0.00     0.031 C 
ATOM     57  C   UNL     1      10.216  -9.287  12.244  1.00  0.00     0.029 A 
ATOM     58  C   UNL     1      10.250  -8.948  10.900  1.00  0.00     0.049 A 
ATOM     59  H   UNL     1       8.641  -8.661   9.566  1.00  0.00     0.167 HD
ATOM     60  C   UNL     1      11.349  -8.368   8.749  1.00  0.00     0.074 A 
ATOM     61  C   UNL     1      12.517  -8.119   7.929  1.00  0.00     0.031 C 
ATOM     62  C   UNL     1      11.402  -8.701  10.064  1.00  0.00     0.034 A 
BRANCH  49  63
ATOM     63  C   UNL     1       5.824  -9.545  12.668  1.00  0.00     0.023 A 
ATOM     64  C   UNL     1       4.949 -10.642  12.748  1.00  0.00     0.031 A 
ATOM     65  C   UNL     1       5.856  -8.652  13.753  1.00  0.00     0.131 A 
ATOM     66  C   UNL     1       4.058 -10.749  13.825  1.00  0.00     0.055 A 
ATOM     67  C   UNL     1       5.041  -8.825  14.874  1.00  0.00     0.041 A 
ATOM     68  F   UNL     1       6.656  -7.574  13.730  1.00  0.00    -0.206 F 
ATOM     69  C   UNL     1       4.116  -9.865  14.904  1.00  0.00     0.022 A 
BRANCH  66  70
ATOM     70  S   UNL     1       2.692 -11.936  13.693  1.00  0.00     0.124 S 
ATOM     71  O   UNL     1       2.010 -11.461  12.491  1.00  0.00    -0.237 OA
ATOM     72  O   UNL     1       3.394 -13.210  13.566  1.00  0.00    -0.237 OA
ATOM     73  O   UNL     1       1.953 -11.749  14.938  1.00  0.00    -0.744 OA
ENDBRANCH  66  70
ENDBRANCH  49  63
BRANCH  50  74
ATOM     74  C   UNL     1      10.710  -7.175   4.237  1.00  0.00     0.023 A 
ATOM     75  C   UNL     1      11.602  -8.042   3.588  1.00  0.00     0.031 A 
ATOM     76  C   UNL     1      10.574  -5.869   3.736  1.00  0.00     0.131 A 
ATOM     77  C   UNL     1      12.366  -7.578   2.507  1.00  0.00     0.055 A 
ATOM     78  C   UNL     1      11.301  -5.427   2.629  1.00  0.00     0.041 A 
ATOM     79  F   UNL     1       9.725  -5.004   4.315  1.00  0.00    -0.206 F 
ATOM     80  C   UNL     1      12.214  -6.280   2.016  1.00  0.00     0.022 A 
BRANCH  77  81
ATOM     81  S   UNL     1      13.622  -8.680   1.801  1.00  0.00     0.124 S 
ATOM     82  O   UNL     1      14.489  -8.914   2.950  1.00  0.00    -0.237 OA
ATOM     83  O   UNL     1      12.816  -9.814   1.362  1.00  0.00    -0.237 OA
ATOM     84  O   UNL     1      14.207  -7.881   0.726  1.00  0.00    -0.744 OA
ENDBRANCH  77  81
ENDBRANCH  50  74
BRANCH  62  85
ATOM     85  C   UNL     1      12.769  -8.883  10.676  1.00  0.00     0.023 A 
ATOM     86  C   UNL     1      13.645  -7.802  10.876  1.00  0.00     0.031 A 
ATOM     87  C   UNL     1      13.195 -10.164  11.070  1.00  0.00     0.131 A 
ATOM     88  C   UNL     1      14.921  -8.030  11.414  1.00  0.00     0.055 A 
ATOM     89  C   UNL     1      14.443 -10.376  11.656  1.00  0.00     0.041 A 
ATOM     90  F   UNL     1      12.397 -11.231  10.901  1.00  0.00    -0.206 F 
ATOM     91  C   UNL     1      15.319  -9.307  11.820  1.00  0.00     0.022 A 
BRANCH  88  92
ATOM     92  S   UNL     1      16.087  -6.644  11.508  1.00  0.00     0.124 S 
ATOM     93  O   UNL     1      16.186  -6.234  10.111  1.00  0.00    -0.237 OA
ATOM     94  O   UNL     1      15.398  -5.715  12.398  1.00  0.00    -0.237 OA
ATOM     95  O   UNL     1      17.296  -7.250  12.064  1.00  0.00    -0.744 OA
ENDBRANCH  88  92
ENDBRANCH  62  85
ENDBRANCH  36  37
ENDBRANCH  28  31
ENDBRANCH  26  27
ENDBRANCH  25  26
ENDBRANCH   1  25
TORSDOF 20
