REMARK SMILES COC(=O)c1ccc(Cl)c(-c2ccc(F)cc2C(=O)NCCCNC(=O)c2ccc(-c3c4nc(c(-c5cc(S(=O)(=O)[O-])ccc5F)c5ccc([nH]5)c(-c5cc(S(=O)(=O)[O-])ccc5F)c5nc(c(-c6cc(S(=O)(=O)[O-])ccc6F)c6ccc3[nH]6)C=C5)C=C4)cc2)c1
REMARK SMILES IDX 22 1 21 2 20 3 18 4 19 5 17 7 11 8 12 9 13 10 16 11 14 12
REMARK SMILES IDX 15 13 10 14 5 15 6 16 90 17 7 18 8 19 9 20 3 21 4 22 2 23
REMARK SMILES IDX 1 24 23 25 24 26 25 27 26 29 27 30 28 31 89 32 29 33 88 34
REMARK SMILES IDX 30 35 31 36 32 37 82 38 33 39 87 40 81 41 83 42 34 43 86 44
REMARK SMILES IDX 80 45 79 46 35 48 67 49 47 50 66 51 48 52 51 53 65 54 84 55
REMARK SMILES IDX 49 56 50 57 64 59 85 60 52 61 36 62 37 63 45 64 38 65 44 66
REMARK SMILES IDX 46 67 43 68 39 69 40 70 41 71 42 72 68 73 69 74 77 75 70 76
REMARK SMILES IDX 76 77 78 78 75 79 71 80 72 81 73 82 74 83 53 84 54 85 62 86
REMARK SMILES IDX 55 87 61 88 63 89 60 90 56 91 57 92 58 93 59 94
REMARK H PARENT 20 6 24 28 83 47 51 58
REMARK Flexibility Score: inf
ROOT
ATOM      1  C   UNL     1       0.235  -5.844  -0.964  1.00  0.00     0.042 C 
ENDROOT
BRANCH   1   2
ATOM      2  C   UNL     1       0.925  -5.346  -2.222  1.00  0.00     0.118 C 
BRANCH   2   3
ATOM      3  N   UNL     1       2.363  -5.455  -2.269  1.00  0.00    -0.352 N 
ATOM      4  C   UNL     1       3.217  -5.491  -3.344  1.00  0.00     0.252 C 
ATOM      5  O   UNL     1       4.425  -5.456  -3.094  1.00  0.00    -0.269 OA
ATOM      6  H   UNL     1       2.802  -5.513  -1.390  1.00  0.00     0.163 HD
BRANCH   4   7
ATOM      7  C   UNL     1       2.812  -5.657  -4.780  1.00  0.00     0.050 A 
ATOM      8  C   UNL     1       1.817  -4.955  -5.511  1.00  0.00    -0.004 A 
ATOM      9  C   UNL     1       1.713  -5.201  -6.904  1.00  0.00     0.012 A 
ATOM     10  C   UNL     1       2.536  -6.116  -7.559  1.00  0.00     0.040 A 
ATOM     11  C   UNL     1       3.644  -6.570  -5.470  1.00  0.00     0.053 A 
ATOM     12  C   UNL     1       3.496  -6.793  -6.832  1.00  0.00     0.124 A 
ATOM     13  F   UNL     1       4.302  -7.663  -7.454  1.00  0.00    -0.207 F 
BRANCH   8  14
ATOM     14  C   UNL     1       0.876  -3.967  -4.947  1.00  0.00     0.002 A 
ATOM     15  C   UNL     1       0.510  -1.917  -3.687  1.00  0.00     0.060 A 
ATOM     16  C   UNL     1      -0.857  -2.196  -3.579  1.00  0.00     0.017 A 
ATOM     17  C   UNL     1       1.368  -2.773  -4.392  1.00  0.00     0.026 A 
ATOM     18  C   UNL     1      -1.376  -3.331  -4.197  1.00  0.00     0.022 A 
ATOM     19  C   UNL     1      -0.523  -4.207  -4.879  1.00  0.00     0.048 A 
ATOM     20  Cl  UNL     1      -1.242  -5.656  -5.508  1.00  0.00    -0.084 Cl
BRANCH  15  21
ATOM     21  C   UNL     1       1.107  -0.780  -2.962  1.00  0.00     0.337 C 
ATOM     22  O   UNL     1       1.892   0.012  -3.450  1.00  0.00    -0.246 OA
BRANCH  21  23
ATOM     23  O   UNL     1       0.720  -0.876  -1.671  1.00  0.00    -0.465 OA
ATOM     24  C   UNL     1       1.256   0.124  -0.806  1.00  0.00     0.282 C 
ENDBRANCH  21  23
ENDBRANCH  15  21
ENDBRANCH   8  14
ENDBRANCH   4   7
ENDBRANCH   2   3
ENDBRANCH   1   2
BRANCH   1  25
ATOM     25  C   UNL     1       0.527  -5.026   0.291  1.00  0.00     0.118 C 
BRANCH  25  26
ATOM     26  N   UNL     1       0.078  -3.637   0.245  1.00  0.00    -0.352 N 
ATOM     27  C   UNL     1      -1.051  -2.970   0.660  1.00  0.00     0.251 C 
ATOM     28  H   UNL     1       0.735  -3.040  -0.181  1.00  0.00     0.163 HD
ATOM     29  O   UNL     1      -1.113  -1.758   0.451  1.00  0.00    -0.269 OA
BRANCH  27  30
ATOM     30  C   UNL     1      -2.221  -3.627   1.289  1.00  0.00     0.039 A 
ATOM     31  C   UNL     1      -3.482  -3.035   1.105  1.00  0.00     0.014 A 
ATOM     32  C   UNL     1      -2.127  -4.756   2.094  1.00  0.00     0.014 A 
ATOM     33  C   UNL     1      -4.629  -3.611   1.659  1.00  0.00     0.010 A 
ATOM     34  C   UNL     1      -3.277  -5.397   2.544  1.00  0.00     0.010 A 
ATOM     35  C   UNL     1      -4.542  -4.828   2.343  1.00  0.00    -0.014 A 
BRANCH  35  36
ATOM     36  C   UNL     1      -5.733  -5.513   2.909  1.00  0.00     0.031 A 
ATOM     37  C   UNL     1      -5.772  -5.827   4.381  1.00  0.00     0.074 A 
ATOM     38  C   UNL     1      -6.722  -5.930   2.094  1.00  0.00     0.049 A 
ATOM     39  N   UNL     1      -6.573  -6.623   5.039  1.00  0.00    -0.248 NA
ATOM     40  C   UNL     1      -4.730  -5.205   5.215  1.00  0.00     0.031 C 
ATOM     41  C   UNL     1      -6.785  -5.705   0.648  1.00  0.00     0.029 A 
ATOM     42  N   UNL     1      -7.863  -6.642   2.365  1.00  0.00    -0.354 N 
ATOM     43  C   UNL     1      -6.096  -6.644   6.346  1.00  0.00     0.074 A 
ATOM     44  C   UNL     1      -4.910  -5.816   6.376  1.00  0.00     0.031 C 
ATOM     45  C   UNL     1      -7.923  -6.230   0.168  1.00  0.00     0.029 A 
ATOM     46  C   UNL     1      -8.640  -6.884   1.256  1.00  0.00     0.049 A 
ATOM     47  H   UNL     1      -8.103  -6.950   3.269  1.00  0.00     0.167 HD
ATOM     48  C   UNL     1      -6.614  -7.279   7.424  1.00  0.00     0.034 A 
ATOM     49  C   UNL     1      -9.791  -7.572   1.129  1.00  0.00     0.034 A 
ATOM     50  C   UNL     1      -7.843  -8.028   7.387  1.00  0.00     0.049 A 
ATOM     51  C   UNL     1     -10.373  -8.234   2.348  1.00  0.00     0.074 A 
ATOM     52  C   UNL     1      -8.502  -8.657   8.428  1.00  0.00     0.029 A 
ATOM     53  N   UNL     1      -8.612  -8.226   6.247  1.00  0.00    -0.354 N 
ATOM     54  N   UNL     1      -9.894  -8.270   3.570  1.00  0.00    -0.248 NA
ATOM     55  C   UNL     1     -11.641  -8.953   2.173  1.00  0.00     0.031 C 
ATOM     56  C   UNL     1      -9.653  -9.262   7.911  1.00  0.00     0.029 A 
ATOM     57  C   UNL     1      -9.736  -8.971   6.558  1.00  0.00     0.049 A 
ATOM     58  H   UNL     1      -8.390  -7.886   5.351  1.00  0.00     0.167 HD
ATOM     59  C   UNL     1     -10.807  -9.008   4.313  1.00  0.00     0.074 A 
ATOM     60  C   UNL     1     -11.871  -9.389   3.405  1.00  0.00     0.031 C 
ATOM     61  C   UNL     1     -10.772  -9.341   5.627  1.00  0.00     0.034 A 
BRANCH  48  62
ATOM     62  C   UNL     1      -5.851  -7.192   8.722  1.00  0.00     0.023 A 
ATOM     63  C   UNL     1      -5.690  -5.973   9.401  1.00  0.00     0.031 A 
ATOM     64  C   UNL     1      -5.262  -8.341   9.279  1.00  0.00     0.131 A 
ATOM     65  C   UNL     1      -4.900  -5.916  10.558  1.00  0.00     0.055 A 
ATOM     66  C   UNL     1      -4.540  -8.292  10.473  1.00  0.00     0.041 A 
ATOM     67  F   UNL     1      -5.369  -9.530   8.664  1.00  0.00    -0.206 F 
ATOM     68  C   UNL     1      -4.345  -7.072  11.114  1.00  0.00     0.022 A 
BRANCH  65  69
ATOM     69  S   UNL     1      -4.521  -4.293  11.271  1.00  0.00     0.124 S 
ATOM     70  O   UNL     1      -3.671  -3.712  10.235  1.00  0.00    -0.237 OA
ATOM     71  O   UNL     1      -5.842  -3.694  11.421  1.00  0.00    -0.237 OA
ATOM     72  O   UNL     1      -3.839  -4.620  12.522  1.00  0.00    -0.744 OA
ENDBRANCH  65  69
ENDBRANCH  48  62
BRANCH  49  73
ATOM     73  C   UNL     1     -10.458  -7.669  -0.197  1.00  0.00     0.023 A 
ATOM     74  C   UNL     1     -11.647  -6.969  -0.451  1.00  0.00     0.031 A 
ATOM     75  C   UNL     1      -9.904  -8.436  -1.237  1.00  0.00     0.131 A 
ATOM     76  C   UNL     1     -12.255  -7.061  -1.713  1.00  0.00     0.055 A 
ATOM     77  C   UNL     1     -10.495  -8.499  -2.500  1.00  0.00     0.041 A 
ATOM     78  F   UNL     1      -8.758  -9.109  -1.046  1.00  0.00    -0.206 F 
ATOM     79  C   UNL     1     -11.681  -7.812  -2.742  1.00  0.00     0.022 A 
BRANCH  76  80
ATOM     80  S   UNL     1     -13.821  -6.188  -1.990  1.00  0.00     0.124 S 
ATOM     81  O   UNL     1     -14.714  -6.880  -1.067  1.00  0.00    -0.237 OA
ATOM     82  O   UNL     1     -13.472  -4.816  -1.639  1.00  0.00    -0.237 OA
ATOM     83  O   UNL     1     -14.090  -6.415  -3.409  1.00  0.00    -0.744 OA
ENDBRANCH  76  80
ENDBRANCH  49  73
BRANCH  61  84
ATOM     84  C   UNL     1     -11.927 -10.139   6.163  1.00  0.00     0.023 A 
ATOM     85  C   UNL     1     -12.053 -11.508   5.885  1.00  0.00     0.031 A 
ATOM     86  C   UNL     1     -12.874  -9.532   7.005  1.00  0.00     0.131 A 
ATOM     87  C   UNL     1     -13.124 -12.229   6.430  1.00  0.00     0.055 A 
ATOM     88  C   UNL     1     -13.914 -10.262   7.577  1.00  0.00     0.041 A 
ATOM     89  F   UNL     1     -12.786  -8.225   7.301  1.00  0.00    -0.206 F 
ATOM     90  C   UNL     1     -14.045 -11.619   7.288  1.00  0.00     0.022 A 
BRANCH  87  91
ATOM     91  S   UNL     1     -13.309 -13.979   5.994  1.00  0.00     0.124 S 
ATOM     92  O   UNL     1     -13.636 -13.901   4.574  1.00  0.00    -0.237 OA
ATOM     93  O   UNL     1     -11.996 -14.527   6.317  1.00  0.00    -0.237 OA
ATOM     94  O   UNL     1     -14.397 -14.434   6.858  1.00  0.00    -0.744 OA
ENDBRANCH  87  91
ENDBRANCH  61  84
ENDBRANCH  35  36
ENDBRANCH  27  30
ENDBRANCH  25  26
ENDBRANCH   1  25
TORSDOF 16
