REMARK SMILES O=C(NCCCNC(=O)c1ccccc1/N=C/c1coc2ccccc2c1=O)c1ccc(-c2c3nc(c(-c4cc(S(=O)(=O)[O-])ccc4F)c4ccc([nH]4)c(-c4cc(S(=O)(=O)[O-])ccc4F)c4nc(c(-c5cc(S(=O)(=O)[O-])ccc5F)c5ccc2[nH]5)C=C4)C=C3)cc1
REMARK SMILES IDX 4 1 3 2 1 3 2 4 29 6 30 7 91 8 31 9 90 10 32 11 33 12 34 13
REMARK SMILES IDX 84 14 35 15 89 16 83 17 85 18 36 19 88 20 82 21 81 22 37 24
REMARK SMILES IDX 69 25 49 26 68 27 50 28 53 29 67 30 86 31 51 32 52 33 66 35
REMARK SMILES IDX 87 36 54 37 38 38 39 39 47 40 40 41 46 42 48 43 45 44 41 45
REMARK SMILES IDX 42 46 43 47 44 48 70 49 71 50 79 51 72 52 78 53 80 54 77 55
REMARK SMILES IDX 73 56 74 57 75 58 76 59 55 60 56 61 64 62 57 63 63 64 65 65
REMARK SMILES IDX 62 66 58 67 59 68 60 69 61 70 5 71 6 72 7 73 8 74 9 76 10 77
REMARK SMILES IDX 11 78 15 79 12 80 14 81 13 82 16 83 17 84 18 85 19 86 27 87
REMARK SMILES IDX 20 88 26 89 28 90 21 91 25 92 22 93 24 94 23 95
REMARK H PARENT 3 5 85 23 53 34 7 75
REMARK Flexibility Score: inf
ROOT
ATOM      1  C   UNL     1       5.317   0.353  -1.352  1.00  0.00     0.118 C 
ENDROOT
BRANCH   1   2
ATOM      2  N   UNL     1       3.862   0.323  -1.380  1.00  0.00    -0.352 N 
ATOM      3  O   UNL     1       1.787  -0.136  -0.585  1.00  0.00    -0.269 OA
ATOM      4  C   UNL     1       3.003  -0.167  -0.412  1.00  0.00     0.251 C 
ATOM      5  H   UNL     1       3.438   0.696  -2.186  1.00  0.00     0.163 HD
BRANCH   4   6
ATOM      6  C   UNL     1       3.541  -0.802   0.823  1.00  0.00     0.039 A 
ATOM      7  C   UNL     1       4.592  -0.238   1.548  1.00  0.00     0.014 A 
ATOM      8  C   UNL     1       2.996  -2.023   1.239  1.00  0.00     0.014 A 
ATOM      9  C   UNL     1       5.220  -0.978   2.551  1.00  0.00     0.010 A 
ATOM     10  C   UNL     1       3.583  -2.735   2.293  1.00  0.00     0.010 A 
ATOM     11  C   UNL     1       4.747  -2.252   2.909  1.00  0.00    -0.014 A 
BRANCH  11  12
ATOM     12  C   UNL     1       5.545  -3.085   3.850  1.00  0.00     0.031 A 
ATOM     13  C   UNL     1       6.254  -4.323   3.357  1.00  0.00     0.074 A 
ATOM     14  C   UNL     1       5.718  -2.686   5.124  1.00  0.00     0.049 A 
ATOM     15  N   UNL     1       7.052  -5.135   4.006  1.00  0.00    -0.248 NA
ATOM     16  C   UNL     1       6.023  -4.708   1.957  1.00  0.00     0.031 C 
ATOM     17  C   UNL     1       5.084  -1.520   5.742  1.00  0.00     0.029 A 
ATOM     18  N   UNL     1       6.522  -3.194   6.114  1.00  0.00    -0.354 N 
ATOM     19  C   UNL     1       7.376  -6.151   3.113  1.00  0.00     0.074 A 
ATOM     20  C   UNL     1       6.690  -5.850   1.873  1.00  0.00     0.031 C 
ATOM     21  C   UNL     1       5.580  -1.358   6.980  1.00  0.00     0.029 A 
ATOM     22  C   UNL     1       6.550  -2.416   7.246  1.00  0.00     0.049 A 
ATOM     23  H   UNL     1       7.028  -4.033   6.022  1.00  0.00     0.167 HD
ATOM     24  C   UNL     1       8.163  -7.239   3.304  1.00  0.00     0.034 A 
ATOM     25  C   UNL     1       7.296  -2.524   8.361  1.00  0.00     0.034 A 
ATOM     26  C   UNL     1       8.883  -7.521   4.520  1.00  0.00     0.049 A 
ATOM     27  C   UNL     1       8.279  -3.649   8.496  1.00  0.00     0.074 A 
ATOM     28  C   UNL     1       9.671  -8.617   4.832  1.00  0.00     0.029 A 
ATOM     29  N   UNL     1       8.925  -6.678   5.621  1.00  0.00    -0.354 N 
ATOM     30  N   UNL     1       8.513  -4.640   7.670  1.00  0.00    -0.248 NA
ATOM     31  C   UNL     1       9.101  -3.666   9.714  1.00  0.00     0.031 C 
ATOM     32  C   UNL     1      10.183  -8.440   6.125  1.00  0.00     0.029 A 
ATOM     33  C   UNL     1       9.737  -7.220   6.604  1.00  0.00     0.049 A 
ATOM     34  H   UNL     1       8.448  -5.820   5.693  1.00  0.00     0.167 HD
ATOM     35  C   UNL     1       9.492  -5.414   8.281  1.00  0.00     0.074 A 
ATOM     36  C   UNL     1       9.829  -4.759   9.529  1.00  0.00     0.031 C 
ATOM     37  C   UNL     1      10.049  -6.573   7.852  1.00  0.00     0.034 A 
BRANCH  24  38
ATOM     38  C   UNL     1       8.223  -8.237   2.179  1.00  0.00     0.023 A 
ATOM     39  C   UNL     1       8.918  -7.969   0.988  1.00  0.00     0.031 A 
ATOM     40  C   UNL     1       7.522  -9.451   2.283  1.00  0.00     0.131 A 
ATOM     41  C   UNL     1       8.848  -8.880  -0.077  1.00  0.00     0.055 A 
ATOM     42  C   UNL     1       7.503 -10.379   1.241  1.00  0.00     0.041 A 
ATOM     43  F   UNL     1       6.824  -9.742   3.392  1.00  0.00    -0.206 F 
ATOM     44  C   UNL     1       8.159 -10.090   0.048  1.00  0.00     0.022 A 
BRANCH  41  45
ATOM     45  S   UNL     1       9.575  -8.413  -1.672  1.00  0.00     0.124 S 
ATOM     46  O   UNL     1       8.781  -7.239  -2.027  1.00  0.00    -0.237 OA
ATOM     47  O   UNL     1      10.968  -8.160  -1.323  1.00  0.00    -0.237 OA
ATOM     48  O   UNL     1       9.346  -9.588  -2.510  1.00  0.00    -0.744 OA
ENDBRANCH  41  45
ENDBRANCH  24  38
BRANCH  25  49
ATOM     49  C   UNL     1       7.153  -1.518   9.440  1.00  0.00     0.023 A 
ATOM     50  C   UNL     1       8.045  -0.441   9.536  1.00  0.00     0.031 A 
ATOM     51  C   UNL     1       6.118  -1.624  10.381  1.00  0.00     0.131 A 
ATOM     52  C   UNL     1       7.893   0.493  10.571  1.00  0.00     0.055 A 
ATOM     53  C   UNL     1       5.965  -0.687  11.403  1.00  0.00     0.041 A 
ATOM     54  F   UNL     1       5.239  -2.635  10.309  1.00  0.00    -0.206 F 
ATOM     55  C   UNL     1       6.857   0.378  11.504  1.00  0.00     0.022 A 
BRANCH  52  56
ATOM     56  S   UNL     1       9.074   1.864  10.685  1.00  0.00     0.124 S 
ATOM     57  O   UNL     1      10.336   1.159  10.880  1.00  0.00    -0.237 OA
ATOM     58  O   UNL     1       8.900   2.521   9.394  1.00  0.00    -0.237 OA
ATOM     59  O   UNL     1       8.601   2.627  11.838  1.00  0.00    -0.744 OA
ENDBRANCH  52  56
ENDBRANCH  25  49
BRANCH  37  60
ATOM     60  C   UNL     1      11.068  -7.204   8.754  1.00  0.00     0.023 A 
ATOM     61  C   UNL     1      10.674  -7.941   9.883  1.00  0.00     0.031 A 
ATOM     62  C   UNL     1      12.439  -7.055   8.493  1.00  0.00     0.131 A 
ATOM     63  C   UNL     1      11.647  -8.485  10.732  1.00  0.00     0.055 A 
ATOM     64  C   UNL     1      13.404  -7.613   9.332  1.00  0.00     0.041 A 
ATOM     65  F   UNL     1      12.858  -6.353   7.428  1.00  0.00    -0.206 F 
ATOM     66  C   UNL     1      13.010  -8.326  10.463  1.00  0.00     0.022 A 
BRANCH  63  67
ATOM     67  S   UNL     1      11.112  -9.356  12.231  1.00  0.00     0.124 S 
ATOM     68  O   UNL     1      10.260  -8.363  12.879  1.00  0.00    -0.237 OA
ATOM     69  O   UNL     1      10.430 -10.523  11.683  1.00  0.00    -0.237 OA
ATOM     70  O   UNL     1      12.365  -9.641  12.927  1.00  0.00    -0.744 OA
ENDBRANCH  63  67
ENDBRANCH  37  60
ENDBRANCH  11  12
ENDBRANCH   4   6
ENDBRANCH   1   2
BRANCH   1  71
ATOM     71  C   UNL     1       6.022   0.229  -2.699  1.00  0.00     0.042 C 
BRANCH  71  72
ATOM     72  C   UNL     1       5.755   1.319  -3.727  1.00  0.00     0.118 C 
BRANCH  72  73
ATOM     73  N   UNL     1       5.897   2.676  -3.228  1.00  0.00    -0.352 N 
ATOM     74  C   UNL     1       6.314   3.791  -3.908  1.00  0.00     0.253 C 
ATOM     75  H   UNL     1       5.664   2.812  -2.281  1.00  0.00     0.163 HD
ATOM     76  O   UNL     1       6.295   4.896  -3.371  1.00  0.00    -0.269 OA
BRANCH  74  77
ATOM     77  C   UNL     1       6.817   3.690  -5.289  1.00  0.00     0.065 A 
ATOM     78  C   UNL     1       8.172   4.000  -5.486  1.00  0.00     0.016 A 
ATOM     79  C   UNL     1       6.003   3.340  -6.375  1.00  0.00     0.076 A 
ATOM     80  C   UNL     1       8.736   3.915  -6.759  1.00  0.00     0.001 A 
ATOM     81  C   UNL     1       6.594   3.257  -7.645  1.00  0.00     0.029 A 
ATOM     82  C   UNL     1       7.946   3.540  -7.841  1.00  0.00     0.002 A 
BRANCH  79  83
ATOM     83  N   UNL     1       4.679   2.900  -6.309  1.00  0.00    -0.255 NA
ATOM     84  C   UNL     1       3.744   3.562  -5.708  1.00  0.00     0.127 C 
BRANCH  84  85
ATOM     85  C   UNL     1       2.408   2.941  -5.731  1.00  0.00     0.076 A 
ATOM     86  C   UNL     1       1.720   3.167  -6.862  1.00  0.00     0.209 A 
ATOM     87  C   UNL     1       2.202   1.624  -5.087  1.00  0.00     0.201 A 
ATOM     88  O   UNL     1       0.877   2.241  -7.453  1.00  0.00    -0.463 OA
ATOM     89  C   UNL     1       1.873   0.553  -6.039  1.00  0.00     0.065 A 
ATOM     90  O   UNL     1       2.403   1.428  -3.896  1.00  0.00    -0.288 OA
ATOM     91  C   UNL     1       1.240   0.928  -7.227  1.00  0.00     0.137 A 
ATOM     92  C   UNL     1       2.316  -0.753  -5.840  1.00  0.00     0.016 A 
ATOM     93  C   UNL     1       1.040  -0.009  -8.234  1.00  0.00     0.048 A 
ATOM     94  C   UNL     1       2.146  -1.684  -6.864  1.00  0.00     0.001 A 
ATOM     95  C   UNL     1       1.512  -1.313  -8.056  1.00  0.00     0.004 A 
ENDBRANCH  84  85
ENDBRANCH  79  83
ENDBRANCH  74  77
ENDBRANCH  72  73
ENDBRANCH  71  72
ENDBRANCH   1  71
TORSDOF 15
