REMARK SMILES O=C(NCCCNC(=O)c1ccc(-c2c3nc(c(-c4cc(S(=O)(=O)[O-])ccc4F)c4ccc([nH]4)c(-c4cc(S(=O)(=O)[O-])ccc4F)c4nc(c(-c5cc(S(=O)(=O)[O-])ccc5F)c5ccc2[nH]5)C=C4)C=C3)cc1)c1ccc(-c2ccsc2)cc1
REMARK SMILES IDX 6 1 5 2 4 3 3 4 1 5 2 6 73 8 74 9 83 10 75 11 82 12 76 13
REMARK SMILES IDX 77 14 78 15 81 16 79 17 80 18 7 19 8 20 9 22 10 23 11 24
REMARK SMILES IDX 72 25 12 26 71 27 13 28 14 29 15 30 65 31 16 32 70 33 64 34
REMARK SMILES IDX 66 35 17 36 69 37 63 38 62 39 18 41 50 42 30 43 49 44 31 45
REMARK SMILES IDX 34 46 48 47 67 48 32 49 33 50 47 52 68 53 35 54 19 55 20 56
REMARK SMILES IDX 28 57 21 58 27 59 29 60 26 61 22 62 23 63 24 64 25 65 51 66
REMARK SMILES IDX 52 67 60 68 53 69 59 70 61 71 58 72 54 73 55 74 56 75 57 76
REMARK SMILES IDX 36 77 37 78 45 79 38 80 44 81 46 82 43 83 39 84 40 85 41 86
REMARK SMILES IDX 42 87
REMARK H PARENT 3 7 7 21 66 40 34 51
REMARK Flexibility Score: inf
ROOT
ATOM      1  C   UNL     1       4.329  -2.807  -2.371  1.00  0.00     0.118 C 
ENDROOT
BRANCH   1   2
ATOM      2  C   UNL     1       4.876  -2.040  -1.174  1.00  0.00     0.042 C 
BRANCH   2   3
ATOM      3  C   UNL     1       4.494  -0.566  -1.138  1.00  0.00     0.118 C 
BRANCH   3   4
ATOM      4  N   UNL     1       3.060  -0.356  -0.992  1.00  0.00    -0.352 N 
ATOM      5  O   UNL     1       1.117   0.079   0.074  1.00  0.00    -0.269 OA
ATOM      6  C   UNL     1       2.345   0.113   0.082  1.00  0.00     0.251 C 
ATOM      7  H   UNL     1       2.521  -0.585  -1.783  1.00  0.00     0.163 HD
BRANCH   6   8
ATOM      8  C   UNL     1       3.051   0.643   1.266  1.00  0.00     0.039 A 
ATOM      9  C   UNL     1       4.029   1.633   1.136  1.00  0.00     0.014 A 
ATOM     10  C   UNL     1       2.716   0.147   2.528  1.00  0.00     0.014 A 
ATOM     11  C   UNL     1       4.752   2.045   2.256  1.00  0.00     0.009 A 
ATOM     12  C   UNL     1       3.428   0.576   3.651  1.00  0.00     0.009 A 
ATOM     13  C   UNL     1       4.469   1.508   3.520  1.00  0.00    -0.018 A 
BRANCH  13  14
ATOM     14  C   UNL     1       5.277   1.873   4.678  1.00  0.00    -0.008 A 
ATOM     15  C   UNL     1       5.796   0.986   5.676  1.00  0.00     0.020 A 
ATOM     16  C   UNL     1       5.663   3.176   4.926  1.00  0.00     0.073 A 
ATOM     17  C   UNL     1       6.556   1.639   6.621  1.00  0.00     0.065 A 
ATOM     18  S   UNL     1       6.637   3.320   6.326  1.00  0.00    -0.152 S 
ENDBRANCH  13  14
ENDBRANCH   6   8
ENDBRANCH   3   4
ENDBRANCH   2   3
ENDBRANCH   1   2
BRANCH   1  19
ATOM     19  N   UNL     1       4.797  -2.279  -3.646  1.00  0.00    -0.352 N 
ATOM     20  C   UNL     1       5.588  -2.841  -4.618  1.00  0.00     0.251 C 
ATOM     21  H   UNL     1       4.495  -1.363  -3.844  1.00  0.00     0.163 HD
ATOM     22  O   UNL     1       6.002  -2.127  -5.529  1.00  0.00    -0.269 OA
BRANCH  20  23
ATOM     23  C   UNL     1       5.967  -4.273  -4.568  1.00  0.00     0.039 A 
ATOM     24  C   UNL     1       7.261  -4.639  -4.950  1.00  0.00     0.014 A 
ATOM     25  C   UNL     1       5.057  -5.258  -4.179  1.00  0.00     0.014 A 
ATOM     26  C   UNL     1       7.663  -5.976  -4.864  1.00  0.00     0.010 A 
ATOM     27  C   UNL     1       5.483  -6.575  -4.011  1.00  0.00     0.010 A 
ATOM     28  C   UNL     1       6.792  -6.949  -4.349  1.00  0.00    -0.014 A 
BRANCH  28  29
ATOM     29  C   UNL     1       7.234  -8.356  -4.149  1.00  0.00     0.031 A 
ATOM     30  C   UNL     1       6.558  -9.478  -4.892  1.00  0.00     0.074 A 
ATOM     31  C   UNL     1       8.195  -8.629  -3.243  1.00  0.00     0.049 A 
ATOM     32  N   UNL     1       6.739 -10.770  -4.785  1.00  0.00    -0.248 NA
ATOM     33  C   UNL     1       5.519  -9.098  -5.861  1.00  0.00     0.031 C 
ATOM     34  C   UNL     1       8.893  -7.633  -2.425  1.00  0.00     0.029 A 
ATOM     35  N   UNL     1       8.744  -9.823  -2.846  1.00  0.00    -0.354 N 
ATOM     36  C   UNL     1       5.827 -11.357  -5.655  1.00  0.00     0.074 A 
ATOM     37  C   UNL     1       5.056 -10.279  -6.241  1.00  0.00     0.031 C 
ATOM     38  C   UNL     1       9.789  -8.255  -1.643  1.00  0.00     0.029 A 
ATOM     39  C   UNL     1       9.700  -9.694  -1.864  1.00  0.00     0.049 A 
ATOM     40  H   UNL     1       8.479 -10.691  -3.228  1.00  0.00     0.167 HD
ATOM     41  C   UNL     1       5.661 -12.669  -5.955  1.00  0.00     0.034 A 
ATOM     42  C   UNL     1      10.414 -10.628  -1.205  1.00  0.00     0.034 A 
ATOM     43  C   UNL     1       6.452 -13.730  -5.379  1.00  0.00     0.049 A 
ATOM     44  C   UNL     1      10.208 -12.081  -1.551  1.00  0.00     0.074 A 
ATOM     45  C   UNL     1       6.412 -15.085  -5.662  1.00  0.00     0.029 A 
ATOM     46  N   UNL     1       7.422 -13.560  -4.399  1.00  0.00    -0.354 N 
ATOM     47  N   UNL     1       9.379 -12.613  -2.419  1.00  0.00    -0.248 NA
ATOM     48  C   UNL     1      11.042 -13.057  -0.839  1.00  0.00     0.031 C 
ATOM     49  C   UNL     1       7.309 -15.739  -4.809  1.00  0.00     0.029 A 
ATOM     50  C   UNL     1       7.964 -14.786  -4.046  1.00  0.00     0.049 A 
ATOM     51  H   UNL     1       7.686 -12.694  -4.012  1.00  0.00     0.167 HD
ATOM     52  C   UNL     1       9.615 -13.984  -2.377  1.00  0.00     0.074 A 
ATOM     53  C   UNL     1      10.675 -14.193  -1.412  1.00  0.00     0.031 C 
ATOM     54  C   UNL     1       9.014 -14.981  -3.075  1.00  0.00     0.034 A 
BRANCH  41  55
ATOM     55  C   UNL     1       4.567 -13.030  -6.932  1.00  0.00     0.023 A 
ATOM     56  C   UNL     1       4.599 -12.599  -8.270  1.00  0.00     0.031 A 
ATOM     57  C   UNL     1       3.471 -13.807  -6.518  1.00  0.00     0.131 A 
ATOM     58  C   UNL     1       3.525 -12.886  -9.125  1.00  0.00     0.055 A 
ATOM     59  C   UNL     1       2.442 -14.157  -7.396  1.00  0.00     0.041 A 
ATOM     60  F   UNL     1       3.374 -14.232  -5.249  1.00  0.00    -0.206 F 
ATOM     61  C   UNL     1       2.458 -13.684  -8.705  1.00  0.00     0.022 A 
BRANCH  58  62
ATOM     62  S   UNL     1       3.478 -12.093 -10.755  1.00  0.00     0.124 S 
ATOM     63  O   UNL     1       3.472 -10.677 -10.393  1.00  0.00    -0.237 OA
ATOM     64  O   UNL     1       4.699 -12.587 -11.382  1.00  0.00    -0.237 OA
ATOM     65  O   UNL     1       2.233 -12.584 -11.341  1.00  0.00    -0.744 OA
ENDBRANCH  58  62
ENDBRANCH  41  55
BRANCH  42  66
ATOM     66  C   UNL     1      11.381 -10.231  -0.141  1.00  0.00     0.023 A 
ATOM     67  C   UNL     1      12.757 -10.468  -0.289  1.00  0.00     0.031 A 
ATOM     68  C   UNL     1      10.938  -9.652   1.062  1.00  0.00     0.131 A 
ATOM     69  C   UNL     1      13.635 -10.177   0.767  1.00  0.00     0.055 A 
ATOM     70  C   UNL     1      11.822  -9.313   2.087  1.00  0.00     0.041 A 
ATOM     71  F   UNL     1       9.633  -9.398   1.253  1.00  0.00    -0.206 F 
ATOM     72  C   UNL     1      13.178  -9.589   1.949  1.00  0.00     0.022 A 
BRANCH  69  73
ATOM     73  S   UNL     1      15.375 -10.664   0.608  1.00  0.00     0.124 S 
ATOM     74  O   UNL     1      15.261 -12.097   0.365  1.00  0.00    -0.237 OA
ATOM     75  O   UNL     1      15.813  -9.853  -0.523  1.00  0.00    -0.237 OA
ATOM     76  O   UNL     1      15.950 -10.293   1.899  1.00  0.00    -0.744 OA
ENDBRANCH  69  73
ENDBRANCH  42  66
BRANCH  54  77
ATOM     77  C   UNL     1       9.527 -16.382  -2.847  1.00  0.00     0.023 A 
ATOM     78  C   UNL     1       9.360 -17.041  -1.617  1.00  0.00     0.031 A 
ATOM     79  C   UNL     1      10.209 -17.059  -3.874  1.00  0.00     0.131 A 
ATOM     80  C   UNL     1       9.916 -18.315  -1.425  1.00  0.00     0.055 A 
ATOM     81  C   UNL     1      10.708 -18.350  -3.697  1.00  0.00     0.041 A 
ATOM     82  F   UNL     1      10.399 -16.476  -5.068  1.00  0.00    -0.206 F 
ATOM     83  C   UNL     1      10.575 -18.980  -2.463  1.00  0.00     0.022 A 
BRANCH  80  84
ATOM     84  S   UNL     1       9.848 -19.055   0.229  1.00  0.00     0.124 S 
ATOM     85  O   UNL     1      10.545 -18.060   1.036  1.00  0.00    -0.237 OA
ATOM     86  O   UNL     1       8.412 -19.172   0.460  1.00  0.00    -0.237 OA
ATOM     87  O   UNL     1      10.554 -20.325   0.065  1.00  0.00    -0.744 OA
ENDBRANCH  80  84
ENDBRANCH  54  77
ENDBRANCH  28  29
ENDBRANCH  20  23
ENDBRANCH   1  19
TORSDOF 14
