REMARK SMILES Cn1ccc(C(=O)NCc2ccc(C(=O)NCCCNC(=O)c3ccc(-c4c5nc(c(-c6cc(S(=O)(=O)[O-])ccc6F)c6ccc([nH]6)c(-c6cc(S(=O)(=O)[O-])ccc6F)c6nc(c(-c7cc(S(=O)(=O)[O-])ccc7F)c7ccc4[nH]7)C=C6)C=C5)cc3)cc2)cc1=O
REMARK SMILES IDX 18 1 17 2 16 3 14 4 15 5 13 7 10 8 11 9 87 10 12 11 86 12
REMARK SMILES IDX 9 13 8 14 6 15 7 16 5 18 1 19 2 20 3 21 89 22 4 23 88 24
REMARK SMILES IDX 90 25 19 26 20 27 21 28 22 30 23 31 24 32 85 33 25 34 84 35
REMARK SMILES IDX 26 36 27 37 28 38 78 39 29 40 83 41 77 42 79 43 30 44 82 45
REMARK SMILES IDX 76 46 75 47 31 49 63 50 43 51 62 52 44 53 47 54 61 55 80 56
REMARK SMILES IDX 45 57 46 58 60 60 81 61 48 62 32 63 33 64 41 65 34 66 40 67
REMARK SMILES IDX 42 68 39 69 35 70 36 71 37 72 38 73 64 74 65 75 73 76 66 77
REMARK SMILES IDX 72 78 74 79 71 80 67 81 68 82 69 83 70 84 49 85 50 86 58 87
REMARK SMILES IDX 51 88 57 89 59 90 56 91 52 92 53 93 54 94 55 95
REMARK H PARENT 16 6 8 17 20 29 79 48 47 59
REMARK Flexibility Score: inf
ROOT
ATOM      1  C   UNL     1       4.882   6.623   5.428  1.00  0.00     0.042 C 
ENDROOT
BRANCH   1   2
ATOM      2  C   UNL     1       3.445   6.141   5.632  1.00  0.00     0.118 C 
BRANCH   2   3
ATOM      3  N   UNL     1       2.474   7.155   5.255  1.00  0.00    -0.352 N 
ATOM      4  C   UNL     1       1.680   7.296   4.144  1.00  0.00     0.251 C 
ATOM      5  O   UNL     1       0.835   8.192   4.154  1.00  0.00    -0.269 OA
ATOM      6  H   UNL     1       2.366   7.873   5.919  1.00  0.00     0.163 HD
BRANCH   4   7
ATOM      7  C   UNL     1       1.771   6.409   2.950  1.00  0.00     0.039 A 
ATOM      8  C   UNL     1       1.811   4.801   0.610  1.00  0.00    -0.029 A 
ATOM      9  C   UNL     1       0.641   5.463   1.000  1.00  0.00     0.006 A 
ATOM     10  C   UNL     1       2.965   4.994   1.384  1.00  0.00     0.006 A 
ATOM     11  C   UNL     1       0.621   6.252   2.160  1.00  0.00     0.014 A 
ATOM     12  C   UNL     1       2.948   5.797   2.527  1.00  0.00     0.014 A 
BRANCH   8  13
ATOM     13  C   UNL     1       1.852   3.987  -0.666  1.00  0.00     0.152 C 
BRANCH  13  14
ATOM     14  N   UNL     1       2.854   2.940  -0.598  1.00  0.00    -0.348 N 
ATOM     15  C   UNL     1       2.843   1.637  -0.231  1.00  0.00     0.251 C 
ATOM     16  O   UNL     1       3.942   1.082  -0.133  1.00  0.00    -0.269 OA
ATOM     17  H   UNL     1       3.745   3.248  -0.882  1.00  0.00     0.164 HD
BRANCH  15  18
ATOM     18  C   UNL     1       1.595   0.825  -0.060  1.00  0.00     0.046 A 
ATOM     19  C   UNL     1      -1.729  -1.820   0.067  1.00  0.00     0.153 C 
ATOM     20  N   UNL     1      -0.596  -0.909   0.072  1.00  0.00    -0.319 N 
ATOM     21  C   UNL     1       0.652  -1.411  -0.230  1.00  0.00     0.089 A 
ATOM     22  C   UNL     1      -0.792   0.431   0.394  1.00  0.00     0.251 A 
ATOM     23  C   UNL     1       1.716  -0.606  -0.301  1.00  0.00     0.032 A 
ATOM     24  C   UNL     1       0.414   1.305   0.357  1.00  0.00     0.085 A 
ATOM     25  O   UNL     1      -1.877   0.932   0.680  1.00  0.00    -0.269 OA
ENDBRANCH  15  18
ENDBRANCH  13  14
ENDBRANCH   8  13
ENDBRANCH   4   7
ENDBRANCH   2   3
ENDBRANCH   1   2
BRANCH   1  26
ATOM     26  C   UNL     1       5.360   7.608   6.490  1.00  0.00     0.118 C 
BRANCH  26  27
ATOM     27  N   UNL     1       5.546   6.968   7.783  1.00  0.00    -0.352 N 
ATOM     28  C   UNL     1       6.667   6.880   8.569  1.00  0.00     0.251 C 
ATOM     29  H   UNL     1       4.744   6.531   8.151  1.00  0.00     0.163 HD
ATOM     30  O   UNL     1       6.668   6.088   9.515  1.00  0.00    -0.269 OA
BRANCH  28  31
ATOM     31  C   UNL     1       7.864   7.704   8.290  1.00  0.00     0.039 A 
ATOM     32  C   UNL     1       9.131   7.139   8.473  1.00  0.00     0.014 A 
ATOM     33  C   UNL     1       7.751   9.041   7.900  1.00  0.00     0.014 A 
ATOM     34  C   UNL     1      10.277   7.897   8.220  1.00  0.00     0.010 A 
ATOM     35  C   UNL     1       8.893   9.773   7.578  1.00  0.00     0.010 A 
ATOM     36  C   UNL     1      10.168   9.213   7.745  1.00  0.00    -0.014 A 
BRANCH  36  37
ATOM     37  C   UNL     1      11.373  10.028   7.439  1.00  0.00     0.031 A 
ATOM     38  C   UNL     1      11.667  11.270   8.236  1.00  0.00     0.074 A 
ATOM     39  C   UNL     1      12.164   9.687   6.404  1.00  0.00     0.049 A 
ATOM     40  N   UNL     1      12.617  12.155   8.076  1.00  0.00    -0.248 NA
ATOM     41  C   UNL     1      10.744  11.569   9.339  1.00  0.00     0.031 C 
ATOM     42  C   UNL     1      11.967   8.522   5.539  1.00  0.00     0.029 A 
ATOM     43  N   UNL     1      13.289  10.289   5.899  1.00  0.00    -0.354 N 
ATOM     44  C   UNL     1      12.396  13.128   9.046  1.00  0.00     0.074 A 
ATOM     45  C   UNL     1      11.182  12.752   9.741  1.00  0.00     0.031 C 
ATOM     46  C   UNL     1      12.956   8.478   4.632  1.00  0.00     0.029 A 
ATOM     47  C   UNL     1      13.828   9.633   4.818  1.00  0.00     0.049 A 
ATOM     48  H   UNL     1      13.673  11.113   6.276  1.00  0.00     0.167 HD
ATOM     49  C   UNL     1      13.147  14.219   9.345  1.00  0.00     0.034 A 
ATOM     50  C   UNL     1      14.899   9.932   4.059  1.00  0.00     0.034 A 
ATOM     51  C   UNL     1      14.359  14.571   8.642  1.00  0.00     0.049 A 
ATOM     52  C   UNL     1      15.697  11.169   4.377  1.00  0.00     0.074 A 
ATOM     53  C   UNL     1      15.233  15.615   8.895  1.00  0.00     0.029 A 
ATOM     54  N   UNL     1      14.862  13.895   7.536  1.00  0.00    -0.354 N 
ATOM     55  N   UNL     1      15.505  12.056   5.327  1.00  0.00    -0.248 NA
ATOM     56  C   UNL     1      16.860  11.441   3.523  1.00  0.00     0.031 C 
ATOM     57  C   UNL     1      16.220  15.613   7.901  1.00  0.00     0.029 A 
ATOM     58  C   UNL     1      16.011  14.521   7.073  1.00  0.00     0.049 A 
ATOM     59  H   UNL     1      14.462  13.088   7.139  1.00  0.00     0.167 HD
ATOM     60  C   UNL     1      16.544  12.974   5.204  1.00  0.00     0.074 A 
ATOM     61  C   UNL     1      17.361  12.528   4.092  1.00  0.00     0.031 C 
ATOM     62  C   UNL     1      16.805  14.079   5.949  1.00  0.00     0.034 A 
BRANCH  49  63
ATOM     63  C   UNL     1      12.645  15.119  10.453  1.00  0.00     0.023 A 
ATOM     64  C   UNL     1      12.458  14.644  11.764  1.00  0.00     0.031 A 
ATOM     65  C   UNL     1      12.280  16.450  10.183  1.00  0.00     0.131 A 
ATOM     66  C   UNL     1      11.820  15.450  12.719  1.00  0.00     0.055 A 
ATOM     67  C   UNL     1      11.737  17.281  11.167  1.00  0.00     0.041 A 
ATOM     68  F   UNL     1      12.416  16.961   8.949  1.00  0.00    -0.206 F 
ATOM     69  C   UNL     1      11.482  16.774  12.438  1.00  0.00     0.022 A 
BRANCH  66  70
ATOM     70  S   UNL     1      11.262  14.677  14.264  1.00  0.00     0.124 S 
ATOM     71  O   UNL     1      10.430  13.585  13.763  1.00  0.00    -0.237 OA
ATOM     72  O   UNL     1      12.518  14.288  14.893  1.00  0.00    -0.237 OA
ATOM     73  O   UNL     1      10.530  15.748  14.937  1.00  0.00    -0.744 OA
ENDBRANCH  66  70
ENDBRANCH  49  63
BRANCH  50  74
ATOM     74  C   UNL     1      15.288   9.040   2.931  1.00  0.00     0.023 A 
ATOM     75  C   UNL     1      16.479   8.300   2.982  1.00  0.00     0.031 A 
ATOM     76  C   UNL     1      14.482   8.919   1.786  1.00  0.00     0.131 A 
ATOM     77  C   UNL     1      16.847   7.492   1.896  1.00  0.00     0.055 A 
ATOM     78  C   UNL     1      14.830   8.081   0.726  1.00  0.00     0.041 A 
ATOM     79  F   UNL     1      13.328   9.599   1.693  1.00  0.00    -0.206 F 
ATOM     80  C   UNL     1      16.025   7.367   0.774  1.00  0.00     0.022 A 
BRANCH  77  81
ATOM     81  S   UNL     1      18.447   6.639   1.951  1.00  0.00     0.124 S 
ATOM     82  O   UNL     1      19.378   7.758   2.035  1.00  0.00    -0.237 OA
ATOM     83  O   UNL     1      18.314   5.822   3.152  1.00  0.00    -0.237 OA
ATOM     84  O   UNL     1      18.477   5.894   0.694  1.00  0.00    -0.744 OA
ENDBRANCH  77  81
ENDBRANCH  50  74
BRANCH  62  85
ATOM     85  C   UNL     1      18.054  14.854   5.606  1.00  0.00     0.023 A 
ATOM     86  C   UNL     1      18.184  15.553   4.393  1.00  0.00     0.031 A 
ATOM     87  C   UNL     1      19.137  14.880   6.503  1.00  0.00     0.131 A 
ATOM     88  C   UNL     1      19.391  16.203   4.087  1.00  0.00     0.055 A 
ATOM     89  C   UNL     1      20.311  15.578   6.220  1.00  0.00     0.041 A 
ATOM     90  F   UNL     1      19.070  14.226   7.675  1.00  0.00    -0.206 F 
ATOM     91  C   UNL     1      20.448  16.233   5.000  1.00  0.00     0.022 A 
BRANCH  88  92
ATOM     92  S   UNL     1      19.595  16.930   2.438  1.00  0.00     0.124 S 
ATOM     93  O   UNL     1      19.400  15.774   1.569  1.00  0.00    -0.237 OA
ATOM     94  O   UNL     1      18.539  17.936   2.406  1.00  0.00    -0.237 OA
ATOM     95  O   UNL     1      20.956  17.463   2.464  1.00  0.00    -0.744 OA
ENDBRANCH  88  92
ENDBRANCH  62  85
ENDBRANCH  36  37
ENDBRANCH  28  31
ENDBRANCH  26  27
ENDBRANCH   1  26
TORSDOF 16
