REMARK SMILES O=C(NCCCNC(=O)[C@@H]1CCCC[C@H]1C(=O)Nc1ccc(NC(=O)c2ccco2)cc1)c1ccc(-c2c3nc(c(-c4cc(S(=O)(=O)[O-])ccc4F)c4ccc([nH]4)c(-c4cc(S(=O)(=O)[O-])ccc4F)c4nc(c(-c5cc(S(=O)(=O)[O-])ccc5F)c5ccc2[nH]5)C=C4)C=C3)cc1
REMARK SMILES IDX 5 1 4 2 3 3 1 4 2 5 33 7 34 8 95 9 35 10 94 11 36 12 37 13
REMARK SMILES IDX 38 14 88 15 39 16 93 17 87 18 89 19 40 20 92 21 86 22 85 23
REMARK SMILES IDX 41 25 73 26 53 27 72 28 54 29 57 30 71 31 90 32 55 33 56 34
REMARK SMILES IDX 70 36 91 37 58 38 42 39 43 40 51 41 44 42 50 43 52 44 49 45
REMARK SMILES IDX 45 46 46 47 47 48 48 49 74 50 75 51 83 52 76 53 82 54 84 55
REMARK SMILES IDX 81 56 77 57 78 58 79 59 80 60 59 61 60 62 68 63 61 64 67 65
REMARK SMILES IDX 69 66 66 67 62 68 63 69 64 70 65 71 6 72 7 73 8 74 9 76
REMARK SMILES IDX 10 77 11 78 15 79 12 80 14 81 13 82 16 83 17 84 18 85 19 87
REMARK SMILES IDX 20 88 32 89 21 90 31 91 22 92 23 93 24 94 25 96 26 97 27 98
REMARK SMILES IDX 30 99 28 100 29 101
REMARK H PARENT 3 6 89 24 57 35 7 75 18 86 23 95
REMARK Flexibility Score: inf
ROOT
ATOM      1  C   UNL     1       4.316  -2.143  -1.085  1.00  0.00     0.042 C 
ENDROOT
BRANCH   1   2
ATOM      2  C   UNL     1       4.158  -0.637  -1.215  1.00  0.00     0.118 C 
BRANCH   2   3
ATOM      3  N   UNL     1       2.768  -0.221  -1.065  1.00  0.00    -0.352 N 
ATOM      4  O   UNL     1       0.913   0.474  -0.011  1.00  0.00    -0.269 OA
ATOM      5  C   UNL     1       2.138   0.447  -0.041  1.00  0.00     0.251 C 
ATOM      6  H   UNL     1       2.185  -0.456  -1.823  1.00  0.00     0.163 HD
BRANCH   5   7
ATOM      7  C   UNL     1       2.923   1.129   1.015  1.00  0.00     0.039 A 
ATOM      8  C   UNL     1       4.116   1.780   0.707  1.00  0.00     0.014 A 
ATOM      9  C   UNL     1       2.436   1.160   2.326  1.00  0.00     0.014 A 
ATOM     10  C   UNL     1       4.906   2.299   1.724  1.00  0.00     0.010 A 
ATOM     11  C   UNL     1       3.174   1.797   3.331  1.00  0.00     0.010 A 
ATOM     12  C   UNL     1       4.435   2.342   3.045  1.00  0.00    -0.014 A 
BRANCH  12  13
ATOM     13  C   UNL     1       5.268   3.012   4.079  1.00  0.00     0.031 A 
ATOM     14  C   UNL     1       5.792   2.252   5.267  1.00  0.00     0.074 A 
ATOM     15  C   UNL     1       5.596   4.308   3.901  1.00  0.00     0.049 A 
ATOM     16  N   UNL     1       6.568   2.670   6.235  1.00  0.00    -0.248 NA
ATOM     17  C   UNL     1       5.383   0.846   5.393  1.00  0.00     0.031 C 
ATOM     18  C   UNL     1       5.140   5.144   2.785  1.00  0.00     0.029 A 
ATOM     19  N   UNL     1       6.410   5.143   4.622  1.00  0.00    -0.354 N 
ATOM     20  C   UNL     1       6.723   1.589   7.097  1.00  0.00     0.074 A 
ATOM     21  C   UNL     1       5.927   0.508   6.553  1.00  0.00     0.031 C 
ATOM     22  C   UNL     1       5.739   6.340   2.855  1.00  0.00     0.029 A 
ATOM     23  C   UNL     1       6.548   6.394   4.065  1.00  0.00     0.049 A 
ATOM     24  H   UNL     1       6.854   4.873   5.459  1.00  0.00     0.167 HD
ATOM     25  C   UNL     1       7.464   1.508   8.231  1.00  0.00     0.034 A 
ATOM     26  C   UNL     1       7.234   7.473   4.488  1.00  0.00     0.034 A 
ATOM     27  C   UNL     1       8.253   2.602   8.751  1.00  0.00     0.049 A 
ATOM     28  C   UNL     1       8.015   7.366   5.769  1.00  0.00     0.074 A 
ATOM     29  C   UNL     1       9.061   2.624   9.875  1.00  0.00     0.029 A 
ATOM     30  N   UNL     1       8.325   3.873   8.191  1.00  0.00    -0.354 N 
ATOM     31  N   UNL     1       8.162   6.331   6.564  1.00  0.00    -0.248 NA
ATOM     32  C   UNL     1       8.727   8.571   6.207  1.00  0.00     0.031 C 
ATOM     33  C   UNL     1       9.556   3.923  10.036  1.00  0.00     0.029 A 
ATOM     34  C   UNL     1       9.136   4.692   8.963  1.00  0.00     0.049 A 
ATOM     35  H   UNL     1       7.867   4.151   7.365  1.00  0.00     0.167 HD
ATOM     36  C   UNL     1       9.010   6.754   7.582  1.00  0.00     0.074 A 
ATOM     37  C   UNL     1       9.357   8.130   7.285  1.00  0.00     0.031 C 
ATOM     38  C   UNL     1       9.464   6.067   8.662  1.00  0.00     0.034 A 
BRANCH  25  39
ATOM     39  C   UNL     1       7.409   0.212   9.011  1.00  0.00     0.023 A 
ATOM     40  C   UNL     1       7.858  -1.006   8.469  1.00  0.00     0.031 A 
ATOM     41  C   UNL     1       6.872   0.191  10.311  1.00  0.00     0.131 A 
ATOM     42  C   UNL     1       7.691  -2.200   9.190  1.00  0.00     0.055 A 
ATOM     43  C   UNL     1       6.787  -0.986  11.057  1.00  0.00     0.041 A 
ATOM     44  F   UNL     1       6.405   1.316  10.876  1.00  0.00    -0.206 F 
ATOM     45  C   UNL     1       7.183  -2.194  10.491  1.00  0.00     0.022 A 
BRANCH  42  46
ATOM     46  S   UNL     1       8.005  -3.775   8.346  1.00  0.00     0.124 S 
ATOM     47  O   UNL     1       7.106  -3.684   7.197  1.00  0.00    -0.237 OA
ATOM     48  O   UNL     1       9.430  -3.697   8.044  1.00  0.00    -0.237 OA
ATOM     49  O   UNL     1       7.632  -4.780   9.339  1.00  0.00    -0.744 OA
ENDBRANCH  42  46
ENDBRANCH  25  39
BRANCH  26  50
ATOM     50  C   UNL     1       7.191   8.747   3.714  1.00  0.00     0.023 A 
ATOM     51  C   UNL     1       8.357   9.300   3.163  1.00  0.00     0.031 A 
ATOM     52  C   UNL     1       5.985   9.451   3.542  1.00  0.00     0.131 A 
ATOM     53  C   UNL     1       8.302  10.541   2.510  1.00  0.00     0.055 A 
ATOM     54  C   UNL     1       5.924  10.652   2.836  1.00  0.00     0.041 A 
ATOM     55  F   UNL     1       4.838   8.967   4.046  1.00  0.00    -0.206 F 
ATOM     56  C   UNL     1       7.091  11.212   2.328  1.00  0.00     0.022 A 
BRANCH  53  57
ATOM     57  S   UNL     1       9.855  11.313   1.982  1.00  0.00     0.124 S 
ATOM     58  O   UNL     1      10.590  11.392   3.239  1.00  0.00    -0.237 OA
ATOM     59  O   UNL     1      10.355  10.351   1.005  1.00  0.00    -0.237 OA
ATOM     60  O   UNL     1       9.426  12.595   1.428  1.00  0.00    -0.744 OA
ENDBRANCH  53  57
ENDBRANCH  26  50
BRANCH  38  61
ATOM     61  C   UNL     1      10.434   6.790   9.567  1.00  0.00     0.023 A 
ATOM     62  C   UNL     1      10.060   7.933  10.297  1.00  0.00     0.031 A 
ATOM     63  C   UNL     1      11.765   6.349   9.668  1.00  0.00     0.131 A 
ATOM     64  C   UNL     1      11.024   8.639  11.032  1.00  0.00     0.055 A 
ATOM     65  C   UNL     1      12.702   7.013  10.461  1.00  0.00     0.041 A 
ATOM     66  F   UNL     1      12.181   5.268   8.989  1.00  0.00    -0.206 F 
ATOM     67  C   UNL     1      12.338   8.175  11.134  1.00  0.00     0.022 A 
BRANCH  64  68
ATOM     68  S   UNL     1      10.569  10.242  11.749  1.00  0.00     0.124 S 
ATOM     69  O   UNL     1      10.110  10.979  10.576  1.00  0.00    -0.237 OA
ATOM     70  O   UNL     1       9.538   9.870  12.713  1.00  0.00    -0.237 OA
ATOM     71  O   UNL     1      11.820  10.723  12.334  1.00  0.00    -0.744 OA
ENDBRANCH  64  68
ENDBRANCH  38  61
ENDBRANCH  12  13
ENDBRANCH   5   7
ENDBRANCH   2   3
ENDBRANCH   1   2
BRANCH   1  72
ATOM     72  C   UNL     1       3.714  -2.934  -2.244  1.00  0.00     0.117 C 
BRANCH  72  73
ATOM     73  N   UNL     1       4.632  -3.023  -3.366  1.00  0.00    -0.356 N 
ATOM     74  C   UNL     1       5.477  -3.955  -3.845  1.00  0.00     0.223 C 
ATOM     75  H   UNL     1       4.638  -2.201  -3.907  1.00  0.00     0.163 HD
ATOM     76  O   UNL     1       6.091  -3.604  -4.866  1.00  0.00    -0.275 OA
BRANCH  74  77
ATOM     77  C   UNL     1       5.752  -5.362  -3.292  1.00  0.00     0.091 C 
ATOM     78  C   UNL     1       5.530  -6.387  -4.427  1.00  0.00     0.014 C 
ATOM     79  C   UNL     1       5.206  -5.852  -1.952  1.00  0.00     0.091 C 
ATOM     80  C   UNL     1       6.051  -7.768  -4.036  1.00  0.00     0.001 C 
ATOM     81  C   UNL     1       5.571  -7.314  -1.624  1.00  0.00     0.014 C 
ATOM     82  C   UNL     1       5.336  -8.263  -2.792  1.00  0.00     0.001 C 
BRANCH  79  83
ATOM     83  C   UNL     1       5.462  -5.027  -0.688  1.00  0.00     0.228 C 
ATOM     84  O   UNL     1       4.483  -4.827   0.052  1.00  0.00    -0.274 OA
ATOM     85  N   UNL     1       6.649  -4.598  -0.183  1.00  0.00    -0.326 N 
ATOM     86  H   UNL     1       6.558  -3.909   0.514  1.00  0.00     0.169 HD
BRANCH  85  87
ATOM     87  C   UNL     1       7.972  -4.945  -0.463  1.00  0.00     0.041 A 
ATOM     88  C   UNL     1       8.752  -5.329   0.620  1.00  0.00     0.028 A 
ATOM     89  C   UNL     1       8.570  -4.924  -1.711  1.00  0.00     0.028 A 
ATOM     90  C   UNL     1       9.978  -5.956   0.408  1.00  0.00     0.028 A 
ATOM     91  C   UNL     1       9.753  -5.635  -1.938  1.00  0.00     0.028 A 
ATOM     92  C   UNL     1      10.404  -6.264  -0.879  1.00  0.00     0.041 A 
BRANCH  92  93
ATOM     93  N   UNL     1      11.418  -7.186  -1.196  1.00  0.00    -0.319 N 
ATOM     94  C   UNL     1      12.063  -8.153  -0.442  1.00  0.00     0.291 C 
ATOM     95  H   UNL     1      11.727  -7.135  -2.129  1.00  0.00     0.170 HD
ATOM     96  O   UNL     1      12.896  -8.854  -1.022  1.00  0.00    -0.265 OA
BRANCH  94  97
ATOM     97  C   UNL     1      11.724  -8.337   0.948  1.00  0.00     0.191 A 
ATOM     98  C   UNL     1      10.597  -8.834   1.582  1.00  0.00     0.056 A 
ATOM     99  O   UNL     1      12.611  -7.881   1.885  1.00  0.00    -0.459 OA
ATOM    100  C   UNL     1      10.773  -8.585   2.967  1.00  0.00     0.043 A 
ATOM    101  C   UNL     1      12.017  -8.013   3.099  1.00  0.00     0.196 A 
ENDBRANCH  94  97
ENDBRANCH  92  93
ENDBRANCH  85  87
ENDBRANCH  79  83
ENDBRANCH  74  77
ENDBRANCH  72  73
ENDBRANCH   1  72
TORSDOF 17
