REMARK SMILES COc1cccc(-c2ccc(=O)n(CC(=O)N[C@@H](C(=O)NCCCNC(=O)c3ccc(-c4c5nc(c(-c6cc(S(=O)(=O)[O-])ccc6F)c6ccc([nH]6)c(-c6cc(S(=O)(=O)[O-])ccc6F)c6nc(c(-c7cc(S(=O)(=O)[O-])ccc7F)c7ccc4[nH]7)C=C6)C=C5)cc3)C(C)C)n2)c1
REMARK SMILES IDX 22 1 21 2 19 3 20 4 18 6 17 7 15 8 16 9 14 11 13 12 8 13
REMARK SMILES IDX 9 14 94 15 10 16 11 17 12 18 7 19 3 20 4 21 95 22 5 23 6 24
REMARK SMILES IDX 2 25 1 26 91 27 92 28 93 29 23 30 24 31 25 32 26 33 27 35
REMARK SMILES IDX 28 36 29 37 90 38 30 39 89 40 31 41 32 42 33 43 83 44 34 45
REMARK SMILES IDX 88 46 82 47 84 48 35 49 87 50 81 51 80 52 36 54 68 55 48 56
REMARK SMILES IDX 67 57 49 58 52 59 66 60 85 61 50 62 51 63 65 65 86 66 53 67
REMARK SMILES IDX 37 68 38 69 46 70 39 71 45 72 47 73 44 74 40 75 41 76 42 77
REMARK SMILES IDX 43 78 69 79 70 80 78 81 71 82 77 83 79 84 76 85 72 86 73 87
REMARK SMILES IDX 74 88 75 89 54 90 55 91 63 92 56 93 62 94 64 95 61 96 57 97
REMARK SMILES IDX 58 98 59 99 60 100
REMARK H PARENT 21 5 17 10 25 34 84 53 52 64
REMARK Flexibility Score: inf
ROOT
ATOM      1  C   UNL     1       5.885   4.558   5.250  1.00  0.00     0.117 C 
ENDROOT
BRANCH   1   2
ATOM      2  N   UNL     1       5.505   5.947   5.254  1.00  0.00    -0.354 N 
ATOM      3  C   UNL     1       5.345   6.767   4.170  1.00  0.00     0.242 C 
ATOM      4  O   UNL     1       4.818   7.863   4.378  1.00  0.00    -0.273 OA
ATOM      5  H   UNL     1       5.343   6.352   6.136  1.00  0.00     0.163 HD
BRANCH   3   6
ATOM      6  C   UNL     1       5.739   6.269   2.739  1.00  0.00     0.173 C 
BRANCH   6   7
ATOM      7  N   UNL     1       7.163   5.908   2.750  1.00  0.00    -0.342 N 
ATOM      8  C   UNL     1       7.829   4.822   2.256  1.00  0.00     0.242 C 
ATOM      9  O   UNL     1       9.060   4.844   2.362  1.00  0.00    -0.273 OA
ATOM     10  H   UNL     1       7.743   6.569   3.194  1.00  0.00     0.164 HD
BRANCH   8  11
ATOM     11  C   UNL     1       7.129   3.678   1.504  1.00  0.00     0.248 C 
BRANCH  11  12
ATOM     12  N   UNL     1       6.218   2.865   2.306  1.00  0.00    -0.220 N 
ATOM     13  C   UNL     1       4.049   2.400   2.844  1.00  0.00     0.091 A 
ATOM     14  C   UNL     1       4.428   1.458   3.911  1.00  0.00     0.036 A 
ATOM     15  N   UNL     1       4.870   3.062   2.097  1.00  0.00    -0.169 NA
ATOM     16  C   UNL     1       5.735   1.216   4.036  1.00  0.00     0.075 A 
ATOM     17  C   UNL     1       6.728   1.903   3.173  1.00  0.00     0.267 A 
ATOM     18  O   UNL     1       7.917   1.639   3.308  1.00  0.00    -0.268 OA
BRANCH  13  19
ATOM     19  C   UNL     1       2.608   2.552   2.604  1.00  0.00     0.006 A 
ATOM     20  C   UNL     1       0.697   1.930   1.278  1.00  0.00     0.119 A 
ATOM     21  C   UNL     1      -0.059   2.886   1.965  1.00  0.00     0.046 A 
ATOM     22  C   UNL     1       2.043   1.773   1.592  1.00  0.00     0.056 A 
ATOM     23  C   UNL     1       0.516   3.665   2.975  1.00  0.00     0.005 A 
ATOM     24  C   UNL     1       1.861   3.502   3.301  1.00  0.00     0.011 A 
BRANCH  20  25
ATOM     25  O   UNL     1       0.028   1.235   0.308  1.00  0.00    -0.497 OA
ATOM     26  C   UNL     1       0.662   0.049  -0.160  1.00  0.00     0.278 C 
ENDBRANCH  20  25
ENDBRANCH  13  19
ENDBRANCH  11  12
ENDBRANCH   8  11
ENDBRANCH   6   7
BRANCH   6  27
ATOM     27  C   UNL     1       5.420   7.365   1.685  1.00  0.00     0.015 C 
ATOM     28  C   UNL     1       6.161   7.185   0.358  1.00  0.00     0.010 C 
ATOM     29  C   UNL     1       3.910   7.409   1.402  1.00  0.00     0.010 C 
ENDBRANCH   6  27
ENDBRANCH   3   6
ENDBRANCH   1   2
BRANCH   1  30
ATOM     30  C   UNL     1       7.121   4.257   6.076  1.00  0.00     0.042 C 
BRANCH  30  31
ATOM     31  C   UNL     1       6.787   3.954   7.526  1.00  0.00     0.118 C 
BRANCH  31  32
ATOM     32  N   UNL     1       6.005   2.726   7.672  1.00  0.00    -0.352 N 
ATOM     33  C   UNL     1       6.250   1.607   8.432  1.00  0.00     0.251 C 
ATOM     34  H   UNL     1       5.175   2.697   7.144  1.00  0.00     0.163 HD
ATOM     35  O   UNL     1       5.571   0.604   8.250  1.00  0.00    -0.269 OA
BRANCH  33  36
ATOM     36  C   UNL     1       7.340   1.622   9.434  1.00  0.00     0.039 A 
ATOM     37  C   UNL     1       8.139   0.487   9.595  1.00  0.00     0.014 A 
ATOM     38  C   UNL     1       7.589   2.765  10.195  1.00  0.00     0.014 A 
ATOM     39  C   UNL     1       9.240   0.536  10.456  1.00  0.00     0.010 A 
ATOM     40  C   UNL     1       8.745   2.848  10.959  1.00  0.00     0.010 A 
ATOM     41  C   UNL     1       9.582   1.733  11.105  1.00  0.00    -0.014 A 
BRANCH  41  42
ATOM     42  C   UNL     1      10.797   1.853  11.953  1.00  0.00     0.031 A 
ATOM     43  C   UNL     1      10.661   2.249  13.400  1.00  0.00     0.074 A 
ATOM     44  C   UNL     1      12.018   1.704  11.402  1.00  0.00     0.049 A 
ATOM     45  N   UNL     1      11.590   2.544  14.272  1.00  0.00    -0.248 NA
ATOM     46  C   UNL     1       9.290   2.377  13.919  1.00  0.00     0.031 C 
ATOM     47  C   UNL     1      12.280   1.377   9.998  1.00  0.00     0.029 A 
ATOM     48  N   UNL     1      13.269   1.820  11.952  1.00  0.00    -0.354 N 
ATOM     49  C   UNL     1      10.917   2.921  15.430  1.00  0.00     0.074 A 
ATOM     50  C   UNL     1       9.504   2.889  15.121  1.00  0.00     0.031 C 
ATOM     51  C   UNL     1      13.605   1.288   9.806  1.00  0.00     0.029 A 
ATOM     52  C   UNL     1      14.290   1.601  11.056  1.00  0.00     0.049 A 
ATOM     53  H   UNL     1      13.423   2.041  12.899  1.00  0.00     0.167 HD
ATOM     54  C   UNL     1      11.428   3.235  16.646  1.00  0.00     0.034 A 
ATOM     55  C   UNL     1      15.627   1.658  11.220  1.00  0.00     0.034 A 
ATOM     56  C   UNL     1      12.840   3.233  16.941  1.00  0.00     0.049 A 
ATOM     57  C   UNL     1      16.175   2.008  12.580  1.00  0.00     0.074 A 
ATOM     58  C   UNL     1      13.471   3.469  18.149  1.00  0.00     0.029 A 
ATOM     59  N   UNL     1      13.844   2.982  16.013  1.00  0.00    -0.354 N 
ATOM     60  N   UNL     1      15.525   2.313  13.680  1.00  0.00    -0.248 NA
ATOM     61  C   UNL     1      17.636   2.010  12.722  1.00  0.00     0.031 C 
ATOM     62  C   UNL     1      14.853   3.423  17.940  1.00  0.00     0.029 A 
ATOM     63  C   UNL     1      15.088   3.082  16.617  1.00  0.00     0.049 A 
ATOM     64  H   UNL     1      13.694   2.764  15.065  1.00  0.00     0.167 HD
ATOM     65  C   UNL     1      16.500   2.514  14.652  1.00  0.00     0.074 A 
ATOM     66  C   UNL     1      17.779   2.281  14.011  1.00  0.00     0.031 C 
ATOM     67  C   UNL     1      16.354   2.856  15.959  1.00  0.00     0.034 A 
BRANCH  54  68
ATOM     68  C   UNL     1      10.448   3.622  17.731  1.00  0.00     0.023 A 
ATOM     69  C   UNL     1       9.452   2.735  18.177  1.00  0.00     0.031 A 
ATOM     70  C   UNL     1      10.475   4.911  18.293  1.00  0.00     0.131 A 
ATOM     71  C   UNL     1       8.469   3.175  19.076  1.00  0.00     0.055 A 
ATOM     72  C   UNL     1       9.550   5.312  19.260  1.00  0.00     0.041 A 
ATOM     73  F   UNL     1      11.388   5.811  17.896  1.00  0.00    -0.206 F 
ATOM     74  C   UNL     1       8.527   4.449  19.642  1.00  0.00     0.022 A 
BRANCH  71  75
ATOM     75  S   UNL     1       7.024   2.117  19.360  1.00  0.00     0.124 S 
ATOM     76  O   UNL     1       6.486   1.984  18.008  1.00  0.00    -0.237 OA
ATOM     77  O   UNL     1       7.619   0.915  19.932  1.00  0.00    -0.237 OA
ATOM     78  O   UNL     1       6.198   2.902  20.276  1.00  0.00    -0.744 OA
ENDBRANCH  71  75
ENDBRANCH  54  68
BRANCH  55  79
ATOM     79  C   UNL     1      16.541   1.375  10.077  1.00  0.00     0.023 A 
ATOM     80  C   UNL     1      17.384   0.253  10.091  1.00  0.00     0.031 A 
ATOM     81  C   UNL     1      16.608   2.237   8.968  1.00  0.00     0.131 A 
ATOM     82  C   UNL     1      18.289   0.043   9.039  1.00  0.00     0.055 A 
ATOM     83  C   UNL     1      17.473   1.996   7.899  1.00  0.00     0.041 A 
ATOM     84  F   UNL     1      15.819   3.321   8.902  1.00  0.00    -0.206 F 
ATOM     85  C   UNL     1      18.329   0.900   7.936  1.00  0.00     0.022 A 
BRANCH  82  86
ATOM     86  S   UNL     1      19.468  -1.328   9.169  1.00  0.00     0.124 S 
ATOM     87  O   UNL     1      20.175  -0.997  10.401  1.00  0.00    -0.237 OA
ATOM     88  O   UNL     1      18.582  -2.486   9.229  1.00  0.00    -0.237 OA
ATOM     89  O   UNL     1      20.259  -1.215   7.945  1.00  0.00    -0.744 OA
ENDBRANCH  82  86
ENDBRANCH  55  79
BRANCH  67  90
ATOM     90  C   UNL     1      17.612   2.947  16.786  1.00  0.00     0.023 A 
ATOM     91  C   UNL     1      18.578   3.943  16.559  1.00  0.00     0.031 A 
ATOM     92  C   UNL     1      17.851   2.014  17.810  1.00  0.00     0.131 A 
ATOM     93  C   UNL     1      19.763   3.949  17.309  1.00  0.00     0.055 A 
ATOM     94  C   UNL     1      19.004   2.062  18.593  1.00  0.00     0.041 A 
ATOM     95  F   UNL     1      16.963   1.040  18.068  1.00  0.00    -0.206 F 
ATOM     96  C   UNL     1      19.975   3.025  18.336  1.00  0.00     0.022 A 
BRANCH  93  97
ATOM     97  S   UNL     1      21.070   5.126  16.864  1.00  0.00     0.124 S 
ATOM     98  O   UNL     1      21.338   4.770  15.474  1.00  0.00    -0.237 OA
ATOM     99  O   UNL     1      20.416   6.413  17.078  1.00  0.00    -0.237 OA
ATOM    100  O   UNL     1      22.146   4.815  17.803  1.00  0.00    -0.744 OA
ENDBRANCH  93  97
ENDBRANCH  67  90
ENDBRANCH  41  42
ENDBRANCH  33  36
ENDBRANCH  31  32
ENDBRANCH  30  31
ENDBRANCH   1  30
TORSDOF 19
