REMARK SMILES Cc1ccc([C@H]2NC(=O)N(C)C3=C2C(=O)N(c2cccc(C(=O)NCCCNC(=O)c4ccc(-c5c6nc(c(-c7cc(S(=O)(=O)[O-])ccc7F)c7ccc([nH]7)c(-c7cc(S(=O)(=O)[O-])ccc7F)c7nc(c(-c8cc(S(=O)(=O)[O-])ccc8F)c8ccc5[nH]8)C=C7)C=C6)cc4)c2)C3)cc1
REMARK SMILES IDX 26 1 25 2 24 3 22 4 23 5 21 7 17 8 18 9 94 10 19 11 20 12
REMARK SMILES IDX 16 13 6 14 7 15 13 16 8 17 12 19 14 20 9 21 10 22 95 23
REMARK SMILES IDX 15 24 11 25 5 26 1 27 2 28 3 29 97 30 4 31 96 32 27 33 28 34
REMARK SMILES IDX 29 35 30 37 31 38 32 39 93 40 33 41 92 42 34 43 35 44 36 45
REMARK SMILES IDX 86 46 37 47 91 48 85 49 87 50 38 51 90 52 84 53 83 54 39 56
REMARK SMILES IDX 71 57 51 58 70 59 52 60 55 61 69 62 88 63 53 64 54 65 68 67
REMARK SMILES IDX 89 68 56 69 40 70 41 71 49 72 42 73 48 74 50 75 47 76 43 77
REMARK SMILES IDX 44 78 45 79 46 80 72 81 73 82 81 83 74 84 80 85 82 86 79 87
REMARK SMILES IDX 75 88 76 89 77 90 78 91 57 92 58 93 66 94 59 95 65 96 67 97
REMARK SMILES IDX 64 98 60 99 61 100 62 101 63 102
REMARK H PARENT 24 6 7 18 28 36 87 55 55 66
REMARK Flexibility Score: inf
ROOT
ATOM      1  C   UNL     1      -5.306   1.293  10.501  1.00  0.00     0.042 C 
ENDROOT
BRANCH   1   2
ATOM      2  C   UNL     1      -5.785   0.008   9.833  1.00  0.00     0.118 C 
BRANCH   2   3
ATOM      3  N   UNL     1      -6.708   0.296   8.746  1.00  0.00    -0.352 N 
ATOM      4  C   UNL     1      -6.533   0.689   7.447  1.00  0.00     0.251 C 
ATOM      5  O   UNL     1      -7.544   0.875   6.764  1.00  0.00    -0.269 OA
ATOM      6  H   UNL     1      -7.653   0.186   8.997  1.00  0.00     0.163 HD
BRANCH   4   7
ATOM      7  C   UNL     1      -5.198   0.872   6.790  1.00  0.00     0.041 A 
ATOM      8  C   UNL     1      -4.016   1.027   4.657  1.00  0.00     0.045 A 
ATOM      9  C   UNL     1      -2.795   0.944   5.323  1.00  0.00     0.026 A 
ATOM     10  C   UNL     1      -5.208   1.002   5.389  1.00  0.00     0.040 A 
ATOM     11  C   UNL     1      -2.765   0.914   6.710  1.00  0.00     0.003 A 
ATOM     12  C   UNL     1      -3.959   0.886   7.433  1.00  0.00     0.014 A 
BRANCH   8  13
ATOM     13  N   UNL     1      -4.044   1.103   3.257  1.00  0.00    -0.303 N 
ATOM     14  C   UNL     1      -3.354  -0.073  -0.166  1.00  0.00     0.152 C 
ATOM     15  N   UNL     1      -3.723   0.769  -1.299  1.00  0.00    -0.327 N 
ATOM     16  C   UNL     1      -3.668   0.671   1.059  1.00  0.00     0.066 C 
ATOM     17  C   UNL     1      -4.568   1.847  -1.275  1.00  0.00     0.322 C 
ATOM     18  H   UNL     1      -3.325   0.539  -2.169  1.00  0.00     0.166 HD
ATOM     19  C   UNL     1      -4.517   1.693   1.131  1.00  0.00     0.053 C 
ATOM     20  C   UNL     1      -3.241   0.337   2.416  1.00  0.00     0.258 C 
ATOM     21  O   UNL     1      -4.869   2.389  -2.337  1.00  0.00    -0.248 OA
ATOM     22  N   UNL     1      -4.998   2.278  -0.019  1.00  0.00    -0.299 N 
ATOM     23  C   UNL     1      -4.894   2.021   2.535  1.00  0.00     0.180 C 
ATOM     24  O   UNL     1      -2.387  -0.479   2.670  1.00  0.00    -0.269 OA
ATOM     25  C   UNL     1      -5.888   3.424   0.069  1.00  0.00     0.155 C 
BRANCH  14  26
ATOM     26  C   UNL     1      -4.052  -1.432  -0.271  1.00  0.00    -0.021 A 
ATOM     27  C   UNL     1      -5.899  -5.345  -0.587  1.00  0.00     0.044 C 
ATOM     28  C   UNL     1      -5.267  -3.989  -0.483  1.00  0.00    -0.051 A 
ATOM     29  C   UNL     1      -4.301  -3.579  -1.407  1.00  0.00     0.004 A 
ATOM     30  C   UNL     1      -5.637  -3.114   0.537  1.00  0.00     0.004 A 
ATOM     31  C   UNL     1      -3.696  -2.319  -1.300  1.00  0.00     0.006 A 
ATOM     32  C   UNL     1      -5.045  -1.853   0.635  1.00  0.00     0.006 A 
ENDBRANCH  14  26
ENDBRANCH   8  13
ENDBRANCH   4   7
ENDBRANCH   2   3
ENDBRANCH   1   2
BRANCH   1  33
ATOM     33  C   UNL     1      -6.128   1.635  11.729  1.00  0.00     0.118 C 
BRANCH  33  34
ATOM     34  N   UNL     1      -5.613   1.047  12.962  1.00  0.00    -0.352 N 
ATOM     35  C   UNL     1      -5.936   1.325  14.280  1.00  0.00     0.251 C 
ATOM     36  H   UNL     1      -4.932   0.347  12.838  1.00  0.00     0.163 HD
ATOM     37  O   UNL     1      -5.262   0.888  15.209  1.00  0.00    -0.269 OA
BRANCH  35  38
ATOM     38  C   UNL     1      -7.242   1.964  14.579  1.00  0.00     0.039 A 
ATOM     39  C   UNL     1      -8.058   1.266  15.485  1.00  0.00     0.014 A 
ATOM     40  C   UNL     1      -7.792   2.872  13.689  1.00  0.00     0.014 A 
ATOM     41  C   UNL     1      -9.423   1.216  15.257  1.00  0.00     0.010 A 
ATOM     42  C   UNL     1      -9.102   2.686  13.343  1.00  0.00     0.010 A 
ATOM     43  C   UNL     1      -9.890   1.813  14.095  1.00  0.00    -0.014 A 
BRANCH  43  44
ATOM     44  C   UNL     1     -11.231   1.666  13.586  1.00  0.00     0.031 A 
ATOM     45  C   UNL     1     -12.180   2.716  13.973  1.00  0.00     0.074 A 
ATOM     46  C   UNL     1     -11.463   0.696  12.677  1.00  0.00     0.049 A 
ATOM     47  N   UNL     1     -13.448   2.564  14.053  1.00  0.00    -0.248 NA
ATOM     48  C   UNL     1     -11.738   4.045  14.403  1.00  0.00     0.031 C 
ATOM     49  C   UNL     1     -12.605   0.529  11.790  1.00  0.00     0.029 A 
ATOM     50  N   UNL     1     -10.738  -0.486  12.528  1.00  0.00    -0.354 N 
ATOM     51  C   UNL     1     -13.993   3.826  14.166  1.00  0.00     0.074 A 
ATOM     52  C   UNL     1     -12.902   4.682  14.543  1.00  0.00     0.031 C 
ATOM     53  C   UNL     1     -12.669  -0.759  11.403  1.00  0.00     0.029 A 
ATOM     54  C   UNL     1     -11.654  -1.486  12.150  1.00  0.00     0.049 A 
ATOM     55  H   UNL     1      -9.769  -0.600  12.662  1.00  0.00     0.167 HD
ATOM     56  C   UNL     1     -15.262   4.019  13.717  1.00  0.00     0.034 A 
ATOM     57  C   UNL     1     -11.903  -2.525  13.006  1.00  0.00     0.034 A 
ATOM     58  C   UNL     1     -15.801   2.751  13.228  1.00  0.00     0.049 A 
ATOM     59  C   UNL     1     -13.316  -2.469  13.540  1.00  0.00     0.074 A 
ATOM     60  C   UNL     1     -15.865   2.208  11.955  1.00  0.00     0.029 A 
ATOM     61  N   UNL     1     -15.998   1.708  14.120  1.00  0.00    -0.354 N 
ATOM     62  N   UNL     1     -14.019  -1.370  13.631  1.00  0.00    -0.248 NA
ATOM     63  C   UNL     1     -14.069  -3.653  13.935  1.00  0.00     0.031 C 
ATOM     64  C   UNL     1     -16.013   0.804  12.096  1.00  0.00     0.029 A 
ATOM     65  C   UNL     1     -16.069   0.506  13.447  1.00  0.00     0.049 A 
ATOM     66  H   UNL     1     -16.076   1.811  15.096  1.00  0.00     0.167 HD
ATOM     67  C   UNL     1     -15.291  -1.676  14.040  1.00  0.00     0.074 A 
ATOM     68  C   UNL     1     -15.269  -3.118  14.219  1.00  0.00     0.031 C 
ATOM     69  C   UNL     1     -16.271  -0.731  14.180  1.00  0.00     0.034 A 
BRANCH  56  70
ATOM     70  C   UNL     1     -15.905   5.345  13.393  1.00  0.00     0.023 A 
ATOM     71  C   UNL     1     -16.999   5.333  12.504  1.00  0.00     0.031 A 
ATOM     72  C   UNL     1     -15.519   6.619  13.850  1.00  0.00     0.131 A 
ATOM     73  C   UNL     1     -17.605   6.515  12.053  1.00  0.00     0.055 A 
ATOM     74  C   UNL     1     -16.108   7.805  13.384  1.00  0.00     0.041 A 
ATOM     75  F   UNL     1     -14.588   6.789  14.795  1.00  0.00    -0.206 F 
ATOM     76  C   UNL     1     -17.154   7.758  12.475  1.00  0.00     0.022 A 
BRANCH  73  77
ATOM     77  S   UNL     1     -18.994   6.383  10.899  1.00  0.00     0.124 S 
ATOM     78  O   UNL     1     -18.367   5.765   9.736  1.00  0.00    -0.237 OA
ATOM     79  O   UNL     1     -19.937   5.555  11.643  1.00  0.00    -0.237 OA
ATOM     80  O   UNL     1     -19.409   7.773  10.712  1.00  0.00    -0.744 OA
ENDBRANCH  73  77
ENDBRANCH  56  70
BRANCH  57  81
ATOM     81  C   UNL     1     -10.673  -2.930  13.761  1.00  0.00     0.023 A 
ATOM     82  C   UNL     1      -9.574  -3.346  12.973  1.00  0.00     0.031 A 
ATOM     83  C   UNL     1     -10.403  -2.440  15.046  1.00  0.00     0.131 A 
ATOM     84  C   UNL     1      -8.264  -3.031  13.367  1.00  0.00     0.055 A 
ATOM     85  C   UNL     1      -9.086  -2.215  15.472  1.00  0.00     0.041 A 
ATOM     86  F   UNL     1     -11.398  -2.027  15.845  1.00  0.00    -0.206 F 
ATOM     87  C   UNL     1      -8.014  -2.444  14.607  1.00  0.00     0.022 A 
BRANCH  84  88
ATOM     88  S   UNL     1      -6.954  -3.086  12.106  1.00  0.00     0.124 S 
ATOM     89  O   UNL     1      -6.531  -4.480  12.155  1.00  0.00    -0.237 OA
ATOM     90  O   UNL     1      -7.665  -2.678  10.896  1.00  0.00    -0.237 OA
ATOM     91  O   UNL     1      -5.969  -2.108  12.571  1.00  0.00    -0.744 OA
ENDBRANCH  84  88
ENDBRANCH  57  81
BRANCH  69  92
ATOM     92  C   UNL     1     -17.563  -0.922  14.938  1.00  0.00     0.023 A 
ATOM     93  C   UNL     1     -17.767  -1.999  15.804  1.00  0.00     0.031 A 
ATOM     94  C   UNL     1     -18.613   0.030  14.889  1.00  0.00     0.131 A 
ATOM     95  C   UNL     1     -18.993  -2.182  16.459  1.00  0.00     0.055 A 
ATOM     96  C   UNL     1     -19.786  -0.090  15.638  1.00  0.00     0.041 A 
ATOM     97  F   UNL     1     -18.548   1.128  14.122  1.00  0.00    -0.206 F 
ATOM     98  C   UNL     1     -19.996  -1.221  16.409  1.00  0.00     0.022 A 
BRANCH  95  99
ATOM     99  S   UNL     1     -19.269  -3.772  17.271  1.00  0.00     0.124 S 
ATOM    100  O   UNL     1     -19.168  -4.700  16.146  1.00  0.00    -0.237 OA
ATOM    101  O   UNL     1     -18.175  -3.829  18.235  1.00  0.00    -0.237 OA
ATOM    102  O   UNL     1     -20.604  -3.637  17.847  1.00  0.00    -0.744 OA
ENDBRANCH  95  99
ENDBRANCH  69  92
ENDBRANCH  43  44
ENDBRANCH  35  38
ENDBRANCH  33  34
ENDBRANCH   1  33
TORSDOF 15
