REMARK SMILES CC[C@](C)(C(=O)NCCCNC(=O)c1ccc(-c2c3nc(c(-c4cc(S(=O)(=O)[O-])ccc4F)c4ccc([nH]4)c(-c4cc(S(=O)(=O)[O-])ccc4F)c4nc(c(-c5cc(S(=O)(=O)[O-])ccc5F)c5ccc2[nH]5)C=C4)C=C3)cc1)[C@@H]1CCCCC[C@@H]1O
REMARK SMILES IDX 8 1 7 2 5 3 6 4 3 6 4 7 2 8 1 9 77 10 78 11 79 12 80 13
REMARK SMILES IDX 83 15 82 16 81 17 84 19 9 21 10 22 11 23 12 24 13 26 14 27
REMARK SMILES IDX 15 28 76 29 16 30 75 31 17 32 18 33 19 34 69 35 20 36 74 37
REMARK SMILES IDX 68 38 70 39 21 40 73 41 67 42 66 43 22 45 54 46 34 47 53 48
REMARK SMILES IDX 35 49 38 50 52 51 71 52 36 53 37 54 51 56 72 57 39 58 23 59
REMARK SMILES IDX 24 60 32 61 25 62 31 63 33 64 30 65 26 66 27 67 28 68 29 69
REMARK SMILES IDX 55 70 56 71 64 72 57 73 63 74 65 75 62 76 58 77 59 78 60 79
REMARK SMILES IDX 61 80 40 81 41 82 49 83 42 84 48 85 50 86 47 87 43 88 44 89
REMARK SMILES IDX 45 90 46 91
REMARK H PARENT 7 5 84 20 11 25 70 44 38 55
REMARK Flexibility Score: 90.00
ROOT
ATOM      1  C   UNL     1       4.670   0.897   1.396  1.00  0.00     0.117 C 
ENDROOT
BRANCH   1   2
ATOM      2  N   UNL     1       5.133   0.362   0.132  1.00  0.00    -0.356 N 
ATOM      3  C   UNL     1       4.492  -0.277  -0.882  1.00  0.00     0.226 C 
ATOM      4  O   UNL     1       5.240  -0.930  -1.617  1.00  0.00    -0.274 OA
ATOM      5  H   UNL     1       6.097   0.486  -0.022  1.00  0.00     0.163 HD
BRANCH   3   6
ATOM      6  C   UNL     1       2.938  -0.304  -1.016  1.00  0.00     0.051 C 
ATOM      7  C   UNL     1       2.464  -1.349   0.029  1.00  0.00     0.022 C 
BRANCH   6   8
ATOM      8  C   UNL     1       2.296   1.111  -0.753  1.00  0.00     0.013 C 
ATOM      9  C   UNL     1       1.183   1.205   0.293  1.00  0.00     0.005 C 
ENDBRANCH   6   8
BRANCH   6  10
ATOM     10  C   UNL     1       2.501  -0.790  -2.496  1.00  0.00     0.033 C 
BRANCH  10  11
ATOM     11  C   UNL     1       2.916  -2.258  -2.812  1.00  0.00     0.007 C 
BRANCH  11  12
ATOM     12  C   UNL     1       2.175  -2.878  -3.997  1.00  0.00     0.000 C 
BRANCH  12  13
ATOM     13  C   UNL     1       2.898  -2.713  -5.328  1.00  0.00     0.000 CG0
ATOM     14  G   UNL     1       3.492  -1.333  -5.576  1.00  0.00     0.000 G0
ENDBRANCH  12  13
ENDBRANCH  11  12
ENDBRANCH  10  11
BRANCH  10  15
ATOM     15  C   UNL     1       2.845   0.234  -3.635  1.00  0.00     0.118 C 
BRANCH  15  16
ATOM     16  C   UNL     1       2.601  -0.197  -5.089  1.00  0.00     0.032 C 
BRANCH  16  17
ATOM     17  C   UNL     1       3.492  -1.333  -5.576  1.00  0.00     0.003 CG0
ATOM     18  G   UNL     1       2.898  -2.713  -5.328  1.00  0.00     0.000 G0
ENDBRANCH  16  17
ENDBRANCH  15  16
BRANCH  15  19
ATOM     19  O   UNL     1       4.165   0.742  -3.494  1.00  0.00    -0.393 OA
ATOM     20  H   UNL     1       4.804   0.028  -3.647  1.00  0.00     0.210 HD
ENDBRANCH  15  19
ENDBRANCH  10  15
ENDBRANCH   6  10
ENDBRANCH   3   6
ENDBRANCH   1   2
BRANCH   1  21
ATOM     21  C   UNL     1       5.031  -0.021   2.555  1.00  0.00     0.042 C 
BRANCH  21  22
ATOM     22  C   UNL     1       6.530  -0.123   2.800  1.00  0.00     0.118 C 
BRANCH  22  23
ATOM     23  N   UNL     1       7.113   1.160   3.173  1.00  0.00    -0.352 N 
ATOM     24  C   UNL     1       7.678   1.558   4.357  1.00  0.00     0.251 C 
ATOM     25  H   UNL     1       7.099   1.845   2.467  1.00  0.00     0.163 HD
ATOM     26  O   UNL     1       7.877   2.758   4.556  1.00  0.00    -0.269 OA
BRANCH  24  27
ATOM     27  C   UNL     1       8.027   0.561   5.391  1.00  0.00     0.039 A 
ATOM     28  C   UNL     1       7.794   0.865   6.734  1.00  0.00     0.014 A 
ATOM     29  C   UNL     1       8.597  -0.666   5.040  1.00  0.00     0.014 A 
ATOM     30  C   UNL     1       8.070  -0.089   7.715  1.00  0.00     0.010 A 
ATOM     31  C   UNL     1       8.782  -1.648   6.008  1.00  0.00     0.010 A 
ATOM     32  C   UNL     1       8.526  -1.369   7.357  1.00  0.00    -0.014 A 
BRANCH  32  33
ATOM     33  C   UNL     1       8.743  -2.423   8.382  1.00  0.00     0.031 A 
ATOM     34  C   UNL     1      10.118  -2.999   8.595  1.00  0.00     0.074 A 
ATOM     35  C   UNL     1       7.691  -2.896   9.080  1.00  0.00     0.049 A 
ATOM     36  N   UNL     1      10.495  -3.964   9.393  1.00  0.00    -0.248 NA
ATOM     37  C   UNL     1      11.207  -2.434   7.781  1.00  0.00     0.031 C 
ATOM     38  C   UNL     1       6.305  -2.446   8.926  1.00  0.00     0.029 A 
ATOM     39  N   UNL     1       7.617  -3.860  10.054  1.00  0.00    -0.354 N 
ATOM     40  C   UNL     1      11.860  -4.126   9.175  1.00  0.00     0.074 A 
ATOM     41  C   UNL     1      12.228  -3.207   8.120  1.00  0.00     0.031 C 
ATOM     42  C   UNL     1       5.527  -3.110   9.796  1.00  0.00     0.029 A 
ATOM     43  C   UNL     1       6.343  -4.069  10.532  1.00  0.00     0.049 A 
ATOM     44  H   UNL     1       8.402  -4.356  10.380  1.00  0.00     0.167 HD
ATOM     45  C   UNL     1      12.729  -4.947   9.815  1.00  0.00     0.034 A 
ATOM     46  C   UNL     1       5.884  -4.943  11.449  1.00  0.00     0.034 A 
ATOM     47  C   UNL     1      12.346  -5.851  10.872  1.00  0.00     0.049 A 
ATOM     48  C   UNL     1       6.868  -5.865  12.125  1.00  0.00     0.074 A 
ATOM     49  C   UNL     1      13.150  -6.693  11.619  1.00  0.00     0.029 A 
ATOM     50  N   UNL     1      11.047  -6.036  11.329  1.00  0.00    -0.354 N 
ATOM     51  N   UNL     1       8.165  -5.967  11.943  1.00  0.00    -0.248 NA
ATOM     52  C   UNL     1       6.329  -6.780  13.138  1.00  0.00     0.031 C 
ATOM     53  C   UNL     1      12.332  -7.437  12.475  1.00  0.00     0.029 A 
ATOM     54  C   UNL     1      11.025  -7.001  12.324  1.00  0.00     0.049 A 
ATOM     55  H   UNL     1      10.257  -5.553  10.994  1.00  0.00     0.167 HD
ATOM     56  C   UNL     1       8.599  -6.936  12.843  1.00  0.00     0.074 A 
ATOM     57  C   UNL     1       7.430  -7.368  13.582  1.00  0.00     0.031 C 
ATOM     58  C   UNL     1       9.848  -7.428  13.044  1.00  0.00     0.034 A 
BRANCH  45  59
ATOM     59  C   UNL     1      14.174  -4.913   9.376  1.00  0.00     0.023 A 
ATOM     60  C   UNL     1      14.960  -3.755   9.510  1.00  0.00     0.031 A 
ATOM     61  C   UNL     1      14.774  -6.052   8.810  1.00  0.00     0.131 A 
ATOM     62  C   UNL     1      16.277  -3.740   9.028  1.00  0.00     0.055 A 
ATOM     63  C   UNL     1      16.111  -6.055   8.405  1.00  0.00     0.041 A 
ATOM     64  F   UNL     1      14.070  -7.181   8.635  1.00  0.00    -0.206 F 
ATOM     65  C   UNL     1      16.867  -4.891   8.501  1.00  0.00     0.022 A 
BRANCH  62  66
ATOM     66  S   UNL     1      17.167  -2.160   8.983  1.00  0.00     0.124 S 
ATOM     67  O   UNL     1      16.304  -1.361   8.116  1.00  0.00    -0.237 OA
ATOM     68  O   UNL     1      17.195  -1.773  10.388  1.00  0.00    -0.237 OA
ATOM     69  O   UNL     1      18.462  -2.513   8.406  1.00  0.00    -0.744 OA
ENDBRANCH  62  66
ENDBRANCH  45  59
BRANCH  46  70
ATOM     70  C   UNL     1       4.429  -5.010  11.777  1.00  0.00     0.023 A 
ATOM     71  C   UNL     1       3.966  -4.736  13.074  1.00  0.00     0.031 A 
ATOM     72  C   UNL     1       3.486  -5.410  10.814  1.00  0.00     0.131 A 
ATOM     73  C   UNL     1       2.612  -4.927  13.389  1.00  0.00     0.055 A 
ATOM     74  C   UNL     1       2.129  -5.536  11.116  1.00  0.00     0.041 A 
ATOM     75  F   UNL     1       3.871  -5.681   9.556  1.00  0.00    -0.206 F 
ATOM     76  C   UNL     1       1.687  -5.310  12.416  1.00  0.00     0.022 A 
BRANCH  73  77
ATOM     77  S   UNL     1       2.095  -4.777  15.122  1.00  0.00     0.124 S 
ATOM     78  O   UNL     1       2.975  -5.739  15.777  1.00  0.00    -0.237 OA
ATOM     79  O   UNL     1       2.364  -3.370  15.397  1.00  0.00    -0.237 OA
ATOM     80  O   UNL     1       0.682  -5.145  15.088  1.00  0.00    -0.744 OA
ENDBRANCH  73  77
ENDBRANCH  46  70
BRANCH  58  81
ATOM     81  C   UNL     1      10.012  -8.456  14.138  1.00  0.00     0.023 A 
ATOM     82  C   UNL     1       9.410  -9.724  14.057  1.00  0.00     0.031 A 
ATOM     83  C   UNL     1      10.762  -8.152  15.288  1.00  0.00     0.131 A 
ATOM     84  C   UNL     1       9.512 -10.616  15.135  1.00  0.00     0.055 A 
ATOM     85  C   UNL     1      10.918  -9.070  16.327  1.00  0.00     0.041 A 
ATOM     86  F   UNL     1      11.357  -6.956  15.421  1.00  0.00    -0.206 F 
ATOM     87  C   UNL     1      10.278 -10.305  16.261  1.00  0.00     0.022 A 
BRANCH  84  88
ATOM     88  S   UNL     1       8.539 -12.145  15.092  1.00  0.00     0.124 S 
ATOM     89  O   UNL     1       7.179 -11.636  14.947  1.00  0.00    -0.237 OA
ATOM     90  O   UNL     1       9.089 -12.833  13.929  1.00  0.00    -0.237 OA
ATOM     91  O   UNL     1       8.832 -12.774  16.379  1.00  0.00    -0.744 OA
ENDBRANCH  84  88
ENDBRANCH  58  81
ENDBRANCH  32  33
ENDBRANCH  24  27
ENDBRANCH  22  23
ENDBRANCH  21  22
ENDBRANCH   1  21
TORSDOF 16
