REMARK SMILES CC1(C)CCC[C@H]1NC(=O)N[C@@H]1COC[C@@]1(C)C(=O)NCCCNC(=O)c1ccc(-c2c3nc(c(-c4cc(S(=O)(=O)[O-])ccc4F)c4ccc([nH]4)c(-c4cc(S(=O)(=O)[O-])ccc4F)c4nc(c(-c5cc(S(=O)(=O)[O-])ccc5F)c5ccc2[nH]5)C=C4)C=C3)cc1
REMARK SMILES IDX 22 1 21 2 20 3 18 4 19 5 16 7 12 8 13 9 14 10 15 11 17 12
REMARK SMILES IDX 11 13 8 14 9 15 10 17 7 19 1 20 2 21 3 22 4 23 5 24 6 25
REMARK SMILES IDX 23 26 24 27 25 28 26 30 27 31 28 32 89 33 29 34 88 35 30 36
REMARK SMILES IDX 31 37 32 38 82 39 33 40 87 41 81 42 83 43 34 44 86 45 80 46
REMARK SMILES IDX 79 47 35 49 67 50 47 51 66 52 48 53 51 54 65 55 84 56 49 57
REMARK SMILES IDX 50 58 64 60 85 61 52 62 36 63 37 64 45 65 38 66 44 67 46 68
REMARK SMILES IDX 43 69 39 70 40 71 41 72 42 73 68 74 69 75 77 76 70 77 76 78
REMARK SMILES IDX 78 79 75 80 71 81 72 82 73 83 74 84 53 85 54 86 62 87 55 88
REMARK SMILES IDX 61 89 63 90 60 91 56 92 57 93 58 94 59 95
REMARK H PARENT 20 6 8 16 11 18 24 29 83 48 51 59
REMARK Flexibility Score: inf
ROOT
ATOM      1  C   UNL     1       3.782   2.331   2.563  1.00  0.00     0.042 C 
ENDROOT
BRANCH   1   2
ATOM      2  C   UNL     1       3.447   3.666   1.895  1.00  0.00     0.117 C 
BRANCH   2   3
ATOM      3  N   UNL     1       3.858   3.837   0.510  1.00  0.00    -0.355 N 
ATOM      4  C   UNL     1       3.160   3.760  -0.663  1.00  0.00     0.230 C 
ATOM      5  O   UNL     1       3.692   4.281  -1.648  1.00  0.00    -0.274 OA
ATOM      6  H   UNL     1       4.814   4.046   0.396  1.00  0.00     0.163 HD
BRANCH   4   7
ATOM      7  C   UNL     1       1.843   2.980  -0.786  1.00  0.00     0.092 C 
ATOM      8  C   UNL     1       0.603   3.664  -0.180  1.00  0.00     0.127 C 
ATOM      9  C   UNL     1      -0.497   3.608  -1.238  1.00  0.00     0.186 C 
ATOM     10  O   UNL     1      -0.002   2.808  -2.310  1.00  0.00    -0.378 OA
ATOM     11  C   UNL     1       1.429   2.927  -2.276  1.00  0.00     0.179 C 
ATOM     12  C   UNL     1       2.136   1.565  -0.336  1.00  0.00     0.026 C 
BRANCH   8  13
ATOM     13  N   UNL     1       0.131   3.324   1.168  1.00  0.00    -0.332 N 
ATOM     14  N   UNL     1      -0.630   1.086   1.490  1.00  0.00    -0.335 N 
ATOM     15  C   UNL     1      -0.349   2.320   1.892  1.00  0.00     0.315 C 
ATOM     16  H   UNL     1      -0.734   0.475   2.254  1.00  0.00     0.165 HD
ATOM     17  O   UNL     1      -0.530   2.569   3.089  1.00  0.00    -0.249 OA
ATOM     18  H   UNL     1       0.191   4.125   1.738  1.00  0.00     0.165 HD
BRANCH  14  19
ATOM     19  C   UNL     1      -0.828   0.387   0.221  1.00  0.00     0.089 C 
ATOM     20  C   UNL     1       1.044  -1.275   1.087  1.00  0.00     0.013 C 
ATOM     21  C   UNL     1      -0.181  -1.045   0.186  1.00  0.00    -0.015 C 
ATOM     22  C   UNL     1       0.194  -1.444  -1.263  1.00  0.00     0.013 C 
ATOM     23  C   UNL     1      -1.329  -1.944   0.675  1.00  0.00     0.008 C 
ATOM     24  C   UNL     1      -2.557  -1.370  -0.004  1.00  0.00     0.003 C 
ATOM     25  C   UNL     1      -2.345   0.141   0.026  1.00  0.00     0.025 C 
ENDBRANCH  14  19
ENDBRANCH   8  13
ENDBRANCH   4   7
ENDBRANCH   2   3
ENDBRANCH   1   2
BRANCH   1  26
ATOM     26  C   UNL     1       5.263   2.008   2.725  1.00  0.00     0.118 C 
BRANCH  26  27
ATOM     27  N   UNL     1       5.944   2.967   3.572  1.00  0.00    -0.352 N 
ATOM     28  C   UNL     1       6.438   2.871   4.848  1.00  0.00     0.251 C 
ATOM     29  H   UNL     1       6.075   3.849   3.156  1.00  0.00     0.163 HD
ATOM     30  O   UNL     1       6.697   3.922   5.433  1.00  0.00    -0.269 OA
BRANCH  28  31
ATOM     31  C   UNL     1       6.678   1.573   5.533  1.00  0.00     0.039 A 
ATOM     32  C   UNL     1       6.616   1.555   6.933  1.00  0.00     0.014 A 
ATOM     33  C   UNL     1       7.084   0.416   4.861  1.00  0.00     0.014 A 
ATOM     34  C   UNL     1       6.947   0.398   7.644  1.00  0.00     0.010 A 
ATOM     35  C   UNL     1       7.340  -0.765   5.569  1.00  0.00     0.010 A 
ATOM     36  C   UNL     1       7.301  -0.781   6.971  1.00  0.00    -0.014 A 
BRANCH  36  37
ATOM     37  C   UNL     1       7.649  -2.008   7.740  1.00  0.00     0.031 A 
ATOM     38  C   UNL     1       9.042  -2.582   7.698  1.00  0.00     0.074 A 
ATOM     39  C   UNL     1       6.697  -2.620   8.472  1.00  0.00     0.049 A 
ATOM     40  N   UNL     1       9.534  -3.616   8.335  1.00  0.00    -0.248 NA
ATOM     41  C   UNL     1       9.997  -1.925   6.797  1.00  0.00     0.031 C 
ATOM     42  C   UNL     1       5.295  -2.204   8.542  1.00  0.00     0.029 A 
ATOM     43  N   UNL     1       6.761  -3.716   9.295  1.00  0.00    -0.354 N 
ATOM     44  C   UNL     1      10.853  -3.739   7.906  1.00  0.00     0.074 A 
ATOM     45  C   UNL     1      11.056  -2.713   6.903  1.00  0.00     0.031 C 
ATOM     46  C   UNL     1       4.637  -3.020   9.379  1.00  0.00     0.029 A 
ATOM     47  C   UNL     1       5.559  -4.032   9.884  1.00  0.00     0.049 A 
ATOM     48  H   UNL     1       7.587  -4.228   9.448  1.00  0.00     0.167 HD
ATOM     49  C   UNL     1      11.811  -4.607   8.324  1.00  0.00     0.034 A 
ATOM     50  C   UNL     1       5.231  -5.025  10.734  1.00  0.00     0.034 A 
ATOM     51  C   UNL     1      11.587  -5.626   9.326  1.00  0.00     0.049 A 
ATOM     52  C   UNL     1       6.308  -5.962  11.208  1.00  0.00     0.074 A 
ATOM     53  C   UNL     1      12.497  -6.512   9.879  1.00  0.00     0.029 A 
ATOM     54  N   UNL     1      10.359  -5.908   9.916  1.00  0.00    -0.354 N 
ATOM     55  N   UNL     1       7.574  -6.011  10.860  1.00  0.00    -0.248 NA
ATOM     56  C   UNL     1       5.917  -6.960  12.210  1.00  0.00     0.031 C 
ATOM     57  C   UNL     1      11.807  -7.373  10.742  1.00  0.00     0.029 A 
ATOM     58  C   UNL     1      10.480  -6.977  10.795  1.00  0.00     0.049 A 
ATOM     59  H   UNL     1       9.524  -5.419   9.736  1.00  0.00     0.167 HD
ATOM     60  C   UNL     1       8.133  -7.043  11.607  1.00  0.00     0.074 A 
ATOM     61  C   UNL     1       7.072  -7.561  12.450  1.00  0.00     0.031 C 
ATOM     62  C   UNL     1       9.406  -7.520  11.597  1.00  0.00     0.034 A 
BRANCH  49  63
ATOM     63  C   UNL     1      13.171  -4.509   7.663  1.00  0.00     0.023 A 
ATOM     64  C   UNL     1      13.940  -3.331   7.720  1.00  0.00     0.031 A 
ATOM     65  C   UNL     1      13.685  -5.585   6.917  1.00  0.00     0.131 A 
ATOM     66  C   UNL     1      15.117  -3.220   6.963  1.00  0.00     0.055 A 
ATOM     67  C   UNL     1      14.906  -5.501   6.242  1.00  0.00     0.041 A 
ATOM     68  F   UNL     1      12.997  -6.732   6.808  1.00  0.00    -0.206 F 
ATOM     69  C   UNL     1      15.619  -4.306   6.244  1.00  0.00     0.022 A 
BRANCH  66  70
ATOM     70  S   UNL     1      15.877  -1.581   6.781  1.00  0.00     0.124 S 
ATOM     71  O   UNL     1      14.761  -0.794   6.262  1.00  0.00    -0.237 OA
ATOM     72  O   UNL     1      16.299  -1.277   8.141  1.00  0.00    -0.237 OA
ATOM     73  O   UNL     1      16.961  -1.811   5.825  1.00  0.00    -0.744 OA
ENDBRANCH  66  70
ENDBRANCH  49  63
BRANCH  50  74
ATOM     74  C   UNL     1       3.819  -5.178  11.181  1.00  0.00     0.023 A 
ATOM     75  C   UNL     1       3.438  -4.929  12.509  1.00  0.00     0.031 A 
ATOM     76  C   UNL     1       2.821  -5.566  10.268  1.00  0.00     0.131 A 
ATOM     77  C   UNL     1       2.098  -5.095  12.893  1.00  0.00     0.055 A 
ATOM     78  C   UNL     1       1.483  -5.687  10.645  1.00  0.00     0.041 A 
ATOM     79  F   UNL     1       3.133  -5.803   8.984  1.00  0.00    -0.206 F 
ATOM     80  C   UNL     1       1.117  -5.458  11.967  1.00  0.00     0.022 A 
BRANCH  77  81
ATOM     81  S   UNL     1       1.656  -4.864  14.637  1.00  0.00     0.124 S 
ATOM     82  O   UNL     1       2.458  -5.894  15.288  1.00  0.00    -0.237 OA
ATOM     83  O   UNL     1       2.067  -3.485  14.876  1.00  0.00    -0.237 OA
ATOM     84  O   UNL     1       0.212  -5.092  14.655  1.00  0.00    -0.744 OA
ENDBRANCH  77  81
ENDBRANCH  50  74
BRANCH  62  85
ATOM     85  C   UNL     1       9.705  -8.665  12.537  1.00  0.00     0.023 A 
ATOM     86  C   UNL     1       9.078  -9.917  12.393  1.00  0.00     0.031 A 
ATOM     87  C   UNL     1      10.581  -8.490  13.623  1.00  0.00     0.131 A 
ATOM     88  C   UNL     1       9.271 -10.914  13.361  1.00  0.00     0.055 A 
ATOM     89  C   UNL     1      10.825  -9.511  14.544  1.00  0.00     0.041 A 
ATOM     90  F   UNL     1      11.205  -7.317  13.816  1.00  0.00    -0.206 F 
ATOM     91  C   UNL     1      10.153 -10.724  14.428  1.00  0.00     0.022 A 
BRANCH  88  92
ATOM     92  S   UNL     1       8.245 -12.409  13.286  1.00  0.00     0.124 S 
ATOM     93  O   UNL     1       6.896 -11.851  13.283  1.00  0.00    -0.237 OA
ATOM     94  O   UNL     1       8.684 -13.025  12.038  1.00  0.00    -0.237 OA
ATOM     95  O   UNL     1       8.611 -13.137  14.500  1.00  0.00    -0.744 OA
ENDBRANCH  88  92
ENDBRANCH  62  85
ENDBRANCH  36  37
ENDBRANCH  28  31
ENDBRANCH  26  27
ENDBRANCH   1  26
TORSDOF 15
