REMARK SMILES O=C(C[N@@H+](C[C@@H]1COc2ccccc2O1)CC(F)(F)F)NCCCNC(=O)c1ccc(-c2c3nc(c(-c4cc(S(=O)(=O)[O-])ccc4F)c4ccc([nH]4)c(-c4cc(S(=O)(=O)[O-])ccc4F)c4nc(c(-c5cc(S(=O)(=O)[O-])ccc5F)c5ccc2[nH]5)C=C4)C=C3)cc1
REMARK SMILES IDX 23 1 22 2 21 3 1 4 2 5 3 7 4 8 5 10 6 11 7 12 15 13 8 14
REMARK SMILES IDX 14 15 9 16 13 17 10 18 12 19 11 20 16 21 17 22 18 23 19 24
REMARK SMILES IDX 20 25 24 26 25 27 26 28 27 30 28 31 29 32 90 33 30 34 89 35
REMARK SMILES IDX 31 36 32 37 33 38 83 39 34 40 88 41 82 42 84 43 35 44 87 45
REMARK SMILES IDX 81 46 80 47 36 49 68 50 48 51 67 52 49 53 52 54 66 55 85 56
REMARK SMILES IDX 50 57 51 58 65 60 86 61 53 62 37 63 38 64 46 65 39 66 45 67
REMARK SMILES IDX 47 68 44 69 40 70 41 71 42 72 43 73 69 74 70 75 78 76 71 77
REMARK SMILES IDX 77 78 79 79 76 80 72 81 73 82 74 83 75 84 54 85 55 86 63 87
REMARK SMILES IDX 56 88 62 89 64 90 61 91 57 92 58 93 59 94 60 95
REMARK H PARENT 21 6 4 9 25 29 84 48 52 59
REMARK Flexibility Score: inf
ROOT
ATOM      1  C   UNL     1       2.460   2.568  -2.355  1.00  0.00     0.042 C 
ENDROOT
BRANCH   1   2
ATOM      2  C   UNL     1       2.164   1.076  -2.265  1.00  0.00     0.118 C 
BRANCH   2   3
ATOM      3  N   UNL     1       2.745   0.445  -1.097  1.00  0.00    -0.351 N 
ATOM      4  O   UNL     1       0.963   0.868   0.280  1.00  0.00    -0.269 OA
ATOM      5  C   UNL     1       2.055   0.339   0.090  1.00  0.00     0.275 C 
ATOM      6  H   UNL     1       3.658   0.081  -1.153  1.00  0.00     0.163 HD
BRANCH   5   7
ATOM      7  C   UNL     1       2.774  -0.438   1.200  1.00  0.00     0.363 C 
BRANCH   7   8
ATOM      8  N   UNL     1       3.532  -1.617   0.716  1.00  0.00    -0.316 N 
ATOM      9  H   UNL     1       4.154  -1.270  -0.015  1.00  0.00     0.348 HD
BRANCH   8  10
ATOM     10  C   UNL     1       4.390  -2.190   1.793  1.00  0.00     0.312 C 
BRANCH  10  11
ATOM     11  C   UNL     1       3.686  -2.950   2.947  1.00  0.00     0.265 C 
ATOM     12  C   UNL     1       4.496  -2.999   4.245  1.00  0.00     0.281 C 
ATOM     13  O   UNL     1       3.332  -4.272   2.509  1.00  0.00    -0.477 OA
ATOM     14  O   UNL     1       5.678  -3.792   4.133  1.00  0.00    -0.486 OA
ATOM     15  C   UNL     1       4.275  -5.225   2.765  1.00  0.00     0.162 A 
ATOM     16  C   UNL     1       5.399  -5.005   3.561  1.00  0.00     0.161 A 
ATOM     17  C   UNL     1       4.064  -6.473   2.183  1.00  0.00     0.050 A 
ATOM     18  C   UNL     1       6.309  -6.037   3.783  1.00  0.00     0.050 A 
ATOM     19  C   UNL     1       4.976  -7.506   2.399  1.00  0.00     0.004 A 
ATOM     20  C   UNL     1       6.094  -7.290   3.206  1.00  0.00     0.004 A 
ENDBRANCH  10  11
ENDBRANCH   8  10
BRANCH   8  21
ATOM     21  C   UNL     1       2.704  -2.642   0.008  1.00  0.00     0.379 C 
BRANCH  21  22
ATOM     22  C   UNL     1       1.246  -3.013   0.391  1.00  0.00     0.438 C 
ATOM     23  F   UNL     1       0.416  -1.954   0.295  1.00  0.00    -0.165 F 
ATOM     24  F   UNL     1       0.776  -3.962  -0.458  1.00  0.00    -0.165 F 
ATOM     25  F   UNL     1       1.123  -3.500   1.639  1.00  0.00    -0.165 F 
ENDBRANCH  21  22
ENDBRANCH   8  21
ENDBRANCH   7   8
ENDBRANCH   5   7
ENDBRANCH   2   3
ENDBRANCH   1   2
BRANCH   1  26
ATOM     26  C   UNL     1       3.935   2.904  -2.551  1.00  0.00     0.118 C 
BRANCH  26  27
ATOM     27  N   UNL     1       4.475   2.384  -3.800  1.00  0.00    -0.352 N 
ATOM     28  C   UNL     1       5.090   3.029  -4.846  1.00  0.00     0.251 C 
ATOM     29  H   UNL     1       4.384   1.410  -3.914  1.00  0.00     0.163 HD
ATOM     30  O   UNL     1       5.314   2.405  -5.879  1.00  0.00    -0.269 OA
BRANCH  28  31
ATOM     31  C   UNL     1       5.457   4.461  -4.747  1.00  0.00     0.039 A 
ATOM     32  C   UNL     1       5.267   5.282  -5.863  1.00  0.00     0.014 A 
ATOM     33  C   UNL     1       6.013   4.994  -3.582  1.00  0.00     0.014 A 
ATOM     34  C   UNL     1       5.569   6.644  -5.786  1.00  0.00     0.010 A 
ATOM     35  C   UNL     1       6.237   6.366  -3.481  1.00  0.00     0.010 A 
ATOM     36  C   UNL     1       6.020   7.208  -4.582  1.00  0.00    -0.014 A 
BRANCH  36  37
ATOM     37  C   UNL     1       6.275   8.670  -4.461  1.00  0.00     0.031 A 
ATOM     38  C   UNL     1       7.660   9.175  -4.154  1.00  0.00     0.074 A 
ATOM     39  C   UNL     1       5.251   9.540  -4.574  1.00  0.00     0.049 A 
ATOM     40  N   UNL     1       8.067  10.400  -3.939  1.00  0.00    -0.248 NA
ATOM     41  C   UNL     1       8.722   8.163  -4.047  1.00  0.00     0.031 C 
ATOM     42  C   UNL     1       3.858   9.174  -4.839  1.00  0.00     0.029 A 
ATOM     43  N   UNL     1       5.219  10.909  -4.476  1.00  0.00    -0.354 N 
ATOM     44  C   UNL     1       9.427  10.306  -3.661  1.00  0.00     0.074 A 
ATOM     45  C   UNL     1       9.758   8.897  -3.670  1.00  0.00     0.031 C 
ATOM     46  C   UNL     1       3.115  10.290  -4.910  1.00  0.00     0.029 A 
ATOM     47  C   UNL     1       3.963  11.448  -4.643  1.00  0.00     0.049 A 
ATOM     48  H   UNL     1       6.019  11.456  -4.303  1.00  0.00     0.167 HD
ATOM     49  C   UNL     1      10.321  11.303  -3.443  1.00  0.00     0.034 A 
ATOM     50  C   UNL     1       3.537  12.726  -4.572  1.00  0.00     0.034 A 
ATOM     51  C   UNL     1       9.976  12.705  -3.445  1.00  0.00     0.049 A 
ATOM     52  C   UNL     1       4.542  13.813  -4.283  1.00  0.00     0.074 A 
ATOM     53  C   UNL     1      10.812  13.797  -3.284  1.00  0.00     0.029 A 
ATOM     54  N   UNL     1       8.692  13.210  -3.603  1.00  0.00    -0.354 N 
ATOM     55  N   UNL     1       5.834  13.711  -4.071  1.00  0.00    -0.248 NA
ATOM     56  C   UNL     1       4.032  15.190  -4.234  1.00  0.00     0.031 C 
ATOM     57  C   UNL     1      10.025  14.953  -3.265  1.00  0.00     0.029 A 
ATOM     58  C   UNL     1       8.708  14.594  -3.505  1.00  0.00     0.049 A 
ATOM     59  H   UNL     1       7.887  12.666  -3.761  1.00  0.00     0.167 HD
ATOM     60  C   UNL     1       6.295  15.014  -3.898  1.00  0.00     0.074 A 
ATOM     61  C   UNL     1       5.146  15.883  -4.047  1.00  0.00     0.031 C 
ATOM     62  C   UNL     1       7.555  15.453  -3.645  1.00  0.00     0.034 A 
BRANCH  49  63
ATOM     63  C   UNL     1      11.752  10.907  -3.157  1.00  0.00     0.023 A 
ATOM     64  C   UNL     1      12.527  10.204  -4.096  1.00  0.00     0.031 A 
ATOM     65  C   UNL     1      12.344  11.216  -1.919  1.00  0.00     0.131 A 
ATOM     66  C   UNL     1      13.815   9.765  -3.756  1.00  0.00     0.055 A 
ATOM     67  C   UNL     1      13.659  10.854  -1.620  1.00  0.00     0.041 A 
ATOM     68  F   UNL     1      11.649  11.866  -0.972  1.00  0.00    -0.206 F 
ATOM     69  C   UNL     1      14.398  10.110  -2.534  1.00  0.00     0.022 A 
BRANCH  66  70
ATOM     70  S   UNL     1      14.656   8.605  -4.868  1.00  0.00     0.124 S 
ATOM     71  O   UNL     1      13.703   7.499  -4.916  1.00  0.00    -0.237 OA
ATOM     72  O   UNL     1      14.793   9.385  -6.093  1.00  0.00    -0.237 OA
ATOM     73  O   UNL     1      15.907   8.309  -4.173  1.00  0.00    -0.744 OA
ENDBRANCH  66  70
ENDBRANCH  49  63
BRANCH  50  74
ATOM     74  C   UNL     1       2.094  13.055  -4.760  1.00  0.00     0.023 A 
ATOM     75  C   UNL     1       1.669  13.867  -5.824  1.00  0.00     0.031 A 
ATOM     76  C   UNL     1       1.122  12.606  -3.848  1.00  0.00     0.131 A 
ATOM     77  C   UNL     1       0.321  14.248  -5.920  1.00  0.00     0.055 A 
ATOM     78  C   UNL     1      -0.227  12.937  -3.982  1.00  0.00     0.041 A 
ATOM     79  F   UNL     1       1.472  11.827  -2.811  1.00  0.00    -0.206 F 
ATOM     80  C   UNL     1      -0.633  13.775  -5.015  1.00  0.00     0.022 A 
BRANCH  77  81
ATOM     81  S   UNL     1      -0.152  15.456  -7.188  1.00  0.00     0.124 S 
ATOM     82  O   UNL     1       0.703  16.588  -6.851  1.00  0.00    -0.237 OA
ATOM     83  O   UNL     1       0.176  14.747  -8.420  1.00  0.00    -0.237 OA
ATOM     84  O   UNL     1      -1.580  15.658  -6.949  1.00  0.00    -0.744 OA
ENDBRANCH  77  81
ENDBRANCH  50  74
BRANCH  62  85
ATOM     85  C   UNL     1       7.762  16.947  -3.564  1.00  0.00     0.023 A 
ATOM     86  C   UNL     1       7.185  17.724  -2.545  1.00  0.00     0.031 A 
ATOM     87  C   UNL     1       8.547  17.603  -4.530  1.00  0.00     0.131 A 
ATOM     88  C   UNL     1       7.353  19.118  -2.547  1.00  0.00     0.055 A 
ATOM     89  C   UNL     1       8.767  18.981  -4.488  1.00  0.00     0.041 A 
ATOM     90  F   UNL     1       9.120  16.914  -5.530  1.00  0.00    -0.206 F 
ATOM     91  C   UNL     1       8.157  19.748  -3.501  1.00  0.00     0.022 A 
BRANCH  88  92
ATOM     92  S   UNL     1       6.425  20.110  -1.346  1.00  0.00     0.124 S 
ATOM     93  O   UNL     1       5.046  19.747  -1.653  1.00  0.00    -0.237 OA
ATOM     94  O   UNL     1       6.944  19.624  -0.072  1.00  0.00    -0.237 OA
ATOM     95  O   UNL     1       6.793  21.485  -1.679  1.00  0.00    -0.744 OA
ENDBRANCH  88  92
ENDBRANCH  62  85
ENDBRANCH  36  37
ENDBRANCH  28  31
ENDBRANCH  26  27
ENDBRANCH   1  26
TORSDOF 18
