REMARK SMILES CC[N@H+](CC(C)(C)C(=O)NCCCNC(=O)c1ccc(-c2c3nc(c(-c4cc(S(=O)(=O)[O-])ccc4F)c4ccc([nH]4)c(-c4cc(S(=O)(=O)[O-])ccc4F)c4nc(c(-c5cc(S(=O)(=O)[O-])ccc5F)c5ccc2[nH]5)C=C4)C=C3)cc1)[C@H]1CCC[NH2+]C1
REMARK SMILES IDX 12 1 11 2 10 3 8 4 9 5 5 7 6 8 7 9 4 10 3 11 2 13 1 14 80 15
REMARK SMILES IDX 81 16 85 17 82 18 84 19 83 20 13 23 14 24 15 25 16 27 17 28
REMARK SMILES IDX 18 29 79 30 19 31 78 32 20 33 21 34 22 35 72 36 23 37 77 38
REMARK SMILES IDX 71 39 73 40 24 41 76 42 70 43 69 44 25 46 57 47 37 48 56 49
REMARK SMILES IDX 38 50 41 51 55 52 74 53 39 54 40 55 54 57 75 58 42 59 26 60
REMARK SMILES IDX 27 61 35 62 28 63 34 64 36 65 33 66 29 67 30 68 31 69 32 70
REMARK SMILES IDX 58 71 59 72 67 73 60 74 66 75 68 76 65 77 61 78 62 79 63 80
REMARK SMILES IDX 64 81 43 82 44 83 52 84 45 85 51 86 53 87 50 88 46 89 47 90
REMARK SMILES IDX 48 91 49 92
REMARK H PARENT 10 6 3 12 84 21 84 22 14 26 73 45 41 56
REMARK Flexibility Score: inf
ROOT
ATOM      1  C   UNL     1       7.162   6.724  -4.963  1.00  0.00     0.042 C 
ENDROOT
BRANCH   1   2
ATOM      2  C   UNL     1       5.729   6.202  -4.925  1.00  0.00     0.117 C 
BRANCH   2   3
ATOM      3  N   UNL     1       5.698   4.813  -4.513  1.00  0.00    -0.355 N 
ATOM      4  C   UNL     1       5.386   4.223  -3.334  1.00  0.00     0.231 C 
ATOM      5  O   UNL     1       5.897   3.112  -3.154  1.00  0.00    -0.274 OA
ATOM      6  H   UNL     1       5.952   4.179  -5.222  1.00  0.00     0.163 HD
BRANCH   4   7
ATOM      7  C   UNL     1       4.484   4.883  -2.278  1.00  0.00     0.092 C 
ATOM      8  C   UNL     1       3.222   5.561  -2.844  1.00  0.00     0.027 C 
ATOM      9  C   UNL     1       5.336   5.922  -1.518  1.00  0.00     0.027 C 
BRANCH   7  10
ATOM     10  C   UNL     1       4.041   3.790  -1.232  1.00  0.00     0.279 C 
BRANCH  10  11
ATOM     11  N   UNL     1       2.897   2.891  -1.546  1.00  0.00    -0.327 N 
ATOM     12  H   UNL     1       2.102   3.504  -1.723  1.00  0.00     0.348 HD
BRANCH  11  13
ATOM     13  C   UNL     1       3.100   2.124  -2.791  1.00  0.00     0.259 C 
ATOM     14  C   UNL     1       1.851   1.426  -3.324  1.00  0.00     0.071 C 
ENDBRANCH  11  13
BRANCH  11  15
ATOM     15  C   UNL     1       2.482   2.033  -0.384  1.00  0.00     0.239 C 
ATOM     16  C   UNL     1       3.189   0.659  -0.288  1.00  0.00     0.077 C 
ATOM     17  C   UNL     1       2.570   2.728   1.015  1.00  0.00     0.326 C 
ATOM     18  C   UNL     1       2.683  -0.141   0.912  1.00  0.00     0.068 C 
ATOM     19  N   UNL     1       2.089   1.901   2.132  1.00  0.00    -0.341 N 
ATOM     20  C   UNL     1       2.836   0.646   2.205  1.00  0.00     0.260 C 
ATOM     21  H   UNL     1       2.212   2.414   3.006  1.00  0.00     0.346 HD
ATOM     22  H   UNL     1       1.103   1.688   1.983  1.00  0.00     0.346 HD
ENDBRANCH  11  15
ENDBRANCH  10  11
ENDBRANCH   7  10
ENDBRANCH   4   7
ENDBRANCH   2   3
ENDBRANCH   1   2
BRANCH   1  23
ATOM     23  C   UNL     1       8.079   5.950  -5.904  1.00  0.00     0.118 C 
BRANCH  23  24
ATOM     24  N   UNL     1       7.606   5.965  -7.280  1.00  0.00    -0.352 N 
ATOM     25  C   UNL     1       8.193   6.482  -8.408  1.00  0.00     0.251 C 
ATOM     26  H   UNL     1       6.730   5.540  -7.424  1.00  0.00     0.163 HD
ATOM     27  O   UNL     1       7.527   6.596  -9.433  1.00  0.00    -0.269 OA
BRANCH  25  28
ATOM     28  C   UNL     1       9.606   6.919  -8.380  1.00  0.00     0.039 A 
ATOM     29  C   UNL     1       9.958   8.098  -9.041  1.00  0.00     0.014 A 
ATOM     30  C   UNL     1      10.583   6.166  -7.723  1.00  0.00     0.014 A 
ATOM     31  C   UNL     1      11.277   8.551  -8.990  1.00  0.00     0.010 A 
ATOM     32  C   UNL     1      11.877   6.664  -7.599  1.00  0.00     0.010 A 
ATOM     33  C   UNL     1      12.241   7.856  -8.239  1.00  0.00    -0.014 A 
BRANCH  33  34
ATOM     34  C   UNL     1      13.626   8.377  -8.116  1.00  0.00     0.031 A 
ATOM     35  C   UNL     1      14.789   7.588  -8.652  1.00  0.00     0.074 A 
ATOM     36  C   UNL     1      13.837   9.538  -7.465  1.00  0.00     0.049 A 
ATOM     37  N   UNL     1      16.066   7.876  -8.631  1.00  0.00    -0.248 NA
ATOM     38  C   UNL     1      14.479   6.285  -9.258  1.00  0.00     0.031 C 
ATOM     39  C   UNL     1      12.796  10.348  -6.826  1.00  0.00     0.029 A 
ATOM     40  N   UNL     1      14.993  10.235  -7.224  1.00  0.00    -0.354 N 
ATOM     41  C   UNL     1      16.712   6.785  -9.204  1.00  0.00     0.074 A 
ATOM     42  C   UNL     1      15.689   5.804  -9.498  1.00  0.00     0.031 C 
ATOM     43  C   UNL     1      13.357  11.442  -6.290  1.00  0.00     0.029 A 
ATOM     44  C   UNL     1      14.798  11.398  -6.516  1.00  0.00     0.049 A 
ATOM     45  H   UNL     1      15.878   9.932  -7.529  1.00  0.00     0.167 HD
ATOM     46  C   UNL     1      18.031   6.628  -9.482  1.00  0.00     0.034 A 
ATOM     47  C   UNL     1      15.680  12.325  -6.095  1.00  0.00     0.034 A 
ATOM     48  C   UNL     1      19.032   7.628  -9.190  1.00  0.00     0.049 A 
ATOM     49  C   UNL     1      17.133  12.153  -6.447  1.00  0.00     0.074 A 
ATOM     50  C   UNL     1      20.379   7.619  -9.505  1.00  0.00     0.029 A 
ATOM     51  N   UNL     1      18.796   8.812  -8.501  1.00  0.00    -0.354 N 
ATOM     52  N   UNL     1      17.718  11.160  -7.078  1.00  0.00    -0.248 NA
ATOM     53  C   UNL     1      18.038  13.237  -6.053  1.00  0.00     0.031 C 
ATOM     54  C   UNL     1      20.970   8.759  -8.946  1.00  0.00     0.029 A 
ATOM     55  C   UNL     1      19.979   9.523  -8.348  1.00  0.00     0.049 A 
ATOM     56  H   UNL     1      17.917   9.105  -8.169  1.00  0.00     0.167 HD
ATOM     57  C   UNL     1      19.063  11.507  -7.165  1.00  0.00     0.074 A 
ATOM     58  C   UNL     1      19.190  12.816  -6.553  1.00  0.00     0.031 C 
ATOM     59  C   UNL     1      20.099  10.809  -7.700  1.00  0.00     0.034 A 
BRANCH  46  60
ATOM     60  C   UNL     1      18.457   5.316 -10.103  1.00  0.00     0.023 A 
ATOM     61  C   UNL     1      17.961   4.888 -11.348  1.00  0.00     0.031 A 
ATOM     62  C   UNL     1      19.335   4.456  -9.420  1.00  0.00     0.131 A 
ATOM     63  C   UNL     1      18.267   3.604 -11.824  1.00  0.00     0.055 A 
ATOM     64  C   UNL     1      19.707   3.214  -9.942  1.00  0.00     0.041 A 
ATOM     65  F   UNL     1      19.829   4.795  -8.219  1.00  0.00    -0.206 F 
ATOM     66  C   UNL     1      19.157   2.773 -11.141  1.00  0.00     0.022 A 
BRANCH  63  67
ATOM     67  S   UNL     1      17.350   2.971 -13.257  1.00  0.00     0.124 S 
ATOM     68  O   UNL     1      15.967   3.093 -12.800  1.00  0.00    -0.237 OA
ATOM     69  O   UNL     1      17.756   3.884 -14.319  1.00  0.00    -0.237 OA
ATOM     70  O   UNL     1      17.833   1.598 -13.394  1.00  0.00    -0.744 OA
ENDBRANCH  63  67
ENDBRANCH  46  60
BRANCH  47  71
ATOM     71  C   UNL     1      15.211  13.491  -5.295  1.00  0.00     0.023 A 
ATOM     72  C   UNL     1      15.251  14.794  -5.813  1.00  0.00     0.031 A 
ATOM     73  C   UNL     1      14.718  13.312  -3.990  1.00  0.00     0.131 A 
ATOM     74  C   UNL     1      14.838  15.875  -5.017  1.00  0.00     0.055 A 
ATOM     75  C   UNL     1      14.266  14.384  -3.219  1.00  0.00     0.041 A 
ATOM     76  F   UNL     1      14.646  12.083  -3.454  1.00  0.00    -0.206 F 
ATOM     77  C   UNL     1      14.334  15.677  -3.729  1.00  0.00     0.022 A 
BRANCH  74  78
ATOM     78  S   UNL     1      15.014  17.557  -5.673  1.00  0.00     0.124 S 
ATOM     79  O   UNL     1      16.452  17.638  -5.903  1.00  0.00    -0.237 OA
ATOM     80  O   UNL     1      14.175  17.506  -6.866  1.00  0.00    -0.237 OA
ATOM     81  O   UNL     1      14.504  18.398  -4.592  1.00  0.00    -0.744 OA
ENDBRANCH  74  78
ENDBRANCH  47  71
BRANCH  59  82
ATOM     82  C   UNL     1      21.456  11.469  -7.645  1.00  0.00     0.023 A 
ATOM     83  C   UNL     1      22.094  11.736  -6.420  1.00  0.00     0.031 A 
ATOM     84  C   UNL     1      22.099  11.879  -8.826  1.00  0.00     0.131 A 
ATOM     85  C   UNL     1      23.294  12.462  -6.399  1.00  0.00     0.055 A 
ATOM     86  C   UNL     1      23.328  12.540  -8.802  1.00  0.00     0.041 A 
ATOM     87  F   UNL     1      21.536  11.655 -10.024  1.00  0.00    -0.206 F 
ATOM     88  C   UNL     1      23.924  12.851  -7.583  1.00  0.00     0.022 A 
BRANCH  85  89
ATOM     89  S   UNL     1      23.951  13.007  -4.798  1.00  0.00     0.124 S 
ATOM     90  O   UNL     1      22.822  13.746  -4.242  1.00  0.00    -0.237 OA
ATOM     91  O   UNL     1      24.269  11.741  -4.145  1.00  0.00    -0.237 OA
ATOM     92  O   UNL     1      25.107  13.824  -5.163  1.00  0.00    -0.744 OA
ENDBRANCH  85  89
ENDBRANCH  59  82
ENDBRANCH  33  34
ENDBRANCH  25  28
ENDBRANCH  23  24
ENDBRANCH   1  23
TORSDOF 17
