REMARK SMILES O=C(NCCCNC(=O)c1ccc(COc2cccc(C(F)(F)F)c2)nc1)c1ccc(-c2c3nc(c(-c4cc(S(=O)(=O)[O-])ccc4F)c4ccc([nH]4)c(-c4cc(S(=O)(=O)[O-])ccc4F)c4nc(c(-c5cc(S(=O)(=O)[O-])ccc5F)c5ccc2[nH]5)C=C4)C=C3)cc1
REMARK SMILES IDX 5 1 4 2 3 3 1 4 2 5 28 7 29 8 90 9 30 10 89 11 31 12 32 13
REMARK SMILES IDX 33 14 83 15 34 16 88 17 82 18 84 19 35 20 87 21 81 22 80 23
REMARK SMILES IDX 36 25 68 26 48 27 67 28 49 29 52 30 66 31 85 32 50 33 51 34
REMARK SMILES IDX 65 36 86 37 53 38 37 39 38 40 46 41 39 42 45 43 47 44 44 45
REMARK SMILES IDX 40 46 41 47 42 48 43 49 69 50 70 51 78 52 71 53 77 54 79 55
REMARK SMILES IDX 76 56 72 57 73 58 74 59 75 60 54 61 55 62 63 63 56 64 62 65
REMARK SMILES IDX 64 66 61 67 57 68 58 69 59 70 60 71 6 72 7 73 8 74 9 76
REMARK SMILES IDX 10 77 11 78 27 79 12 80 26 81 13 82 14 83 15 84 16 85 17 86
REMARK SMILES IDX 25 87 18 88 20 89 19 90 21 91 22 92 23 93 24 94
REMARK H PARENT 3 6 84 24 52 35 7 75
REMARK Flexibility Score: inf
ROOT
ATOM      1  C   UNL     1       4.975   0.793   2.181  1.00  0.00     0.042 C 
ENDROOT
BRANCH   1   2
ATOM      2  C   UNL     1       4.637  -0.365   1.255  1.00  0.00     0.118 C 
BRANCH   2   3
ATOM      3  N   UNL     1       3.203  -0.481   1.014  1.00  0.00    -0.352 N 
ATOM      4  O   UNL     1       1.241  -0.115  -0.024  1.00  0.00    -0.269 OA
ATOM      5  C   UNL     1       2.468  -0.166  -0.101  1.00  0.00     0.251 C 
ATOM      6  H   UNL     1       2.682  -0.840   1.769  1.00  0.00     0.163 HD
BRANCH   5   7
ATOM      7  C   UNL     1       3.146   0.120  -1.383  1.00  0.00     0.039 A 
ATOM      8  C   UNL     1       4.239  -0.647  -1.790  1.00  0.00     0.014 A 
ATOM      9  C   UNL     1       2.669   1.147  -2.202  1.00  0.00     0.014 A 
ATOM     10  C   UNL     1       4.956  -0.284  -2.921  1.00  0.00     0.010 A 
ATOM     11  C   UNL     1       3.325   1.438  -3.401  1.00  0.00     0.010 A 
ATOM     12  C   UNL     1       4.492   0.743  -3.756  1.00  0.00    -0.014 A 
BRANCH  12  13
ATOM     13  C   UNL     1       5.207   1.012  -5.029  1.00  0.00     0.031 A 
ATOM     14  C   UNL     1       5.863   2.338  -5.287  1.00  0.00     0.074 A 
ATOM     15  C   UNL     1       5.272   0.027  -5.947  1.00  0.00     0.049 A 
ATOM     16  N   UNL     1       6.517   2.741  -6.347  1.00  0.00    -0.248 NA
ATOM     17  C   UNL     1       5.760   3.347  -4.224  1.00  0.00     0.031 C 
ATOM     18  C   UNL     1       4.656  -1.296  -5.803  1.00  0.00     0.029 A 
ATOM     19  N   UNL     1       5.887  -0.027  -7.170  1.00  0.00    -0.354 N 
ATOM     20  C   UNL     1       6.887   4.057  -6.090  1.00  0.00     0.074 A 
ATOM     21  C   UNL     1       6.351   4.392  -4.787  1.00  0.00     0.031 C 
ATOM     22  C   UNL     1       4.957  -2.041  -6.875  1.00  0.00     0.029 A 
ATOM     23  C   UNL     1       5.718  -1.229  -7.816  1.00  0.00     0.049 A 
ATOM     24  H   UNL     1       6.401   0.722  -7.549  1.00  0.00     0.167 HD
ATOM     25  C   UNL     1       7.611   4.899  -6.871  1.00  0.00     0.034 A 
ATOM     26  C   UNL     1       6.098  -1.627  -9.044  1.00  0.00     0.034 A 
ATOM     27  C   UNL     1       8.135   4.537  -8.168  1.00  0.00     0.049 A 
ATOM     28  C   UNL     1       6.870  -0.666  -9.902  1.00  0.00     0.074 A 
ATOM     29  C   UNL     1       8.919   5.292  -9.024  1.00  0.00     0.029 A 
ATOM     30  N   UNL     1       7.917   3.320  -8.805  1.00  0.00    -0.354 N 
ATOM     31  N   UNL     1       7.236   0.566  -9.634  1.00  0.00    -0.248 NA
ATOM     32  C   UNL     1       7.283  -1.148 -11.224  1.00  0.00     0.031 C 
ATOM     33  C   UNL     1       9.113   4.562 -10.203  1.00  0.00     0.029 A 
ATOM     34  C   UNL     1       8.517   3.319 -10.056  1.00  0.00     0.049 A 
ATOM     35  H   UNL     1       7.409   2.568  -8.424  1.00  0.00     0.167 HD
ATOM     36  C   UNL     1       7.934   1.005 -10.754  1.00  0.00     0.074 A 
ATOM     37  C   UNL     1       7.956  -0.104 -11.688  1.00  0.00     0.031 C 
ATOM     38  C   UNL     1       8.505   2.214 -10.988  1.00  0.00     0.034 A 
BRANCH  25  39
ATOM     39  C   UNL     1       7.827   6.306  -6.361  1.00  0.00     0.023 A 
ATOM     40  C   UNL     1       8.543   6.569  -5.180  1.00  0.00     0.031 A 
ATOM     41  C   UNL     1       7.277   7.402  -7.051  1.00  0.00     0.131 A 
ATOM     42  C   UNL     1       8.621   7.880  -4.682  1.00  0.00     0.055 A 
ATOM     43  C   UNL     1       7.428   8.714  -6.594  1.00  0.00     0.041 A 
ATOM     44  F   UNL     1       6.565   7.216  -8.174  1.00  0.00    -0.206 F 
ATOM     45  C   UNL     1       8.089   8.957  -5.394  1.00  0.00     0.022 A 
BRANCH  42  46
ATOM     46  S   UNL     1       9.289   8.136  -3.014  1.00  0.00     0.124 S 
ATOM     47  O   UNL     1       8.431   7.265  -2.214  1.00  0.00    -0.237 OA
ATOM     48  O   UNL     1      10.675   7.709  -3.161  1.00  0.00    -0.237 OA
ATOM     49  O   UNL     1       9.096   9.566  -2.784  1.00  0.00    -0.744 OA
ENDBRANCH  42  46
ENDBRANCH  25  39
BRANCH  26  50
ATOM     50  C   UNL     1       5.705  -2.974  -9.539  1.00  0.00     0.023 A 
ATOM     51  C   UNL     1       6.661  -3.968  -9.794  1.00  0.00     0.031 A 
ATOM     52  C   UNL     1       4.349  -3.288  -9.755  1.00  0.00     0.131 A 
ATOM     53  C   UNL     1       6.251  -5.221 -10.277  1.00  0.00     0.055 A 
ATOM     54  C   UNL     1       3.943  -4.550 -10.187  1.00  0.00     0.041 A 
ATOM     55  F   UNL     1       3.395  -2.374  -9.517  1.00  0.00    -0.206 F 
ATOM     56  C   UNL     1       4.899  -5.523 -10.460  1.00  0.00     0.022 A 
BRANCH  53  57
ATOM     57  S   UNL     1       7.519  -6.438 -10.720  1.00  0.00     0.124 S 
ATOM     58  O   UNL     1       8.284  -5.717 -11.731  1.00  0.00    -0.237 OA
ATOM     59  O   UNL     1       8.189  -6.656  -9.442  1.00  0.00    -0.237 OA
ATOM     60  O   UNL     1       6.743  -7.573 -11.216  1.00  0.00    -0.744 OA
ENDBRANCH  53  57
ENDBRANCH  26  50
BRANCH  38  61
ATOM     61  C   UNL     1       9.224   2.377 -12.303  1.00  0.00     0.023 A 
ATOM     62  C   UNL     1       8.529   2.391 -13.526  1.00  0.00     0.031 A 
ATOM     63  C   UNL     1      10.624   2.496 -12.334  1.00  0.00     0.131 A 
ATOM     64  C   UNL     1       9.242   2.467 -14.732  1.00  0.00     0.055 A 
ATOM     65  C   UNL     1      11.323   2.630 -13.534  1.00  0.00     0.041 A 
ATOM     66  F   UNL     1      11.336   2.483 -11.196  1.00  0.00    -0.206 F 
ATOM     67  C   UNL     1      10.633   2.603 -14.743  1.00  0.00     0.022 A 
BRANCH  64  68
ATOM     68  S   UNL     1       8.334   2.298 -16.293  1.00  0.00     0.124 S 
ATOM     69  O   UNL     1       7.737   0.973 -16.153  1.00  0.00    -0.237 OA
ATOM     70  O   UNL     1       7.407   3.424 -16.240  1.00  0.00    -0.237 OA
ATOM     71  O   UNL     1       9.378   2.403 -17.310  1.00  0.00    -0.744 OA
ENDBRANCH  64  68
ENDBRANCH  38  61
ENDBRANCH  12  13
ENDBRANCH   5   7
ENDBRANCH   2   3
ENDBRANCH   1   2
BRANCH   1  72
ATOM     72  C   UNL     1       4.401   0.629   3.578  1.00  0.00     0.118 C 
BRANCH  72  73
ATOM     73  N   UNL     1       4.955  -0.537   4.251  1.00  0.00    -0.352 N 
ATOM     74  C   UNL     1       5.895  -0.593   5.241  1.00  0.00     0.252 C 
ATOM     75  H   UNL     1       4.605  -1.406   3.950  1.00  0.00     0.163 HD
ATOM     76  O   UNL     1       6.462  -1.657   5.493  1.00  0.00    -0.269 OA
BRANCH  74  77
ATOM     77  C   UNL     1       6.210   0.599   6.039  1.00  0.00     0.058 A 
ATOM     78  C   UNL     1       5.212   1.431   6.548  1.00  0.00     0.017 A 
ATOM     79  C   UNL     1       7.520   0.829   6.422  1.00  0.00     0.125 A 
ATOM     80  C   UNL     1       5.558   2.465   7.410  1.00  0.00     0.028 A 
ATOM     81  N   UNL     1       7.881   1.813   7.282  1.00  0.00    -0.257 NA
ATOM     82  C   UNL     1       6.893   2.592   7.796  1.00  0.00     0.078 A 
BRANCH  82  83
ATOM     83  C   UNL     1       7.238   3.446   8.999  1.00  0.00     0.285 C 
BRANCH  83  84
ATOM     84  O   UNL     1       7.732   2.685  10.126  1.00  0.00    -0.487 OA
BRANCH  84  85
ATOM     85  C   UNL     1       6.780   1.944  10.775  1.00  0.00     0.120 A 
ATOM     86  C   UNL     1       6.480   2.274  12.093  1.00  0.00     0.046 A 
ATOM     87  C   UNL     1       6.210   0.806  10.204  1.00  0.00     0.059 A 
ATOM     88  C   UNL     1       5.565   1.502  12.813  1.00  0.00     0.004 A 
ATOM     89  C   UNL     1       5.237   0.062  10.886  1.00  0.00     0.059 A 
ATOM     90  C   UNL     1       4.933   0.412  12.208  1.00  0.00     0.013 A 
BRANCH  89  91
ATOM     91  C   UNL     1       4.554  -1.102  10.212  1.00  0.00     0.416 C 
ATOM     92  F   UNL     1       5.088  -2.302  10.565  1.00  0.00    -0.166 F 
ATOM     93  F   UNL     1       3.228  -1.177  10.525  1.00  0.00    -0.166 F 
ATOM     94  F   UNL     1       4.601  -1.045   8.852  1.00  0.00    -0.166 F 
ENDBRANCH  89  91
ENDBRANCH  84  85
ENDBRANCH  83  84
ENDBRANCH  82  83
ENDBRANCH  74  77
ENDBRANCH  72  73
ENDBRANCH   1  72
TORSDOF 17
