REMARK SMILES CCC[C@H](CNC(=O)N1CCN2C(=O)NC[C@H]2C1)C(=O)NCCCNC(=O)c1ccc(-c2c3nc(c(-c4cc(S(=O)(=O)[O-])ccc4F)c4ccc([nH]4)c(-c4cc(S(=O)(=O)[O-])ccc4F)c4nc(c(-c5cc(S(=O)(=O)[O-])ccc5F)c5ccc2[nH]5)C=C4)C=C3)cc1
REMARK SMILES IDX 23 1 22 2 21 3 19 4 20 5 4 7 3 8 2 9 1 10 5 11 6 12 7 13
REMARK SMILES IDX 8 15 9 16 10 17 18 18 11 19 17 20 12 21 16 22 13 23 15 24
REMARK SMILES IDX 14 25 24 27 25 28 26 29 27 31 28 32 29 33 90 34 30 35 89 36
REMARK SMILES IDX 31 37 32 38 33 39 83 40 34 41 88 42 82 43 84 44 35 45 87 46
REMARK SMILES IDX 81 47 80 48 36 50 68 51 48 52 67 53 49 54 52 55 66 56 85 57
REMARK SMILES IDX 50 58 51 59 65 61 86 62 53 63 37 64 38 65 46 66 39 67 45 68
REMARK SMILES IDX 47 69 44 70 40 71 41 72 42 73 43 74 69 75 70 76 78 77 71 78
REMARK SMILES IDX 77 79 79 80 76 81 72 82 73 83 74 84 75 85 54 86 55 87 63 88
REMARK SMILES IDX 56 89 62 90 64 91 61 92 57 93 58 94 59 95 60 96
REMARK H PARENT 21 6 6 14 15 26 25 30 84 49 52 60
REMARK Flexibility Score: inf
ROOT
ATOM      1  C   UNL     1       0.540   5.733  -2.230  1.00  0.00     0.042 C 
ENDROOT
BRANCH   1   2
ATOM      2  C   UNL     1      -0.190   4.726  -3.101  1.00  0.00     0.117 C 
BRANCH   2   3
ATOM      3  N   UNL     1       0.671   3.779  -3.771  1.00  0.00    -0.356 N 
ATOM      4  C   UNL     1       0.842   2.449  -3.521  1.00  0.00     0.224 C 
ATOM      5  O   UNL     1       1.461   1.782  -4.353  1.00  0.00    -0.275 OA
ATOM      6  H   UNL     1       1.210   4.144  -4.510  1.00  0.00     0.163 HD
BRANCH   4   7
ATOM      7  C   UNL     1       0.368   1.815  -2.207  1.00  0.00     0.097 C 
BRANCH   7   8
ATOM      8  C   UNL     1      -1.172   1.764  -2.065  1.00  0.00     0.015 C 
BRANCH   8   9
ATOM      9  C   UNL     1      -1.826   2.059  -0.704  1.00  0.00    -0.003 C 
ATOM     10  C   UNL     1      -2.019   3.524  -0.329  1.00  0.00     0.004 C 
ENDBRANCH   8   9
ENDBRANCH   7   8
BRANCH   7  11
ATOM     11  C   UNL     1       1.214   2.422  -1.084  1.00  0.00     0.131 C 
BRANCH  11  12
ATOM     12  N   UNL     1       1.551   1.493  -0.022  1.00  0.00    -0.337 N 
ATOM     13  C   UNL     1       2.790   1.213   0.460  1.00  0.00     0.317 C 
ATOM     14  H   UNL     1       0.800   1.013   0.396  1.00  0.00     0.165 HD
ATOM     15  O   UNL     1       2.979   0.099   0.948  1.00  0.00    -0.249 OA
BRANCH  13  16
ATOM     16  N   UNL     1       3.792   2.129   0.300  1.00  0.00    -0.321 N 
ATOM     17  C   UNL     1       3.674   3.601   0.375  1.00  0.00     0.143 C 
ATOM     18  C   UNL     1       5.163   1.649   0.090  1.00  0.00     0.148 C 
ATOM     19  C   UNL     1       4.308   4.313  -0.841  1.00  0.00     0.143 C 
ATOM     20  C   UNL     1       5.636   2.202  -1.253  1.00  0.00     0.125 C 
ATOM     21  N   UNL     1       5.524   3.652  -1.281  1.00  0.00    -0.317 N 
ATOM     22  C   UNL     1       7.096   1.968  -1.612  1.00  0.00     0.144 C 
ATOM     23  C   UNL     1       6.559   4.217  -2.002  1.00  0.00     0.317 C 
ATOM     24  N   UNL     1       7.478   3.205  -2.251  1.00  0.00    -0.336 N 
ATOM     25  O   UNL     1       6.664   5.370  -2.364  1.00  0.00    -0.249 OA
ATOM     26  H   UNL     1       8.290   3.317  -2.797  1.00  0.00     0.165 HD
ENDBRANCH  13  16
ENDBRANCH  11  12
ENDBRANCH   7  11
ENDBRANCH   4   7
ENDBRANCH   2   3
ENDBRANCH   1   2
BRANCH   1  27
ATOM     27  C   UNL     1       0.993   6.962  -2.997  1.00  0.00     0.118 C 
BRANCH  27  28
ATOM     28  N   UNL     1      -0.135   7.703  -3.548  1.00  0.00    -0.352 N 
ATOM     29  C   UNL     1      -0.511   9.010  -3.375  1.00  0.00     0.251 C 
ATOM     30  H   UNL     1      -0.722   7.180  -4.141  1.00  0.00     0.163 HD
ATOM     31  O   UNL     1      -1.627   9.360  -3.751  1.00  0.00    -0.269 OA
BRANCH  29  32
ATOM     32  C   UNL     1       0.405   9.976  -2.733  1.00  0.00     0.039 A 
ATOM     33  C   UNL     1      -0.133  10.992  -1.939  1.00  0.00     0.014 A 
ATOM     34  C   UNL     1       1.785   9.905  -2.936  1.00  0.00     0.014 A 
ATOM     35  C   UNL     1       0.719  11.907  -1.318  1.00  0.00     0.010 A 
ATOM     36  C   UNL     1       2.635  10.742  -2.227  1.00  0.00     0.010 A 
ATOM     37  C   UNL     1       2.112  11.772  -1.434  1.00  0.00    -0.014 A 
BRANCH  37  38
ATOM     38  C   UNL     1       3.041  12.732  -0.789  1.00  0.00     0.031 A 
ATOM     39  C   UNL     1       3.970  13.555  -1.644  1.00  0.00     0.074 A 
ATOM     40  C   UNL     1       3.083  12.825   0.555  1.00  0.00     0.049 A 
ATOM     41  N   UNL     1       4.911  14.387  -1.280  1.00  0.00    -0.248 NA
ATOM     42  C   UNL     1       3.848  13.394  -3.103  1.00  0.00     0.031 C 
ATOM     43  C   UNL     1       2.254  12.051   1.483  1.00  0.00     0.029 A 
ATOM     44  N   UNL     1       3.856  13.605   1.376  1.00  0.00    -0.354 N 
ATOM     45  C   UNL     1       5.502  14.830  -2.459  1.00  0.00     0.074 A 
ATOM     46  C   UNL     1       4.860  14.123  -3.545  1.00  0.00     0.031 C 
ATOM     47  C   UNL     1       2.542  12.419   2.741  1.00  0.00     0.029 A 
ATOM     48  C   UNL     1       3.611  13.411   2.717  1.00  0.00     0.049 A 
ATOM     49  H   UNL     1       4.524  14.245   1.038  1.00  0.00     0.167 HD
ATOM     50  C   UNL     1       6.473  15.761  -2.622  1.00  0.00     0.034 A 
ATOM     51  C   UNL     1       4.194  13.961   3.800  1.00  0.00     0.034 A 
ATOM     52  C   UNL     1       7.085  16.470  -1.527  1.00  0.00     0.049 A 
ATOM     53  C   UNL     1       5.288  14.982   3.591  1.00  0.00     0.074 A 
ATOM     54  C   UNL     1       8.040  17.469  -1.577  1.00  0.00     0.029 A 
ATOM     55  N   UNL     1       6.806  16.253  -0.184  1.00  0.00    -0.354 N 
ATOM     56  N   UNL     1       5.801  15.425   2.466  1.00  0.00    -0.248 NA
ATOM     57  C   UNL     1       5.867  15.588   4.796  1.00  0.00     0.031 C 
ATOM     58  C   UNL     1       8.395  17.800  -0.266  1.00  0.00     0.029 A 
ATOM     59  C   UNL     1       7.591  17.079   0.604  1.00  0.00     0.049 A 
ATOM     60  H   UNL     1       6.147  15.606   0.158  1.00  0.00     0.167 HD
ATOM     61  C   UNL     1       6.731  16.397   2.831  1.00  0.00     0.074 A 
ATOM     62  C   UNL     1       6.694  16.481   4.276  1.00  0.00     0.031 C 
ATOM     63  C   UNL     1       7.537  17.155   2.045  1.00  0.00     0.034 A 
BRANCH  50  64
ATOM     64  C   UNL     1       6.945  16.046  -4.028  1.00  0.00     0.023 A 
ATOM     65  C   UNL     1       6.087  16.576  -5.008  1.00  0.00     0.031 A 
ATOM     66  C   UNL     1       8.276  15.779  -4.397  1.00  0.00     0.131 A 
ATOM     67  C   UNL     1       6.549  16.764  -6.319  1.00  0.00     0.055 A 
ATOM     68  C   UNL     1       8.753  16.046  -5.682  1.00  0.00     0.041 A 
ATOM     69  F   UNL     1       9.137  15.248  -3.514  1.00  0.00    -0.206 F 
ATOM     70  C   UNL     1       7.884  16.530  -6.655  1.00  0.00     0.022 A 
BRANCH  67  71
ATOM     71  S   UNL     1       5.350  17.195  -7.609  1.00  0.00     0.124 S 
ATOM     72  O   UNL     1       4.436  16.055  -7.555  1.00  0.00    -0.237 OA
ATOM     73  O   UNL     1       4.815  18.465  -7.133  1.00  0.00    -0.237 OA
ATOM     74  O   UNL     1       6.163  17.275  -8.821  1.00  0.00    -0.744 OA
ENDBRANCH  67  71
ENDBRANCH  50  64
BRANCH  51  75
ATOM     75  C   UNL     1       3.777  13.563   5.177  1.00  0.00     0.023 A 
ATOM     76  C   UNL     1       3.245  14.504   6.073  1.00  0.00     0.031 A 
ATOM     77  C   UNL     1       3.970  12.250   5.644  1.00  0.00     0.131 A 
ATOM     78  C   UNL     1       2.991  14.140   7.404  1.00  0.00     0.055 A 
ATOM     79  C   UNL     1       3.651  11.876   6.950  1.00  0.00     0.041 A 
ATOM     80  F   UNL     1       4.472  11.306   4.831  1.00  0.00    -0.206 F 
ATOM     81  C   UNL     1       3.177  12.829   7.845  1.00  0.00     0.022 A 
BRANCH  78  82
ATOM     82  S   UNL     1       2.537  15.439   8.586  1.00  0.00     0.124 S 
ATOM     83  O   UNL     1       3.652  16.369   8.447  1.00  0.00    -0.237 OA
ATOM     84  O   UNL     1       1.253  15.891   8.059  1.00  0.00    -0.237 OA
ATOM     85  O   UNL     1       2.470  14.729   9.862  1.00  0.00    -0.744 OA
ENDBRANCH  78  82
ENDBRANCH  51  75
BRANCH  63  86
ATOM     86  C   UNL     1       8.389  18.196   2.731  1.00  0.00     0.023 A 
ATOM     87  C   UNL     1       9.415  17.851   3.626  1.00  0.00     0.031 A 
ATOM     88  C   UNL     1       8.157  19.563   2.487  1.00  0.00     0.131 A 
ATOM     89  C   UNL     1      10.125  18.858   4.296  1.00  0.00     0.055 A 
ATOM     90  C   UNL     1       8.917  20.559   3.099  1.00  0.00     0.041 A 
ATOM     91  F   UNL     1       7.187  19.952   1.643  1.00  0.00    -0.206 F 
ATOM     92  C   UNL     1       9.897  20.209   4.022  1.00  0.00     0.022 A 
BRANCH  89  93
ATOM     93  S   UNL     1      11.273  18.382   5.617  1.00  0.00     0.124 S 
ATOM     94  O   UNL     1      10.406  17.626   6.514  1.00  0.00    -0.237 OA
ATOM     95  O   UNL     1      12.275  17.606   4.895  1.00  0.00    -0.237 OA
ATOM     96  O   UNL     1      11.742  19.664   6.141  1.00  0.00    -0.744 OA
ENDBRANCH  89  93
ENDBRANCH  63  86
ENDBRANCH  37  38
ENDBRANCH  29  32
ENDBRANCH  27  28
ENDBRANCH   1  27
TORSDOF 18
