REMARK SMILES O=C(NCCCNC(=O)c1cccn2c(=O)c3ccc(Cl)cc3nc12)c1ccc(-c2c3nc(c(-c4cc(S(=O)(=O)[O-])ccc4F)c4ccc([nH]4)c(-c4cc(S(=O)(=O)[O-])ccc4F)c4nc(c(-c5cc(S(=O)(=O)[O-])ccc5F)c5ccc2[nH]5)C=C4)C=C3)cc1
REMARK SMILES IDX 1 1 2 2 3 3 26 5 27 6 88 7 28 8 87 9 29 10 30 11 31 12 81 13
REMARK SMILES IDX 32 14 86 15 80 16 82 17 33 18 85 19 79 20 78 21 34 23 66 24
REMARK SMILES IDX 46 25 65 26 47 27 50 28 64 29 83 30 48 31 49 32 63 34 84 35
REMARK SMILES IDX 51 36 35 37 36 38 44 39 37 40 43 41 45 42 42 43 38 44 39 45
REMARK SMILES IDX 40 46 41 47 67 48 68 49 76 50 69 51 75 52 77 53 74 54 70 55
REMARK SMILES IDX 71 56 72 57 73 58 52 59 53 60 61 61 54 62 60 63 62 64 59 65
REMARK SMILES IDX 55 66 56 67 57 68 58 69 4 70 5 71 6 72 7 73 8 74 9 76 10 77
REMARK SMILES IDX 11 78 25 79 12 80 14 81 24 82 13 83 15 84 23 85 16 86 17 87
REMARK SMILES IDX 22 88 18 89 20 90 19 91 21 92
REMARK H PARENT 3 4 82 22 50 33 7 75
REMARK Flexibility Score: inf
ROOT
ATOM      1  O   UNL     1       1.157  -0.070   0.196  1.00  0.00    -0.269 OA
ATOM      2  C   UNL     1       2.377  -0.130   0.046  1.00  0.00     0.251 C 
ATOM      3  N   UNL     1       3.162  -0.369   1.147  1.00  0.00    -0.352 N 
ATOM      4  H   UNL     1       2.665  -0.629   1.956  1.00  0.00     0.163 HD
ENDROOT
BRANCH   2   5
ATOM      5  C   UNL     1       2.963   0.057  -1.303  1.00  0.00     0.039 A 
ATOM      6  C   UNL     1       2.345   0.952  -2.184  1.00  0.00     0.014 A 
ATOM      7  C   UNL     1       4.057  -0.692  -1.741  1.00  0.00     0.014 A 
ATOM      8  C   UNL     1       2.839   1.113  -3.482  1.00  0.00     0.010 A 
ATOM      9  C   UNL     1       4.604  -0.466  -3.003  1.00  0.00     0.010 A 
ATOM     10  C   UNL     1       3.981   0.413  -3.900  1.00  0.00    -0.014 A 
BRANCH  10  11
ATOM     11  C   UNL     1       4.497   0.524  -5.290  1.00  0.00     0.031 A 
ATOM     12  C   UNL     1       4.491  -0.686  -6.186  1.00  0.00     0.074 A 
ATOM     13  C   UNL     1       5.008   1.689  -5.733  1.00  0.00     0.049 A 
ATOM     14  N   UNL     1       4.962  -0.819  -7.399  1.00  0.00    -0.248 NA
ATOM     15  C   UNL     1       3.902  -1.919  -5.636  1.00  0.00     0.031 C 
ATOM     16  C   UNL     1       5.095   2.920  -4.949  1.00  0.00     0.029 A 
ATOM     17  N   UNL     1       5.557   2.027  -6.946  1.00  0.00    -0.354 N 
ATOM     18  C   UNL     1       4.743  -2.148  -7.747  1.00  0.00     0.074 A 
ATOM     19  C   UNL     1       4.156  -2.795  -6.597  1.00  0.00     0.031 C 
ATOM     20  C   UNL     1       5.638   3.885  -5.707  1.00  0.00     0.029 A 
ATOM     21  C   UNL     1       5.982   3.334  -7.017  1.00  0.00     0.049 A 
ATOM     22  H   UNL     1       5.638   1.393  -7.696  1.00  0.00     0.167 HD
ATOM     23  C   UNL     1       4.979  -2.764  -8.929  1.00  0.00     0.034 A 
ATOM     24  C   UNL     1       6.582   4.011  -8.018  1.00  0.00     0.034 A 
ATOM     25  C   UNL     1       5.527  -2.097 -10.081  1.00  0.00     0.049 A 
ATOM     26  C   UNL     1       6.834   3.306  -9.329  1.00  0.00     0.074 A 
ATOM     27  C   UNL     1       5.753  -2.619 -11.341  1.00  0.00     0.029 A 
ATOM     28  N   UNL     1       5.921  -0.767 -10.121  1.00  0.00    -0.354 N 
ATOM     29  N   UNL     1       6.554   2.069  -9.666  1.00  0.00    -0.248 NA
ATOM     30  C   UNL     1       7.471   4.085 -10.400  1.00  0.00     0.031 C 
ATOM     31  C   UNL     1       6.333  -1.624 -12.127  1.00  0.00     0.029 A 
ATOM     32  C   UNL     1       6.406  -0.458 -11.380  1.00  0.00     0.049 A 
ATOM     33  H   UNL     1       5.863  -0.137  -9.367  1.00  0.00     0.167 HD
ATOM     34  C   UNL     1       6.955   1.930 -10.993  1.00  0.00     0.074 A 
ATOM     35  C   UNL     1       7.476   3.216 -11.404  1.00  0.00     0.031 C 
ATOM     36  C   UNL     1       6.900   0.835 -11.792  1.00  0.00     0.034 A 
BRANCH  23  37
ATOM     37  C   UNL     1       4.620  -4.223  -9.067  1.00  0.00     0.023 A 
ATOM     38  C   UNL     1       5.620  -5.174  -9.343  1.00  0.00     0.031 A 
ATOM     39  C   UNL     1       3.280  -4.653  -9.044  1.00  0.00     0.131 A 
ATOM     40  C   UNL     1       5.261  -6.500  -9.615  1.00  0.00     0.055 A 
ATOM     41  C   UNL     1       2.933  -5.984  -9.271  1.00  0.00     0.041 A 
ATOM     42  F   UNL     1       2.289  -3.783  -8.787  1.00  0.00    -0.206 F 
ATOM     43  C   UNL     1       3.925  -6.912  -9.571  1.00  0.00     0.022 A 
BRANCH  40  44
ATOM     44  S   UNL     1       6.507  -7.727 -10.096  1.00  0.00     0.124 S 
ATOM     45  O   UNL     1       6.338  -8.746  -9.059  1.00  0.00    -0.237 OA
ATOM     46  O   UNL     1       6.050  -8.117 -11.430  1.00  0.00    -0.237 OA
ATOM     47  O   UNL     1       7.762  -6.995 -10.047  1.00  0.00    -0.744 OA
ENDBRANCH  40  44
ENDBRANCH  23  37
BRANCH  24  48
ATOM     48  C   UNL     1       6.911   5.455  -7.825  1.00  0.00     0.023 A 
ATOM     49  C   UNL     1       7.817   5.870  -6.831  1.00  0.00     0.031 A 
ATOM     50  C   UNL     1       6.238   6.447  -8.559  1.00  0.00     0.131 A 
ATOM     51  C   UNL     1       7.972   7.235  -6.555  1.00  0.00     0.055 A 
ATOM     52  C   UNL     1       6.449   7.807  -8.328  1.00  0.00     0.041 A 
ATOM     53  F   UNL     1       5.354   6.102  -9.508  1.00  0.00    -0.206 F 
ATOM     54  C   UNL     1       7.308   8.207  -7.309  1.00  0.00     0.022 A 
BRANCH  51  55
ATOM     55  S   UNL     1       8.936   7.790  -5.121  1.00  0.00     0.124 S 
ATOM     56  O   UNL     1       9.968   8.612  -5.746  1.00  0.00    -0.237 OA
ATOM     57  O   UNL     1       7.930   8.518  -4.350  1.00  0.00    -0.237 OA
ATOM     58  O   UNL     1       9.399   6.547  -4.514  1.00  0.00    -0.744 OA
ENDBRANCH  51  55
ENDBRANCH  24  48
BRANCH  36  59
ATOM     59  C   UNL     1       7.399   0.943 -13.213  1.00  0.00     0.023 A 
ATOM     60  C   UNL     1       6.512   0.728 -14.287  1.00  0.00     0.031 A 
ATOM     61  C   UNL     1       8.768   1.079 -13.498  1.00  0.00     0.131 A 
ATOM     62  C   UNL     1       7.011   0.604 -15.589  1.00  0.00     0.055 A 
ATOM     63  C   UNL     1       9.255   1.004 -14.805  1.00  0.00     0.041 A 
ATOM     64  F   UNL     1       9.655   1.273 -12.509  1.00  0.00    -0.206 F 
ATOM     65  C   UNL     1       8.377   0.748 -15.855  1.00  0.00     0.022 A 
BRANCH  62  66
ATOM     66  S   UNL     1       5.924   0.151 -16.970  1.00  0.00     0.124 S 
ATOM     67  O   UNL     1       6.065   1.305 -17.855  1.00  0.00    -0.237 OA
ATOM     68  O   UNL     1       6.538  -1.083 -17.452  1.00  0.00    -0.237 OA
ATOM     69  O   UNL     1       4.612  -0.001 -16.351  1.00  0.00    -0.744 OA
ENDBRANCH  62  66
ENDBRANCH  36  59
ENDBRANCH  10  11
ENDBRANCH   2   5
BRANCH   3  70
ATOM     70  C   UNL     1       4.606  -0.303   1.319  1.00  0.00     0.118 C 
BRANCH  70  71
ATOM     71  C   UNL     1       5.036   0.764   2.317  1.00  0.00     0.042 C 
BRANCH  71  72
ATOM     72  C   UNL     1       4.500   0.578   3.729  1.00  0.00     0.118 C 
BRANCH  72  73
ATOM     73  N   UNL     1       4.945  -0.659   4.356  1.00  0.00    -0.352 N 
ATOM     74  C   UNL     1       5.618  -0.865   5.529  1.00  0.00     0.255 C 
ATOM     75  H   UNL     1       4.725  -1.478   3.856  1.00  0.00     0.163 HD
ATOM     76  O   UNL     1       5.879  -2.015   5.876  1.00  0.00    -0.269 OA
BRANCH  74  77
ATOM     77  C   UNL     1       5.974   0.296   6.380  1.00  0.00     0.083 A 
ATOM     78  C   UNL     1       4.981   1.088   6.822  1.00  0.00     0.019 A 
ATOM     79  C   UNL     1       7.371   0.522   6.884  1.00  0.00     0.153 A 
ATOM     80  C   UNL     1       5.255   2.234   7.641  1.00  0.00     0.019 A 
ATOM     81  N   UNL     1       7.563   1.632   7.719  1.00  0.00    -0.267 N 
ATOM     82  N   UNL     1       8.333  -0.281   6.548  1.00  0.00    -0.229 NA
ATOM     83  C   UNL     1       6.504   2.470   8.052  1.00  0.00     0.096 A 
ATOM     84  C   UNL     1       8.824   1.930   8.244  1.00  0.00     0.265 A 
ATOM     85  C   UNL     1       9.611  -0.080   7.077  1.00  0.00     0.080 A 
ATOM     86  O   UNL     1       9.074   2.893   8.969  1.00  0.00    -0.268 OA
ATOM     87  C   UNL     1       9.908   0.991   7.915  1.00  0.00     0.066 A 
ATOM     88  C   UNL     1      10.616  -1.005   6.780  1.00  0.00     0.049 A 
ATOM     89  C   UNL     1      11.191   1.155   8.454  1.00  0.00     0.017 A 
ATOM     90  C   UNL     1      11.894  -0.853   7.322  1.00  0.00     0.043 A 
ATOM     91  C   UNL     1      12.187   0.225   8.157  1.00  0.00     0.021 A 
ATOM     92  Cl  UNL     1      13.118  -2.011   6.973  1.00  0.00    -0.084 Cl
ENDBRANCH  74  77
ENDBRANCH  72  73
ENDBRANCH  71  72
ENDBRANCH  70  71
ENDBRANCH   3  70
TORSDOF 13
