REMARK SMILES C=C(C)C(=O)OCC[C@@H](C(C)=O)C(=O)NCCCNC(=O)c1ccc(-c2c3nc(c(-c4cc(S(=O)(=O)[O-])ccc4F)c4ccc([nH]4)c(-c4cc(S(=O)(=O)[O-])ccc4F)c4nc(c(-c5cc(S(=O)(=O)[O-])ccc5F)c5ccc2[nH]5)C=C4)C=C3)cc1
REMARK SMILES IDX 16 1 15 2 13 3 14 4 9 6 8 7 7 8 6 9 4 10 5 11 2 12 1 13 3 14
REMARK SMILES IDX 10 15 11 16 12 17 17 18 18 19 19 20 20 21 21 23 22 24 23 25
REMARK SMILES IDX 84 26 24 27 83 28 25 29 26 30 27 31 77 32 28 33 82 34 76 35
REMARK SMILES IDX 78 36 29 37 81 38 75 39 74 40 30 42 62 43 42 44 61 45 43 46
REMARK SMILES IDX 46 47 60 48 79 49 44 50 45 51 59 53 80 54 47 55 31 56 32 57
REMARK SMILES IDX 40 58 33 59 39 60 41 61 38 62 34 63 35 64 36 65 37 66 63 67
REMARK SMILES IDX 64 68 72 69 65 70 71 71 73 72 70 73 66 74 67 75 68 76 69 77
REMARK SMILES IDX 48 78 49 79 57 80 50 81 56 82 58 83 55 84 51 85 52 86 53 87
REMARK SMILES IDX 54 88
REMARK H PARENT 15 5 19 22 78 41 46 52
REMARK Flexibility Score: inf
ROOT
ATOM      1  C   UNL     1       4.876  -6.113   2.729  1.00  0.00     0.117 C 
ENDROOT
BRANCH   1   2
ATOM      2  N   UNL     1       4.663  -5.738   1.339  1.00  0.00    -0.355 N 
ATOM      3  C   UNL     1       3.972  -4.691   0.814  1.00  0.00     0.230 C 
ATOM      4  O   UNL     1       3.947  -4.563  -0.411  1.00  0.00    -0.274 OA
ATOM      5  H   UNL     1       5.084  -6.334   0.677  1.00  0.00     0.163 HD
BRANCH   3   6
ATOM      6  C   UNL     1       3.242  -3.715   1.714  1.00  0.00     0.148 C 
BRANCH   6   7
ATOM      7  C   UNL     1       1.969  -4.400   2.251  1.00  0.00     0.063 C 
BRANCH   7   8
ATOM      8  C   UNL     1       0.956  -3.474   2.921  1.00  0.00     0.234 C 
BRANCH   8   9
ATOM      9  O   UNL     1       0.318  -2.622   1.961  1.00  0.00    -0.462 OA
BRANCH   9  10
ATOM     10  C   UNL     1       0.869  -1.399   1.780  1.00  0.00     0.333 C 
ATOM     11  O   UNL     1       1.877  -0.965   2.317  1.00  0.00    -0.247 OA
BRANCH  10  12
ATOM     12  C   UNL     1       0.099  -0.668   0.745  1.00  0.00     0.027 C 
ATOM     13  C   UNL     1       0.782   0.151  -0.070  1.00  0.00     0.020 C 
ATOM     14  C   UNL     1      -1.381  -0.863   0.695  1.00  0.00     0.051 C 
ENDBRANCH  10  12
ENDBRANCH   9  10
ENDBRANCH   8   9
ENDBRANCH   7   8
ENDBRANCH   6   7
BRANCH   6  15
ATOM     15  C   UNL     1       4.149  -3.133   2.794  1.00  0.00     0.142 C 
ATOM     16  C   UNL     1       5.519  -2.641   2.389  1.00  0.00     0.088 C 
ATOM     17  O   UNL     1       3.798  -3.053   3.974  1.00  0.00    -0.299 OA
ENDBRANCH   6  15
ENDBRANCH   3   6
ENDBRANCH   1   2
BRANCH   1  18
ATOM     18  C   UNL     1       4.404  -7.525   3.013  1.00  0.00     0.042 C 
BRANCH  18  19
ATOM     19  C   UNL     1       5.210  -8.579   2.273  1.00  0.00     0.118 C 
BRANCH  19  20
ATOM     20  N   UNL     1       6.619  -8.559   2.646  1.00  0.00    -0.352 N 
ATOM     21  C   UNL     1       7.365  -9.522   3.279  1.00  0.00     0.251 C 
ATOM     22  H   UNL     1       7.105  -7.736   2.411  1.00  0.00     0.163 HD
ATOM     23  O   UNL     1       8.472  -9.239   3.727  1.00  0.00    -0.269 OA
BRANCH  21  24
ATOM     24  C   UNL     1       6.813 -10.883   3.427  1.00  0.00     0.039 A 
ATOM     25  C   UNL     1       6.957 -11.551   4.643  1.00  0.00     0.014 A 
ATOM     26  C   UNL     1       6.131 -11.484   2.366  1.00  0.00     0.014 A 
ATOM     27  C   UNL     1       6.352 -12.797   4.815  1.00  0.00     0.010 A 
ATOM     28  C   UNL     1       5.442 -12.671   2.574  1.00  0.00     0.010 A 
ATOM     29  C   UNL     1       5.555 -13.347   3.797  1.00  0.00    -0.014 A 
BRANCH  29  30
ATOM     30  C   UNL     1       4.852 -14.643   3.975  1.00  0.00     0.031 A 
ATOM     31  C   UNL     1       5.182 -15.798   3.068  1.00  0.00     0.074 A 
ATOM     32  C   UNL     1       3.882 -14.757   4.904  1.00  0.00     0.049 A 
ATOM     33  N   UNL     1       4.622 -16.978   2.994  1.00  0.00    -0.248 NA
ATOM     34  C   UNL     1       6.263 -15.586   2.092  1.00  0.00     0.031 C 
ATOM     35  C   UNL     1       3.452 -13.692   5.814  1.00  0.00     0.029 A 
ATOM     36  N   UNL     1       3.079 -15.818   5.236  1.00  0.00    -0.354 N 
ATOM     37  C   UNL     1       5.277 -17.642   1.962  1.00  0.00     0.074 A 
ATOM     38  C   UNL     1       6.221 -16.707   1.391  1.00  0.00     0.031 C 
ATOM     39  C   UNL     1       2.489 -14.165   6.622  1.00  0.00     0.029 A 
ATOM     40  C   UNL     1       2.192 -15.546   6.253  1.00  0.00     0.049 A 
ATOM     41  H   UNL     1       3.131 -16.693   4.789  1.00  0.00     0.167 HD
ATOM     42  C   UNL     1       5.127 -18.925   1.550  1.00  0.00     0.034 A 
ATOM     43  C   UNL     1       1.240 -16.318   6.814  1.00  0.00     0.034 A 
ATOM     44  C   UNL     1       4.191 -19.848   2.142  1.00  0.00     0.049 A 
ATOM     45  C   UNL     1       1.066 -17.730   6.309  1.00  0.00     0.074 A 
ATOM     46  C   UNL     1       3.981 -21.179   1.831  1.00  0.00     0.029 A 
ATOM     47  N   UNL     1       3.308 -19.535   3.168  1.00  0.00    -0.354 N 
ATOM     48  N   UNL     1       1.723 -18.356   5.359  1.00  0.00    -0.248 NA
ATOM     49  C   UNL     1       0.029 -18.543   6.958  1.00  0.00     0.031 C 
ATOM     50  C   UNL     1       2.926 -21.652   2.618  1.00  0.00     0.029 A 
ATOM     51  C   UNL     1       2.533 -20.641   3.481  1.00  0.00     0.049 A 
ATOM     52  H   UNL     1       3.242 -18.657   3.608  1.00  0.00     0.167 HD
ATOM     53  C   UNL     1       1.204 -19.648   5.328  1.00  0.00     0.074 A 
ATOM     54  C   UNL     1       0.195 -19.714   6.363  1.00  0.00     0.031 C 
ATOM     55  C   UNL     1       1.531 -20.688   4.519  1.00  0.00     0.034 A 
BRANCH  42  56
ATOM     56  C   UNL     1       5.986 -19.393   0.401  1.00  0.00     0.023 A 
ATOM     57  C   UNL     1       7.387 -19.441   0.501  1.00  0.00     0.031 A 
ATOM     58  C   UNL     1       5.400 -19.787  -0.815  1.00  0.00     0.131 A 
ATOM     59  C   UNL     1       8.158 -19.807  -0.612  1.00  0.00     0.055 A 
ATOM     60  C   UNL     1       6.168 -20.230  -1.893  1.00  0.00     0.041 A 
ATOM     61  F   UNL     1       4.068 -19.739  -0.979  1.00  0.00    -0.206 F 
ATOM     62  C   UNL     1       7.557 -20.229  -1.800  1.00  0.00     0.022 A 
BRANCH  59  63
ATOM     63  S   UNL     1       9.957 -19.596  -0.527  1.00  0.00     0.124 S 
ATOM     64  O   UNL     1      10.073 -18.159  -0.290  1.00  0.00    -0.237 OA
ATOM     65  O   UNL     1      10.324 -20.459   0.590  1.00  0.00    -0.237 OA
ATOM     66  O   UNL     1      10.417 -20.044  -1.840  1.00  0.00    -0.744 OA
ENDBRANCH  59  63
ENDBRANCH  42  56
BRANCH  43  67
ATOM     67  C   UNL     1       0.368 -15.790   7.905  1.00  0.00     0.023 A 
ATOM     68  C   UNL     1       0.365 -16.386   9.176  1.00  0.00     0.031 A 
ATOM     69  C   UNL     1      -0.529 -14.732   7.673  1.00  0.00     0.131 A 
ATOM     70  C   UNL     1      -0.563 -15.969  10.143  1.00  0.00     0.055 A 
ATOM     71  C   UNL     1      -1.404 -14.276   8.661  1.00  0.00     0.041 A 
ATOM     72  F   UNL     1      -0.569 -14.123   6.477  1.00  0.00    -0.206 F 
ATOM     73  C   UNL     1      -1.437 -14.909   9.900  1.00  0.00     0.022 A 
BRANCH  70  74
ATOM     74  S   UNL     1      -0.695 -16.922  11.682  1.00  0.00     0.124 S 
ATOM     75  O   UNL     1      -0.953 -18.265  11.176  1.00  0.00    -0.237 OA
ATOM     76  O   UNL     1       0.614 -16.703  12.286  1.00  0.00    -0.237 OA
ATOM     77  O   UNL     1      -1.815 -16.290  12.376  1.00  0.00    -0.744 OA
ENDBRANCH  70  74
ENDBRANCH  43  67
BRANCH  55  78
ATOM     78  C   UNL     1       0.828 -22.000   4.768  1.00  0.00     0.023 A 
ATOM     79  C   UNL     1      -0.553 -22.153   4.556  1.00  0.00     0.031 A 
ATOM     80  C   UNL     1       1.553 -23.111   5.234  1.00  0.00     0.131 A 
ATOM     81  C   UNL     1      -1.176 -23.370   4.867  1.00  0.00     0.055 A 
ATOM     82  C   UNL     1       0.939 -24.340   5.476  1.00  0.00     0.041 A 
ATOM     83  F   UNL     1       2.874 -23.022   5.455  1.00  0.00    -0.206 F 
ATOM     84  C   UNL     1      -0.436 -24.470   5.308  1.00  0.00     0.022 A 
BRANCH  81  85
ATOM     85  S   UNL     1      -2.985 -23.468   4.782  1.00  0.00     0.124 S 
ATOM     86  O   UNL     1      -3.390 -22.420   5.713  1.00  0.00    -0.237 OA
ATOM     87  O   UNL     1      -3.246 -23.201   3.371  1.00  0.00    -0.237 OA
ATOM     88  O   UNL     1      -3.276 -24.832   5.218  1.00  0.00    -0.744 OA
ENDBRANCH  81  85
ENDBRANCH  55  78
ENDBRANCH  29  30
ENDBRANCH  21  24
ENDBRANCH  19  20
ENDBRANCH  18  19
ENDBRANCH   1  18
TORSDOF 19
