REMARK SMILES C[C@@H](C(=O)NCCCNC(=O)c1ccc(-c2c3nc(c(-c4cc(S(=O)(=O)[O-])ccc4F)c4ccc([nH]4)c(-c4cc(S(=O)(=O)[O-])ccc4F)c4nc(c(-c5cc(S(=O)(=O)[O-])ccc5F)c5ccc2[nH]5)C=C4)C=C3)cc1)N1C(=O)/C(=C/c2nc3ccccc3[nH]2)SC1=S
REMARK SMILES IDX 7 1 6 2 5 3 3 4 4 5 2 7 1 8 75 9 76 10 90 11 77 12 78 13
REMARK SMILES IDX 89 14 91 15 79 16 80 17 81 18 88 19 82 20 87 21 83 23 86 24
REMARK SMILES IDX 84 25 85 26 8 27 9 28 10 29 11 31 12 32 13 33 74 34 14 35
REMARK SMILES IDX 73 36 15 37 16 38 17 39 67 40 18 41 72 42 66 43 68 44 19 45
REMARK SMILES IDX 71 46 65 47 64 48 20 50 52 51 32 52 51 53 33 54 36 55 50 56
REMARK SMILES IDX 69 57 34 58 35 59 49 61 70 62 37 63 21 64 22 65 30 66 23 67
REMARK SMILES IDX 29 68 31 69 28 70 24 71 25 72 26 73 27 74 53 75 54 76 62 77
REMARK SMILES IDX 55 78 61 79 63 80 60 81 56 82 57 83 58 84 59 85 38 86 39 87
REMARK SMILES IDX 47 88 40 89 46 90 48 91 45 92 41 93 42 94 43 95 44 96
REMARK H PARENT 5 6 88 22 9 30 68 49 36 60
REMARK Flexibility Score: inf
ROOT
ATOM      1  C   UNL     1       4.285  -0.844  -0.999  1.00  0.00     0.042 C 
ENDROOT
BRANCH   1   2
ATOM      2  C   UNL     1       3.404   0.050  -1.863  1.00  0.00     0.117 C 
BRANCH   2   3
ATOM      3  N   UNL     1       2.322  -0.679  -2.500  1.00  0.00    -0.354 N 
ATOM      4  C   UNL     1       0.978  -0.634  -2.256  1.00  0.00     0.242 C 
ATOM      5  O   UNL     1       0.239  -1.221  -3.050  1.00  0.00    -0.273 OA
ATOM      6  H   UNL     1       2.598  -1.299  -3.214  1.00  0.00     0.163 HD
BRANCH   4   7
ATOM      7  C   UNL     1       0.440   0.173  -1.055  1.00  0.00     0.178 C 
ATOM      8  C   UNL     1       0.838  -0.363   0.316  1.00  0.00     0.042 C 
BRANCH   7   9
ATOM      9  N   UNL     1      -1.017   0.351  -1.171  1.00  0.00    -0.281 N 
ATOM     10  C   UNL     1      -1.867  -0.740  -1.029  1.00  0.00     0.267 C 
ATOM     11  C   UNL     1      -1.617   1.572  -1.399  1.00  0.00     0.149 C 
ATOM     12  O   UNL     1      -1.557  -1.881  -0.703  1.00  0.00    -0.268 OA
ATOM     13  C   UNL     1      -3.275  -0.332  -1.271  1.00  0.00     0.084 C 
ATOM     14  S   UNL     1      -3.351   1.382  -1.434  1.00  0.00    -0.054 SA
ATOM     15  S   UNL     1      -0.911   3.075  -1.576  1.00  0.00    -0.052 S 
ATOM     16  C   UNL     1      -4.291  -1.211  -1.320  1.00  0.00     0.068 C 
BRANCH  16  17
ATOM     17  C   UNL     1      -5.609  -0.775  -1.598  1.00  0.00     0.132 A 
ATOM     18  N   UNL     1      -6.011   0.216  -2.365  1.00  0.00    -0.229 NA
ATOM     19  N   UNL     1      -6.684  -1.345  -0.953  1.00  0.00    -0.338 N 
ATOM     20  C   UNL     1      -7.317   0.432  -2.048  1.00  0.00     0.089 A 
ATOM     21  C   UNL     1      -7.780  -0.539  -1.169  1.00  0.00     0.066 A 
ATOM     22  H   UNL     1      -6.671  -2.180  -0.430  1.00  0.00     0.168 HD
ATOM     23  C   UNL     1      -8.158   1.475  -2.450  1.00  0.00     0.030 A 
ATOM     24  C   UNL     1      -9.084  -0.543  -0.671  1.00  0.00     0.028 A 
ATOM     25  C   UNL     1      -9.457   1.514  -1.942  1.00  0.00     0.002 A 
ATOM     26  C   UNL     1      -9.912   0.517  -1.074  1.00  0.00     0.002 A 
ENDBRANCH  16  17
ENDBRANCH   7   9
ENDBRANCH   4   7
ENDBRANCH   2   3
ENDBRANCH   1   2
BRANCH   1  27
ATOM     27  C   UNL     1       5.058  -1.908  -1.772  1.00  0.00     0.118 C 
BRANCH  27  28
ATOM     28  N   UNL     1       5.980  -1.337  -2.738  1.00  0.00    -0.352 N 
ATOM     29  C   UNL     1       7.337  -1.485  -2.879  1.00  0.00     0.251 C 
ATOM     30  H   UNL     1       5.561  -0.744  -3.403  1.00  0.00     0.163 HD
ATOM     31  O   UNL     1       7.928  -0.735  -3.652  1.00  0.00    -0.269 OA
BRANCH  29  32
ATOM     32  C   UNL     1       8.091  -2.503  -2.109  1.00  0.00     0.039 A 
ATOM     33  C   UNL     1       9.386  -2.185  -1.689  1.00  0.00     0.014 A 
ATOM     34  C   UNL     1       7.572  -3.773  -1.839  1.00  0.00     0.014 A 
ATOM     35  C   UNL     1      10.131  -3.114  -0.959  1.00  0.00     0.010 A 
ATOM     36  C   UNL     1       8.283  -4.667  -1.037  1.00  0.00     0.010 A 
ATOM     37  C   UNL     1       9.573  -4.350  -0.591  1.00  0.00    -0.014 A 
BRANCH  37  38
ATOM     38  C   UNL     1      10.338  -5.289   0.275  1.00  0.00     0.031 A 
ATOM     39  C   UNL     1      10.752  -6.646  -0.229  1.00  0.00     0.074 A 
ATOM     40  C   UNL     1      10.650  -4.913   1.531  1.00  0.00     0.049 A 
ATOM     41  N   UNL     1      11.451  -7.574   0.376  1.00  0.00    -0.248 NA
ATOM     42  C   UNL     1      10.305  -7.019  -1.579  1.00  0.00     0.031 C 
ATOM     43  C   UNL     1      10.259  -3.644   2.151  1.00  0.00     0.029 A 
ATOM     44  N   UNL     1      11.375  -5.547   2.509  1.00  0.00    -0.354 N 
ATOM     45  C   UNL     1      11.531  -8.637  -0.518  1.00  0.00     0.074 A 
ATOM     46  C   UNL     1      10.748  -8.264  -1.677  1.00  0.00     0.031 C 
ATOM     47  C   UNL     1      10.787  -3.573   3.382  1.00  0.00     0.029 A 
ATOM     48  C   UNL     1      11.512  -4.808   3.662  1.00  0.00     0.049 A 
ATOM     49  H   UNL     1      11.761  -6.446   2.397  1.00  0.00     0.167 HD
ATOM     50  C   UNL     1      12.216  -9.802  -0.394  1.00  0.00     0.034 A 
ATOM     51  C   UNL     1      12.146  -5.090   4.817  1.00  0.00     0.034 A 
ATOM     52  C   UNL     1      12.988 -10.161   0.773  1.00  0.00     0.049 A 
ATOM     53  C   UNL     1      12.875  -6.403   4.940  1.00  0.00     0.074 A 
ATOM     54  C   UNL     1      13.754 -11.294   0.986  1.00  0.00     0.029 A 
ATOM     55  N   UNL     1      13.084  -9.399   1.932  1.00  0.00    -0.354 N 
ATOM     56  N   UNL     1      12.993  -7.370   4.058  1.00  0.00    -0.248 NA
ATOM     57  C   UNL     1      13.570  -6.654   6.208  1.00  0.00     0.031 C 
ATOM     58  C   UNL     1      14.244 -11.257   2.296  1.00  0.00     0.029 A 
ATOM     59  C   UNL     1      13.863 -10.057   2.875  1.00  0.00     0.049 A 
ATOM     60  H   UNL     1      12.660  -8.521   2.066  1.00  0.00     0.167 HD
ATOM     61  C   UNL     1      13.797  -8.335   4.661  1.00  0.00     0.074 A 
ATOM     62  C   UNL     1      14.160  -7.814   5.963  1.00  0.00     0.031 C 
ATOM     63  C   UNL     1      14.196  -9.543   4.184  1.00  0.00     0.034 A 
BRANCH  50  64
ATOM     64  C   UNL     1      12.137 -10.783  -1.544  1.00  0.00     0.023 A 
ATOM     65  C   UNL     1      12.612 -10.457  -2.827  1.00  0.00     0.031 A 
ATOM     66  C   UNL     1      11.568 -12.056  -1.361  1.00  0.00     0.131 A 
ATOM     67  C   UNL     1      12.442 -11.358  -3.889  1.00  0.00     0.055 A 
ATOM     68  C   UNL     1      11.480 -12.982  -2.403  1.00  0.00     0.041 A 
ATOM     69  F   UNL     1      11.076 -12.420  -0.166  1.00  0.00    -0.206 F 
ATOM     70  C   UNL     1      11.905 -12.630  -3.680  1.00  0.00     0.022 A 
BRANCH  67  71
ATOM     71  S   UNL     1      12.796 -10.787  -5.574  1.00  0.00     0.124 S 
ATOM     72  O   UNL     1      11.902  -9.638  -5.690  1.00  0.00    -0.237 OA
ATOM     73  O   UNL     1      14.221 -10.485  -5.513  1.00  0.00    -0.237 OA
ATOM     74  O   UNL     1      12.435 -11.933  -6.407  1.00  0.00    -0.744 OA
ENDBRANCH  67  71
ENDBRANCH  50  64
BRANCH  51  75
ATOM     75  C   UNL     1      12.115  -4.123   5.954  1.00  0.00     0.023 A 
ATOM     76  C   UNL     1      13.293  -3.538   6.444  1.00  0.00     0.031 A 
ATOM     77  C   UNL     1      10.905  -3.804   6.596  1.00  0.00     0.131 A 
ATOM     78  C   UNL     1      13.244  -2.706   7.574  1.00  0.00     0.055 A 
ATOM     79  C   UNL     1      10.853  -2.927   7.681  1.00  0.00     0.041 A 
ATOM     80  F   UNL     1       9.748  -4.333   6.168  1.00  0.00    -0.206 F 
ATOM     81  C   UNL     1      12.030  -2.384   8.185  1.00  0.00     0.022 A 
BRANCH  78  82
ATOM     82  S   UNL     1      14.804  -2.127   8.297  1.00  0.00     0.124 S 
ATOM     83  O   UNL     1      15.485  -3.385   8.579  1.00  0.00    -0.237 OA
ATOM     84  O   UNL     1      15.360  -1.325   7.212  1.00  0.00    -0.237 OA
ATOM     85  O   UNL     1      14.374  -1.371   9.471  1.00  0.00    -0.744 OA
ENDBRANCH  78  82
ENDBRANCH  51  75
BRANCH  63  86
ATOM     86  C   UNL     1      15.095 -10.364   5.080  1.00  0.00     0.023 A 
ATOM     87  C   UNL     1      14.659 -10.829   6.334  1.00  0.00     0.031 A 
ATOM     88  C   UNL     1      16.419 -10.643   4.699  1.00  0.00     0.131 A 
ATOM     89  C   UNL     1      15.562 -11.467   7.197  1.00  0.00     0.055 A 
ATOM     90  C   UNL     1      17.290 -11.351   5.530  1.00  0.00     0.041 A 
ATOM     91  F   UNL     1      16.895 -10.223   3.516  1.00  0.00    -0.206 F 
ATOM     92  C   UNL     1      16.870 -11.748   6.795  1.00  0.00     0.022 A 
BRANCH  89  93
ATOM     93  S   UNL     1      15.046 -11.793   8.905  1.00  0.00     0.124 S 
ATOM     94  O   UNL     1      14.665 -10.462   9.365  1.00  0.00    -0.237 OA
ATOM     95  O   UNL     1      13.952 -12.742   8.724  1.00  0.00    -0.237 OA
ATOM     96  O   UNL     1      16.248 -12.344   9.528  1.00  0.00    -0.744 OA
ENDBRANCH  89  93
ENDBRANCH  63  86
ENDBRANCH  37  38
ENDBRANCH  29  32
ENDBRANCH  27  28
ENDBRANCH   1  27
TORSDOF 15
