REMARK SMILES O=C(NCCCNC(=O)[C@@H](Cc1ccccc1)/N=C1\C(=O)c2ccccc2C(=O)[C@H]1Cl)c1ccc(-c2c3nc(c(-c4cc(S(=O)(=O)[O-])ccc4F)c4ccc([nH]4)c(-c4cc(S(=O)(=O)[O-])ccc4F)c4nc(c(-c5cc(S(=O)(=O)[O-])ccc5F)c5ccc2[nH]5)C=C4)C=C3)cc1
REMARK SMILES IDX 4 1 3 2 1 3 2 4 32 6 33 7 94 8 34 9 93 10 35 11 36 12 37 13
REMARK SMILES IDX 87 14 38 15 92 16 86 17 88 18 39 19 91 20 85 21 84 22 40 24
REMARK SMILES IDX 72 25 52 26 71 27 53 28 56 29 70 30 89 31 54 32 55 33 69 35
REMARK SMILES IDX 90 36 57 37 41 38 42 39 50 40 43 41 49 42 51 43 48 44 44 45
REMARK SMILES IDX 45 46 46 47 47 48 73 49 74 50 82 51 75 52 81 53 83 54 80 55
REMARK SMILES IDX 76 56 77 57 78 58 79 59 58 60 59 61 67 62 60 63 66 64 68 65
REMARK SMILES IDX 65 66 61 67 62 68 63 69 64 70 5 71 6 72 7 73 8 74 9 76 10 77
REMARK SMILES IDX 11 78 12 79 13 80 17 81 14 82 16 83 15 84 18 85 19 86 20 87
REMARK SMILES IDX 30 88 21 89 22 90 28 91 31 92 23 93 27 94 29 95 24 96 26 97
REMARK SMILES IDX 25 98
REMARK H PARENT 3 5 88 23 56 34 7 75
REMARK Flexibility Score: inf
ROOT
ATOM      1  C   UNL     1       4.367   0.765  -2.666  1.00  0.00     0.118 C 
ENDROOT
BRANCH   1   2
ATOM      2  N   UNL     1       3.116   0.520  -1.956  1.00  0.00    -0.352 N 
ATOM      3  O   UNL     1       1.467   0.389  -0.498  1.00  0.00    -0.269 OA
ATOM      4  C   UNL     1       2.649   0.700  -0.678  1.00  0.00     0.251 C 
ATOM      5  H   UNL     1       2.433   0.125  -2.544  1.00  0.00     0.163 HD
BRANCH   4   6
ATOM      6  C   UNL     1       3.436   1.207   0.488  1.00  0.00     0.039 A 
ATOM      7  C   UNL     1       4.736   1.701   0.429  1.00  0.00     0.014 A 
ATOM      8  C   UNL     1       2.796   1.204   1.745  1.00  0.00     0.014 A 
ATOM      9  C   UNL     1       5.391   2.139   1.587  1.00  0.00     0.010 A 
ATOM     10  C   UNL     1       3.427   1.698   2.898  1.00  0.00     0.010 A 
ATOM     11  C   UNL     1       4.740   2.169   2.829  1.00  0.00    -0.014 A 
BRANCH  11  12
ATOM     12  C   UNL     1       5.432   2.793   3.990  1.00  0.00     0.031 A 
ATOM     13  C   UNL     1       5.908   1.982   5.161  1.00  0.00     0.074 A 
ATOM     14  C   UNL     1       5.677   4.118   3.949  1.00  0.00     0.049 A 
ATOM     15  N   UNL     1       6.677   2.348   6.157  1.00  0.00    -0.248 NA
ATOM     16  C   UNL     1       5.449   0.589   5.236  1.00  0.00     0.031 C 
ATOM     17  C   UNL     1       5.211   5.024   2.895  1.00  0.00     0.029 A 
ATOM     18  N   UNL     1       6.406   4.928   4.783  1.00  0.00    -0.354 N 
ATOM     19  C   UNL     1       6.795   1.235   6.981  1.00  0.00     0.074 A 
ATOM     20  C   UNL     1       5.982   0.193   6.385  1.00  0.00     0.031 C 
ATOM     21  C   UNL     1       5.726   6.244   3.106  1.00  0.00     0.029 A 
ATOM     22  C   UNL     1       6.530   6.219   4.322  1.00  0.00     0.049 A 
ATOM     23  H   UNL     1       6.802   4.615   5.628  1.00  0.00     0.167 HD
ATOM     24  C   UNL     1       7.520   1.095   8.121  1.00  0.00     0.034 A 
ATOM     25  C   UNL     1       7.232   7.261   4.808  1.00  0.00     0.034 A 
ATOM     26  C   UNL     1       8.325   2.144   8.705  1.00  0.00     0.049 A 
ATOM     27  C   UNL     1       8.059   7.070   6.050  1.00  0.00     0.074 A 
ATOM     28  C   UNL     1       9.138   2.088   9.826  1.00  0.00     0.029 A 
ATOM     29  N   UNL     1       8.411   3.444   8.224  1.00  0.00    -0.354 N 
ATOM     30  N   UNL     1       8.216   5.989   6.778  1.00  0.00    -0.248 NA
ATOM     31  C   UNL     1       8.812   8.236   6.526  1.00  0.00     0.031 C 
ATOM     32  C   UNL     1       9.668   3.365  10.054  1.00  0.00     0.029 A 
ATOM     33  C   UNL     1       9.237   4.205   9.040  1.00  0.00     0.049 A 
ATOM     34  H   UNL     1       7.952   3.779   7.420  1.00  0.00     0.167 HD
ATOM     35  C   UNL     1       9.097   6.345   7.794  1.00  0.00     0.074 A 
ATOM     36  C   UNL     1       9.456   7.730   7.567  1.00  0.00     0.031 C 
ATOM     37  C   UNL     1       9.566   5.593   8.822  1.00  0.00     0.034 A 
BRANCH  24  38
ATOM     38  C   UNL     1       7.444  -0.237   8.831  1.00  0.00     0.023 A 
ATOM     39  C   UNL     1       7.936  -1.416   8.244  1.00  0.00     0.031 A 
ATOM     40  C   UNL     1       6.855  -0.332  10.104  1.00  0.00     0.131 A 
ATOM     41  C   UNL     1       7.767  -2.647   8.897  1.00  0.00     0.055 A 
ATOM     42  C   UNL     1       6.756  -1.550  10.781  1.00  0.00     0.041 A 
ATOM     43  F   UNL     1       6.353   0.757  10.708  1.00  0.00    -0.206 F 
ATOM     44  C   UNL     1       7.200  -2.719  10.172  1.00  0.00     0.022 A 
BRANCH  41  45
ATOM     45  S   UNL     1       8.172  -4.168   7.995  1.00  0.00     0.124 S 
ATOM     46  O   UNL     1       7.321  -4.047   6.813  1.00  0.00    -0.237 OA
ATOM     47  O   UNL     1       9.605  -4.026   7.768  1.00  0.00    -0.237 OA
ATOM     48  O   UNL     1       7.788  -5.229   8.923  1.00  0.00    -0.744 OA
ENDBRANCH  41  45
ENDBRANCH  24  38
BRANCH  25  49
ATOM     49  C   UNL     1       7.200   8.574   4.108  1.00  0.00     0.023 A 
ATOM     50  C   UNL     1       8.345   9.085   3.476  1.00  0.00     0.031 A 
ATOM     51  C   UNL     1       6.024   9.344   4.074  1.00  0.00     0.131 A 
ATOM     52  C   UNL     1       8.299  10.346   2.863  1.00  0.00     0.055 A 
ATOM     53  C   UNL     1       5.972  10.579   3.426  1.00  0.00     0.041 A 
ATOM     54  F   UNL     1       4.901   8.893   4.655  1.00  0.00    -0.206 F 
ATOM     55  C   UNL     1       7.118  11.091   2.825  1.00  0.00     0.022 A 
BRANCH  52  56
ATOM     56  S   UNL     1       9.826  11.028   2.162  1.00  0.00     0.124 S 
ATOM     57  O   UNL     1      10.705  11.050   3.326  1.00  0.00    -0.237 OA
ATOM     58  O   UNL     1      10.150  10.047   1.131  1.00  0.00    -0.237 OA
ATOM     59  O   UNL     1       9.416  12.339   1.664  1.00  0.00    -0.744 OA
ENDBRANCH  52  56
ENDBRANCH  25  49
BRANCH  37  60
ATOM     60  C   UNL     1      10.532   6.268   9.764  1.00  0.00     0.023 A 
ATOM     61  C   UNL     1      10.121   7.307  10.617  1.00  0.00     0.031 A 
ATOM     62  C   UNL     1      11.887   5.896   9.776  1.00  0.00     0.131 A 
ATOM     63  C   UNL     1      11.067   7.982  11.403  1.00  0.00     0.055 A 
ATOM     64  C   UNL     1      12.816   6.537  10.599  1.00  0.00     0.041 A 
ATOM     65  F   UNL     1      12.333   4.912   8.979  1.00  0.00    -0.206 F 
ATOM     66  C   UNL     1      12.410   7.595  11.408  1.00  0.00     0.022 A 
BRANCH  63  67
ATOM     67  S   UNL     1      10.537   9.438  12.347  1.00  0.00     0.124 S 
ATOM     68  O   UNL     1       9.987  10.295  11.302  1.00  0.00    -0.237 OA
ATOM     69  O   UNL     1       9.571   8.869  13.280  1.00  0.00    -0.237 OA
ATOM     70  O   UNL     1      11.775   9.921  12.956  1.00  0.00    -0.744 OA
ENDBRANCH  63  67
ENDBRANCH  37  60
ENDBRANCH  11  12
ENDBRANCH   4   6
ENDBRANCH   1   2
BRANCH   1  71
ATOM     71  C   UNL     1       5.492  -0.227  -2.365  1.00  0.00     0.042 C 
BRANCH  71  72
ATOM     72  C   UNL     1       5.130  -1.675  -2.650  1.00  0.00     0.117 C 
BRANCH  72  73
ATOM     73  N   UNL     1       5.475  -2.226  -3.929  1.00  0.00    -0.354 N 
ATOM     74  C   UNL     1       5.511  -3.554  -4.248  1.00  0.00     0.245 C 
ATOM     75  H   UNL     1       5.707  -1.588  -4.642  1.00  0.00     0.163 HD
ATOM     76  O   UNL     1       5.381  -3.800  -5.458  1.00  0.00    -0.273 OA
BRANCH  74  77
ATOM     77  C   UNL     1       5.758  -4.725  -3.243  1.00  0.00     0.199 C 
BRANCH  77  78
ATOM     78  C   UNL     1       6.977  -4.761  -2.294  1.00  0.00     0.073 C 
BRANCH  78  79
ATOM     79  C   UNL     1       6.843  -4.418  -0.833  1.00  0.00    -0.045 A 
ATOM     80  C   UNL     1       7.348  -3.203  -0.345  1.00  0.00     0.004 A 
ATOM     81  C   UNL     1       6.249  -5.310   0.072  1.00  0.00     0.004 A 
ATOM     82  C   UNL     1       7.168  -2.839   0.988  1.00  0.00     0.000 A 
ATOM     83  C   UNL     1       6.078  -4.949   1.411  1.00  0.00     0.000 A 
ATOM     84  C   UNL     1       6.521  -3.707   1.863  1.00  0.00     0.000 A 
ENDBRANCH  78  79
ENDBRANCH  77  78
BRANCH  77  85
ATOM     85  N   UNL     1       4.604  -5.589  -2.913  1.00  0.00    -0.270 NA
ATOM     86  C   UNL     1       3.621  -5.477  -2.095  1.00  0.00     0.109 C 
ATOM     87  C   UNL     1       3.308  -4.321  -1.192  1.00  0.00     0.209 C 
ATOM     88  C   UNL     1       2.645  -6.623  -1.991  1.00  0.00     0.205 C 
ATOM     89  O   UNL     1       4.080  -3.391  -1.067  1.00  0.00    -0.287 OA
ATOM     90  C   UNL     1       2.123  -4.320  -0.342  1.00  0.00     0.035 A 
ATOM     91  C   UNL     1       1.950  -6.766  -0.657  1.00  0.00     0.187 C 
ATOM     92  Cl  UNL     1       1.385  -6.389  -3.238  1.00  0.00    -0.107 Cl
ATOM     93  C   UNL     1       1.688  -3.112   0.215  1.00  0.00     0.013 A 
ATOM     94  C   UNL     1       1.544  -5.523   0.031  1.00  0.00     0.031 A 
ATOM     95  O   UNL     1       1.636  -7.855  -0.183  1.00  0.00    -0.292 OA
ATOM     96  C   UNL     1       0.702  -3.117   1.196  1.00  0.00     0.001 A 
ATOM     97  C   UNL     1       0.585  -5.534   1.048  1.00  0.00     0.012 A 
ATOM     98  C   UNL     1       0.173  -4.330   1.634  1.00  0.00     0.001 A 
ENDBRANCH  77  85
ENDBRANCH  74  77
ENDBRANCH  72  73
ENDBRANCH  71  72
ENDBRANCH   1  71
TORSDOF 16
