REMARK SMILES Cc1cccc(O[C@H]2CC[C@@]([NH2+]C(C)C)(C(=O)NCCCNC(=O)c3ccc(-c4c5nc(c(-c6cc(S(=O)(=O)[O-])ccc6F)c6ccc([nH]6)c(-c6cc(S(=O)(=O)[O-])ccc6F)c6nc(c(-c7cc(S(=O)(=O)[O-])ccc7F)c7ccc4[nH]7)C=C6)C=C5)cc3)C2)c1
REMARK SMILES IDX 20 1 19 2 18 3 16 4 17 5 11 7 8 8 9 9 88 10 10 11 7 12 6 13
REMARK SMILES IDX 1 14 2 15 3 16 89 17 4 18 5 19 12 20 13 23 14 24 15 25 21 26
REMARK SMILES IDX 22 27 23 28 24 30 25 31 26 32 87 33 27 34 86 35 28 36 29 37
REMARK SMILES IDX 30 38 80 39 31 40 85 41 79 42 81 43 32 44 84 45 78 46 77 47
REMARK SMILES IDX 33 49 65 50 45 51 64 52 46 53 49 54 63 55 82 56 47 57 48 58
REMARK SMILES IDX 62 60 83 61 50 62 34 63 35 64 43 65 36 66 42 67 44 68 41 69
REMARK SMILES IDX 37 70 38 71 39 72 40 73 66 74 67 75 75 76 68 77 74 78 76 79
REMARK SMILES IDX 73 80 69 81 70 82 71 83 72 84 51 85 52 86 60 87 53 88 59 89
REMARK SMILES IDX 61 90 58 91 54 92 55 93 56 94 57 95
REMARK H PARENT 18 6 12 21 12 22 22 29 81 48 49 59
REMARK Flexibility Score: inf
ROOT
ATOM      1  C   UNL     1       2.743   7.850  -0.114  1.00  0.00     0.042 C 
ENDROOT
BRANCH   1   2
ATOM      2  C   UNL     1       2.541   7.182   1.240  1.00  0.00     0.118 C 
BRANCH   2   3
ATOM      3  N   UNL     1       1.141   7.126   1.643  1.00  0.00    -0.351 N 
ATOM      4  C   UNL     1       0.256   6.078   1.653  1.00  0.00     0.281 C 
ATOM      5  O   UNL     1      -0.860   6.270   2.146  1.00  0.00    -0.268 OA
ATOM      6  H   UNL     1       0.770   7.981   1.960  1.00  0.00     0.163 HD
BRANCH   4   7
ATOM      7  C   UNL     1       0.660   4.680   1.073  1.00  0.00     0.179 C 
ATOM      8  C   UNL     1      -1.096   3.561  -0.262  1.00  0.00     0.180 C 
ATOM      9  C   UNL     1       0.140   3.722  -1.136  1.00  0.00     0.052 C 
ATOM     10  C   UNL     1      -0.495   3.638   1.145  1.00  0.00     0.124 C 
ATOM     11  C   UNL     1       0.919   4.833  -0.447  1.00  0.00     0.083 C 
BRANCH   8  12
ATOM     12  O   UNL     1      -2.006   4.646  -0.415  1.00  0.00    -0.490 OA
BRANCH  12  13
ATOM     13  C   UNL     1      -2.921   4.611  -1.427  1.00  0.00     0.119 A 
ATOM     14  C   UNL     1      -5.934   6.797  -2.254  1.00  0.00     0.044 C 
ATOM     15  C   UNL     1      -4.891   5.722  -2.337  1.00  0.00    -0.047 A 
ATOM     16  C   UNL     1      -4.873   4.839  -3.422  1.00  0.00     0.003 A 
ATOM     17  C   UNL     1      -3.902   5.605  -1.352  1.00  0.00     0.049 A 
ATOM     18  C   UNL     1      -3.901   3.842  -3.500  1.00  0.00     0.004 A 
ATOM     19  C   UNL     1      -2.931   3.722  -2.500  1.00  0.00     0.046 A 
ENDBRANCH  12  13
ENDBRANCH   8  12
BRANCH   7  20
ATOM     20  N   UNL     1       1.875   4.134   1.737  1.00  0.00    -0.332 N 
ATOM     21  H   UNL     1       2.682   4.638   1.368  1.00  0.00     0.347 HD
ATOM     22  H   UNL     1       1.866   3.135   1.533  1.00  0.00     0.347 HD
BRANCH  20  23
ATOM     23  C   UNL     1       1.925   4.227   3.204  1.00  0.00     0.176 C 
ATOM     24  C   UNL     1       1.244   3.045   3.891  1.00  0.00     0.075 C 
ATOM     25  C   UNL     1       3.404   4.271   3.605  1.00  0.00     0.075 C 
ENDBRANCH  20  23
ENDBRANCH   7  20
ENDBRANCH   4   7
ENDBRANCH   2   3
ENDBRANCH   1   2
BRANCH   1  26
ATOM     26  C   UNL     1       2.624   9.367  -0.058  1.00  0.00     0.118 C 
BRANCH  26  27
ATOM     27  N   UNL     1       3.905  10.048  -0.257  1.00  0.00    -0.352 N 
ATOM     28  C   UNL     1       4.142  11.392  -0.490  1.00  0.00     0.251 C 
ATOM     29  H   UNL     1       4.704   9.474  -0.220  1.00  0.00     0.163 HD
ATOM     30  O   UNL     1       5.269  11.837  -0.647  1.00  0.00    -0.269 OA
BRANCH  28  31
ATOM     31  C   UNL     1       2.988  12.313  -0.416  1.00  0.00     0.039 A 
ATOM     32  C   UNL     1       2.990  13.253   0.618  1.00  0.00     0.014 A 
ATOM     33  C   UNL     1       1.836  12.058  -1.155  1.00  0.00     0.014 A 
ATOM     34  C   UNL     1       1.778  13.767   1.066  1.00  0.00     0.010 A 
ATOM     35  C   UNL     1       0.625  12.495  -0.652  1.00  0.00     0.010 A 
ATOM     36  C   UNL     1       0.593  13.294   0.498  1.00  0.00    -0.014 A 
BRANCH  36  37
ATOM     37  C   UNL     1      -0.702  13.453   1.155  1.00  0.00     0.031 A 
ATOM     38  C   UNL     1      -1.717  14.385   0.626  1.00  0.00     0.074 A 
ATOM     39  C   UNL     1      -0.983  12.731   2.262  1.00  0.00     0.049 A 
ATOM     40  N   UNL     1      -2.619  14.966   1.345  1.00  0.00    -0.248 NA
ATOM     41  C   UNL     1      -1.760  14.774  -0.777  1.00  0.00     0.031 C 
ATOM     42  C   UNL     1      -2.274  12.591   2.929  1.00  0.00     0.029 A 
ATOM     43  N   UNL     1      -0.066  12.181   3.158  1.00  0.00    -0.354 N 
ATOM     44  C   UNL     1      -3.516  15.560   0.490  1.00  0.00     0.074 A 
ATOM     45  C   UNL     1      -2.901  15.469  -0.816  1.00  0.00     0.031 C 
ATOM     46  C   UNL     1      -2.063  12.253   4.210  1.00  0.00     0.029 A 
ATOM     47  C   UNL     1      -0.630  12.290   4.440  1.00  0.00     0.049 A 
ATOM     48  H   UNL     1       0.809  11.791   2.934  1.00  0.00     0.167 HD
ATOM     49  C   UNL     1      -4.744  15.939   0.949  1.00  0.00     0.034 A 
ATOM     50  C   UNL     1      -0.005  12.989   5.431  1.00  0.00     0.034 A 
ATOM     51  C   UNL     1      -4.887  15.701   2.384  1.00  0.00     0.049 A 
ATOM     52  C   UNL     1      -0.829  14.136   5.969  1.00  0.00     0.074 A 
ATOM     53  C   UNL     1      -5.497  14.691   3.111  1.00  0.00     0.029 A 
ATOM     54  N   UNL     1      -4.116  16.425   3.289  1.00  0.00    -0.354 N 
ATOM     55  N   UNL     1      -1.862  14.646   5.356  1.00  0.00    -0.248 NA
ATOM     56  C   UNL     1      -0.542  14.806   7.233  1.00  0.00     0.031 C 
ATOM     57  C   UNL     1      -5.034  14.772   4.449  1.00  0.00     0.029 A 
ATOM     58  C   UNL     1      -4.171  15.851   4.545  1.00  0.00     0.049 A 
ATOM     59  H   UNL     1      -3.603  17.234   3.065  1.00  0.00     0.167 HD
ATOM     60  C   UNL     1      -2.367  15.686   6.095  1.00  0.00     0.074 A 
ATOM     61  C   UNL     1      -1.519  15.729   7.274  1.00  0.00     0.031 C 
ATOM     62  C   UNL     1      -3.437  16.424   5.667  1.00  0.00     0.034 A 
BRANCH  49  63
ATOM     63  C   UNL     1      -5.915  16.214   0.029  1.00  0.00     0.023 A 
ATOM     64  C   UNL     1      -7.221  15.867   0.438  1.00  0.00     0.031 A 
ATOM     65  C   UNL     1      -5.814  16.757  -1.266  1.00  0.00     0.131 A 
ATOM     66  C   UNL     1      -8.313  15.942  -0.448  1.00  0.00     0.055 A 
ATOM     67  C   UNL     1      -6.883  16.765  -2.172  1.00  0.00     0.041 A 
ATOM     68  F   UNL     1      -4.688  17.347  -1.691  1.00  0.00    -0.206 F 
ATOM     69  C   UNL     1      -8.140  16.338  -1.770  1.00  0.00     0.022 A 
BRANCH  66  70
ATOM     70  S   UNL     1      -9.973  15.524   0.154  1.00  0.00     0.124 S 
ATOM     71  O   UNL     1      -9.801  14.153   0.623  1.00  0.00    -0.237 OA
ATOM     72  O   UNL     1     -10.191  16.537   1.182  1.00  0.00    -0.237 OA
ATOM     73  O   UNL     1     -10.812  15.667  -1.036  1.00  0.00    -0.744 OA
ENDBRANCH  66  70
ENDBRANCH  49  63
BRANCH  50  74
ATOM     74  C   UNL     1       1.482  12.947   5.339  1.00  0.00     0.023 A 
ATOM     75  C   UNL     1       2.085  11.671   5.329  1.00  0.00     0.031 A 
ATOM     76  C   UNL     1       2.240  14.033   4.884  1.00  0.00     0.131 A 
ATOM     77  C   UNL     1       3.327  11.478   4.710  1.00  0.00     0.055 A 
ATOM     78  C   UNL     1       3.519  13.847   4.339  1.00  0.00     0.041 A 
ATOM     79  F   UNL     1       1.715  15.265   4.842  1.00  0.00    -0.206 F 
ATOM     80  C   UNL     1       4.048  12.560   4.206  1.00  0.00     0.022 A 
BRANCH  77  81
ATOM     81  S   UNL     1       3.838   9.780   4.304  1.00  0.00     0.124 S 
ATOM     82  O   UNL     1       4.647   9.417   5.461  1.00  0.00    -0.237 OA
ATOM     83  O   UNL     1       2.561   9.080   4.172  1.00  0.00    -0.237 OA
ATOM     84  O   UNL     1       4.564   9.929   3.045  1.00  0.00    -0.744 OA
ENDBRANCH  77  81
ENDBRANCH  50  74
BRANCH  62  85
ATOM     85  C   UNL     1      -3.957  17.690   6.319  1.00  0.00     0.023 A 
ATOM     86  C   UNL     1      -3.203  18.470   7.209  1.00  0.00     0.031 A 
ATOM     87  C   UNL     1      -5.240  18.201   5.997  1.00  0.00     0.131 A 
ATOM     88  C   UNL     1      -3.744  19.623   7.809  1.00  0.00     0.055 A 
ATOM     89  C   UNL     1      -5.745  19.390   6.533  1.00  0.00     0.041 A 
ATOM     90  F   UNL     1      -6.058  17.570   5.142  1.00  0.00    -0.206 F 
ATOM     91  C   UNL     1      -5.004  20.101   7.462  1.00  0.00     0.022 A 
BRANCH  88  92
ATOM     92  S   UNL     1      -2.783  20.448   9.106  1.00  0.00     0.124 S 
ATOM     93  O   UNL     1      -2.720  19.414  10.135  1.00  0.00    -0.237 OA
ATOM     94  O   UNL     1      -1.526  20.743   8.427  1.00  0.00    -0.237 OA
ATOM     95  O   UNL     1      -3.594  21.615   9.448  1.00  0.00    -0.744 OA
ENDBRANCH  88  92
ENDBRANCH  62  85
ENDBRANCH  36  37
ENDBRANCH  28  31
ENDBRANCH  26  27
ENDBRANCH   1  26
TORSDOF 17
