REMARK SMILES CN(CCO)C(=O)N[C@H]1C=C[C@@H](C(=O)NCCCNC(=O)c2ccc(-c3c4nc(c(-c5cc(S(=O)(=O)[O-])ccc5F)c5ccc([nH]5)c(-c5cc(S(=O)(=O)[O-])ccc5F)c5nc(c(-c6cc(S(=O)(=O)[O-])ccc6F)c6ccc3[nH]6)C=C5)C=C4)cc2)C1
REMARK SMILES IDX 16 1 15 2 13 3 14 4 12 6 9 7 10 8 85 9 11 10 8 11 6 12 7 13
REMARK SMILES IDX 2 15 1 16 3 17 4 18 5 19 17 21 18 22 19 23 20 24 21 26 22 27
REMARK SMILES IDX 23 28 84 29 24 30 83 31 25 32 26 33 27 34 77 35 28 36 82 37
REMARK SMILES IDX 76 38 78 39 29 40 81 41 75 42 74 43 30 45 62 46 42 47 61 48
REMARK SMILES IDX 43 49 46 50 60 51 79 52 44 53 45 54 59 56 80 57 47 58 31 59
REMARK SMILES IDX 32 60 40 61 33 62 39 63 41 64 38 65 34 66 35 67 36 68 37 69
REMARK SMILES IDX 63 70 64 71 72 72 65 73 71 74 73 75 70 76 66 77 67 78 68 79
REMARK SMILES IDX 69 80 48 81 49 82 57 83 50 84 56 85 58 86 55 87 51 88 52 89
REMARK SMILES IDX 53 90 54 91
REMARK H PARENT 15 5 8 14 5 20 19 25 78 44 46 55
REMARK Flexibility Score: inf
ROOT
ATOM      1  C   UNL     1      -2.886   0.104  -0.036  1.00  0.00     0.117 C 
ENDROOT
BRANCH   1   2
ATOM      2  N   UNL     1      -3.766   0.132  -1.211  1.00  0.00    -0.356 N 
ATOM      3  C   UNL     1      -3.578  -0.610  -2.346  1.00  0.00     0.227 C 
ATOM      4  O   UNL     1      -4.281  -1.622  -2.471  1.00  0.00    -0.274 OA
ATOM      5  H   UNL     1      -4.550   0.728  -1.180  1.00  0.00     0.163 HD
BRANCH   3   6
ATOM      6  C   UNL     1      -2.798  -0.061  -3.562  1.00  0.00     0.103 C 
ATOM      7  C   UNL     1      -0.655   0.763  -4.412  1.00  0.00     0.107 C 
ATOM      8  C   UNL     1      -0.795  -0.688  -4.667  1.00  0.00    -0.006 C 
ATOM      9  C   UNL     1      -1.812   1.108  -3.457  1.00  0.00     0.047 C 
ATOM     10  C   UNL     1      -1.973  -1.141  -4.220  1.00  0.00    -0.016 C 
BRANCH   7  11
ATOM     11  N   UNL     1       0.675   1.229  -4.042  1.00  0.00    -0.332 N 
ATOM     12  C   UNL     1       1.490   1.211  -2.972  1.00  0.00     0.317 C 
ATOM     13  O   UNL     1       2.196   2.213  -2.833  1.00  0.00    -0.249 OA
ATOM     14  H   UNL     1       1.103   1.694  -4.797  1.00  0.00     0.165 HD
BRANCH  12  15
ATOM     15  N   UNL     1       1.549   0.174  -2.085  1.00  0.00    -0.326 N 
ATOM     16  C   UNL     1       2.198   0.445  -0.802  1.00  0.00     0.148 C 
BRANCH  15  17
ATOM     17  C   UNL     1       1.507  -1.242  -2.477  1.00  0.00     0.149 C 
BRANCH  17  18
ATOM     18  C   UNL     1       0.417  -1.999  -1.722  1.00  0.00     0.177 C 
BRANCH  18  19
ATOM     19  O   UNL     1      -0.680  -1.133  -1.502  1.00  0.00    -0.395 OA
ATOM     20  H   UNL     1      -0.390  -0.369  -0.981  1.00  0.00     0.210 HD
ENDBRANCH  18  19
ENDBRANCH  17  18
ENDBRANCH  15  17
ENDBRANCH  12  15
ENDBRANCH   7  11
ENDBRANCH   3   6
ENDBRANCH   1   2
BRANCH   1  21
ATOM     21  C   UNL     1      -2.040   1.361   0.120  1.00  0.00     0.042 C 
BRANCH  21  22
ATOM     22  C   UNL     1      -1.603   1.632   1.553  1.00  0.00     0.118 C 
BRANCH  22  23
ATOM     23  N   UNL     1      -0.582   0.735   2.072  1.00  0.00    -0.352 N 
ATOM     24  C   UNL     1       0.342   0.981   3.073  1.00  0.00     0.251 C 
ATOM     25  H   UNL     1      -0.544  -0.158   1.661  1.00  0.00     0.163 HD
ATOM     26  O   UNL     1       1.186   0.123   3.330  1.00  0.00    -0.269 OA
BRANCH  24  27
ATOM     27  C   UNL     1       0.366   2.292   3.783  1.00  0.00     0.039 A 
ATOM     28  C   UNL     1       1.597   2.866   4.119  1.00  0.00     0.014 A 
ATOM     29  C   UNL     1      -0.806   2.984   4.087  1.00  0.00     0.014 A 
ATOM     30  C   UNL     1       1.648   4.163   4.651  1.00  0.00     0.010 A 
ATOM     31  C   UNL     1      -0.751   4.312   4.505  1.00  0.00     0.010 A 
ATOM     32  C   UNL     1       0.476   4.925   4.790  1.00  0.00    -0.014 A 
BRANCH  32  33
ATOM     33  C   UNL     1       0.497   6.354   5.218  1.00  0.00     0.031 A 
ATOM     34  C   UNL     1      -0.295   6.798   6.424  1.00  0.00     0.074 A 
ATOM     35  C   UNL     1       1.132   7.274   4.462  1.00  0.00     0.049 A 
ATOM     36  N   UNL     1      -0.523   8.007   6.872  1.00  0.00    -0.248 NA
ATOM     37  C   UNL     1      -0.963   5.740   7.196  1.00  0.00     0.031 C 
ATOM     38  C   UNL     1       1.871   6.992   3.229  1.00  0.00     0.029 A 
ATOM     39  N   UNL     1       1.246   8.635   4.607  1.00  0.00    -0.354 N 
ATOM     40  C   UNL     1      -1.390   7.856   7.951  1.00  0.00     0.074 A 
ATOM     41  C   UNL     1      -1.701   6.445   8.039  1.00  0.00     0.031 C 
ATOM     42  C   UNL     1       2.390   8.135   2.752  1.00  0.00     0.029 A 
ATOM     43  C   UNL     1       1.983   9.240   3.613  1.00  0.00     0.049 A 
ATOM     44  H   UNL     1       0.840   9.133   5.353  1.00  0.00     0.167 HD
ATOM     45  C   UNL     1      -1.860   8.799   8.808  1.00  0.00     0.034 A 
ATOM     46  C   UNL     1       2.289  10.538   3.411  1.00  0.00     0.034 A 
ATOM     47  C   UNL     1      -1.505  10.196   8.731  1.00  0.00     0.049 A 
ATOM     48  C   UNL     1       1.789  11.566   4.393  1.00  0.00     0.074 A 
ATOM     49  C   UNL     1      -1.853  11.224   9.590  1.00  0.00     0.029 A 
ATOM     50  N   UNL     1      -0.717  10.762   7.737  1.00  0.00    -0.354 N 
ATOM     51  N   UNL     1       1.019  11.398   5.444  1.00  0.00    -0.248 NA
ATOM     52  C   UNL     1       2.208  12.955   4.169  1.00  0.00     0.031 C 
ATOM     53  C   UNL     1      -1.326  12.418   9.084  1.00  0.00     0.029 A 
ATOM     54  C   UNL     1      -0.587  12.126   7.949  1.00  0.00     0.049 A 
ATOM     55  H   UNL     1      -0.310  10.266   6.989  1.00  0.00     0.167 HD
ATOM     56  C   UNL     1       0.889  12.657   6.023  1.00  0.00     0.074 A 
ATOM     57  C   UNL     1       1.670  13.569   5.213  1.00  0.00     0.031 C 
ATOM     58  C   UNL     1       0.190  13.025   7.127  1.00  0.00     0.034 A 
BRANCH  45  59
ATOM     59  C   UNL     1      -2.817   8.343   9.888  1.00  0.00     0.023 A 
ATOM     60  C   UNL     1      -2.443   7.386  10.850  1.00  0.00     0.031 A 
ATOM     61  C   UNL     1      -4.135   8.832   9.933  1.00  0.00     0.131 A 
ATOM     62  C   UNL     1      -3.398   6.874  11.740  1.00  0.00     0.055 A 
ATOM     63  C   UNL     1      -5.055   8.389  10.886  1.00  0.00     0.041 A 
ATOM     64  F   UNL     1      -4.560   9.735   9.035  1.00  0.00    -0.206 F 
ATOM     65  C   UNL     1      -4.695   7.388  11.784  1.00  0.00     0.022 A 
BRANCH  62  66
ATOM     66  S   UNL     1      -2.967   5.407  12.716  1.00  0.00     0.124 S 
ATOM     67  O   UNL     1      -2.643   4.442  11.667  1.00  0.00    -0.237 OA
ATOM     68  O   UNL     1      -1.844   5.879  13.518  1.00  0.00    -0.237 OA
ATOM     69  O   UNL     1      -4.190   5.118  13.461  1.00  0.00    -0.744 OA
ENDBRANCH  62  66
ENDBRANCH  45  59
BRANCH  46  70
ATOM     70  C   UNL     1       3.120  10.943   2.240  1.00  0.00     0.023 A 
ATOM     71  C   UNL     1       4.407  11.475   2.418  1.00  0.00     0.031 A 
ATOM     72  C   UNL     1       2.632  10.827   0.926  1.00  0.00     0.131 A 
ATOM     73  C   UNL     1       5.147  11.909   1.307  1.00  0.00     0.055 A 
ATOM     74  C   UNL     1       3.391  11.214  -0.180  1.00  0.00     0.041 A 
ATOM     75  F   UNL     1       1.411  10.318   0.699  1.00  0.00    -0.206 F 
ATOM     76  C   UNL     1       4.653  11.770   0.008  1.00  0.00     0.022 A 
BRANCH  73  77
ATOM     77  S   UNL     1       6.742  12.727   1.590  1.00  0.00     0.124 S 
ATOM     78  O   UNL     1       6.352  13.857   2.425  1.00  0.00    -0.237 OA
ATOM     79  O   UNL     1       7.509  11.676   2.249  1.00  0.00    -0.237 OA
ATOM     80  O   UNL     1       7.191  13.072   0.243  1.00  0.00    -0.744 OA
ENDBRANCH  73  77
ENDBRANCH  46  70
BRANCH  58  81
ATOM     81  C   UNL     1       0.283  14.471   7.546  1.00  0.00     0.023 A 
ATOM     82  C   UNL     1      -0.271  15.505   6.771  1.00  0.00     0.031 A 
ATOM     83  C   UNL     1       0.945  14.818   8.738  1.00  0.00     0.131 A 
ATOM     84  C   UNL     1      -0.108  16.840   7.170  1.00  0.00     0.055 A 
ATOM     85  C   UNL     1       1.053  16.144   9.159  1.00  0.00     0.041 A 
ATOM     86  F   UNL     1       1.494  13.871   9.515  1.00  0.00    -0.206 F 
ATOM     87  C   UNL     1       0.536  17.165   8.367  1.00  0.00     0.022 A 
BRANCH  84  88
ATOM     88  S   UNL     1      -0.674  18.156   6.058  1.00  0.00     0.124 S 
ATOM     89  O   UNL     1       0.095  17.883   4.848  1.00  0.00    -0.237 OA
ATOM     90  O   UNL     1      -2.108  17.899   5.973  1.00  0.00    -0.237 OA
ATOM     91  O   UNL     1      -0.306  19.383   6.762  1.00  0.00    -0.744 OA
ENDBRANCH  84  88
ENDBRANCH  58  81
ENDBRANCH  32  33
ENDBRANCH  24  27
ENDBRANCH  22  23
ENDBRANCH  21  22
ENDBRANCH   1  21
TORSDOF 18
