REMARK SMILES COc1cc(F)ccc1-c1ccc(=O)n(CC(=O)NCc2ccc(C(=O)NCCCNC(=O)c3ccc(-c4c5nc(c(-c6cc(S(=O)(=O)[O-])ccc6F)c6ccc([nH]6)c(-c6cc(S(=O)(=O)[O-])ccc6F)c6nc(c(-c7cc(S(=O)(=O)[O-])ccc7F)c7ccc4[nH]7)C=C6)C=C5)cc3)cc2)n1
REMARK SMILES IDX 25 1 26 2 27 3 24 5 21 6 22 7 98 8 23 9 97 10 20 11 19 12
REMARK SMILES IDX 17 13 18 14 16 16 15 17 10 18 11 19 99 20 12 21 13 22 14 23
REMARK SMILES IDX 9 24 3 25 4 26 5 27 8 28 6 29 7 30 2 31 1 32 28 33 29 34
REMARK SMILES IDX 30 35 31 36 32 37 33 39 34 40 35 41 96 42 36 43 95 44 37 45
REMARK SMILES IDX 38 46 39 47 89 48 40 49 94 50 88 51 90 52 41 53 93 54 87 55
REMARK SMILES IDX 86 56 42 58 74 59 54 60 73 61 55 62 58 63 72 64 91 65 56 66
REMARK SMILES IDX 57 67 71 69 92 70 59 71 43 72 44 73 52 74 45 75 51 76 53 77
REMARK SMILES IDX 50 78 46 79 47 80 48 81 49 82 75 83 76 84 84 85 77 86 83 87
REMARK SMILES IDX 85 88 82 89 78 90 79 91 80 92 81 93 60 94 61 95 69 96 62 97
REMARK SMILES IDX 68 98 70 99 67 100 63 101 64 102 65 103 66 104
REMARK H PARENT 27 4 19 15 31 38 90 57 58 68
REMARK Flexibility Score: inf
ROOT
ATOM      1  C   UNL     1      -3.555   7.268  -5.265  1.00  0.00     0.251 C 
ATOM      2  O   UNL     1      -3.304   8.472  -5.322  1.00  0.00    -0.269 OA
ATOM      3  N   UNL     1      -3.842   6.605  -6.436  1.00  0.00    -0.352 N 
ATOM      4  H   UNL     1      -3.778   7.179  -7.234  1.00  0.00     0.163 HD
ENDROOT
BRANCH   1   5
ATOM      5  C   UNL     1      -3.553   6.602  -3.940  1.00  0.00     0.039 A 
ATOM      6  C   UNL     1      -3.759   5.339  -1.421  1.00  0.00    -0.029 A 
ATOM      7  C   UNL     1      -3.987   6.712  -1.536  1.00  0.00     0.006 A 
ATOM      8  C   UNL     1      -3.374   4.648  -2.566  1.00  0.00     0.006 A 
ATOM      9  C   UNL     1      -3.900   7.336  -2.793  1.00  0.00     0.014 A 
ATOM     10  C   UNL     1      -3.191   5.275  -3.788  1.00  0.00     0.014 A 
BRANCH   6  11
ATOM     11  C   UNL     1      -3.928   4.570  -0.135  1.00  0.00     0.151 C 
BRANCH  11  12
ATOM     12  N   UNL     1      -5.135   3.775  -0.160  1.00  0.00    -0.350 N 
ATOM     13  C   UNL     1      -5.319   2.428  -0.074  1.00  0.00     0.242 C 
ATOM     14  O   UNL     1      -6.468   2.054   0.181  1.00  0.00    -0.273 OA
ATOM     15  H   UNL     1      -5.965   4.295  -0.256  1.00  0.00     0.163 HD
BRANCH  13  16
ATOM     16  C   UNL     1      -4.158   1.424  -0.089  1.00  0.00     0.248 C 
BRANCH  16  17
ATOM     17  N   UNL     1      -3.322   1.435  -1.286  1.00  0.00    -0.220 N 
ATOM     18  C   UNL     1      -1.278   1.877  -2.214  1.00  0.00     0.095 A 
ATOM     19  C   UNL     1      -1.702   1.418  -3.552  1.00  0.00     0.037 A 
ATOM     20  N   UNL     1      -2.019   1.887  -1.150  1.00  0.00    -0.169 NA
ATOM     21  C   UNL     1      -2.944   0.943  -3.644  1.00  0.00     0.075 A 
ATOM     22  C   UNL     1      -3.834   0.895  -2.462  1.00  0.00     0.267 A 
ATOM     23  O   UNL     1      -4.958   0.427  -2.592  1.00  0.00    -0.268 OA
BRANCH  18  24
ATOM     24  C   UNL     1       0.094   2.407  -2.141  1.00  0.00     0.044 A 
ATOM     25  C   UNL     1       1.128   1.603  -1.654  1.00  0.00     0.131 A 
ATOM     26  C   UNL     1       2.420   2.117  -1.568  1.00  0.00     0.086 A 
ATOM     27  C   UNL     1       2.655   3.437  -1.943  1.00  0.00     0.126 A 
ATOM     28  C   UNL     1       0.336   3.735  -2.515  1.00  0.00     0.017 A 
ATOM     29  F   UNL     1       3.896   3.933  -1.855  1.00  0.00    -0.207 F 
ATOM     30  C   UNL     1       1.628   4.250  -2.415  1.00  0.00     0.040 A 
BRANCH  25  31
ATOM     31  O   UNL     1       0.875   0.291  -1.358  1.00  0.00    -0.496 OA
ATOM     32  C   UNL     1       1.043   0.031   0.036  1.00  0.00     0.278 C 
ENDBRANCH  25  31
ENDBRANCH  18  24
ENDBRANCH  16  17
ENDBRANCH  13  16
ENDBRANCH  11  12
ENDBRANCH   6  11
ENDBRANCH   1   5
BRANCH   3  33
ATOM     33  C   UNL     1      -4.223   5.227  -6.748  1.00  0.00     0.118 C 
BRANCH  33  34
ATOM     34  C   UNL     1      -5.615   5.084  -7.341  1.00  0.00     0.042 C 
BRANCH  34  35
ATOM     35  C   UNL     1      -5.801   5.771  -8.683  1.00  0.00     0.118 C 
BRANCH  35  36
ATOM     36  N   UNL     1      -5.011   5.173  -9.755  1.00  0.00    -0.352 N 
ATOM     37  C   UNL     1      -5.345   4.294 -10.764  1.00  0.00     0.251 C 
ATOM     38  H   UNL     1      -4.065   5.448  -9.759  1.00  0.00     0.163 HD
ATOM     39  O   UNL     1      -4.453   3.820 -11.457  1.00  0.00    -0.269 OA
BRANCH  37  40
ATOM     40  C   UNL     1      -6.754   3.889 -10.993  1.00  0.00     0.039 A 
ATOM     41  C   UNL     1      -7.797   4.802 -10.879  1.00  0.00     0.014 A 
ATOM     42  C   UNL     1      -7.038   2.563 -11.344  1.00  0.00     0.014 A 
ATOM     43  C   UNL     1      -9.113   4.355 -10.877  1.00  0.00     0.010 A 
ATOM     44  C   UNL     1      -8.369   2.140 -11.467  1.00  0.00     0.010 A 
ATOM     45  C   UNL     1      -9.422   3.018 -11.171  1.00  0.00    -0.014 A 
BRANCH  45  46
ATOM     46  C   UNL     1     -10.846   2.578 -11.146  1.00  0.00     0.031 A 
ATOM     47  C   UNL     1     -11.304   1.506 -10.187  1.00  0.00     0.074 A 
ATOM     48  C   UNL     1     -11.746   3.202 -11.935  1.00  0.00     0.049 A 
ATOM     49  N   UNL     1     -12.501   0.999 -10.035  1.00  0.00    -0.248 NA
ATOM     50  C   UNL     1     -10.294   0.922  -9.288  1.00  0.00     0.031 C 
ATOM     51  C   UNL     1     -11.432   4.263 -12.897  1.00  0.00     0.029 A 
ATOM     52  N   UNL     1     -13.109   3.066 -12.034  1.00  0.00    -0.354 N 
ATOM     53  C   UNL     1     -12.383   0.021  -9.053  1.00  0.00     0.074 A 
ATOM     54  C   UNL     1     -10.995  -0.007  -8.651  1.00  0.00     0.031 C 
ATOM     55  C   UNL     1     -12.570   4.726 -13.433  1.00  0.00     0.029 A 
ATOM     56  C   UNL     1     -13.690   3.942 -12.923  1.00  0.00     0.049 A 
ATOM     57  H   UNL     1     -13.623   2.404 -11.517  1.00  0.00     0.167 HD
ATOM     58  C   UNL     1     -13.347  -0.775  -8.531  1.00  0.00     0.034 A 
ATOM     59  C   UNL     1     -14.973   4.088 -13.309  1.00  0.00     0.034 A 
ATOM     60  C   UNL     1     -14.739  -0.706  -8.893  1.00  0.00     0.049 A 
ATOM     61  C   UNL     1     -16.018   3.183 -12.717  1.00  0.00     0.074 A 
ATOM     62  C   UNL     1     -15.792  -1.450  -8.390  1.00  0.00     0.029 A 
ATOM     63  N   UNL     1     -15.274   0.160  -9.833  1.00  0.00    -0.354 N 
ATOM     64  N   UNL     1     -15.871   2.238 -11.819  1.00  0.00    -0.248 NA
ATOM     65  C   UNL     1     -17.396   3.352 -13.197  1.00  0.00     0.031 C 
ATOM     66  C   UNL     1     -16.957  -1.069  -9.062  1.00  0.00     0.029 A 
ATOM     67  C   UNL     1     -16.639  -0.046  -9.941  1.00  0.00     0.049 A 
ATOM     68  H   UNL     1     -14.761   0.824 -10.348  1.00  0.00     0.167 HD
ATOM     69  C   UNL     1     -17.139   1.704 -11.623  1.00  0.00     0.074 A 
ATOM     70  C   UNL     1     -18.042   2.442 -12.481  1.00  0.00     0.031 C 
ATOM     71  C   UNL     1     -17.521   0.691 -10.809  1.00  0.00     0.034 A 
BRANCH  58  72
ATOM     72  C   UNL     1     -12.942  -1.820  -7.527  1.00  0.00     0.023 A 
ATOM     73  C   UNL     1     -12.624  -1.488  -6.201  1.00  0.00     0.031 A 
ATOM     74  C   UNL     1     -12.959  -3.179  -7.890  1.00  0.00     0.131 A 
ATOM     75  C   UNL     1     -12.321  -2.507  -5.285  1.00  0.00     0.055 A 
ATOM     76  C   UNL     1     -12.701  -4.190  -6.963  1.00  0.00     0.041 A 
ATOM     77  F   UNL     1     -13.247  -3.545  -9.149  1.00  0.00    -0.206 F 
ATOM     78  C   UNL     1     -12.380  -3.856  -5.651  1.00  0.00     0.022 A 
BRANCH  75  79
ATOM     79  S   UNL     1     -11.821  -2.052  -3.604  1.00  0.00     0.124 S 
ATOM     80  O   UNL     1     -10.508  -1.463  -3.847  1.00  0.00    -0.237 OA
ATOM     81  O   UNL     1     -12.873  -1.127  -3.198  1.00  0.00    -0.237 OA
ATOM     82  O   UNL     1     -11.809  -3.329  -2.894  1.00  0.00    -0.744 OA
ENDBRANCH  75  79
ENDBRANCH  58  72
BRANCH  59  83
ATOM     83  C   UNL     1     -15.330   5.091 -14.352  1.00  0.00     0.023 A 
ATOM     84  C   UNL     1     -16.143   6.196 -14.055  1.00  0.00     0.031 A 
ATOM     85  C   UNL     1     -14.870   4.943 -15.673  1.00  0.00     0.131 A 
ATOM     86  C   UNL     1     -16.492   7.097 -15.074  1.00  0.00     0.055 A 
ATOM     87  C   UNL     1     -15.180   5.867 -16.671  1.00  0.00     0.041 A 
ATOM     88  F   UNL     1     -14.087   3.905 -16.006  1.00  0.00    -0.206 F 
ATOM     89  C   UNL     1     -16.004   6.948 -16.375  1.00  0.00     0.022 A 
BRANCH  86  90
ATOM     90  S   UNL     1     -17.642   8.445 -14.690  1.00  0.00     0.124 S 
ATOM     91  O   UNL     1     -18.837   7.711 -14.289  1.00  0.00    -0.237 OA
ATOM     92  O   UNL     1     -16.936   9.154 -13.627  1.00  0.00    -0.237 OA
ATOM     93  O   UNL     1     -17.750   9.171 -15.953  1.00  0.00    -0.744 OA
ENDBRANCH  86  90
ENDBRANCH  59  83
BRANCH  71  94
ATOM     94  C   UNL     1     -18.982   0.336 -10.788  1.00  0.00     0.023 A 
ATOM     95  C   UNL     1     -19.581  -0.346 -11.858  1.00  0.00     0.031 A 
ATOM     96  C   UNL     1     -19.768   0.648  -9.666  1.00  0.00     0.131 A 
ATOM     97  C   UNL     1     -20.944  -0.672 -11.797  1.00  0.00     0.055 A 
ATOM     98  C   UNL     1     -21.112   0.283  -9.592  1.00  0.00     0.041 A 
ATOM     99  F   UNL     1     -19.235   1.296  -8.618  1.00  0.00    -0.206 F 
ATOM    100  C   UNL     1     -21.708  -0.376 -10.665  1.00  0.00     0.022 A 
BRANCH  97 101
ATOM    101  S   UNL     1     -21.716  -1.467 -13.232  1.00  0.00     0.124 S 
ATOM    102  O   UNL     1     -21.635  -0.415 -14.240  1.00  0.00    -0.237 OA
ATOM    103  O   UNL     1     -20.858  -2.627 -13.451  1.00  0.00    -0.237 OA
ATOM    104  O   UNL     1     -23.066  -1.778 -12.766  1.00  0.00    -0.744 OA
ENDBRANCH  97 101
ENDBRANCH  71  94
ENDBRANCH  45  46
ENDBRANCH  37  40
ENDBRANCH  35  36
ENDBRANCH  34  35
ENDBRANCH  33  34
ENDBRANCH   3  33
TORSDOF 19
