REMARK SMILES CC(C)[NH2+][C@]1(C(=O)NCCCNC(=O)c2ccc(-c3c4nc(c(-c5cc(S(=O)(=O)[O-])ccc5F)c5ccc([nH]5)c(-c5cc(S(=O)(=O)[O-])ccc5F)c5nc(c(-c6cc(S(=O)(=O)[O-])ccc6F)c6ccc3[nH]6)C=C5)C=C4)cc2)CC[C@@H]([N@@H+](C)[C@@H](C)C(C)C)C1
REMARK SMILES IDX 10 1 9 2 8 3 6 4 7 5 5 7 78 8 88 9 79 10 80 11 4 12 2 15
REMARK SMILES IDX 1 16 3 17 81 18 82 19 83 21 84 22 85 23 86 24 87 25 11 26
REMARK SMILES IDX 12 27 13 28 14 30 15 31 16 32 77 33 17 34 76 35 18 36 19 37
REMARK SMILES IDX 20 38 70 39 21 40 75 41 69 42 71 43 22 44 74 45 68 46 67 47
REMARK SMILES IDX 23 49 55 50 35 51 54 52 36 53 39 54 53 55 72 56 37 57 38 58
REMARK SMILES IDX 52 60 73 61 40 62 24 63 25 64 33 65 26 66 32 67 34 68 31 69
REMARK SMILES IDX 27 70 28 71 29 72 30 73 56 74 57 75 65 76 58 77 64 78 66 79
REMARK SMILES IDX 63 80 59 81 60 82 61 83 62 84 41 85 42 86 50 87 43 88 49 89
REMARK SMILES IDX 51 90 48 91 44 92 45 93 46 94 47 95
REMARK H PARENT 8 6 4 13 4 14 81 20 12 29 71 48 39 59
REMARK Flexibility Score: inf
ROOT
ATOM      1  C   UNL     1       0.853   1.968  -2.614  1.00  0.00     0.042 C 
ENDROOT
BRANCH   1   2
ATOM      2  C   UNL     1       1.153   0.527  -2.226  1.00  0.00     0.118 C 
BRANCH   2   3
ATOM      3  N   UNL     1       0.180  -0.031  -1.303  1.00  0.00    -0.351 N 
ATOM      4  C   UNL     1      -0.952  -0.768  -1.406  1.00  0.00     0.281 C 
ATOM      5  O   UNL     1      -1.468  -1.067  -0.314  1.00  0.00    -0.268 OA
ATOM      6  H   UNL     1       0.399   0.179  -0.366  1.00  0.00     0.163 HD
BRANCH   4   7
ATOM      7  C   UNL     1      -1.664  -1.231  -2.718  1.00  0.00     0.181 C 
ATOM      8  C   UNL     1      -1.048  -0.953  -4.087  1.00  0.00     0.085 C 
ATOM      9  C   UNL     1      -1.695  -2.802  -2.672  1.00  0.00     0.144 C 
ATOM     10  C   UNL     1      -1.408  -2.130  -4.974  1.00  0.00     0.072 C 
ATOM     11  C   UNL     1      -1.273  -3.345  -4.054  1.00  0.00     0.191 C 
BRANCH   7  12
ATOM     12  N   UNL     1      -3.099  -0.814  -2.645  1.00  0.00    -0.331 N 
ATOM     13  H   UNL     1      -3.601  -1.336  -3.363  1.00  0.00     0.347 HD
ATOM     14  H   UNL     1      -3.365  -1.006  -1.679  1.00  0.00     0.347 HD
BRANCH  12  15
ATOM     15  C   UNL     1      -3.429   0.604  -2.832  1.00  0.00     0.176 C 
ATOM     16  C   UNL     1      -4.938   0.662  -3.101  1.00  0.00     0.075 C 
ATOM     17  C   UNL     1      -3.116   1.490  -1.624  1.00  0.00     0.075 C 
ENDBRANCH  12  15
ENDBRANCH   7  12
BRANCH  11  18
ATOM     18  N   UNL     1      -0.064  -4.196  -4.158  1.00  0.00    -0.332 N 
ATOM     19  C   UNL     1      -0.058  -4.924  -5.436  1.00  0.00     0.333 C 
ATOM     20  H   UNL     1      -0.240  -4.750  -3.320  1.00  0.00     0.348 HD
BRANCH  18  21
ATOM     21  C   UNL     1       1.311  -3.786  -3.769  1.00  0.00     0.183 C 
ATOM     22  C   UNL     1       2.019  -2.830  -4.745  1.00  0.00     0.075 C 
BRANCH  21  23
ATOM     23  C   UNL     1       1.490  -3.401  -2.269  1.00  0.00     0.041 C 
ATOM     24  C   UNL     1       1.143  -4.584  -1.349  1.00  0.00     0.013 C 
ATOM     25  C   UNL     1       2.897  -2.911  -1.901  1.00  0.00     0.013 C 
ENDBRANCH  21  23
ENDBRANCH  18  21
ENDBRANCH  11  18
ENDBRANCH   4   7
ENDBRANCH   2   3
ENDBRANCH   1   2
BRANCH   1  26
ATOM     26  C   UNL     1       1.136   2.951  -1.480  1.00  0.00     0.118 C 
BRANCH  26  27
ATOM     27  N   UNL     1       2.548   2.961  -1.111  1.00  0.00    -0.352 N 
ATOM     28  C   UNL     1       3.518   3.912  -1.305  1.00  0.00     0.251 C 
ATOM     29  H   UNL     1       2.856   2.150  -0.646  1.00  0.00     0.163 HD
ATOM     30  O   UNL     1       4.697   3.588  -1.190  1.00  0.00    -0.269 OA
BRANCH  28  31
ATOM     31  C   UNL     1       3.158   5.306  -1.644  1.00  0.00     0.039 A 
ATOM     32  C   UNL     1       3.984   6.031  -2.509  1.00  0.00     0.014 A 
ATOM     33  C   UNL     1       2.050   5.925  -1.060  1.00  0.00     0.014 A 
ATOM     34  C   UNL     1       3.667   7.354  -2.829  1.00  0.00     0.010 A 
ATOM     35  C   UNL     1       1.689   7.212  -1.444  1.00  0.00     0.010 A 
ATOM     36  C   UNL     1       2.500   7.946  -2.322  1.00  0.00    -0.014 A 
BRANCH  36  37
ATOM     37  C   UNL     1       2.119   9.341  -2.667  1.00  0.00     0.031 A 
ATOM     38  C   UNL     1       2.030  10.383  -1.584  1.00  0.00     0.074 A 
ATOM     39  C   UNL     1       1.780   9.647  -3.935  1.00  0.00     0.049 A 
ATOM     40  N   UNL     1       1.600  11.616  -1.652  1.00  0.00    -0.248 NA
ATOM     41  C   UNL     1       2.448   9.966  -0.237  1.00  0.00     0.031 C 
ATOM     42  C   UNL     1       1.790   8.712  -5.062  1.00  0.00     0.029 A 
ATOM     43  N   UNL     1       1.346  10.826  -4.486  1.00  0.00    -0.354 N 
ATOM     44  C   UNL     1       1.670  12.115  -0.355  1.00  0.00     0.074 A 
ATOM     45  C   UNL     1       2.128  11.029   0.485  1.00  0.00     0.031 C 
ATOM     46  C   UNL     1       1.400   9.359  -6.173  1.00  0.00     0.029 A 
ATOM     47  C   UNL     1       1.067  10.737  -5.830  1.00  0.00     0.049 A 
ATOM     48  H   UNL     1       1.244  11.657  -3.969  1.00  0.00     0.167 HD
ATOM     49  C   UNL     1       1.400  13.368   0.089  1.00  0.00     0.034 A 
ATOM     50  C   UNL     1       0.581  11.659  -6.686  1.00  0.00     0.034 A 
ATOM     51  C   UNL     1       0.968  14.444  -0.770  1.00  0.00     0.049 A 
ATOM     52  C   UNL     1       0.283  13.043  -6.170  1.00  0.00     0.074 A 
ATOM     53  C   UNL     1       0.721  15.765  -0.441  1.00  0.00     0.029 A 
ATOM     54  N   UNL     1       0.716  14.322  -2.131  1.00  0.00    -0.354 N 
ATOM     55  N   UNL     1       0.394  13.511  -4.948  1.00  0.00    -0.248 NA
ATOM     56  C   UNL     1      -0.194  14.026  -7.151  1.00  0.00     0.031 C 
ATOM     57  C   UNL     1       0.263  16.426  -1.586  1.00  0.00     0.029 A 
ATOM     58  C   UNL     1       0.293  15.537  -2.649  1.00  0.00     0.049 A 
ATOM     59  H   UNL     1       0.822  13.493  -2.652  1.00  0.00     0.167 HD
ATOM     60  C   UNL     1       0.030  14.853  -5.022  1.00  0.00     0.074 A 
ATOM     61  C   UNL     1      -0.290  15.119  -6.410  1.00  0.00     0.031 C 
ATOM     62  C   UNL     1      -0.030  15.783  -4.035  1.00  0.00     0.034 A 
BRANCH  49  63
ATOM     63  C   UNL     1       1.542  13.626   1.571  1.00  0.00     0.023 A 
ATOM     64  C   UNL     1       2.779  13.495   2.229  1.00  0.00     0.031 A 
ATOM     65  C   UNL     1       0.422  13.973   2.346  1.00  0.00     0.131 A 
ATOM     66  C   UNL     1       2.849  13.625   3.624  1.00  0.00     0.055 A 
ATOM     67  C   UNL     1       0.515  14.187   3.723  1.00  0.00     0.041 A 
ATOM     68  F   UNL     1      -0.790  14.094   1.780  1.00  0.00    -0.206 F 
ATOM     69  C   UNL     1       1.730  13.996   4.373  1.00  0.00     0.022 A 
BRANCH  66  70
ATOM     70  S   UNL     1       4.388  13.153   4.460  1.00  0.00     0.124 S 
ATOM     71  O   UNL     1       4.521  11.753   4.061  1.00  0.00    -0.237 OA
ATOM     72  O   UNL     1       5.357  14.077   3.883  1.00  0.00    -0.237 OA
ATOM     73  O   UNL     1       4.088  13.364   5.875  1.00  0.00    -0.744 OA
ENDBRANCH  66  70
ENDBRANCH  49  63
BRANCH  50  74
ATOM     74  C   UNL     1       0.339  11.308  -8.114  1.00  0.00     0.023 A 
ATOM     75  C   UNL     1       1.080  11.913  -9.141  1.00  0.00     0.031 A 
ATOM     76  C   UNL     1      -0.663  10.389  -8.476  1.00  0.00     0.131 A 
ATOM     77  C   UNL     1       0.779  11.629 -10.482  1.00  0.00     0.055 A 
ATOM     78  C   UNL     1      -0.924  10.071  -9.809  1.00  0.00     0.041 A 
ATOM     79  F   UNL     1      -1.395   9.776  -7.532  1.00  0.00    -0.206 F 
ATOM     80  C   UNL     1      -0.210  10.703 -10.823  1.00  0.00     0.022 A 
BRANCH  77  81
ATOM     81  S   UNL     1       1.647  12.550 -11.780  1.00  0.00     0.124 S 
ATOM     82  O   UNL     1       1.313  13.929 -11.440  1.00  0.00    -0.237 OA
ATOM     83  O   UNL     1       3.033  12.152 -11.557  1.00  0.00    -0.237 OA
ATOM     84  O   UNL     1       1.047  12.047 -13.013  1.00  0.00    -0.744 OA
ENDBRANCH  77  81
ENDBRANCH  50  74
BRANCH  62  85
ATOM     85  C   UNL     1      -0.411  17.185  -4.439  1.00  0.00     0.023 A 
ATOM     86  C   UNL     1      -1.701  17.498  -4.902  1.00  0.00     0.031 A 
ATOM     87  C   UNL     1       0.538  18.220  -4.370  1.00  0.00     0.131 A 
ATOM     88  C   UNL     1      -1.991  18.802  -5.330  1.00  0.00     0.055 A 
ATOM     89  C   UNL     1       0.227  19.528  -4.742  1.00  0.00     0.041 A 
ATOM     90  F   UNL     1       1.786  17.976  -3.937  1.00  0.00    -0.206 F 
ATOM     91  C   UNL     1      -1.040  19.823  -5.238  1.00  0.00     0.022 A 
BRANCH  88  92
ATOM     92  S   UNL     1      -3.603  19.130  -6.094  1.00  0.00     0.124 S 
ATOM     93  O   UNL     1      -3.597  18.206  -7.224  1.00  0.00    -0.237 OA
ATOM     94  O   UNL     1      -4.531  18.810  -5.014  1.00  0.00    -0.237 OA
ATOM     95  O   UNL     1      -3.532  20.546  -6.451  1.00  0.00    -0.744 OA
ENDBRANCH  88  92
ENDBRANCH  62  85
ENDBRANCH  36  37
ENDBRANCH  28  31
ENDBRANCH  26  27
ENDBRANCH   1  26
TORSDOF 18
