REMARK SMILES CC(C)c1ccc(S[C@H](C)[C@@H](C)C(=O)NCCCNC(=O)c2ccc(-c3c4nc(c(-c5cc(S(=O)(=O)[O-])ccc5F)c5ccc([nH]5)c(-c5cc(S(=O)(=O)[O-])ccc5F)c5nc(c(-c6cc(S(=O)(=O)[O-])ccc6F)c6ccc3[nH]6)C=C5)C=C4)cc2)cc1
REMARK SMILES IDX 16 1 15 2 13 3 14 4 11 6 12 7 9 8 10 9 8 10 7 11 4 12 5 13
REMARK SMILES IDX 86 14 6 15 85 16 2 17 1 18 3 19 17 20 18 21 19 22 20 23
REMARK SMILES IDX 21 25 22 26 23 27 84 28 24 29 83 30 25 31 26 32 27 33 77 34
REMARK SMILES IDX 28 35 82 36 76 37 78 38 29 39 81 40 75 41 74 42 30 44 62 45
REMARK SMILES IDX 42 46 61 47 43 48 46 49 60 50 79 51 44 52 45 53 59 55 80 56
REMARK SMILES IDX 47 57 31 58 32 59 40 60 33 61 39 62 41 63 38 64 34 65 35 66
REMARK SMILES IDX 36 67 37 68 63 69 64 70 72 71 65 72 71 73 73 74 70 75 66 76
REMARK SMILES IDX 67 77 68 78 69 79 48 80 49 81 57 82 50 83 56 84 58 85 55 86
REMARK SMILES IDX 51 87 52 88 53 89 54 90
REMARK H PARENT 15 5 19 24 78 43 46 54
REMARK Flexibility Score: inf
ROOT
ATOM      1  C   UNL     1      -8.611  -4.450   1.067  1.00  0.00     0.117 C 
ENDROOT
BRANCH   1   2
ATOM      2  N   UNL     1      -7.537  -5.426   1.036  1.00  0.00    -0.356 N 
ATOM      3  C   UNL     1      -6.187  -5.275   1.022  1.00  0.00     0.223 C 
ATOM      4  O   UNL     1      -5.500  -6.300   1.013  1.00  0.00    -0.275 OA
ATOM      5  H   UNL     1      -7.840  -6.362   1.021  1.00  0.00     0.163 HD
BRANCH   3   6
ATOM      6  C   UNL     1      -5.532  -3.902   1.094  1.00  0.00     0.088 C 
ATOM      7  C   UNL     1      -5.793  -3.300   2.483  1.00  0.00     0.019 C 
BRANCH   6   8
ATOM      8  C   UNL     1      -5.843  -3.011  -0.148  1.00  0.00     0.061 C 
ATOM      9  C   UNL     1      -5.740  -1.528   0.184  1.00  0.00     0.020 C 
BRANCH   8  10
ATOM     10  S   UNL     1      -4.750  -3.661  -1.528  1.00  0.00    -0.122 SA
BRANCH  10  11
ATOM     11  C   UNL     1      -4.557  -2.434  -2.805  1.00  0.00     0.008 A 
ATOM     12  C   UNL     1      -3.713  -0.672  -4.892  1.00  0.00    -0.045 A 
ATOM     13  C   UNL     1      -3.895  -0.225  -3.581  1.00  0.00     0.005 A 
ATOM     14  C   UNL     1      -4.046  -2.009  -5.160  1.00  0.00     0.005 A 
ATOM     15  C   UNL     1      -4.263  -1.100  -2.556  1.00  0.00     0.015 A 
ATOM     16  C   UNL     1      -4.458  -2.875  -4.131  1.00  0.00     0.015 A 
BRANCH  12  17
ATOM     17  C   UNL     1      -3.143   0.239  -5.975  1.00  0.00     0.013 C 
ATOM     18  C   UNL     1      -2.635   1.595  -5.450  1.00  0.00     0.012 C 
ATOM     19  C   UNL     1      -1.983  -0.429  -6.729  1.00  0.00     0.012 C 
ENDBRANCH  12  17
ENDBRANCH  10  11
ENDBRANCH   8  10
ENDBRANCH   6   8
ENDBRANCH   3   6
ENDBRANCH   1   2
BRANCH   1  20
ATOM     20  C   UNL     1      -9.446  -4.477  -0.206  1.00  0.00     0.042 C 
BRANCH  20  21
ATOM     21  C   UNL     1     -10.176  -5.793  -0.435  1.00  0.00     0.118 C 
BRANCH  21  22
ATOM     22  N   UNL     1     -11.129  -6.093   0.625  1.00  0.00    -0.352 N 
ATOM     23  C   UNL     1     -12.493  -6.226   0.570  1.00  0.00     0.251 C 
ATOM     24  H   UNL     1     -10.733  -6.219   1.517  1.00  0.00     0.163 HD
ATOM     25  O   UNL     1     -13.136  -6.254   1.619  1.00  0.00    -0.269 OA
BRANCH  23  26
ATOM     26  C   UNL     1     -13.184  -6.310  -0.734  1.00  0.00     0.039 A 
ATOM     27  C   UNL     1     -14.393  -5.632  -0.906  1.00  0.00     0.014 A 
ATOM     28  C   UNL     1     -12.649  -7.061  -1.784  1.00  0.00     0.014 A 
ATOM     29  C   UNL     1     -15.025  -5.650  -2.152  1.00  0.00     0.010 A 
ATOM     30  C   UNL     1     -13.229  -7.000  -3.047  1.00  0.00     0.010 A 
ATOM     31  C   UNL     1     -14.427  -6.299  -3.245  1.00  0.00    -0.014 A 
BRANCH  31  32
ATOM     32  C   UNL     1     -15.040  -6.261  -4.598  1.00  0.00     0.031 A 
ATOM     33  C   UNL     1     -15.478  -7.538  -5.264  1.00  0.00     0.074 A 
ATOM     34  C   UNL     1     -15.151  -5.085  -5.248  1.00  0.00     0.049 A 
ATOM     35  N   UNL     1     -15.962  -7.721  -6.465  1.00  0.00    -0.248 NA
ATOM     36  C   UNL     1     -15.324  -8.777  -4.484  1.00  0.00     0.031 C 
ATOM     37  C   UNL     1     -14.734  -3.784  -4.718  1.00  0.00     0.029 A 
ATOM     38  N   UNL     1     -15.646  -4.789  -6.493  1.00  0.00    -0.354 N 
ATOM     39  C   UNL     1     -16.163  -9.092  -6.589  1.00  0.00     0.074 A 
ATOM     40  C   UNL     1     -15.682  -9.698  -5.366  1.00  0.00     0.031 C 
ATOM     41  C   UNL     1     -15.027  -2.829  -5.614  1.00  0.00     0.029 A 
ATOM     42  C   UNL     1     -15.597  -3.450  -6.806  1.00  0.00     0.049 A 
ATOM     43  H   UNL     1     -16.003  -5.472  -7.106  1.00  0.00     0.167 HD
ATOM     44  C   UNL     1     -16.720  -9.779  -7.617  1.00  0.00     0.034 A 
ATOM     45  C   UNL     1     -15.959  -2.797  -7.928  1.00  0.00     0.034 A 
ATOM     46  C   UNL     1     -17.200  -9.159  -8.827  1.00  0.00     0.049 A 
ATOM     47  C   UNL     1     -16.529  -3.590  -9.077  1.00  0.00     0.074 A 
ATOM     48  C   UNL     1     -17.817  -9.754  -9.914  1.00  0.00     0.029 A 
ATOM     49  N   UNL     1     -17.112  -7.802  -9.117  1.00  0.00    -0.354 N 
ATOM     50  N   UNL     1     -16.744  -4.883  -9.164  1.00  0.00    -0.248 NA
ATOM     51  C   UNL     1     -16.914  -2.834 -10.276  1.00  0.00     0.031 C 
ATOM     52  C   UNL     1     -18.031  -8.775 -10.889  1.00  0.00     0.029 A 
ATOM     53  C   UNL     1     -17.633  -7.550 -10.377  1.00  0.00     0.049 A 
ATOM     54  H   UNL     1     -16.736  -7.120  -8.515  1.00  0.00     0.167 HD
ATOM     55  C   UNL     1     -17.324  -5.087 -10.414  1.00  0.00     0.074 A 
ATOM     56  C   UNL     1     -17.436  -3.784 -11.036  1.00  0.00     0.031 C 
ATOM     57  C   UNL     1     -17.732  -6.246 -10.992  1.00  0.00     0.034 A 
BRANCH  44  58
ATOM     58  C   UNL     1     -16.817 -11.280  -7.480  1.00  0.00     0.023 A 
ATOM     59  C   UNL     1     -17.585 -11.882  -6.467  1.00  0.00     0.031 A 
ATOM     60  C   UNL     1     -16.122 -12.124  -8.365  1.00  0.00     0.131 A 
ATOM     61  C   UNL     1     -17.582 -13.277  -6.319  1.00  0.00     0.055 A 
ATOM     62  C   UNL     1     -16.192 -13.515  -8.265  1.00  0.00     0.041 A 
ATOM     63  F   UNL     1     -15.354 -11.610  -9.339  1.00  0.00    -0.206 F 
ATOM     64  C   UNL     1     -16.914 -14.100  -7.228  1.00  0.00     0.022 A 
BRANCH  61  65
ATOM     65  S   UNL     1     -18.345 -13.991  -4.837  1.00  0.00     0.124 S 
ATOM     66  O   UNL     1     -17.578 -13.350  -3.772  1.00  0.00    -0.237 OA
ATOM     67  O   UNL     1     -19.736 -13.571  -4.964  1.00  0.00    -0.237 OA
ATOM     68  O   UNL     1     -18.110 -15.426  -4.988  1.00  0.00    -0.744 OA
ENDBRANCH  61  65
ENDBRANCH  44  58
BRANCH  45  69
ATOM     69  C   UNL     1     -15.794  -1.318  -8.032  1.00  0.00     0.023 A 
ATOM     70  C   UNL     1     -16.908  -0.479  -8.193  1.00  0.00     0.031 A 
ATOM     71  C   UNL     1     -14.519  -0.724  -8.021  1.00  0.00     0.131 A 
ATOM     72  C   UNL     1     -16.725   0.899  -8.387  1.00  0.00     0.055 A 
ATOM     73  C   UNL     1     -14.345   0.654  -8.154  1.00  0.00     0.041 A 
ATOM     74  F   UNL     1     -13.419  -1.479  -7.869  1.00  0.00    -0.206 F 
ATOM     75  C   UNL     1     -15.452   1.473  -8.353  1.00  0.00     0.022 A 
BRANCH  72  76
ATOM     76  S   UNL     1     -18.171   1.919  -8.782  1.00  0.00     0.124 S 
ATOM     77  O   UNL     1     -18.665   1.275  -9.994  1.00  0.00    -0.237 OA
ATOM     78  O   UNL     1     -18.992   1.756  -7.587  1.00  0.00    -0.237 OA
ATOM     79  O   UNL     1     -17.605   3.253  -8.970  1.00  0.00    -0.744 OA
ENDBRANCH  72  76
ENDBRANCH  45  69
BRANCH  57  80
ATOM     80  C   UNL     1     -18.388  -6.146 -12.348  1.00  0.00     0.023 A 
ATOM     81  C   UNL     1     -17.683  -5.715 -13.486  1.00  0.00     0.031 A 
ATOM     82  C   UNL     1     -19.746  -6.481 -12.501  1.00  0.00     0.131 A 
ATOM     83  C   UNL     1     -18.353  -5.573 -14.710  1.00  0.00     0.055 A 
ATOM     84  C   UNL     1     -20.389  -6.404 -13.737  1.00  0.00     0.041 A 
ATOM     85  F   UNL     1     -20.471  -6.894 -11.449  1.00  0.00    -0.206 F 
ATOM     86  C   UNL     1     -19.695  -5.934 -14.848  1.00  0.00     0.022 A 
BRANCH  83  87
ATOM     87  S   UNL     1     -17.471  -4.811 -16.101  1.00  0.00     0.124 S 
ATOM     88  O   UNL     1     -17.098  -3.513 -15.547  1.00  0.00    -0.237 OA
ATOM     89  O   UNL     1     -16.375  -5.747 -16.327  1.00  0.00    -0.237 OA
ATOM     90  O   UNL     1     -18.477  -4.767 -17.161  1.00  0.00    -0.744 OA
ENDBRANCH  83  87
ENDBRANCH  57  80
ENDBRANCH  31  32
ENDBRANCH  23  26
ENDBRANCH  21  22
ENDBRANCH  20  21
ENDBRANCH   1  20
TORSDOF 17
