REMARK SMILES C[C@]12C[C@@H](O)[C@H]3[C@@H](CCC4=CC(=O)C=C[C@]43C)[C@H]1CC[C@]2(O)C(=O)COC(=O)CCC(=O)NCCCNC(=O)c1ccc(-c2c3nc(c(-c4cc(S(=O)(=O)[O-])ccc4F)c4ccc([nH]4)c(-c4cc(S(=O)(=O)[O-])ccc4F)c4nc(c(-c5cc(S(=O)(=O)[O-])ccc5F)c5ccc2[nH]5)C=C4)C=C3)cc1
REMARK SMILES IDX 31 1 32 2 33 3 30 5 29 6 27 7 28 8 26 9 25 10 23 11 24 12
REMARK SMILES IDX 21 13 17 14 16 15 15 16 10 17 6 18 14 19 11 20 9 21 7 22
REMARK SMILES IDX 4 23 12 24 8 25 18 26 3 27 13 28 2 29 19 30 1 31 20 32 5 33
REMARK SMILES IDX 22 35 34 37 35 38 36 39 37 40 38 41 39 43 40 44 41 45 102 46
REMARK SMILES IDX 42 47 101 48 43 49 44 50 45 51 95 52 46 53 100 54 94 55
REMARK SMILES IDX 96 56 47 57 99 58 93 59 92 60 48 62 80 63 60 64 79 65 61 66
REMARK SMILES IDX 64 67 78 68 97 69 62 70 63 71 77 73 98 74 65 75 49 76 50 77
REMARK SMILES IDX 58 78 51 79 57 80 59 81 56 82 52 83 53 84 54 85 55 86 81 87
REMARK SMILES IDX 82 88 90 89 83 90 89 91 91 92 88 93 84 94 85 95 86 96 87 97
REMARK SMILES IDX 66 98 67 99 75 100 68 101 74 102 76 103 73 104 69 105 70 106
REMARK SMILES IDX 71 107 72 108
REMARK H PARENT 33 4 5 34 22 36 37 42 96 61 64 72
REMARK Flexibility Score: inf
ROOT
ATOM      1  C   UNL     1       7.628  -3.117   0.885  1.00  0.00     0.220 C 
ATOM      2  O   UNL     1       8.271  -2.081   1.059  1.00  0.00    -0.275 OA
ATOM      3  N   UNL     1       7.248  -3.828   1.981  1.00  0.00    -0.356 N 
ATOM      4  H   UNL     1       7.643  -3.522   2.829  1.00  0.00     0.163 HD
ENDROOT
BRANCH   1   5
ATOM      5  C   UNL     1       7.259  -3.574  -0.511  1.00  0.00     0.111 C 
BRANCH   5   6
ATOM      6  C   UNL     1       7.976  -4.848  -0.928  1.00  0.00     0.132 C 
BRANCH   6   7
ATOM      7  C   UNL     1       7.101  -5.966  -1.462  1.00  0.00     0.306 C 
ATOM      8  O   UNL     1       7.536  -6.826  -2.216  1.00  0.00    -0.252 OA
BRANCH   7   9
ATOM      9  O   UNL     1       5.835  -5.970  -0.951  1.00  0.00    -0.458 OA
BRANCH   9  10
ATOM     10  C   UNL     1       5.092  -7.154  -1.268  1.00  0.00     0.311 C 
BRANCH  10  11
ATOM     11  C   UNL     1       3.611  -7.089  -0.869  1.00  0.00     0.202 C 
ATOM     12  O   UNL     1       3.080  -8.068  -0.344  1.00  0.00    -0.293 OA
BRANCH  11  13
ATOM     13  C   UNL     1       2.800  -5.826  -1.242  1.00  0.00     0.132 C 
ATOM     14  C   UNL     1       0.671   0.369  -0.327  1.00  0.00     0.021 C 
ATOM     15  C   UNL     1       0.578  -0.705   0.802  1.00  0.00     0.013 C 
ATOM     16  C   UNL     1       1.346  -0.123   1.999  1.00  0.00    -0.012 C 
ATOM     17  C   UNL     1      -0.905  -0.796   1.216  1.00  0.00    -0.056 C 
ATOM     18  C   UNL     1       1.177  -2.035   0.171  1.00  0.00     0.035 C 
ATOM     19  C   UNL     1       0.814   0.795   2.822  1.00  0.00     0.048 C 
ATOM     20  C   UNL     1      -1.456   0.142   2.016  1.00  0.00     0.052 C 
ATOM     21  C   UNL     1      -1.754  -1.995   0.898  1.00  0.00     0.032 C 
ATOM     22  C   UNL     1       0.362  -3.306   0.491  1.00  0.00    -0.000 C 
ATOM     23  C   UNL     1       2.679  -2.255   0.428  1.00  0.00     0.119 C 
ATOM     24  C   UNL     1      -0.610   1.164   2.671  1.00  0.00     0.178 C 
ATOM     25  C   UNL     1      -1.093  -3.088   0.081  1.00  0.00     0.009 C 
ATOM     26  C   UNL     1       0.907  -4.611  -0.144  1.00  0.00     0.002 C 
ATOM     27  C   UNL     1       3.178  -3.460  -0.342  1.00  0.00     0.042 C 
ATOM     28  O   UNL     1      -1.072   2.188   3.152  1.00  0.00    -0.290 OA
ATOM     29  C   UNL     1       2.448  -4.784  -0.084  1.00  0.00     0.009 C 
ATOM     30  C   UNL     1       0.570  -4.950  -1.590  1.00  0.00     0.008 C 
ATOM     31  C   UNL     1       2.719  -5.241   1.350  1.00  0.00     0.015 C 
ATOM     32  C   UNL     1       1.419  -6.206  -1.811  1.00  0.00     0.044 C 
BRANCH  23  33
ATOM     33  O   UNL     1       3.452  -1.167  -0.085  1.00  0.00    -0.393 OA
ATOM     34  H   UNL     1       3.323  -1.104  -1.044  1.00  0.00     0.210 HD
ENDBRANCH  23  33
BRANCH  13  35
ATOM     35  O   UNL     1       3.462  -5.200  -2.356  1.00  0.00    -0.381 OA
ATOM     36  H   UNL     1       2.975  -4.402  -2.615  1.00  0.00     0.212 HD
ENDBRANCH  13  35
ENDBRANCH  11  13
ENDBRANCH  10  11
ENDBRANCH   9  10
ENDBRANCH   7   9
ENDBRANCH   6   7
ENDBRANCH   5   6
ENDBRANCH   1   5
BRANCH   3  37
ATOM     37  C   UNL     1       6.355  -4.963   2.101  1.00  0.00     0.117 C 
BRANCH  37  38
ATOM     38  C   UNL     1       7.077  -6.301   2.210  1.00  0.00     0.042 C 
BRANCH  38  39
ATOM     39  C   UNL     1       6.262  -7.406   2.887  1.00  0.00     0.118 C 
BRANCH  39  40
ATOM     40  N   UNL     1       4.921  -7.593   2.384  1.00  0.00    -0.352 N 
ATOM     41  C   UNL     1       3.963  -8.540   2.722  1.00  0.00     0.251 C 
ATOM     42  H   UNL     1       4.642  -6.947   1.695  1.00  0.00     0.163 HD
ATOM     43  O   UNL     1       2.784  -8.325   2.535  1.00  0.00    -0.269 OA
BRANCH  41  44
ATOM     44  C   UNL     1       4.405  -9.862   3.182  1.00  0.00     0.039 A 
ATOM     45  C   UNL     1       3.886 -10.978   2.515  1.00  0.00     0.014 A 
ATOM     46  C   UNL     1       5.376 -10.000   4.162  1.00  0.00     0.014 A 
ATOM     47  C   UNL     1       4.419 -12.238   2.772  1.00  0.00     0.010 A 
ATOM     48  C   UNL     1       5.978 -11.232   4.338  1.00  0.00     0.010 A 
ATOM     49  C   UNL     1       5.509 -12.358   3.642  1.00  0.00    -0.014 A 
BRANCH  49  50
ATOM     50  C   UNL     1       6.193 -13.647   3.880  1.00  0.00     0.031 A 
ATOM     51  C   UNL     1       6.255 -14.175   5.284  1.00  0.00     0.074 A 
ATOM     52  C   UNL     1       6.870 -14.238   2.877  1.00  0.00     0.049 A 
ATOM     53  N   UNL     1       7.016 -15.108   5.786  1.00  0.00    -0.248 NA
ATOM     54  C   UNL     1       5.389 -13.504   6.267  1.00  0.00     0.031 C 
ATOM     55  C   UNL     1       6.910 -13.775   1.487  1.00  0.00     0.029 A 
ATOM     56  N   UNL     1       7.679 -15.343   2.881  1.00  0.00    -0.354 N 
ATOM     57  C   UNL     1       6.763 -15.098   7.153  1.00  0.00     0.074 A 
ATOM     58  C   UNL     1       5.825 -14.024   7.402  1.00  0.00     0.031 C 
ATOM     59  C   UNL     1       7.690 -14.601   0.771  1.00  0.00     0.029 A 
ATOM     60  C   UNL     1       8.248 -15.614   1.658  1.00  0.00     0.049 A 
ATOM     61  H   UNL     1       7.838 -15.892   3.683  1.00  0.00     0.167 HD
ATOM     62  C   UNL     1       7.258 -15.925   8.106  1.00  0.00     0.034 A 
ATOM     63  C   UNL     1       9.137 -16.562   1.307  1.00  0.00     0.034 A 
ATOM     64  C   UNL     1       8.147 -17.020   7.809  1.00  0.00     0.049 A 
ATOM     65  C   UNL     1       9.631 -17.505   2.373  1.00  0.00     0.074 A 
ATOM     66  C   UNL     1       8.662 -17.974   8.667  1.00  0.00     0.029 A 
ATOM     67  N   UNL     1       8.642 -17.313   6.543  1.00  0.00    -0.354 N 
ATOM     68  N   UNL     1       9.368 -17.506   3.660  1.00  0.00    -0.248 NA
ATOM     69  C   UNL     1      10.531 -18.579   1.939  1.00  0.00     0.031 C 
ATOM     70  C   UNL     1       9.501 -18.817   7.929  1.00  0.00     0.029 A 
ATOM     71  C   UNL     1       9.462 -18.427   6.599  1.00  0.00     0.049 A 
ATOM     72  H   UNL     1       8.439 -16.803   5.726  1.00  0.00     0.167 HD
ATOM     73  C   UNL     1      10.049 -18.599   4.185  1.00  0.00     0.074 A 
ATOM     74  C   UNL     1      10.721 -19.240   3.071  1.00  0.00     0.031 C 
ATOM     75  C   UNL     1      10.117 -19.039   5.467  1.00  0.00     0.034 A 
BRANCH  62  76
ATOM     76  C   UNL     1       6.855 -15.655   9.535  1.00  0.00     0.023 A 
ATOM     77  C   UNL     1       5.510 -15.698   9.944  1.00  0.00     0.031 A 
ATOM     78  C   UNL     1       7.819 -15.286  10.489  1.00  0.00     0.131 A 
ATOM     79  C   UNL     1       5.157 -15.284  11.237  1.00  0.00     0.055 A 
ATOM     80  C   UNL     1       7.469 -14.965  11.803  1.00  0.00     0.041 A 
ATOM     81  F   UNL     1       9.116 -15.204  10.155  1.00  0.00    -0.206 F 
ATOM     82  C   UNL     1       6.129 -14.944  12.178  1.00  0.00     0.022 A 
BRANCH  79  83
ATOM     83  S   UNL     1       3.399 -15.038  11.612  1.00  0.00     0.124 S 
ATOM     84  O   UNL     1       3.040 -13.992  10.658  1.00  0.00    -0.237 OA
ATOM     85  O   UNL     1       2.833 -16.358  11.357  1.00  0.00    -0.237 OA
ATOM     86  O   UNL     1       3.403 -14.620  13.013  1.00  0.00    -0.744 OA
ENDBRANCH  79  83
ENDBRANCH  62  76
BRANCH  63  87
ATOM     87  C   UNL     1       9.614 -16.671  -0.100  1.00  0.00     0.023 A 
ATOM     88  C   UNL     1       9.289 -17.791  -0.880  1.00  0.00     0.031 A 
ATOM     89  C   UNL     1      10.423 -15.677  -0.677  1.00  0.00     0.131 A 
ATOM     90  C   UNL     1       9.808 -17.917  -2.177  1.00  0.00     0.055 A 
ATOM     91  C   UNL     1      10.898 -15.783  -1.986  1.00  0.00     0.041 A 
ATOM     92  F   UNL     1      10.753 -14.579   0.021  1.00  0.00    -0.206 F 
ATOM     93  C   UNL     1      10.602 -16.915  -2.740  1.00  0.00     0.022 A 
BRANCH  90  94
ATOM     94  S   UNL     1       9.494 -19.452  -3.091  1.00  0.00     0.124 S 
ATOM     95  O   UNL     1      10.034 -20.455  -2.180  1.00  0.00    -0.237 OA
ATOM     96  O   UNL     1       8.042 -19.428  -3.231  1.00  0.00    -0.237 OA
ATOM     97  O   UNL     1      10.242 -19.268  -4.332  1.00  0.00    -0.744 OA
ENDBRANCH  90  94
ENDBRANCH  63  87
BRANCH  75  98
ATOM     98  C   UNL     1      10.903 -20.300   5.708  1.00  0.00     0.023 A 
ATOM     99  C   UNL     1      12.302 -20.330   5.581  1.00  0.00     0.031 A 
ATOM    100  C   UNL     1      10.238 -21.487   6.060  1.00  0.00     0.131 A 
ATOM    101  C   UNL     1      12.989 -21.540   5.755  1.00  0.00     0.055 A 
ATOM    102  C   UNL     1      10.933 -22.675   6.285  1.00  0.00     0.041 A 
ATOM    103  F   UNL     1       8.902 -21.508   6.193  1.00  0.00    -0.206 F 
ATOM    104  C   UNL     1      12.315 -22.709   6.121  1.00  0.00     0.022 A 
BRANCH 101 105
ATOM    105  S   UNL     1      14.770 -21.583   5.418  1.00  0.00     0.124 S 
ATOM    106  O   UNL     1      14.823 -21.174   4.019  1.00  0.00    -0.237 OA
ATOM    107  O   UNL     1      15.293 -20.622   6.384  1.00  0.00    -0.237 OA
ATOM    108  O   UNL     1      15.133 -22.976   5.673  1.00  0.00    -0.744 OA
ENDBRANCH 101 105
ENDBRANCH  75  98
ENDBRANCH  49  50
ENDBRANCH  41  44
ENDBRANCH  39  40
ENDBRANCH  38  39
ENDBRANCH  37  38
ENDBRANCH   3  37
TORSDOF 21
