REMARK SMILES CC(C)[C@@H]([NH3+])C(=O)N[C@@H](Cc1ccccc1)C(=O)NCCCNC(=O)c1ccc(-c2c3nc(c(-c4cc(S(=O)(=O)[O-])ccc4F)c4ccc([nH]4)c(-c4cc(S(=O)(=O)[O-])ccc4F)c4nc(c(-c5cc(S(=O)(=O)[O-])ccc5F)c5ccc2[nH]5)C=C4)C=C3)cc1
REMARK SMILES IDX 21 1 20 2 19 3 17 4 18 5 9 7 8 8 6 9 7 10 4 12 2 13 1 14
REMARK SMILES IDX 3 15 5 16 10 20 11 21 12 22 16 23 13 24 15 25 14 26 22 27
REMARK SMILES IDX 23 28 24 29 25 31 26 32 27 33 88 34 28 35 87 36 29 37 30 38
REMARK SMILES IDX 31 39 81 40 32 41 86 42 80 43 82 44 33 45 85 46 79 47 78 48
REMARK SMILES IDX 34 50 66 51 46 52 65 53 47 54 50 55 64 56 83 57 48 58 49 59
REMARK SMILES IDX 63 61 84 62 51 63 35 64 36 65 44 66 37 67 43 68 45 69 42 70
REMARK SMILES IDX 38 71 39 72 40 73 41 74 67 75 68 76 76 77 69 78 75 79 77 80
REMARK SMILES IDX 74 81 70 82 71 83 72 84 73 85 52 86 53 87 61 88 54 89 60 90
REMARK SMILES IDX 62 91 59 92 55 93 56 94 57 95 58 96
REMARK H PARENT 19 6 8 11 5 17 5 18 5 19 23 30 82 49 50 60
REMARK Flexibility Score: inf
ROOT
ATOM      1  C   UNL     1      -3.190  -0.080   7.000  1.00  0.00     0.042 C 
ENDROOT
BRANCH   1   2
ATOM      2  C   UNL     1      -1.824  -0.501   6.507  1.00  0.00     0.117 C 
BRANCH   2   3
ATOM      3  N   UNL     1      -1.845  -1.571   5.530  1.00  0.00    -0.354 N 
ATOM      4  C   UNL     1      -0.976  -1.816   4.508  1.00  0.00     0.242 C 
ATOM      5  O   UNL     1      -0.842  -2.999   4.171  1.00  0.00    -0.273 OA
ATOM      6  H   UNL     1      -2.589  -2.209   5.616  1.00  0.00     0.163 HD
BRANCH   4   7
ATOM      7  C   UNL     1      -0.087  -0.720   3.876  1.00  0.00     0.175 C 
BRANCH   7   8
ATOM      8  N   UNL     1      -0.775   0.557   3.648  1.00  0.00    -0.339 N 
ATOM      9  C   UNL     1      -1.240   1.105   2.492  1.00  0.00     0.279 C 
ATOM     10  O   UNL     1      -1.991   2.081   2.585  1.00  0.00    -0.268 OA
ATOM     11  H   UNL     1      -0.924   1.100   4.456  1.00  0.00     0.164 HD
BRANCH   9  12
ATOM     12  C   UNL     1      -0.814   0.577   1.105  1.00  0.00     0.273 C 
BRANCH  12  13
ATOM     13  C   UNL     1       0.714   0.702   0.877  1.00  0.00     0.051 C 
ATOM     14  C   UNL     1       1.140   0.197  -0.505  1.00  0.00     0.014 C 
ATOM     15  C   UNL     1       1.179   2.153   1.051  1.00  0.00     0.014 C 
ENDBRANCH  12  13
BRANCH  12  16
ATOM     16  N   UNL     1      -1.331  -0.793   0.922  1.00  0.00    -0.347 N 
ATOM     17  H   UNL     1      -0.932  -1.405   1.635  1.00  0.00     0.345 HD
ATOM     18  H   UNL     1      -1.070  -1.135  -0.003  1.00  0.00     0.345 HD
ATOM     19  H   UNL     1      -2.347  -0.788   1.009  1.00  0.00     0.345 HD
ENDBRANCH  12  16
ENDBRANCH   9  12
ENDBRANCH   7   8
BRANCH   7  20
ATOM     20  C   UNL     1       1.296  -0.570   4.549  1.00  0.00     0.070 C 
BRANCH  20  21
ATOM     21  C   UNL     1       1.328  -0.156   6.001  1.00  0.00    -0.045 A 
ATOM     22  C   UNL     1       1.181   1.190   6.371  1.00  0.00     0.004 A 
ATOM     23  C   UNL     1       1.459  -1.125   7.008  1.00  0.00     0.004 A 
ATOM     24  C   UNL     1       1.097   1.546   7.719  1.00  0.00     0.000 A 
ATOM     25  C   UNL     1       1.385  -0.764   8.355  1.00  0.00     0.000 A 
ATOM     26  C   UNL     1       1.188   0.569   8.709  1.00  0.00     0.000 A 
ENDBRANCH  20  21
ENDBRANCH   7  20
ENDBRANCH   4   7
ENDBRANCH   2   3
ENDBRANCH   1   2
BRANCH   1  27
ATOM     27  C   UNL     1      -3.856  -1.135   7.867  1.00  0.00     0.118 C 
BRANCH  27  28
ATOM     28  N   UNL     1      -3.092  -1.455   9.073  1.00  0.00    -0.352 N 
ATOM     29  C   UNL     1      -3.354  -1.196  10.398  1.00  0.00     0.251 C 
ATOM     30  H   UNL     1      -2.250  -1.937   8.909  1.00  0.00     0.163 HD
ATOM     31  O   UNL     1      -2.479  -1.389  11.239  1.00  0.00    -0.269 OA
BRANCH  29  32
ATOM     32  C   UNL     1      -4.669  -0.653  10.797  1.00  0.00     0.039 A 
ATOM     33  C   UNL     1      -4.737   0.356  11.760  1.00  0.00     0.014 A 
ATOM     34  C   UNL     1      -5.835  -1.118  10.190  1.00  0.00     0.014 A 
ATOM     35  C   UNL     1      -5.963   0.969  12.030  1.00  0.00     0.010 A 
ATOM     36  C   UNL     1      -7.022  -0.422  10.360  1.00  0.00     0.010 A 
ATOM     37  C   UNL     1      -7.104   0.625  11.288  1.00  0.00    -0.014 A 
BRANCH  37  38
ATOM     38  C   UNL     1      -8.404   1.325  11.463  1.00  0.00     0.031 A 
ATOM     39  C   UNL     1      -9.632   0.531  11.827  1.00  0.00     0.074 A 
ATOM     40  C   UNL     1      -8.501   2.640  11.184  1.00  0.00     0.049 A 
ATOM     41  N   UNL     1     -10.883   0.908  11.869  1.00  0.00    -0.248 NA
ATOM     42  C   UNL     1      -9.427  -0.895  12.126  1.00  0.00     0.031 C 
ATOM     43  C   UNL     1      -7.397   3.501  10.750  1.00  0.00     0.029 A 
ATOM     44  N   UNL     1      -9.584   3.483  11.205  1.00  0.00    -0.354 N 
ATOM     45  C   UNL     1     -11.614  -0.240  12.154  1.00  0.00     0.074 A 
ATOM     46  C   UNL     1     -10.672  -1.337  12.201  1.00  0.00     0.031 C 
ATOM     47  C   UNL     1      -7.854   4.750  10.573  1.00  0.00     0.029 A 
ATOM     48  C   UNL     1      -9.289   4.774  10.831  1.00  0.00     0.049 A 
ATOM     49  H   UNL     1     -10.488   3.191  11.464  1.00  0.00     0.167 HD
ATOM     50  C   UNL     1     -12.945  -0.365  12.385  1.00  0.00     0.034 A 
ATOM     51  C   UNL     1     -10.088   5.850  10.698  1.00  0.00     0.034 A 
ATOM     52  C   UNL     1     -13.857   0.752  12.381  1.00  0.00     0.049 A 
ATOM     53  C   UNL     1     -11.557   5.701  11.001  1.00  0.00     0.074 A 
ATOM     54  C   UNL     1     -15.206   0.766  12.691  1.00  0.00     0.029 A 
ATOM     55  N   UNL     1     -13.511   2.057  12.052  1.00  0.00    -0.354 N 
ATOM     56  N   UNL     1     -12.225   4.621  11.335  1.00  0.00    -0.248 NA
ATOM     57  C   UNL     1     -12.376   6.917  10.923  1.00  0.00     0.031 C 
ATOM     58  C   UNL     1     -15.687   2.065  12.494  1.00  0.00     0.029 A 
ATOM     59  C   UNL     1     -14.625   2.878  12.129  1.00  0.00     0.049 A 
ATOM     60  H   UNL     1     -12.607   2.355  11.802  1.00  0.00     0.167 HD
ATOM     61  C   UNL     1     -13.539   5.034  11.532  1.00  0.00     0.074 A 
ATOM     62  C   UNL     1     -13.564   6.463  11.295  1.00  0.00     0.031 C 
ATOM     63  C   UNL     1     -14.628   4.301  11.879  1.00  0.00     0.034 A 
BRANCH  50  64
ATOM     64  C   UNL     1     -13.479  -1.755  12.642  1.00  0.00     0.023 A 
ATOM     65  C   UNL     1     -13.040  -2.527  13.733  1.00  0.00     0.031 A 
ATOM     66  C   UNL     1     -14.403  -2.339  11.757  1.00  0.00     0.131 A 
ATOM     67  C   UNL     1     -13.444  -3.865  13.855  1.00  0.00     0.055 A 
ATOM     68  C   UNL     1     -14.874  -3.641  11.938  1.00  0.00     0.041 A 
ATOM     69  F   UNL     1     -14.848  -1.661  10.687  1.00  0.00    -0.206 F 
ATOM     70  C   UNL     1     -14.379  -4.420  12.980  1.00  0.00     0.022 A 
BRANCH  67  71
ATOM     71  S   UNL     1     -12.602  -4.913  15.072  1.00  0.00     0.124 S 
ATOM     72  O   UNL     1     -11.213  -4.823  14.626  1.00  0.00    -0.237 OA
ATOM     73  O   UNL     1     -12.912  -4.246  16.331  1.00  0.00    -0.237 OA
ATOM     74  O   UNL     1     -13.225  -6.222  14.887  1.00  0.00    -0.744 OA
ENDBRANCH  67  71
ENDBRANCH  50  64
BRANCH  51  75
ATOM     75  C   UNL     1      -9.525   7.159  10.260  1.00  0.00     0.023 A 
ATOM     76  C   UNL     1      -9.495   8.261  11.129  1.00  0.00     0.031 A 
ATOM     77  C   UNL     1      -9.029   7.334   8.956  1.00  0.00     0.131 A 
ATOM     78  C   UNL     1      -9.021   9.500  10.673  1.00  0.00     0.055 A 
ATOM     79  C   UNL     1      -8.514   8.557   8.521  1.00  0.00     0.041 A 
ATOM     80  F   UNL     1      -9.024   6.309   8.088  1.00  0.00    -0.206 F 
ATOM     81  C   UNL     1      -8.519   9.653   9.379  1.00  0.00     0.022 A 
BRANCH  78  82
ATOM     82  S   UNL     1      -9.134  10.934  11.778  1.00  0.00     0.124 S 
ATOM     83  O   UNL     1     -10.566  10.988  12.050  1.00  0.00    -0.237 OA
ATOM     84  O   UNL     1      -8.284  10.526  12.892  1.00  0.00    -0.237 OA
ATOM     85  O   UNL     1      -8.610  12.031  10.967  1.00  0.00    -0.744 OA
ENDBRANCH  78  82
ENDBRANCH  51  75
BRANCH  63  86
ATOM     86  C   UNL     1     -15.923   5.050  12.064  1.00  0.00     0.023 A 
ATOM     87  C   UNL     1     -16.594   5.644  10.982  1.00  0.00     0.031 A 
ATOM     88  C   UNL     1     -16.488   5.176  13.346  1.00  0.00     0.131 A 
ATOM     89  C   UNL     1     -17.764   6.383  11.208  1.00  0.00     0.055 A 
ATOM     90  C   UNL     1     -17.683   5.863  13.556  1.00  0.00     0.041 A 
ATOM     91  F   UNL     1     -15.886   4.628  14.414  1.00  0.00    -0.206 F 
ATOM     92  C   UNL     1     -18.322   6.482  12.486  1.00  0.00     0.022 A 
BRANCH  89  93
ATOM     93  S   UNL     1     -18.504   7.288   9.821  1.00  0.00     0.124 S 
ATOM     94  O   UNL     1     -17.413   8.169   9.418  1.00  0.00    -0.237 OA
ATOM     95  O   UNL     1     -18.835   6.215   8.889  1.00  0.00    -0.237 OA
ATOM     96  O   UNL     1     -19.654   7.960  10.425  1.00  0.00    -0.744 OA
ENDBRANCH  89  93
ENDBRANCH  63  86
ENDBRANCH  37  38
ENDBRANCH  29  32
ENDBRANCH  27  28
ENDBRANCH   1  27
TORSDOF 19
