REMARK SMILES CC(C)(C)[NH2+]Cc1cc(C(=O)NCCCNC(=O)c2ccc(-c3c4nc(c(-c5cc(S(=O)(=O)[O-])ccc5F)c5ccc([nH]5)c(-c5cc(S(=O)(=O)[O-])ccc5F)c5nc(c(-c6cc(S(=O)(=O)[O-])ccc6F)c6ccc3[nH]6)C=C5)C=C4)cc2)cs1
REMARK SMILES IDX 14 1 13 2 12 3 10 4 11 5 9 7 7 8 8 9 83 10 82 11 6 12 5 13
REMARK SMILES IDX 2 16 1 17 3 18 4 19 15 20 16 21 17 22 18 24 19 25 20 26
REMARK SMILES IDX 81 27 21 28 80 29 22 30 23 31 24 32 74 33 25 34 79 35 73 36
REMARK SMILES IDX 75 37 26 38 78 39 72 40 71 41 27 43 59 44 39 45 58 46 40 47
REMARK SMILES IDX 43 48 57 49 76 50 41 51 42 52 56 54 77 55 44 56 28 57 29 58
REMARK SMILES IDX 37 59 30 60 36 61 38 62 35 63 31 64 32 65 33 66 34 67 60 68
REMARK SMILES IDX 61 69 69 70 62 71 68 72 70 73 67 74 63 75 64 76 65 77 66 78
REMARK SMILES IDX 45 79 46 80 54 81 47 82 53 83 55 84 52 85 48 86 49 87 50 88
REMARK SMILES IDX 51 89
REMARK H PARENT 12 6 5 14 5 15 16 23 75 42 43 53
REMARK Flexibility Score: inf
ROOT
ATOM      1  C   UNL     1       7.713  -0.628  -3.191  1.00  0.00     0.042 C 
ENDROOT
BRANCH   1   2
ATOM      2  C   UNL     1       6.943  -1.507  -4.170  1.00  0.00     0.118 C 
BRANCH   2   3
ATOM      3  N   UNL     1       6.854  -2.878  -3.695  1.00  0.00    -0.352 N 
ATOM      4  C   UNL     1       5.746  -3.612  -3.347  1.00  0.00     0.252 C 
ATOM      5  O   UNL     1       5.866  -4.812  -3.134  1.00  0.00    -0.269 OA
ATOM      6  H   UNL     1       7.713  -3.350  -3.610  1.00  0.00     0.163 HD
BRANCH   4   7
ATOM      7  C   UNL     1       4.451  -2.945  -3.331  1.00  0.00     0.051 A 
ATOM      8  C   UNL     1       2.815  -1.289  -3.002  1.00  0.00     0.059 A 
ATOM      9  C   UNL     1       4.100  -1.703  -2.705  1.00  0.00     0.035 A 
ATOM     10  S   UNL     1       2.017  -2.437  -3.997  1.00  0.00    -0.142 S 
ATOM     11  C   UNL     1       3.348  -3.502  -3.949  1.00  0.00     0.079 A 
BRANCH   8  12
ATOM     12  C   UNL     1       2.169   0.013  -2.615  1.00  0.00     0.308 C 
BRANCH  12  13
ATOM     13  N   UNL     1       0.732  -0.058  -2.364  1.00  0.00    -0.338 N 
ATOM     14  H   UNL     1       0.354   0.877  -2.515  1.00  0.00     0.347 HD
ATOM     15  H   UNL     1       0.406  -0.786  -3.000  1.00  0.00     0.347 HD
BRANCH  13  16
ATOM     16  C   UNL     1       0.266  -0.505  -1.042  1.00  0.00     0.088 C 
ATOM     17  C   UNL     1       0.844   0.343   0.103  1.00  0.00     0.078 C 
ATOM     18  C   UNL     1       0.541  -1.991  -0.768  1.00  0.00     0.078 C 
ATOM     19  C   UNL     1      -1.263  -0.301  -1.069  1.00  0.00     0.078 C 
ENDBRANCH  13  16
ENDBRANCH  12  13
ENDBRANCH   8  12
ENDBRANCH   4   7
ENDBRANCH   2   3
ENDBRANCH   1   2
BRANCH   1  20
ATOM     20  C   UNL     1       9.215  -0.894  -3.205  1.00  0.00     0.118 C 
BRANCH  20  21
ATOM     21  N   UNL     1       9.825  -0.489  -4.464  1.00  0.00    -0.352 N 
ATOM     22  C   UNL     1      10.909   0.321  -4.691  1.00  0.00     0.251 C 
ATOM     23  H   UNL     1       9.396  -0.851  -5.273  1.00  0.00     0.163 HD
ATOM     24  O   UNL     1      11.127   0.721  -5.831  1.00  0.00    -0.269 OA
BRANCH  22  25
ATOM     25  C   UNL     1      11.793   0.721  -3.575  1.00  0.00     0.039 A 
ATOM     26  C   UNL     1      12.284   2.029  -3.541  1.00  0.00     0.014 A 
ATOM     27  C   UNL     1      12.169  -0.194  -2.587  1.00  0.00     0.014 A 
ATOM     28  C   UNL     1      13.117   2.430  -2.494  1.00  0.00     0.010 A 
ATOM     29  C   UNL     1      12.938   0.228  -1.506  1.00  0.00     0.010 A 
ATOM     30  C   UNL     1      13.431   1.540  -1.455  1.00  0.00    -0.014 A 
BRANCH  30  31
ATOM     31  C   UNL     1      14.299   1.956  -0.324  1.00  0.00     0.031 A 
ATOM     32  C   UNL     1      15.639   1.300  -0.127  1.00  0.00     0.074 A 
ATOM     33  C   UNL     1      13.860   2.885   0.548  1.00  0.00     0.049 A 
ATOM     34  N   UNL     1      16.511   1.467   0.835  1.00  0.00    -0.248 NA
ATOM     35  C   UNL     1      16.035   0.300  -1.130  1.00  0.00     0.031 C 
ATOM     36  C   UNL     1      12.564   3.565   0.476  1.00  0.00     0.029 A 
ATOM     37  N   UNL     1      14.450   3.414   1.667  1.00  0.00    -0.354 N 
ATOM     38  C   UNL     1      17.553   0.588   0.559  1.00  0.00     0.074 A 
ATOM     39  C   UNL     1      17.169  -0.157  -0.622  1.00  0.00     0.031 C 
ATOM     40  C   UNL     1      12.471   4.440   1.490  1.00  0.00     0.029 A 
ATOM     41  C   UNL     1      13.676   4.354   2.308  1.00  0.00     0.049 A 
ATOM     42  H   UNL     1      15.344   3.148   1.981  1.00  0.00     0.167 HD
ATOM     43  C   UNL     1      18.731   0.434   1.214  1.00  0.00     0.034 A 
ATOM     44  C   UNL     1      13.910   5.059   3.433  1.00  0.00     0.034 A 
ATOM     45  C   UNL     1      19.099   1.194   2.384  1.00  0.00     0.049 A 
ATOM     46  C   UNL     1      15.218   4.857   4.156  1.00  0.00     0.074 A 
ATOM     47  C   UNL     1      20.277   1.147   3.110  1.00  0.00     0.029 A 
ATOM     48  N   UNL     1      18.292   2.142   3.002  1.00  0.00    -0.354 N 
ATOM     49  N   UNL     1      16.208   4.045   3.862  1.00  0.00    -0.248 NA
ATOM     50  C   UNL     1      15.444   5.676   5.352  1.00  0.00     0.031 C 
ATOM     51  C   UNL     1      20.159   2.020   4.197  1.00  0.00     0.029 A 
ATOM     52  C   UNL     1      18.938   2.669   4.110  1.00  0.00     0.049 A 
ATOM     53  H   UNL     1      17.393   2.402   2.697  1.00  0.00     0.167 HD
ATOM     54  C   UNL     1      17.190   4.285   4.820  1.00  0.00     0.074 A 
ATOM     55  C   UNL     1      16.677   5.326   5.687  1.00  0.00     0.031 C 
ATOM     56  C   UNL     1      18.408   3.703   4.968  1.00  0.00     0.034 A 
BRANCH  43  57
ATOM     57  C   UNL     1      19.686  -0.610   0.685  1.00  0.00     0.023 A 
ATOM     58  C   UNL     1      20.238  -0.517  -0.605  1.00  0.00     0.031 A 
ATOM     59  C   UNL     1      20.024  -1.732   1.464  1.00  0.00     0.131 A 
ATOM     60  C   UNL     1      21.027  -1.563  -1.108  1.00  0.00     0.055 A 
ATOM     61  C   UNL     1      20.880  -2.728   0.988  1.00  0.00     0.041 A 
ATOM     62  F   UNL     1      19.513  -1.888   2.695  1.00  0.00    -0.206 F 
ATOM     63  C   UNL     1      21.374  -2.655  -0.311  1.00  0.00     0.022 A 
BRANCH  60  64
ATOM     64  S   UNL     1      21.468  -1.544  -2.867  1.00  0.00     0.124 S 
ATOM     65  O   UNL     1      20.151  -1.547  -3.500  1.00  0.00    -0.237 OA
ATOM     66  O   UNL     1      22.232  -0.308  -2.989  1.00  0.00    -0.237 OA
ATOM     67  O   UNL     1      22.238  -2.774  -3.041  1.00  0.00    -0.744 OA
ENDBRANCH  60  64
ENDBRANCH  43  57
BRANCH  44  68
ATOM     68  C   UNL     1      12.895   6.021   3.949  1.00  0.00     0.023 A 
ATOM     69  C   UNL     1      13.171   7.396   4.008  1.00  0.00     0.031 A 
ATOM     70  C   UNL     1      11.653   5.577   4.435  1.00  0.00     0.131 A 
ATOM     71  C   UNL     1      12.242   8.273   4.589  1.00  0.00     0.055 A 
ATOM     72  C   UNL     1      10.709   6.459   4.962  1.00  0.00     0.041 A 
ATOM     73  F   UNL     1      11.335   4.273   4.395  1.00  0.00    -0.206 F 
ATOM     74  C   UNL     1      11.007   7.815   5.055  1.00  0.00     0.022 A 
BRANCH  71  75
ATOM     75  S   UNL     1      12.710  10.011   4.809  1.00  0.00     0.124 S 
ATOM     76  O   UNL     1      13.924   9.893   5.607  1.00  0.00    -0.237 OA
ATOM     77  O   UNL     1      12.888  10.452   3.430  1.00  0.00    -0.237 OA
ATOM     78  O   UNL     1      11.559  10.587   5.502  1.00  0.00    -0.744 OA
ENDBRANCH  71  75
ENDBRANCH  44  68
BRANCH  56  79
ATOM     79  C   UNL     1      19.282   4.225   6.082  1.00  0.00     0.023 A 
ATOM     80  C   UNL     1      18.942   4.050   7.434  1.00  0.00     0.031 A 
ATOM     81  C   UNL     1      20.461   4.929   5.781  1.00  0.00     0.131 A 
ATOM     82  C   UNL     1      19.739   4.627   8.435  1.00  0.00     0.055 A 
ATOM     83  C   UNL     1      21.283   5.447   6.782  1.00  0.00     0.041 A 
ATOM     84  F   UNL     1      20.833   5.127   4.506  1.00  0.00    -0.206 F 
ATOM     85  C   UNL     1      20.916   5.310   8.118  1.00  0.00     0.022 A 
BRANCH  82  86
ATOM     86  S   UNL     1      19.163   4.558  10.153  1.00  0.00     0.124 S 
ATOM     87  O   UNL     1      17.861   5.211  10.064  1.00  0.00    -0.237 OA
ATOM     88  O   UNL     1      19.139   3.123  10.417  1.00  0.00    -0.237 OA
ATOM     89  O   UNL     1      20.183   5.306  10.887  1.00  0.00    -0.744 OA
ENDBRANCH  82  86
ENDBRANCH  56  79
ENDBRANCH  30  31
ENDBRANCH  22  25
ENDBRANCH  20  21
ENDBRANCH   1  20
TORSDOF 16
