REMARK SMILES Cc1cccc(-c2cc(OCC(=O)NCCCNC(=O)c3ccc(-c4c5nc(c(-c6cc(S(=O)(=O)[O-])ccc6F)c6ccc([nH]6)c(-c6cc(S(=O)(=O)[O-])ccc6F)c6nc(c(-c7cc(S(=O)(=O)[O-])ccc7F)c7ccc4[nH]7)C=C6)C=C5)cc3)nc(Nc3ccccc3C)n2)c1
REMARK SMILES IDX 15 1 14 2 12 3 13 4 11 6 10 7 9 8 7 9 8 10 94 11 85 12 84 13
REMARK SMILES IDX 6 14 1 15 2 16 3 17 95 18 4 19 5 20 86 21 87 23 88 24 92 25
REMARK SMILES IDX 89 26 91 27 93 28 90 29 16 30 17 31 18 32 19 33 20 35 21 36
REMARK SMILES IDX 22 37 83 38 23 39 82 40 24 41 25 42 26 43 76 44 27 45 81 46
REMARK SMILES IDX 75 47 77 48 28 49 80 50 74 51 73 52 29 54 61 55 41 56 60 57
REMARK SMILES IDX 42 58 45 59 59 60 78 61 43 62 44 63 58 65 79 66 46 67 30 68
REMARK SMILES IDX 31 69 39 70 32 71 38 72 40 73 37 74 33 75 34 76 35 77 36 78
REMARK SMILES IDX 62 79 63 80 71 81 64 82 70 83 72 84 69 85 65 86 66 87 67 88
REMARK SMILES IDX 68 89 47 90 48 91 56 92 49 93 55 94 57 95 54 96 50 97 51 98
REMARK SMILES IDX 52 99 53 100
REMARK H PARENT 14 5 86 22 18 34 77 53 45 64
REMARK Flexibility Score: inf
ROOT
ATOM      1  C   UNL     1       0.061   7.811  -2.276  1.00  0.00     0.117 C 
ENDROOT
BRANCH   1   2
ATOM      2  N   UNL     1       0.686   6.503  -2.402  1.00  0.00    -0.353 N 
ATOM      3  C   UNL     1       0.122   5.322  -2.788  1.00  0.00     0.258 C 
ATOM      4  O   UNL     1       0.820   4.309  -2.866  1.00  0.00    -0.271 OA
ATOM      5  H   UNL     1       1.644   6.466  -2.179  1.00  0.00     0.163 HD
BRANCH   3   6
ATOM      6  C   UNL     1      -1.376   5.263  -3.129  1.00  0.00     0.331 C 
BRANCH   6   7
ATOM      7  O   UNL     1      -2.295   5.391  -2.057  1.00  0.00    -0.467 OA
BRANCH   7   8
ATOM      8  C   UNL     1      -2.358   4.385  -1.131  1.00  0.00     0.219 A 
ATOM      9  C   UNL     1      -1.837   2.330  -0.154  1.00  0.00     0.080 A 
ATOM     10  C   UNL     1      -1.674   3.198  -1.209  1.00  0.00     0.097 A 
ATOM     11  N   UNL     1      -2.651   2.602   0.875  1.00  0.00    -0.212 NA
ATOM     12  C   UNL     1      -3.279   3.783   0.886  1.00  0.00     0.231 A 
ATOM     13  N   UNL     1      -3.177   4.681  -0.103  1.00  0.00    -0.177 NA
BRANCH   9  14
ATOM     14  C   UNL     1      -1.100   1.067  -0.067  1.00  0.00     0.001 A 
ATOM     15  C   UNL     1       2.529  -0.128  -0.026  1.00  0.00     0.044 C 
ATOM     16  C   UNL     1       1.028  -0.139  -0.009  1.00  0.00    -0.050 A 
ATOM     17  C   UNL     1       0.332  -1.347   0.102  1.00  0.00     0.003 A 
ATOM     18  C   UNL     1       0.306   1.057  -0.106  1.00  0.00     0.013 A 
ATOM     19  C   UNL     1      -1.062  -1.356   0.146  1.00  0.00     0.001 A 
ATOM     20  C   UNL     1      -1.772  -0.156   0.075  1.00  0.00     0.010 A 
ENDBRANCH   9  14
BRANCH  12  21
ATOM     21  N   UNL     1      -4.120   4.101   1.952  1.00  0.00    -0.324 N 
ATOM     22  H   UNL     1      -4.568   4.977   1.912  1.00  0.00     0.170 HD
BRANCH  21  23
ATOM     23  C   UNL     1      -4.398   3.308   3.075  1.00  0.00     0.044 A 
ATOM     24  C   UNL     1      -5.689   2.775   3.216  1.00  0.00     0.026 A 
ATOM     25  C   UNL     1      -3.405   2.945   4.010  1.00  0.00    -0.027 A 
ATOM     26  C   UNL     1      -5.984   1.862   4.231  1.00  0.00     0.002 A 
ATOM     27  C   UNL     1      -3.712   2.017   5.019  1.00  0.00     0.005 A 
ATOM     28  C   UNL     1      -2.022   3.541   3.972  1.00  0.00     0.046 C 
ATOM     29  C   UNL     1      -4.991   1.473   5.124  1.00  0.00     0.000 A 
ENDBRANCH  21  23
ENDBRANCH  12  21
ENDBRANCH   7   8
ENDBRANCH   6   7
ENDBRANCH   3   6
ENDBRANCH   1   2
BRANCH   1  30
ATOM     30  C   UNL     1      -0.571   8.025  -0.907  1.00  0.00     0.042 C 
BRANCH  30  31
ATOM     31  C   UNL     1       0.445   8.359   0.177  1.00  0.00     0.118 C 
BRANCH  31  32
ATOM     32  N   UNL     1       0.617   9.788   0.408  1.00  0.00    -0.352 N 
ATOM     33  C   UNL     1       1.387  10.445   1.352  1.00  0.00     0.251 C 
ATOM     34  H   UNL     1       0.108  10.373  -0.198  1.00  0.00     0.163 HD
ATOM     35  O   UNL     1       1.308  11.657   1.481  1.00  0.00    -0.269 OA
BRANCH  33  36
ATOM     36  C   UNL     1       2.395   9.686   2.134  1.00  0.00     0.039 A 
ATOM     37  C   UNL     1       3.687  10.224   2.226  1.00  0.00     0.014 A 
ATOM     38  C   UNL     1       2.139   8.405   2.612  1.00  0.00     0.014 A 
ATOM     39  C   UNL     1       4.752   9.402   2.588  1.00  0.00     0.010 A 
ATOM     40  C   UNL     1       3.200   7.563   2.873  1.00  0.00     0.010 A 
ATOM     41  C   UNL     1       4.509   8.048   2.810  1.00  0.00    -0.014 A 
BRANCH  41  42
ATOM     42  C   UNL     1       5.553   7.035   2.842  1.00  0.00     0.031 A 
ATOM     43  C   UNL     1       5.933   6.367   4.100  1.00  0.00     0.074 A 
ATOM     44  C   UNL     1       6.088   6.616   1.676  1.00  0.00     0.049 A 
ATOM     45  N   UNL     1       7.078   5.808   4.306  1.00  0.00    -0.248 NA
ATOM     46  C   UNL     1       5.043   6.299   5.253  1.00  0.00     0.031 C 
ATOM     47  C   UNL     1       6.897   5.425   1.441  1.00  0.00     0.029 A 
ATOM     48  N   UNL     1       6.182   7.338   0.491  1.00  0.00    -0.354 N 
ATOM     49  C   UNL     1       6.966   5.053   5.449  1.00  0.00     0.074 A 
ATOM     50  C   UNL     1       5.710   5.452   6.043  1.00  0.00     0.031 C 
ATOM     51  C   UNL     1       7.603   5.596   0.312  1.00  0.00     0.029 A 
ATOM     52  C   UNL     1       7.383   6.963  -0.130  1.00  0.00     0.049 A 
ATOM     53  H   UNL     1       5.529   7.992   0.152  1.00  0.00     0.167 HD
ATOM     54  C   UNL     1       7.862   4.054   5.691  1.00  0.00     0.034 A 
ATOM     55  C   UNL     1       8.367   7.883  -0.349  1.00  0.00     0.034 A 
ATOM     56  C   UNL     1       8.881   3.972   4.647  1.00  0.00     0.049 A 
ATOM     57  C   UNL     1       9.660   7.556   0.366  1.00  0.00     0.074 A 
ATOM     58  C   UNL     1       9.043   3.129   3.558  1.00  0.00     0.029 A 
ATOM     59  N   UNL     1       9.769   5.027   4.459  1.00  0.00    -0.354 N 
ATOM     60  N   UNL     1       9.756   6.734   1.375  1.00  0.00    -0.248 NA
ATOM     61  C   UNL     1      10.946   8.130  -0.009  1.00  0.00     0.031 C 
ATOM     62  C   UNL     1      10.001   3.711   2.689  1.00  0.00     0.029 A 
ATOM     63  C   UNL     1      10.443   4.892   3.260  1.00  0.00     0.049 A 
ATOM     64  H   UNL     1       9.899   5.768   5.094  1.00  0.00     0.167 HD
ATOM     65  C   UNL     1      11.065   6.657   1.788  1.00  0.00     0.074 A 
ATOM     66  C   UNL     1      11.770   7.538   0.873  1.00  0.00     0.031 C 
ATOM     67  C   UNL     1      11.443   5.870   2.844  1.00  0.00     0.034 A 
BRANCH  54  68
ATOM     68  C   UNL     1       7.600   2.955   6.695  1.00  0.00     0.023 A 
ATOM     69  C   UNL     1       8.024   1.640   6.416  1.00  0.00     0.031 A 
ATOM     70  C   UNL     1       6.905   3.124   7.907  1.00  0.00     0.131 A 
ATOM     71  C   UNL     1       7.662   0.561   7.242  1.00  0.00     0.055 A 
ATOM     72  C   UNL     1       6.489   2.045   8.699  1.00  0.00     0.041 A 
ATOM     73  F   UNL     1       6.632   4.346   8.390  1.00  0.00    -0.206 F 
ATOM     74  C   UNL     1       6.854   0.750   8.359  1.00  0.00     0.022 A 
BRANCH  71  75
ATOM     75  S   UNL     1       8.274  -1.099   6.839  1.00  0.00     0.124 S 
ATOM     76  O   UNL     1       7.744  -1.309   5.496  1.00  0.00    -0.237 OA
ATOM     77  O   UNL     1       9.719  -0.928   6.943  1.00  0.00    -0.237 OA
ATOM     78  O   UNL     1       7.678  -1.942   7.876  1.00  0.00    -0.744 OA
ENDBRANCH  71  75
ENDBRANCH  54  68
BRANCH  55  79
ATOM     79  C   UNL     1       7.834   9.252  -0.616  1.00  0.00     0.023 A 
ATOM     80  C   UNL     1       6.928   9.385  -1.693  1.00  0.00     0.031 A 
ATOM     81  C   UNL     1       7.851  10.264   0.352  1.00  0.00     0.131 A 
ATOM     82  C   UNL     1       5.956  10.395  -1.681  1.00  0.00     0.055 A 
ATOM     83  C   UNL     1       6.930  11.320   0.314  1.00  0.00     0.041 A 
ATOM     84  F   UNL     1       8.665  10.181   1.415  1.00  0.00    -0.206 F 
ATOM     85  C   UNL     1       5.947  11.365  -0.678  1.00  0.00     0.022 A 
BRANCH  82  86
ATOM     86  S   UNL     1       4.548  10.240  -2.824  1.00  0.00     0.124 S 
ATOM     87  O   UNL     1       5.111  10.742  -4.072  1.00  0.00    -0.237 OA
ATOM     88  O   UNL     1       4.260   8.806  -2.785  1.00  0.00    -0.237 OA
ATOM     89  O   UNL     1       3.512  11.073  -2.221  1.00  0.00    -0.744 OA
ENDBRANCH  82  86
ENDBRANCH  55  79
BRANCH  67  90
ATOM     90  C   UNL     1      12.804   5.853   3.521  1.00  0.00     0.023 A 
ATOM     91  C   UNL     1      13.809   6.799   3.277  1.00  0.00     0.031 A 
ATOM     92  C   UNL     1      13.118   4.886   4.512  1.00  0.00     0.131 A 
ATOM     93  C   UNL     1      15.064   6.721   3.911  1.00  0.00     0.055 A 
ATOM     94  C   UNL     1      14.338   4.854   5.197  1.00  0.00     0.041 A 
ATOM     95  F   UNL     1      12.250   3.930   4.874  1.00  0.00    -0.206 F 
ATOM     96  C   UNL     1      15.330   5.766   4.886  1.00  0.00     0.022 A 
BRANCH  93  97
ATOM     97  S   UNL     1      16.363   7.869   3.381  1.00  0.00     0.124 S 
ATOM     98  O   UNL     1      16.539   7.497   1.980  1.00  0.00    -0.237 OA
ATOM     99  O   UNL     1      15.747   9.170   3.618  1.00  0.00    -0.237 OA
ATOM    100  O   UNL     1      17.489   7.545   4.255  1.00  0.00    -0.744 OA
ENDBRANCH  93  97
ENDBRANCH  67  90
ENDBRANCH  41  42
ENDBRANCH  33  36
ENDBRANCH  31  32
ENDBRANCH  30  31
ENDBRANCH   1  30
TORSDOF 18
