REMARK SMILES O=C(NCCCNC(=O)c1cc(-n2cccc2)ccc1O)c1ccc(-c2c3nc(c(-c4cc(S(=O)(=O)[O-])ccc4F)c4ccc([nH]4)c(-c4cc(S(=O)(=O)[O-])ccc4F)c4nc(c(-c5cc(S(=O)(=O)[O-])ccc5F)c5ccc2[nH]5)C=C4)C=C3)cc1
REMARK SMILES IDX 4 1 3 2 1 3 2 4 22 6 23 7 84 8 24 9 83 10 25 11 26 12 27 13
REMARK SMILES IDX 77 14 28 15 82 16 76 17 78 18 29 19 81 20 75 21 74 22 30 24
REMARK SMILES IDX 62 25 42 26 61 27 43 28 46 29 60 30 79 31 44 32 45 33 59 35
REMARK SMILES IDX 80 36 47 37 31 38 32 39 40 40 33 41 39 42 41 43 38 44 34 45
REMARK SMILES IDX 35 46 36 47 37 48 63 49 64 50 72 51 65 52 71 53 73 54 70 55
REMARK SMILES IDX 66 56 67 57 68 58 69 59 48 60 49 61 57 62 50 63 56 64 58 65
REMARK SMILES IDX 55 66 51 67 52 68 53 69 54 70 5 71 6 72 7 73 8 74 9 76 10 77
REMARK SMILES IDX 11 78 20 79 12 80 19 81 18 82 21 83 13 85 14 86 17 87 15 88
REMARK SMILES IDX 16 89
REMARK H PARENT 3 5 78 23 46 34 7 75 21 84
REMARK Flexibility Score: inf
ROOT
ATOM      1  C   UNL     1       4.692  -1.110   0.374  1.00  0.00     0.118 C 
ENDROOT
BRANCH   1   2
ATOM      2  N   UNL     1       3.285  -1.012   0.017  1.00  0.00    -0.352 N 
ATOM      3  O   UNL     1       1.242  -0.192  -0.358  1.00  0.00    -0.269 OA
ATOM      4  C   UNL     1       2.366   0.003   0.101  1.00  0.00     0.251 C 
ATOM      5  H   UNL     1       2.918  -1.843  -0.362  1.00  0.00     0.163 HD
BRANCH   4   6
ATOM      6  C   UNL     1       2.658   1.288   0.780  1.00  0.00     0.039 A 
ATOM      7  C   UNL     1       3.895   1.927   0.694  1.00  0.00     0.014 A 
ATOM      8  C   UNL     1       1.617   1.893   1.505  1.00  0.00     0.014 A 
ATOM      9  C   UNL     1       4.125   3.103   1.399  1.00  0.00     0.010 A 
ATOM     10  C   UNL     1       1.831   3.096   2.183  1.00  0.00     0.010 A 
ATOM     11  C   UNL     1       3.091   3.701   2.130  1.00  0.00    -0.014 A 
BRANCH  11  12
ATOM     12  C   UNL     1       3.327   5.087   2.607  1.00  0.00     0.031 A 
ATOM     13  C   UNL     1       3.248   6.099   1.447  1.00  0.00     0.074 A 
ATOM     14  C   UNL     1       3.672   5.271   3.917  1.00  0.00     0.049 A 
ATOM     15  N   UNL     1       3.936   7.179   1.228  1.00  0.00    -0.248 NA
ATOM     16  C   UNL     1       2.362   5.787   0.290  1.00  0.00     0.031 C 
ATOM     17  C   UNL     1       3.719   4.202   4.939  1.00  0.00     0.029 A 
ATOM     18  N   UNL     1       4.062   6.372   4.655  1.00  0.00    -0.354 N 
ATOM     19  C   UNL     1       3.410   7.785   0.061  1.00  0.00     0.074 A 
ATOM     20  C   UNL     1       2.568   6.802  -0.550  1.00  0.00     0.031 C 
ATOM     21  C   UNL     1       4.167   4.683   6.122  1.00  0.00     0.029 A 
ATOM     22  C   UNL     1       4.444   6.103   5.999  1.00  0.00     0.049 A 
ATOM     23  H   UNL     1       4.075   7.281   4.277  1.00  0.00     0.167 HD
ATOM     24  C   UNL     1       3.574   9.107  -0.247  1.00  0.00     0.034 A 
ATOM     25  C   UNL     1       4.975   6.948   6.939  1.00  0.00     0.034 A 
ATOM     26  C   UNL     1       4.351   9.747   0.761  1.00  0.00     0.049 A 
ATOM     27  C   UNL     1       4.977   8.278   6.311  1.00  0.00     0.074 A 
ATOM     28  C   UNL     1       5.676   9.740   1.096  1.00  0.00     0.029 A 
ATOM     29  N   UNL     1       3.651  10.409   1.742  1.00  0.00    -0.354 N 
ATOM     30  N   UNL     1       3.928   9.023   6.145  1.00  0.00    -0.248 NA
ATOM     31  C   UNL     1       6.248   8.819   5.809  1.00  0.00     0.031 C 
ATOM     32  C   UNL     1       5.682  10.039   2.475  1.00  0.00     0.029 A 
ATOM     33  C   UNL     1       4.370  10.286   2.901  1.00  0.00     0.049 A 
ATOM     34  H   UNL     1       2.795  10.883   1.632  1.00  0.00     0.167 HD
ATOM     35  C   UNL     1       4.370   9.974   5.259  1.00  0.00     0.074 A 
ATOM     36  C   UNL     1       5.811   9.994   5.363  1.00  0.00     0.031 C 
ATOM     37  C   UNL     1       3.634  10.242   4.152  1.00  0.00     0.034 A 
BRANCH  24  38
ATOM     38  C   UNL     1       2.912  10.029  -1.250  1.00  0.00     0.023 A 
ATOM     39  C   UNL     1       3.486  11.323  -1.385  1.00  0.00     0.031 A 
ATOM     40  C   UNL     1       1.647   9.860  -1.825  1.00  0.00     0.131 A 
ATOM     41  C   UNL     1       2.771  12.400  -1.925  1.00  0.00     0.055 A 
ATOM     42  C   UNL     1       0.961  10.924  -2.436  1.00  0.00     0.041 A 
ATOM     43  F   UNL     1       0.985   8.699  -1.749  1.00  0.00    -0.206 F 
ATOM     44  C   UNL     1       1.503  12.208  -2.454  1.00  0.00     0.022 A 
BRANCH  41  45
ATOM     45  S   UNL     1       3.462  14.071  -1.740  1.00  0.00     0.124 S 
ATOM     46  O   UNL     1       3.721  14.143  -0.307  1.00  0.00    -0.237 OA
ATOM     47  O   UNL     1       4.641  14.009  -2.599  1.00  0.00    -0.237 OA
ATOM     48  O   UNL     1       2.388  14.937  -2.222  1.00  0.00    -0.744 OA
ENDBRANCH  41  45
ENDBRANCH  24  38
BRANCH  25  49
ATOM     49  C   UNL     1       5.570   6.893   8.341  1.00  0.00     0.023 A 
ATOM     50  C   UNL     1       5.597   5.775   9.190  1.00  0.00     0.031 A 
ATOM     51  C   UNL     1       6.206   8.059   8.882  1.00  0.00     0.131 A 
ATOM     52  C   UNL     1       6.273   5.837  10.443  1.00  0.00     0.055 A 
ATOM     53  C   UNL     1       6.929   8.092  10.075  1.00  0.00     0.041 A 
ATOM     54  F   UNL     1       6.162   9.251   8.273  1.00  0.00    -0.206 F 
ATOM     55  C   UNL     1       6.975   6.969  10.862  1.00  0.00     0.022 A 
BRANCH  52  56
ATOM     56  S   UNL     1       6.283   4.429  11.592  1.00  0.00     0.124 S 
ATOM     57  O   UNL     1       5.207   4.784  12.512  1.00  0.00    -0.237 OA
ATOM     58  O   UNL     1       6.029   3.285  10.723  1.00  0.00    -0.237 OA
ATOM     59  O   UNL     1       7.630   4.483  12.159  1.00  0.00    -0.744 OA
ENDBRANCH  52  56
ENDBRANCH  25  49
BRANCH  37  60
ATOM     60  C   UNL     1       2.143   9.954   4.316  1.00  0.00     0.023 A 
ATOM     61  C   UNL     1       1.386  10.620   5.299  1.00  0.00     0.031 A 
ATOM     62  C   UNL     1       1.477   8.933   3.614  1.00  0.00     0.131 A 
ATOM     63  C   UNL     1       0.048  10.249   5.553  1.00  0.00     0.055 A 
ATOM     64  C   UNL     1       0.145   8.575   3.848  1.00  0.00     0.041 A 
ATOM     65  F   UNL     1       2.109   8.225   2.682  1.00  0.00    -0.206 F 
ATOM     66  C   UNL     1      -0.577   9.233   4.829  1.00  0.00     0.022 A 
BRANCH  63  67
ATOM     67  S   UNL     1      -0.888  11.124   6.837  1.00  0.00     0.124 S 
ATOM     68  O   UNL     1      -0.261  10.643   8.070  1.00  0.00    -0.237 OA
ATOM     69  O   UNL     1      -0.663  12.517   6.506  1.00  0.00    -0.237 OA
ATOM     70  O   UNL     1      -2.264  10.656   6.633  1.00  0.00    -0.744 OA
ENDBRANCH  63  67
ENDBRANCH  37  60
ENDBRANCH  11  12
ENDBRANCH   4   6
ENDBRANCH   1   2
BRANCH   1  71
ATOM     71  C   UNL     1       5.030  -0.952   1.856  1.00  0.00     0.042 C 
BRANCH  71  72
ATOM     72  C   UNL     1       4.453  -2.036   2.759  1.00  0.00     0.118 C 
BRANCH  72  73
ATOM     73  N   UNL     1       4.993  -3.345   2.440  1.00  0.00    -0.352 N 
ATOM     74  C   UNL     1       5.759  -4.186   3.201  1.00  0.00     0.255 C 
ATOM     75  H   UNL     1       4.775  -3.678   1.540  1.00  0.00     0.163 HD
ATOM     76  O   UNL     1       6.243  -5.190   2.677  1.00  0.00    -0.269 OA
BRANCH  74  77
ATOM     77  C   UNL     1       6.057  -3.906   4.623  1.00  0.00     0.083 A 
ATOM     78  C   UNL     1       7.401  -4.010   5.020  1.00  0.00     0.044 A 
ATOM     79  C   UNL     1       5.063  -3.698   5.586  1.00  0.00     0.128 A 
ATOM     80  C   UNL     1       7.739  -3.934   6.377  1.00  0.00     0.046 A 
ATOM     81  C   UNL     1       5.405  -3.575   6.933  1.00  0.00     0.049 A 
ATOM     82  C   UNL     1       6.737  -3.714   7.332  1.00  0.00     0.030 A 
BRANCH  79  83
ATOM     83  O   UNL     1       3.743  -3.646   5.232  1.00  0.00    -0.507 OA
ATOM     84  H   UNL     1       3.495  -3.726   4.332  1.00  0.00     0.293 HD
ENDBRANCH  79  83
BRANCH  80  85
ATOM     85  N   UNL     1       9.085  -4.122   6.789  1.00  0.00    -0.324 N 
ATOM     86  C   UNL     1       9.498  -4.649   7.998  1.00  0.00     0.091 A 
ATOM     87  C   UNL     1      10.217  -3.841   6.051  1.00  0.00     0.091 A 
ATOM     88  C   UNL     1      10.874  -4.706   8.017  1.00  0.00     0.020 A 
ATOM     89  C   UNL     1      11.331  -4.168   6.795  1.00  0.00     0.020 A 
ENDBRANCH  80  85
ENDBRANCH  74  77
ENDBRANCH  72  73
ENDBRANCH  71  72
ENDBRANCH   1  71
TORSDOF 15
