REMARK SMILES O=C(NCCCNC(=O)[C@@H]1CCn2c(C(=O)c3ccccc3)ccc21)c1ccc(-c2c3nc(c(-c4cc(S(=O)(=O)[O-])ccc4F)c4ccc([nH]4)c(-c4cc(S(=O)(=O)[O-])ccc4F)c4nc(c(-c5cc(S(=O)(=O)[O-])ccc5F)c5ccc2[nH]5)C=C4)C=C3)cc1
REMARK SMILES IDX 4 1 3 2 1 3 2 4 26 6 27 7 88 8 28 9 87 10 29 11 30 12 31 13
REMARK SMILES IDX 81 14 32 15 86 16 80 17 82 18 33 19 85 20 79 21 78 22 34 24
REMARK SMILES IDX 66 25 46 26 65 27 47 28 50 29 64 30 83 31 48 32 49 33 63 35
REMARK SMILES IDX 84 36 51 37 35 38 36 39 44 40 37 41 43 42 45 43 42 44 38 45
REMARK SMILES IDX 39 46 40 47 41 48 67 49 68 50 76 51 69 52 75 53 77 54 74 55
REMARK SMILES IDX 70 56 71 57 72 58 73 59 52 60 53 61 61 62 54 63 60 64 62 65
REMARK SMILES IDX 59 66 55 67 56 68 57 69 58 70 5 71 6 72 7 73 8 74 9 76 10 77
REMARK SMILES IDX 11 78 25 79 12 80 13 81 24 82 14 83 23 84 15 85 16 86 17 87
REMARK SMILES IDX 18 88 22 89 19 90 21 91 20 92
REMARK H PARENT 3 5 82 23 50 34 7 75
REMARK Flexibility Score: inf
ROOT
ATOM      1  C   UNL     1       4.351  -1.396   0.461  1.00  0.00     0.118 C 
ENDROOT
BRANCH   1   2
ATOM      2  N   UNL     1       2.947  -1.230   0.113  1.00  0.00    -0.352 N 
ATOM      3  O   UNL     1       1.032  -0.129  -0.297  1.00  0.00    -0.269 OA
ATOM      4  C   UNL     1       2.265  -0.104  -0.273  1.00  0.00     0.251 C 
ATOM      5  H   UNL     1       2.404  -2.050   0.162  1.00  0.00     0.163 HD
BRANCH   4   6
ATOM      6  C   UNL     1       2.987   1.128  -0.660  1.00  0.00     0.039 A 
ATOM      7  C   UNL     1       4.133   1.073  -1.458  1.00  0.00     0.014 A 
ATOM      8  C   UNL     1       2.471   2.368  -0.270  1.00  0.00     0.014 A 
ATOM      9  C   UNL     1       4.824   2.241  -1.768  1.00  0.00     0.010 A 
ATOM     10  C   UNL     1       3.122   3.545  -0.649  1.00  0.00     0.010 A 
ATOM     11  C   UNL     1       4.316   3.491  -1.385  1.00  0.00    -0.014 A 
BRANCH  11  12
ATOM     12  C   UNL     1       5.010   4.736  -1.807  1.00  0.00     0.031 A 
ATOM     13  C   UNL     1       5.609   5.665  -0.788  1.00  0.00     0.074 A 
ATOM     14  C   UNL     1       5.088   5.030  -3.120  1.00  0.00     0.049 A 
ATOM     15  N   UNL     1       6.193   6.823  -0.967  1.00  0.00    -0.248 NA
ATOM     16  C   UNL     1       5.528   5.241   0.616  1.00  0.00     0.031 C 
ATOM     17  C   UNL     1       4.545   4.202  -4.200  1.00  0.00     0.029 A 
ATOM     18  N   UNL     1       5.649   6.098  -3.772  1.00  0.00    -0.354 N 
ATOM     19  C   UNL     1       6.536   7.277   0.303  1.00  0.00     0.074 A 
ATOM     20  C   UNL     1       6.056   6.283   1.242  1.00  0.00     0.031 C 
ATOM     21  C   UNL     1       4.821   4.779  -5.378  1.00  0.00     0.029 A 
ATOM     22  C   UNL     1       5.494   6.051  -5.138  1.00  0.00     0.049 A 
ATOM     23  H   UNL     1       6.118   6.828  -3.308  1.00  0.00     0.167 HD
ATOM     24  C   UNL     1       7.194   8.413   0.647  1.00  0.00     0.034 A 
ATOM     25  C   UNL     1       5.824   6.943  -6.091  1.00  0.00     0.034 A 
ATOM     26  C   UNL     1       7.656   9.394  -0.308  1.00  0.00     0.049 A 
ATOM     27  C   UNL     1       6.501   8.223  -5.683  1.00  0.00     0.074 A 
ATOM     28  C   UNL     1       8.354  10.566  -0.073  1.00  0.00     0.029 A 
ATOM     29  N   UNL     1       7.455   9.325  -1.683  1.00  0.00    -0.354 N 
ATOM     30  N   UNL     1       6.827   8.636  -4.479  1.00  0.00    -0.248 NA
ATOM     31  C   UNL     1       6.857   9.156  -6.758  1.00  0.00     0.031 C 
ATOM     32  C   UNL     1       8.509  11.239  -1.291  1.00  0.00     0.029 A 
ATOM     33  C   UNL     1       7.984  10.449  -2.301  1.00  0.00     0.049 A 
ATOM     34  H   UNL     1       7.001   8.587  -2.149  1.00  0.00     0.167 HD
ATOM     35  C   UNL     1       7.454   9.865  -4.657  1.00  0.00     0.074 A 
ATOM     36  C   UNL     1       7.466  10.120  -6.084  1.00  0.00     0.031 C 
ATOM     37  C   UNL     1       7.979  10.700  -3.725  1.00  0.00     0.034 A 
BRANCH  24  38
ATOM     38  C   UNL     1       7.402   8.674   2.123  1.00  0.00     0.023 A 
ATOM     39  C   UNL     1       8.163   7.809   2.930  1.00  0.00     0.031 A 
ATOM     40  C   UNL     1       6.795   9.781   2.742  1.00  0.00     0.131 A 
ATOM     41  C   UNL     1       8.226   8.017   4.316  1.00  0.00     0.055 A 
ATOM     42  C   UNL     1       6.932  10.031   4.109  1.00  0.00     0.041 A 
ATOM     43  F   UNL     1       6.040  10.634   2.030  1.00  0.00    -0.206 F 
ATOM     44  C   UNL     1       7.636   9.135   4.909  1.00  0.00     0.022 A 
BRANCH  41  45
ATOM     45  S   UNL     1       8.949   6.716   5.354  1.00  0.00     0.124 S 
ATOM     46  O   UNL     1       8.143   5.556   4.979  1.00  0.00    -0.237 OA
ATOM     47  O   UNL     1      10.338   6.697   4.914  1.00  0.00    -0.237 OA
ATOM     48  O   UNL     1       8.730   7.202   6.715  1.00  0.00    -0.744 OA
ENDBRANCH  41  45
ENDBRANCH  24  38
BRANCH  25  49
ATOM     49  C   UNL     1       5.482   6.670  -7.516  1.00  0.00     0.023 A 
ATOM     50  C   UNL     1       6.482   6.476  -8.480  1.00  0.00     0.031 A 
ATOM     51  C   UNL     1       4.139   6.601  -7.932  1.00  0.00     0.131 A 
ATOM     52  C   UNL     1       6.125   6.252  -9.819  1.00  0.00     0.055 A 
ATOM     53  C   UNL     1       3.790   6.326  -9.254  1.00  0.00     0.041 A 
ATOM     54  F   UNL     1       3.144   6.772  -7.047  1.00  0.00    -0.206 F 
ATOM     55  C   UNL     1       4.787   6.160 -10.209  1.00  0.00     0.022 A 
BRANCH  52  56
ATOM     56  S   UNL     1       7.441   6.142 -11.062  1.00  0.00     0.124 S 
ATOM     57  O   UNL     1       8.088   7.443 -10.926  1.00  0.00    -0.237 OA
ATOM     58  O   UNL     1       8.207   4.992 -10.592  1.00  0.00    -0.237 OA
ATOM     59  O   UNL     1       6.713   5.934 -12.311  1.00  0.00    -0.744 OA
ENDBRANCH  52  56
ENDBRANCH  25  49
BRANCH  37  60
ATOM     60  C   UNL     1       8.663  11.948  -4.231  1.00  0.00     0.023 A 
ATOM     61  C   UNL     1       7.950  12.989  -4.852  1.00  0.00     0.031 A 
ATOM     62  C   UNL     1      10.055  12.089  -4.093  1.00  0.00     0.131 A 
ATOM     63  C   UNL     1       8.640  14.103  -5.356  1.00  0.00     0.055 A 
ATOM     64  C   UNL     1      10.727  13.226  -4.543  1.00  0.00     0.041 A 
ATOM     65  F   UNL     1      10.786  11.123  -3.513  1.00  0.00    -0.206 F 
ATOM     66  C   UNL     1      10.021  14.236  -5.189  1.00  0.00     0.022 A 
BRANCH  63  67
ATOM     67  S   UNL     1       7.720  15.342  -6.310  1.00  0.00     0.124 S 
ATOM     68  O   UNL     1       7.183  14.542  -7.406  1.00  0.00    -0.237 OA
ATOM     69  O   UNL     1       6.747  15.827  -5.338  1.00  0.00    -0.237 OA
ATOM     70  O   UNL     1       8.746  16.309  -6.695  1.00  0.00    -0.744 OA
ENDBRANCH  63  67
ENDBRANCH  37  60
ENDBRANCH  11  12
ENDBRANCH   4   6
ENDBRANCH   1   2
BRANCH   1  71
ATOM     71  C   UNL     1       4.541  -1.753   1.931  1.00  0.00     0.042 C 
BRANCH  71  72
ATOM     72  C   UNL     1       4.079  -3.167   2.275  1.00  0.00     0.117 C 
BRANCH  72  73
ATOM     73  N   UNL     1       4.992  -4.165   1.741  1.00  0.00    -0.355 N 
ATOM     74  C   UNL     1       6.041  -4.823   2.304  1.00  0.00     0.229 C 
ATOM     75  H   UNL     1       4.821  -4.407   0.802  1.00  0.00     0.163 HD
ATOM     76  O   UNL     1       6.714  -5.529   1.541  1.00  0.00    -0.274 OA
BRANCH  74  77
ATOM     77  C   UNL     1       6.310  -4.885   3.804  1.00  0.00     0.127 C 
ATOM     78  C   UNL     1       5.280  -5.827   4.477  1.00  0.00     0.042 C 
ATOM     79  C   UNL     1       6.165  -3.627   4.576  1.00  0.00     0.031 A 
ATOM     80  C   UNL     1       4.858  -5.156   5.789  1.00  0.00     0.124 C 
ATOM     81  N   UNL     1       5.342  -3.796   5.656  1.00  0.00    -0.341 N 
ATOM     82  C   UNL     1       6.611  -2.334   4.585  1.00  0.00     0.025 A 
ATOM     83  C   UNL     1       5.062  -2.609   6.265  1.00  0.00     0.090 A 
ATOM     84  C   UNL     1       5.871  -1.678   5.610  1.00  0.00     0.032 A 
BRANCH  83  85
ATOM     85  C   UNL     1       4.090  -2.330   7.305  1.00  0.00     0.209 C 
ATOM     86  O   UNL     1       3.506  -1.244   7.395  1.00  0.00    -0.287 OA
BRANCH  85  87
ATOM     87  C   UNL     1       3.730  -3.361   8.308  1.00  0.00     0.024 A 
ATOM     88  C   UNL     1       2.388  -3.493   8.686  1.00  0.00     0.012 A 
ATOM     89  C   UNL     1       4.706  -4.167   8.905  1.00  0.00     0.012 A 
ATOM     90  C   UNL     1       2.018  -4.459   9.622  1.00  0.00     0.001 A 
ATOM     91  C   UNL     1       4.330  -5.139   9.834  1.00  0.00     0.001 A 
ATOM     92  C   UNL     1       2.987  -5.287  10.187  1.00  0.00     0.000 A 
ENDBRANCH  85  87
ENDBRANCH  83  85
ENDBRANCH  74  77
ENDBRANCH  72  73
ENDBRANCH  71  72
ENDBRANCH   1  71
TORSDOF 15
