REMARK SMILES O=C(Cc1ccccc1)Nc1cccc(C(=O)Nc2ccccc2C(=O)NCCCNC(=O)c2ccc(-c3c4nc(c(-c5cc(S(=O)(=O)[O-])ccc5F)c5ccc([nH]5)c(-c5cc(S(=O)(=O)[O-])ccc5F)c5nc(c(-c6cc(S(=O)(=O)[O-])ccc6F)c6ccc3[nH]6)C=C5)C=C4)cc2)c1
REMARK SMILES IDX 28 1 27 2 25 3 26 4 24 6 19 7 20 8 21 9 23 10 22 11 18 12
REMARK SMILES IDX 16 13 17 14 15 16 11 17 12 18 97 19 13 20 14 21 10 22 1 23
REMARK SMILES IDX 2 24 3 26 4 27 5 28 9 29 6 30 8 31 7 32 29 33 30 34 31 35
REMARK SMILES IDX 32 36 33 38 34 39 35 40 96 41 36 42 95 43 37 44 38 45 39 46
REMARK SMILES IDX 89 47 40 48 94 49 88 50 90 51 41 52 93 53 87 54 86 55 42 57
REMARK SMILES IDX 74 58 54 59 73 60 55 61 58 62 72 63 91 64 56 65 57 66 71 68
REMARK SMILES IDX 92 69 59 70 43 71 44 72 52 73 45 74 51 75 53 76 50 77 46 78
REMARK SMILES IDX 47 79 48 80 49 81 75 82 76 83 84 84 77 85 83 86 85 87 82 88
REMARK SMILES IDX 78 89 79 90 80 91 81 92 60 93 61 94 69 95 62 96 68 97 70 98
REMARK SMILES IDX 67 99 63 100 64 101 65 102 66 103
REMARK H PARENT 27 5 18 15 10 25 31 37 90 56 58 67
REMARK Flexibility Score: inf
ROOT
ATOM      1  C   UNL     1      -0.406  -3.450  -4.469  1.00  0.00     0.118 C 
ENDROOT
BRANCH   1   2
ATOM      2  N   UNL     1       0.928  -3.287  -3.925  1.00  0.00    -0.352 N 
ATOM      3  C   UNL     1       1.479  -2.246  -3.235  1.00  0.00     0.253 C 
ATOM      4  O   UNL     1       2.672  -2.323  -2.931  1.00  0.00    -0.269 OA
ATOM      5  H   UNL     1       1.533  -4.049  -4.077  1.00  0.00     0.163 HD
BRANCH   3   6
ATOM      6  C   UNL     1       0.731  -0.995  -2.943  1.00  0.00     0.063 A 
ATOM      7  C   UNL     1      -0.608  -0.854  -2.521  1.00  0.00     0.054 A 
ATOM      8  C   UNL     1      -1.155   0.444  -2.497  1.00  0.00     0.027 A 
ATOM      9  C   UNL     1      -0.374   1.576  -2.747  1.00  0.00     0.002 A 
ATOM     10  C   UNL     1       1.510   0.162  -3.175  1.00  0.00     0.016 A 
ATOM     11  C   UNL     1       0.969   1.438  -3.061  1.00  0.00     0.001 A 
BRANCH   7  12
ATOM     12  N   UNL     1      -1.506  -1.851  -2.052  1.00  0.00    -0.321 N 
ATOM     13  C   UNL     1      -1.325  -3.014  -1.325  1.00  0.00     0.255 C 
ATOM     14  O   UNL     1      -2.255  -3.805  -1.191  1.00  0.00    -0.269 OA
ATOM     15  H   UNL     1      -2.445  -1.680  -2.292  1.00  0.00     0.170 HD
BRANCH  13  16
ATOM     16  C   UNL     1      -0.042  -3.302  -0.662  1.00  0.00     0.042 A 
ATOM     17  C   UNL     1       2.004  -2.408   0.201  1.00  0.00     0.041 A 
ATOM     18  C   UNL     1       2.588  -3.677   0.088  1.00  0.00     0.026 A 
ATOM     19  C   UNL     1       0.655  -2.254  -0.069  1.00  0.00     0.040 A 
ATOM     20  C   UNL     1       1.828  -4.774  -0.328  1.00  0.00     0.003 A 
ATOM     21  C   UNL     1       0.508  -4.584  -0.727  1.00  0.00     0.014 A 
BRANCH  17  22
ATOM     22  N   UNL     1       2.841  -1.304   0.424  1.00  0.00    -0.326 N 
ATOM     23  O   UNL     1       1.312   0.417   0.847  1.00  0.00    -0.274 OA
ATOM     24  C   UNL     1       2.455   0.009   0.659  1.00  0.00     0.228 C 
ATOM     25  H   UNL     1       3.809  -1.479   0.413  1.00  0.00     0.169 HD
BRANCH  24  26
ATOM     26  C   UNL     1       3.634   0.960   0.703  1.00  0.00     0.135 C 
BRANCH  26  27
ATOM     27  C   UNL     1       4.310   1.022   2.054  1.00  0.00    -0.039 A 
ATOM     28  C   UNL     1       4.620  -0.136   2.785  1.00  0.00     0.004 A 
ATOM     29  C   UNL     1       4.691   2.264   2.579  1.00  0.00     0.004 A 
ATOM     30  C   UNL     1       5.274  -0.056   4.013  1.00  0.00     0.000 A 
ATOM     31  C   UNL     1       5.347   2.343   3.808  1.00  0.00     0.000 A 
ATOM     32  C   UNL     1       5.638   1.184   4.524  1.00  0.00     0.000 A 
ENDBRANCH  26  27
ENDBRANCH  24  26
ENDBRANCH  17  22
ENDBRANCH  13  16
ENDBRANCH   7  12
ENDBRANCH   3   6
ENDBRANCH   1   2
BRANCH   1  33
ATOM     33  C   UNL     1      -0.461  -4.418  -5.636  1.00  0.00     0.042 C 
BRANCH  33  34
ATOM     34  C   UNL     1       0.052  -5.815  -5.304  1.00  0.00     0.118 C 
BRANCH  34  35
ATOM     35  N   UNL     1      -0.710  -6.513  -4.273  1.00  0.00    -0.352 N 
ATOM     36  C   UNL     1      -1.623  -7.543  -4.349  1.00  0.00     0.251 C 
ATOM     37  H   UNL     1      -0.541  -6.190  -3.359  1.00  0.00     0.163 HD
ATOM     38  O   UNL     1      -2.177  -7.942  -3.333  1.00  0.00    -0.269 OA
BRANCH  36  39
ATOM     39  C   UNL     1      -1.981  -8.118  -5.663  1.00  0.00     0.039 A 
ATOM     40  C   UNL     1      -3.329  -8.310  -5.977  1.00  0.00     0.014 A 
ATOM     41  C   UNL     1      -1.000  -8.400  -6.607  1.00  0.00     0.014 A 
ATOM     42  C   UNL     1      -3.691  -8.647  -7.284  1.00  0.00     0.010 A 
ATOM     43  C   UNL     1      -1.366  -8.591  -7.932  1.00  0.00     0.010 A 
ATOM     44  C   UNL     1      -2.717  -8.707  -8.293  1.00  0.00    -0.014 A 
BRANCH  44  45
ATOM     45  C   UNL     1      -3.063  -8.879  -9.731  1.00  0.00     0.031 A 
ATOM     46  C   UNL     1      -2.422  -9.991 -10.521  1.00  0.00     0.074 A 
ATOM     47  C   UNL     1      -3.838  -7.967 -10.354  1.00  0.00     0.049 A 
ATOM     48  N   UNL     1      -2.392 -10.182 -11.815  1.00  0.00    -0.248 NA
ATOM     49  C   UNL     1      -1.653 -10.981  -9.751  1.00  0.00     0.031 C 
ATOM     50  C   UNL     1      -4.469  -6.807  -9.718  1.00  0.00     0.029 A 
ATOM     51  N   UNL     1      -4.213  -7.860 -11.671  1.00  0.00    -0.354 N 
ATOM     52  C   UNL     1      -1.557 -11.277 -12.015  1.00  0.00     0.074 A 
ATOM     53  C   UNL     1      -1.052 -11.661 -10.714  1.00  0.00     0.031 C 
ATOM     54  C   UNL     1      -5.175  -6.128 -10.636  1.00  0.00     0.029 A 
ATOM     55  C   UNL     1      -5.003  -6.764 -11.936  1.00  0.00     0.049 A 
ATOM     56  H   UNL     1      -3.941  -8.507 -12.361  1.00  0.00     0.167 HD
ATOM     57  C   UNL     1      -1.261 -11.920 -13.172  1.00  0.00     0.034 A 
ATOM     58  C   UNL     1      -5.515  -6.313 -13.098  1.00  0.00     0.034 A 
ATOM     59  C   UNL     1      -1.830 -11.563 -14.447  1.00  0.00     0.049 A 
ATOM     60  C   UNL     1      -5.217  -7.072 -14.365  1.00  0.00     0.074 A 
ATOM     61  C   UNL     1      -1.675 -12.194 -15.669  1.00  0.00     0.029 A 
ATOM     62  N   UNL     1      -2.679 -10.484 -14.662  1.00  0.00    -0.354 N 
ATOM     63  N   UNL     1      -4.454  -8.128 -14.533  1.00  0.00    -0.248 NA
ATOM     64  C   UNL     1      -5.852  -6.585 -15.596  1.00  0.00     0.031 C 
ATOM     65  C   UNL     1      -2.390 -11.470 -16.630  1.00  0.00     0.029 A 
ATOM     66  C   UNL     1      -3.043 -10.424 -15.998  1.00  0.00     0.049 A 
ATOM     67  H   UNL     1      -2.978  -9.854 -13.967  1.00  0.00     0.167 HD
ATOM     68  C   UNL     1      -4.542  -8.446 -15.885  1.00  0.00     0.074 A 
ATOM     69  C   UNL     1      -5.440  -7.479 -16.482  1.00  0.00     0.031 C 
ATOM     70  C   UNL     1      -3.939  -9.449 -16.571  1.00  0.00     0.034 A 
BRANCH  57  71
ATOM     71  C   UNL     1      -0.273 -13.060 -13.099  1.00  0.00     0.023 A 
ATOM     72  C   UNL     1      -0.524 -14.207 -12.326  1.00  0.00     0.031 A 
ATOM     73  C   UNL     1       0.961 -12.979 -13.769  1.00  0.00     0.131 A 
ATOM     74  C   UNL     1       0.478 -15.174 -12.158  1.00  0.00     0.055 A 
ATOM     75  C   UNL     1       1.919 -13.991 -13.674  1.00  0.00     0.041 A 
ATOM     76  F   UNL     1       1.268 -11.902 -14.509  1.00  0.00    -0.206 F 
ATOM     77  C   UNL     1       1.689 -15.088 -12.848  1.00  0.00     0.022 A 
BRANCH  74  78
ATOM     78  S   UNL     1       0.238 -16.453 -10.896  1.00  0.00     0.124 S 
ATOM     79  O   UNL     1       0.112 -15.648  -9.684  1.00  0.00    -0.237 OA
ATOM     80  O   UNL     1      -0.977 -17.120 -11.349  1.00  0.00    -0.237 OA
ATOM     81  O   UNL     1       1.458 -17.253 -10.981  1.00  0.00    -0.744 OA
ENDBRANCH  74  78
ENDBRANCH  57  71
BRANCH  58  82
ATOM     82  C   UNL     1      -6.359  -5.084 -13.128  1.00  0.00     0.023 A 
ATOM     83  C   UNL     1      -7.722  -5.156 -13.455  1.00  0.00     0.031 A 
ATOM     84  C   UNL     1      -5.810  -3.817 -12.862  1.00  0.00     0.131 A 
ATOM     85  C   UNL     1      -8.482  -3.980 -13.555  1.00  0.00     0.055 A 
ATOM     86  C   UNL     1      -6.582  -2.654 -12.915  1.00  0.00     0.041 A 
ATOM     87  F   UNL     1      -4.514  -3.693 -12.534  1.00  0.00    -0.206 F 
ATOM     88  C   UNL     1      -7.924  -2.731 -13.276  1.00  0.00     0.022 A 
BRANCH  85  89
ATOM     89  S   UNL     1     -10.197  -4.102 -14.131  1.00  0.00     0.124 S 
ATOM     90  O   UNL     1     -10.030  -4.735 -15.434  1.00  0.00    -0.237 OA
ATOM     91  O   UNL     1     -10.808  -4.924 -13.091  1.00  0.00    -0.237 OA
ATOM     92  O   UNL     1     -10.644  -2.711 -14.164  1.00  0.00    -0.744 OA
ENDBRANCH  85  89
ENDBRANCH  58  82
BRANCH  70  93
ATOM     93  C   UNL     1      -4.279  -9.576 -18.033  1.00  0.00     0.023 A 
ATOM     94  C   UNL     1      -3.840  -8.633 -18.978  1.00  0.00     0.031 A 
ATOM     95  C   UNL     1      -5.051 -10.662 -18.483  1.00  0.00     0.131 A 
ATOM     96  C   UNL     1      -4.215  -8.770 -20.322  1.00  0.00     0.055 A 
ATOM     97  C   UNL     1      -5.377 -10.819 -19.830  1.00  0.00     0.041 A 
ATOM     98  F   UNL     1      -5.494 -11.589 -17.620  1.00  0.00    -0.206 F 
ATOM     99  C   UNL     1      -4.967  -9.865 -20.757  1.00  0.00     0.022 A 
BRANCH  96 100
ATOM    100  S   UNL     1      -3.761  -7.459 -21.490  1.00  0.00     0.124 S 
ATOM    101  O   UNL     1      -4.437  -6.298 -20.921  1.00  0.00    -0.237 OA
ATOM    102  O   UNL     1      -2.304  -7.454 -21.405  1.00  0.00    -0.237 OA
ATOM    103  O   UNL     1      -4.304  -7.930 -22.763  1.00  0.00    -0.744 OA
ENDBRANCH  96 100
ENDBRANCH  70  93
ENDBRANCH  44  45
ENDBRANCH  36  39
ENDBRANCH  34  35
ENDBRANCH  33  34
ENDBRANCH   1  33
TORSDOF 18
