REMARK SMILES O=C(Cc1ccn(C(F)F)c(=O)c1)NCCCNC(=O)c1ccc(-c2c3nc(c(-c4cc(S(=O)(=O)[O-])ccc4F)c4ccc([nH]4)c(-c4cc(S(=O)(=O)[O-])ccc4F)c4nc(c(-c5cc(S(=O)(=O)[O-])ccc5F)c5ccc2[nH]5)C=C4)C=C3)cc1
REMARK SMILES IDX 16 1 15 2 14 3 1 4 2 5 3 7 4 8 5 9 13 10 6 11 11 12 7 13
REMARK SMILES IDX 12 14 8 15 9 16 10 17 17 18 18 19 19 20 20 22 21 23 22 24
REMARK SMILES IDX 83 25 23 26 82 27 24 28 25 29 26 30 76 31 27 32 81 33 75 34
REMARK SMILES IDX 77 35 28 36 80 37 74 38 73 39 29 41 61 42 41 43 60 44 42 45
REMARK SMILES IDX 45 46 59 47 78 48 43 49 44 50 58 52 79 53 46 54 30 55 31 56
REMARK SMILES IDX 39 57 32 58 38 59 40 60 37 61 33 62 34 63 35 64 36 65 62 66
REMARK SMILES IDX 63 67 71 68 64 69 70 70 72 71 69 72 65 73 66 74 67 75 68 76
REMARK SMILES IDX 47 77 48 78 56 79 49 80 55 81 57 82 54 83 50 84 51 85 52 86
REMARK SMILES IDX 53 87
REMARK H PARENT 14 6 18 21 77 40 45 51
REMARK Flexibility Score: inf
ROOT
ATOM      1  C   UNL     1       2.429   1.239   3.243  1.00  0.00     0.042 C 
ENDROOT
BRANCH   1   2
ATOM      2  C   UNL     1       2.136   1.597   1.796  1.00  0.00     0.117 C 
BRANCH   2   3
ATOM      3  N   UNL     1       2.812   0.720   0.861  1.00  0.00    -0.356 N 
ATOM      4  O   UNL     1       0.924   0.033  -0.261  1.00  0.00    -0.275 OA
ATOM      5  C   UNL     1       2.143   0.031  -0.129  1.00  0.00     0.224 C 
ATOM      6  H   UNL     1       3.788   0.612   0.936  1.00  0.00     0.163 HD
BRANCH   5   7
ATOM      7  C   UNL     1       3.070  -0.688  -1.104  1.00  0.00     0.135 C 
BRANCH   7   8
ATOM      8  C   UNL     1       3.787   0.212  -2.088  1.00  0.00    -0.032 A 
ATOM      9  C   UNL     1       3.574   1.647  -2.110  1.00  0.00     0.022 A 
ATOM     10  C   UNL     1       4.650  -0.319  -2.975  1.00  0.00     0.076 A 
ATOM     11  C   UNL     1       4.234   2.425  -2.976  1.00  0.00     0.095 A 
ATOM     12  C   UNL     1       5.367   0.529  -3.970  1.00  0.00     0.255 A 
ATOM     13  N   UNL     1       5.119   1.888  -3.890  1.00  0.00    -0.258 N 
ATOM     14  O   UNL     1       6.111  -0.019  -4.779  1.00  0.00    -0.269 OA
BRANCH  13  15
ATOM     15  C   UNL     1       5.763   2.734  -4.859  1.00  0.00     0.451 C 
ATOM     16  F   UNL     1       7.107   2.567  -4.855  1.00  0.00    -0.185 F 
ATOM     17  F   UNL     1       5.310   2.463  -6.109  1.00  0.00    -0.185 F 
ENDBRANCH  13  15
ENDBRANCH   7   8
ENDBRANCH   5   7
ENDBRANCH   2   3
ENDBRANCH   1   2
BRANCH   1  18
ATOM     18  C   UNL     1       3.903   1.303   3.625  1.00  0.00     0.118 C 
BRANCH  18  19
ATOM     19  N   UNL     1       4.473   2.642   3.552  1.00  0.00    -0.352 N 
ATOM     20  C   UNL     1       5.175   3.355   4.500  1.00  0.00     0.251 C 
ATOM     21  H   UNL     1       4.336   3.109   2.696  1.00  0.00     0.163 HD
ATOM     22  O   UNL     1       5.473   4.524   4.272  1.00  0.00    -0.269 OA
BRANCH  20  23
ATOM     23  C   UNL     1       5.523   2.732   5.799  1.00  0.00     0.039 A 
ATOM     24  C   UNL     1       5.973   1.413   5.867  1.00  0.00     0.014 A 
ATOM     25  C   UNL     1       5.363   3.472   6.974  1.00  0.00     0.014 A 
ATOM     26  C   UNL     1       6.054   0.775   7.100  1.00  0.00     0.010 A 
ATOM     27  C   UNL     1       5.554   2.856   8.217  1.00  0.00     0.010 A 
ATOM     28  C   UNL     1       5.839   1.485   8.293  1.00  0.00    -0.014 A 
BRANCH  28  29
ATOM     29  C   UNL     1       5.916   0.768   9.598  1.00  0.00     0.031 A 
ATOM     30  C   UNL     1       4.716   0.675  10.505  1.00  0.00     0.074 A 
ATOM     31  C   UNL     1       7.064   0.150   9.942  1.00  0.00     0.049 A 
ATOM     32  N   UNL     1       4.598   0.053  11.651  1.00  0.00    -0.248 NA
ATOM     33  C   UNL     1       3.491   1.372  10.080  1.00  0.00     0.031 C 
ATOM     34  C   UNL     1       8.292   0.172   9.148  1.00  0.00     0.029 A 
ATOM     35  N   UNL     1       7.383  -0.630  11.026  1.00  0.00    -0.354 N 
ATOM     36  C   UNL     1       3.300   0.293  12.089  1.00  0.00     0.074 A 
ATOM     37  C   UNL     1       2.681   1.156  11.108  1.00  0.00     0.031 C 
ATOM     38  C   UNL     1       9.210  -0.605   9.737  1.00  0.00     0.029 A 
ATOM     39  C   UNL     1       8.670  -1.118  10.993  1.00  0.00     0.049 A 
ATOM     40  H   UNL     1       6.752  -0.823  11.756  1.00  0.00     0.167 HD
ATOM     41  C   UNL     1       2.677  -0.179  13.195  1.00  0.00     0.034 A 
ATOM     42  C   UNL     1       9.350  -1.880  11.874  1.00  0.00     0.034 A 
ATOM     43  C   UNL     1       3.300  -1.058  14.154  1.00  0.00     0.049 A 
ATOM     44  C   UNL     1       8.645  -2.365  13.114  1.00  0.00     0.074 A 
ATOM     45  C   UNL     1       2.735  -1.623  15.284  1.00  0.00     0.029 A 
ATOM     46  N   UNL     1       4.614  -1.502  14.104  1.00  0.00    -0.354 N 
ATOM     47  N   UNL     1       7.398  -2.180  13.478  1.00  0.00    -0.248 NA
ATOM     48  C   UNL     1       9.432  -3.165  14.063  1.00  0.00     0.031 C 
ATOM     49  C   UNL     1       3.724  -2.339  15.957  1.00  0.00     0.029 A 
ATOM     50  C   UNL     1       4.885  -2.302  15.203  1.00  0.00     0.049 A 
ATOM     51  H   UNL     1       5.258  -1.281  13.393  1.00  0.00     0.167 HD
ATOM     52  C   UNL     1       7.245  -2.856  14.685  1.00  0.00     0.074 A 
ATOM     53  C   UNL     1       8.519  -3.481  14.973  1.00  0.00     0.031 C 
ATOM     54  C   UNL     1       6.151  -2.940  15.483  1.00  0.00     0.034 A 
BRANCH  41  55
ATOM     55  C   UNL     1       1.239   0.213  13.450  1.00  0.00     0.023 A 
ATOM     56  C   UNL     1       0.899   0.912  14.624  1.00  0.00     0.031 A 
ATOM     57  C   UNL     1       0.196  -0.233  12.619  1.00  0.00     0.131 A 
ATOM     58  C   UNL     1      -0.448   1.103  14.958  1.00  0.00     0.055 A 
ATOM     59  C   UNL     1      -1.144   0.005  12.930  1.00  0.00     0.041 A 
ATOM     60  F   UNL     1       0.464  -0.908  11.489  1.00  0.00    -0.206 F 
ATOM     61  C   UNL     1      -1.471   0.661  14.113  1.00  0.00     0.022 A 
BRANCH  58  62
ATOM     62  S   UNL     1      -0.927   1.854  16.538  1.00  0.00     0.124 S 
ATOM     63  O   UNL     1      -1.713   3.005  16.096  1.00  0.00    -0.237 OA
ATOM     64  O   UNL     1      -1.693   0.781  17.165  1.00  0.00    -0.237 OA
ATOM     65  O   UNL     1       0.345   2.178  17.173  1.00  0.00    -0.744 OA
ENDBRANCH  58  62
ENDBRANCH  41  55
BRANCH  42  66
ATOM     66  C   UNL     1      10.764  -2.252  11.570  1.00  0.00     0.023 A 
ATOM     67  C   UNL     1      11.746  -1.261  11.386  1.00  0.00     0.031 A 
ATOM     68  C   UNL     1      11.128  -3.589  11.342  1.00  0.00     0.131 A 
ATOM     69  C   UNL     1      13.013  -1.613  10.903  1.00  0.00     0.055 A 
ATOM     70  C   UNL     1      12.418  -3.944  10.943  1.00  0.00     0.041 A 
ATOM     71  F   UNL     1      10.225  -4.571  11.491  1.00  0.00    -0.206 F 
ATOM     72  C   UNL     1      13.362  -2.951  10.701  1.00  0.00     0.022 A 
BRANCH  69  73
ATOM     73  S   UNL     1      14.191  -0.338  10.376  1.00  0.00     0.124 S 
ATOM     74  O   UNL     1      15.340  -0.610  11.233  1.00  0.00    -0.237 OA
ATOM     75  O   UNL     1      14.366  -0.663   8.962  1.00  0.00    -0.237 OA
ATOM     76  O   UNL     1      13.488   0.913  10.641  1.00  0.00    -0.744 OA
ENDBRANCH  69  73
ENDBRANCH  42  66
BRANCH  54  77
ATOM     77  C   UNL     1       6.243  -3.738  16.764  1.00  0.00     0.023 A 
ATOM     78  C   UNL     1       5.392  -4.842  16.968  1.00  0.00     0.031 A 
ATOM     79  C   UNL     1       7.045  -3.313  17.838  1.00  0.00     0.131 A 
ATOM     80  C   UNL     1       5.322  -5.447  18.229  1.00  0.00     0.055 A 
ATOM     81  C   UNL     1       7.015  -3.958  19.076  1.00  0.00     0.041 A 
ATOM     82  F   UNL     1       7.864  -2.258  17.702  1.00  0.00    -0.206 F 
ATOM     83  C   UNL     1       6.137  -5.018  19.281  1.00  0.00     0.022 A 
BRANCH  80  84
ATOM     84  S   UNL     1       4.099  -6.741  18.581  1.00  0.00     0.124 S 
ATOM     85  O   UNL     1       4.950  -7.866  18.962  1.00  0.00    -0.237 OA
ATOM     86  O   UNL     1       3.327  -6.146  19.669  1.00  0.00    -0.237 OA
ATOM     87  O   UNL     1       3.384  -6.903  17.319  1.00  0.00    -0.744 OA
ENDBRANCH  80  84
ENDBRANCH  54  77
ENDBRANCH  28  29
ENDBRANCH  20  23
ENDBRANCH  18  19
ENDBRANCH   1  18
TORSDOF 15
