REMARK SMILES C[C@@H](CSc1nc(C(F)(F)F)ccc1C#N)C(=O)NCCCNC(=O)c1ccc(-c2c3nc(c(-c4cc(S(=O)(=O)[O-])ccc4F)c4ccc([nH]4)c(-c4cc(S(=O)(=O)[O-])ccc4F)c4nc(c(-c5cc(S(=O)(=O)[O-])ccc5F)c5ccc2[nH]5)C=C4)C=C3)cc1
REMARK SMILES IDX 20 1 19 2 17 3 18 4 2 6 1 7 3 8 4 9 5 10 6 11 14 12 7 13
REMARK SMILES IDX 13 14 12 15 15 16 16 17 8 18 9 19 10 20 11 21 21 22 22 23
REMARK SMILES IDX 23 24 24 25 25 27 26 28 27 29 88 30 28 31 87 32 29 33 30 34
REMARK SMILES IDX 31 35 81 36 32 37 86 38 80 39 82 40 33 41 85 42 79 43 78 44
REMARK SMILES IDX 34 46 66 47 46 48 65 49 47 50 50 51 64 52 83 53 48 54 49 55
REMARK SMILES IDX 63 57 84 58 51 59 35 60 36 61 44 62 37 63 43 64 45 65 42 66
REMARK SMILES IDX 38 67 39 68 40 69 41 70 67 71 68 72 76 73 69 74 75 75 77 76
REMARK SMILES IDX 74 77 70 78 71 79 72 80 73 81 52 82 53 83 61 84 54 85 60 86
REMARK SMILES IDX 62 87 59 88 55 89 56 90 57 91 58 92
REMARK H PARENT 19 5 23 26 82 45 50 56
REMARK Flexibility Score: inf
ROOT
ATOM      1  C   UNL     1      -1.555  -0.115  -1.875  1.00  0.00     0.117 C 
ENDROOT
BRANCH   1   2
ATOM      2  N   UNL     1      -1.789   0.877  -0.861  1.00  0.00    -0.356 N 
ATOM      3  C   UNL     1      -0.869   1.641  -0.211  1.00  0.00     0.223 C 
ATOM      4  O   UNL     1      -1.294   2.573   0.478  1.00  0.00    -0.275 OA
ATOM      5  H   UNL     1      -2.729   1.021  -0.607  1.00  0.00     0.163 HD
BRANCH   3   6
ATOM      6  C   UNL     1       0.635   1.347  -0.264  1.00  0.00     0.085 C 
ATOM      7  C   UNL     1       0.992  -0.020   0.307  1.00  0.00     0.019 C 
BRANCH   6   8
ATOM      8  C   UNL     1       1.418   1.819  -1.511  1.00  0.00     0.089 C 
BRANCH   8   9
ATOM      9  S   UNL     1       1.317   1.127  -3.218  1.00  0.00    -0.104 SA
BRANCH   9  10
ATOM     10  C   UNL     1       1.737  -0.607  -3.031  1.00  0.00     0.115 A 
ATOM     11  N   UNL     1       2.696  -0.903  -2.123  1.00  0.00    -0.236 NA
ATOM     12  C   UNL     1       1.053  -1.600  -3.743  1.00  0.00     0.084 A 
ATOM     13  C   UNL     1       2.960  -2.220  -1.850  1.00  0.00     0.145 A 
ATOM     14  C   UNL     1       1.289  -2.938  -3.416  1.00  0.00     0.024 A 
ATOM     15  C   UNL     1       2.244  -3.252  -2.454  1.00  0.00     0.035 A 
BRANCH  12  16
ATOM     16  C   UNL     1       0.081  -1.295  -4.748  1.00  0.00     0.102 C 
ATOM     17  N   UNL     1      -0.721  -1.060  -5.553  1.00  0.00    -0.192 NA
ENDBRANCH  12  16
BRANCH  13  18
ATOM     18  C   UNL     1       4.071  -2.553  -0.860  1.00  0.00     0.433 C 
ATOM     19  F   UNL     1       5.295  -2.123  -1.280  1.00  0.00    -0.165 F 
ATOM     20  F   UNL     1       3.875  -1.995   0.368  1.00  0.00    -0.165 F 
ATOM     21  F   UNL     1       4.212  -3.892  -0.635  1.00  0.00    -0.165 F 
ENDBRANCH  13  18
ENDBRANCH   9  10
ENDBRANCH   8   9
ENDBRANCH   6   8
ENDBRANCH   3   6
ENDBRANCH   1   2
BRANCH   1  22
ATOM     22  C   UNL     1      -2.122  -1.486  -1.580  1.00  0.00     0.042 C 
BRANCH  22  23
ATOM     23  C   UNL     1      -3.600  -1.604  -1.886  1.00  0.00     0.118 C 
BRANCH  23  24
ATOM     24  N   UNL     1      -3.912  -1.359  -3.291  1.00  0.00    -0.352 N 
ATOM     25  C   UNL     1      -4.295  -2.192  -4.314  1.00  0.00     0.251 C 
ATOM     26  H   UNL     1      -3.833  -0.415  -3.556  1.00  0.00     0.163 HD
ATOM     27  O   UNL     1      -4.384  -1.733  -5.451  1.00  0.00    -0.269 OA
BRANCH  25  28
ATOM     28  C   UNL     1      -4.584  -3.623  -4.080  1.00  0.00     0.039 A 
ATOM     29  C   UNL     1      -4.280  -4.554  -5.079  1.00  0.00     0.014 A 
ATOM     30  C   UNL     1      -5.205  -4.052  -2.910  1.00  0.00     0.014 A 
ATOM     31  C   UNL     1      -4.558  -5.910  -4.876  1.00  0.00     0.010 A 
ATOM     32  C   UNL     1      -5.346  -5.408  -2.649  1.00  0.00     0.010 A 
ATOM     33  C   UNL     1      -5.066  -6.351  -3.646  1.00  0.00    -0.014 A 
BRANCH  33  34
ATOM     34  C   UNL     1      -5.410  -7.775  -3.393  1.00  0.00     0.031 A 
ATOM     35  C   UNL     1      -6.828  -8.138  -3.026  1.00  0.00     0.074 A 
ATOM     36  C   UNL     1      -4.449  -8.719  -3.421  1.00  0.00     0.049 A 
ATOM     37  N   UNL     1      -7.317  -9.284  -2.630  1.00  0.00    -0.248 NA
ATOM     38  C   UNL     1      -7.819  -7.048  -3.062  1.00  0.00     0.031 C 
ATOM     39  C   UNL     1      -3.037  -8.483  -3.729  1.00  0.00     0.029 A 
ATOM     40  N   UNL     1      -4.513 -10.067  -3.177  1.00  0.00    -0.354 N 
ATOM     41  C   UNL     1      -8.658  -9.044  -2.341  1.00  0.00     0.074 A 
ATOM     42  C   UNL     1      -8.880  -7.628  -2.526  1.00  0.00     0.031 C 
ATOM     43  C   UNL     1      -2.377  -9.652  -3.689  1.00  0.00     0.029 A 
ATOM     44  C   UNL     1      -3.303 -10.710  -3.298  1.00  0.00     0.049 A 
ATOM     45  H   UNL     1      -5.348 -10.532  -2.938  1.00  0.00     0.167 HD
ATOM     46  C   UNL     1      -9.623  -9.928  -1.989  1.00  0.00     0.034 A 
ATOM     47  C   UNL     1      -2.977 -12.003  -3.103  1.00  0.00     0.034 A 
ATOM     48  C   UNL     1      -9.387 -11.342  -1.847  1.00  0.00     0.049 A 
ATOM     49  C   UNL     1      -4.064 -12.969  -2.700  1.00  0.00     0.074 A 
ATOM     50  C   UNL     1     -10.294 -12.343  -1.550  1.00  0.00     0.029 A 
ATOM     51  N   UNL     1      -8.149 -11.958  -1.993  1.00  0.00    -0.354 N 
ATOM     52  N   UNL     1      -5.336 -12.733  -2.469  1.00  0.00    -0.248 NA
ATOM     53  C   UNL     1      -3.675 -14.375  -2.546  1.00  0.00     0.031 C 
ATOM     54  C   UNL     1      -9.596 -13.550  -1.445  1.00  0.00     0.029 A 
ATOM     55  C   UNL     1      -8.267 -13.320  -1.764  1.00  0.00     0.049 A 
ATOM     56  H   UNL     1      -7.312 -11.495  -2.224  1.00  0.00     0.167 HD
ATOM     57  C   UNL     1      -5.904 -13.972  -2.181  1.00  0.00     0.074 A 
ATOM     58  C   UNL     1      -4.839 -14.948  -2.281  1.00  0.00     0.031 C 
ATOM     59  C   UNL     1      -7.190 -14.278  -1.867  1.00  0.00     0.034 A 
BRANCH  46  60
ATOM     60  C   UNL     1     -11.007  -9.381  -1.720  1.00  0.00     0.023 A 
ATOM     61  C   UNL     1     -11.743  -8.704  -2.709  1.00  0.00     0.031 A 
ATOM     62  C   UNL     1     -11.586  -9.504  -0.444  1.00  0.00     0.131 A 
ATOM     63  C   UNL     1     -12.968  -8.102  -2.386  1.00  0.00     0.055 A 
ATOM     64  C   UNL     1     -12.850  -8.984  -0.155  1.00  0.00     0.041 A 
ATOM     65  F   UNL     1     -10.926 -10.117   0.551  1.00  0.00    -0.206 F 
ATOM     66  C   UNL     1     -13.541  -8.262  -1.123  1.00  0.00     0.022 A 
BRANCH  63  67
ATOM     67  S   UNL     1     -13.718  -6.970  -3.588  1.00  0.00     0.124 S 
ATOM     68  O   UNL     1     -12.664  -5.971  -3.747  1.00  0.00    -0.237 OA
ATOM     69  O   UNL     1     -13.954  -7.839  -4.735  1.00  0.00    -0.237 OA
ATOM     70  O   UNL     1     -14.920  -6.494  -2.907  1.00  0.00    -0.744 OA
ENDBRANCH  63  67
ENDBRANCH  46  60
BRANCH  47  71
ATOM     71  C   UNL     1      -1.571 -12.466  -3.285  1.00  0.00     0.023 A 
ATOM     72  C   UNL     1      -1.242 -13.400  -4.280  1.00  0.00     0.031 A 
ATOM     73  C   UNL     1      -0.540 -12.015  -2.441  1.00  0.00     0.131 A 
ATOM     74  C   UNL     1       0.069 -13.895  -4.372  1.00  0.00     0.055 A 
ATOM     75  C   UNL     1       0.774 -12.465  -2.574  1.00  0.00     0.041 A 
ATOM     76  F   UNL     1      -0.796 -11.116  -1.477  1.00  0.00    -0.206 F 
ATOM     77  C   UNL     1       1.082 -13.423  -3.535  1.00  0.00     0.022 A 
BRANCH  74  78
ATOM     78  S   UNL     1       0.409 -15.239  -5.540  1.00  0.00     0.124 S 
ATOM     79  O   UNL     1      -0.527 -16.264  -5.093  1.00  0.00    -0.237 OA
ATOM     80  O   UNL     1       0.108 -14.609  -6.821  1.00  0.00    -0.237 OA
ATOM     81  O   UNL     1       1.821 -15.539  -5.311  1.00  0.00    -0.744 OA
ENDBRANCH  74  78
ENDBRANCH  47  71
BRANCH  59  82
ATOM     82  C   UNL     1      -7.521 -15.737  -1.670  1.00  0.00     0.023 A 
ATOM     83  C   UNL     1      -6.982 -16.485  -0.610  1.00  0.00     0.031 A 
ATOM     84  C   UNL     1      -8.386 -16.390  -2.567  1.00  0.00     0.131 A 
ATOM     85  C   UNL     1      -7.262 -17.856  -0.509  1.00  0.00     0.055 A 
ATOM     86  C   UNL     1      -8.718 -17.737  -2.420  1.00  0.00     0.041 A 
ATOM     87  F   UNL     1      -8.928 -15.726  -3.600  1.00  0.00    -0.206 F 
ATOM     88  C   UNL     1      -8.143 -18.482  -1.395  1.00  0.00     0.022 A 
BRANCH  85  89
ATOM     89  S   UNL     1      -6.373 -18.835   0.731  1.00  0.00     0.124 S 
ATOM     90  O   UNL     1      -4.981 -18.590   0.369  1.00  0.00    -0.237 OA
ATOM     91  O   UNL     1      -6.821 -18.235   1.983  1.00  0.00    -0.237 OA
ATOM     92  O   UNL     1      -6.845 -20.198   0.494  1.00  0.00    -0.744 OA
ENDBRANCH  85  89
ENDBRANCH  59  82
ENDBRANCH  33  34
ENDBRANCH  25  28
ENDBRANCH  23  24
ENDBRANCH  22  23
ENDBRANCH   1  22
TORSDOF 18
