REMARK SMILES O=C(NCCCNC(=O)[C@H]1N=c2ccccc2=C1C[NH2+]CCc1ccccc1)c1ccc(-c2c3nc(c(-c4cc(S(=O)(=O)[O-])ccc4F)c4ccc([nH]4)c(-c4cc(S(=O)(=O)[O-])ccc4F)c4nc(c(-c5cc(S(=O)(=O)[O-])ccc5F)c5ccc2[nH]5)C=C4)C=C3)cc1
REMARK SMILES IDX 6 1 5 2 4 3 3 4 1 5 2 6 29 8 30 9 91 10 31 11 90 12 32 13
REMARK SMILES IDX 33 14 34 15 84 16 35 17 89 18 83 19 85 20 36 21 88 22 82 23
REMARK SMILES IDX 81 24 37 26 69 27 49 28 68 29 50 30 53 31 67 32 86 33 51 34
REMARK SMILES IDX 52 35 66 37 87 38 54 39 38 40 39 41 47 42 40 43 46 44 48 45
REMARK SMILES IDX 45 46 41 47 42 48 43 49 44 50 70 51 71 52 79 53 72 54 78 55
REMARK SMILES IDX 80 56 77 57 73 58 74 59 75 60 76 61 55 62 56 63 64 64 57 65
REMARK SMILES IDX 63 66 65 67 62 68 58 69 59 70 60 71 61 72 7 73 8 74 9 76
REMARK SMILES IDX 10 77 11 78 18 79 12 80 17 81 13 82 16 83 14 84 15 85 19 86
REMARK SMILES IDX 20 87 21 90 22 91 23 92 24 93 28 94 25 95 27 96 26 97
REMARK H PARENT 3 7 85 25 53 36 7 75 20 88 20 89
REMARK Flexibility Score: inf
ROOT
ATOM      1  C   UNL     1       4.201   2.703   2.735  1.00  0.00     0.117 C 
ENDROOT
BRANCH   1   2
ATOM      2  C   UNL     1       4.780   2.205   1.408  1.00  0.00     0.042 C 
BRANCH   2   3
ATOM      3  C   UNL     1       4.470   0.738   1.088  1.00  0.00     0.118 C 
BRANCH   3   4
ATOM      4  N   UNL     1       3.041   0.478   0.981  1.00  0.00    -0.352 N 
ATOM      5  O   UNL     1       1.065   0.047   0.017  1.00  0.00    -0.269 OA
ATOM      6  C   UNL     1       2.292  -0.011  -0.058  1.00  0.00     0.251 C 
ATOM      7  H   UNL     1       2.525   0.688   1.793  1.00  0.00     0.163 HD
BRANCH   6   8
ATOM      8  C   UNL     1       2.920  -0.613  -1.257  1.00  0.00     0.039 A 
ATOM      9  C   UNL     1       2.330  -0.384  -2.506  1.00  0.00     0.014 A 
ATOM     10  C   UNL     1       4.013  -1.479  -1.158  1.00  0.00     0.014 A 
ATOM     11  C   UNL     1       2.844  -1.000  -3.652  1.00  0.00     0.010 A 
ATOM     12  C   UNL     1       4.559  -2.049  -2.309  1.00  0.00     0.010 A 
ATOM     13  C   UNL     1       3.969  -1.833  -3.564  1.00  0.00    -0.014 A 
BRANCH  13  14
ATOM     14  C   UNL     1       4.526  -2.516  -4.762  1.00  0.00     0.031 A 
ATOM     15  C   UNL     1       4.479  -4.016  -4.860  1.00  0.00     0.074 A 
ATOM     16  C   UNL     1       5.131  -1.799  -5.728  1.00  0.00     0.049 A 
ATOM     17  N   UNL     1       5.005  -4.801  -5.765  1.00  0.00    -0.248 NA
ATOM     18  C   UNL     1       3.765  -4.730  -3.789  1.00  0.00     0.031 C 
ATOM     19  C   UNL     1       5.250  -0.343  -5.736  1.00  0.00     0.029 A 
ATOM     20  N   UNL     1       5.779  -2.196  -6.873  1.00  0.00    -0.354 N 
ATOM     21  C   UNL     1       4.712  -6.098  -5.358  1.00  0.00     0.074 A 
ATOM     22  C   UNL     1       3.995  -5.996  -4.107  1.00  0.00     0.031 C 
ATOM     23  C   UNL     1       5.922   0.034  -6.834  1.00  0.00     0.029 A 
ATOM     24  C   UNL     1       6.333  -1.154  -7.581  1.00  0.00     0.049 A 
ATOM     25  H   UNL     1       5.839  -3.135  -7.160  1.00  0.00     0.167 HD
ATOM     26  C   UNL     1       5.002  -7.263  -5.983  1.00  0.00     0.034 A 
ATOM     27  C   UNL     1       7.104  -1.151  -8.690  1.00  0.00     0.034 A 
ATOM     28  C   UNL     1       5.680  -7.344  -7.251  1.00  0.00     0.049 A 
ATOM     29  C   UNL     1       7.433  -2.461  -9.361  1.00  0.00     0.074 A 
ATOM     30  C   UNL     1       5.926  -8.472  -8.012  1.00  0.00     0.029 A 
ATOM     31  N   UNL     1       6.223  -6.269  -7.941  1.00  0.00    -0.354 N 
ATOM     32  N   UNL     1       7.068  -3.674  -9.018  1.00  0.00    -0.248 NA
ATOM     33  C   UNL     1       8.272  -2.411 -10.567  1.00  0.00     0.031 C 
ATOM     34  C   UNL     1       6.683  -8.093  -9.120  1.00  0.00     0.029 A 
ATOM     35  C   UNL     1       6.844  -6.716  -9.095  1.00  0.00     0.049 A 
ATOM     36  H   UNL     1       6.173  -5.329  -7.652  1.00  0.00     0.167 HD
ATOM     37  C   UNL     1       7.617  -4.528  -9.971  1.00  0.00     0.074 A 
ATOM     38  C   UNL     1       8.323  -3.691 -10.918  1.00  0.00     0.031 C 
ATOM     39  C   UNL     1       7.542  -5.881 -10.046  1.00  0.00     0.034 A 
BRANCH  26  40
ATOM     40  C   UNL     1       4.586  -8.561  -5.335  1.00  0.00     0.023 A 
ATOM     41  C   UNL     1       5.565  -9.504  -4.968  1.00  0.00     0.031 A 
ATOM     42  C   UNL     1       3.234  -8.922  -5.206  1.00  0.00     0.131 A 
ATOM     43  C   UNL     1       5.178 -10.772  -4.518  1.00  0.00     0.055 A 
ATOM     44  C   UNL     1       2.853 -10.172  -4.715  1.00  0.00     0.041 A 
ATOM     45  F   UNL     1       2.262  -8.062  -5.550  1.00  0.00    -0.206 F 
ATOM     46  C   UNL     1       3.827 -11.108  -4.382  1.00  0.00     0.022 A 
BRANCH  43  47
ATOM     47  S   UNL     1       6.406 -12.058  -4.162  1.00  0.00     0.124 S 
ATOM     48  O   UNL     1       6.148 -12.335  -2.750  1.00  0.00    -0.237 OA
ATOM     49  O   UNL     1       6.014 -13.119  -5.086  1.00  0.00    -0.237 OA
ATOM     50  O   UNL     1       7.683 -11.414  -4.445  1.00  0.00    -0.744 OA
ENDBRANCH  43  47
ENDBRANCH  26  40
BRANCH  27  51
ATOM     51  C   UNL     1       7.564   0.159  -9.237  1.00  0.00     0.023 A 
ATOM     52  C   UNL     1       8.394   1.008  -8.479  1.00  0.00     0.031 A 
ATOM     53  C   UNL     1       7.061   0.643 -10.456  1.00  0.00     0.131 A 
ATOM     54  C   UNL     1       8.619   2.323  -8.906  1.00  0.00     0.055 A 
ATOM     55  C   UNL     1       7.350   1.930 -10.912  1.00  0.00     0.041 A 
ATOM     56  F   UNL     1       6.259  -0.126 -11.208  1.00  0.00    -0.206 F 
ATOM     57  C   UNL     1       8.115   2.785 -10.125  1.00  0.00     0.022 A 
BRANCH  54  58
ATOM     58  S   UNL     1       9.449   3.520  -7.822  1.00  0.00     0.124 S 
ATOM     59  O   UNL     1      10.545   3.989  -8.667  1.00  0.00    -0.237 OA
ATOM     60  O   UNL     1       8.381   4.490  -7.582  1.00  0.00    -0.237 OA
ATOM     61  O   UNL     1       9.840   2.728  -6.665  1.00  0.00    -0.744 OA
ENDBRANCH  54  58
ENDBRANCH  27  51
BRANCH  39  62
ATOM     62  C   UNL     1       8.240  -6.594 -11.180  1.00  0.00     0.023 A 
ATOM     63  C   UNL     1       7.490  -7.351 -12.102  1.00  0.00     0.031 A 
ATOM     64  C   UNL     1       9.641  -6.693 -11.222  1.00  0.00     0.131 A 
ATOM     65  C   UNL     1       8.142  -8.225 -12.981  1.00  0.00     0.055 A 
ATOM     66  C   UNL     1      10.288  -7.527 -12.136  1.00  0.00     0.041 A 
ATOM     67  F   UNL     1      10.399  -5.998 -10.359  1.00  0.00    -0.206 F 
ATOM     68  C   UNL     1       9.537  -8.312 -13.007  1.00  0.00     0.022 A 
BRANCH  65  69
ATOM     69  S   UNL     1       7.202  -9.356 -14.045  1.00  0.00     0.124 S 
ATOM     70  O   UNL     1       7.688  -8.995 -15.375  1.00  0.00    -0.237 OA
ATOM     71  O   UNL     1       7.632 -10.663 -13.558  1.00  0.00    -0.237 OA
ATOM     72  O   UNL     1       5.809  -9.013 -13.780  1.00  0.00    -0.744 OA
ENDBRANCH  65  69
ENDBRANCH  39  62
ENDBRANCH  13  14
ENDBRANCH   6   8
ENDBRANCH   3   4
ENDBRANCH   2   3
ENDBRANCH   1   2
BRANCH   1  73
ATOM     73  N   UNL     1       4.721   1.953   3.861  1.00  0.00    -0.354 N 
ATOM     74  C   UNL     1       5.859   2.090   4.589  1.00  0.00     0.249 C 
ATOM     75  H   UNL     1       4.144   1.209   4.151  1.00  0.00     0.163 HD
ATOM     76  O   UNL     1       6.226   1.061   5.178  1.00  0.00    -0.272 OA
BRANCH  74  77
ATOM     77  C   UNL     1       6.695   3.386   4.723  1.00  0.00     0.227 C 
ATOM     78  N   UNL     1       6.311   4.498   3.798  1.00  0.00    -0.267 NA
ATOM     79  C   UNL     1       6.681   4.005   6.102  1.00  0.00     0.027 C 
ATOM     80  C   UNL     1       6.248   5.531   4.583  1.00  0.00     0.066 A 
ATOM     81  C   UNL     1       6.481   5.320   6.020  1.00  0.00     0.007 A 
ATOM     82  C   UNL     1       5.960   6.924   4.170  1.00  0.00     0.028 A 
ATOM     83  C   UNL     1       6.462   6.402   6.958  1.00  0.00     0.010 A 
ATOM     84  C   UNL     1       5.968   7.899   5.097  1.00  0.00     0.002 A 
ATOM     85  C   UNL     1       6.230   7.644   6.504  1.00  0.00     0.001 A 
BRANCH  79  86
ATOM     86  C   UNL     1       6.967   3.213   7.330  1.00  0.00     0.296 C 
BRANCH  86  87
ATOM     87  N   UNL     1       5.762   2.517   7.750  1.00  0.00    -0.342 N 
ATOM     88  H   UNL     1       5.433   1.943   6.974  1.00  0.00     0.346 HD
ATOM     89  H   UNL     1       5.083   3.229   8.021  1.00  0.00     0.346 HD
BRANCH  87  90
ATOM     90  C   UNL     1       5.964   1.652   8.913  1.00  0.00     0.265 C 
BRANCH  90  91
ATOM     91  C   UNL     1       5.987   2.390  10.265  1.00  0.00     0.097 C 
BRANCH  91  92
ATOM     92  C   UNL     1       4.773   3.265  10.484  1.00  0.00    -0.042 A 
ATOM     93  C   UNL     1       3.499   2.696  10.614  1.00  0.00     0.004 A 
ATOM     94  C   UNL     1       4.898   4.661  10.486  1.00  0.00     0.004 A 
ATOM     95  C   UNL     1       2.369   3.508  10.720  1.00  0.00     0.000 A 
ATOM     96  C   UNL     1       3.767   5.471  10.592  1.00  0.00     0.000 A 
ATOM     97  C   UNL     1       2.503   4.895  10.703  1.00  0.00     0.000 A 
ENDBRANCH  91  92
ENDBRANCH  90  91
ENDBRANCH  87  90
ENDBRANCH  86  87
ENDBRANCH  79  86
ENDBRANCH  74  77
ENDBRANCH   1  73
TORSDOF 18
