REMARK SMILES NC(=O)C[C@H](NC(=O)C1(c2ccccc2)CCN(C(=O)[C@@H]2CCC[NH2+]2)CC1)C(=O)NCCCNC(=O)c1ccc(-c2c3nc(c(-c4cc(S(=O)(=O)[O-])ccc4F)c4ccc([nH]4)c(-c4cc(S(=O)(=O)[O-])ccc4F)c4nc(c(-c5cc(S(=O)(=O)[O-])ccc5F)c5ccc2[nH]5)C=C4)C=C3)cc1
REMARK SMILES IDX 32 1 31 2 30 3 28 4 29 5 5 7 4 8 2 9 1 10 3 13 6 14 7 15
REMARK SMILES IDX 8 17 9 18 16 19 27 20 17 21 26 22 18 23 19 24 20 25 10 26
REMARK SMILES IDX 11 27 15 28 12 29 14 30 13 31 21 32 22 33 25 34 23 35 24 36
REMARK SMILES IDX 33 39 34 40 35 41 36 43 37 44 38 45 99 46 39 47 98 48 40 49
REMARK SMILES IDX 41 50 42 51 92 52 43 53 97 54 91 55 93 56 44 57 96 58 90 59
REMARK SMILES IDX 89 60 45 62 77 63 57 64 76 65 58 66 61 67 75 68 94 69 59 70
REMARK SMILES IDX 60 71 74 73 95 74 62 75 46 76 47 77 55 78 48 79 54 80 56 81
REMARK SMILES IDX 53 82 49 83 50 84 51 85 52 86 78 87 79 88 87 89 80 90 86 91
REMARK SMILES IDX 88 92 85 93 81 94 82 95 83 96 84 97 63 98 64 99 72 100
REMARK SMILES IDX 65 101 71 102 73 103 70 104 66 105 67 106 68 107 69 108
REMARK H PARENT 30 6 1 11 1 12 6 16 25 37 25 38 34 42 93 61 61 72
REMARK Flexibility Score: inf
ROOT
ATOM      1  C   UNL     1       3.358   4.730   1.682  1.00  0.00     0.042 C 
ENDROOT
BRANCH   1   2
ATOM      2  C   UNL     1       3.748   3.267   1.743  1.00  0.00     0.117 C 
BRANCH   2   3
ATOM      3  N   UNL     1       3.632   2.682   3.063  1.00  0.00    -0.354 N 
ATOM      4  C   UNL     1       3.102   1.494   3.455  1.00  0.00     0.243 C 
ATOM      5  O   UNL     1       3.503   1.023   4.526  1.00  0.00    -0.273 OA
ATOM      6  H   UNL     1       3.995   3.234   3.793  1.00  0.00     0.163 HD
BRANCH   4   7
ATOM      7  C   UNL     1       2.119   0.683   2.585  1.00  0.00     0.180 C 
BRANCH   7   8
ATOM      8  C   UNL     1       2.807  -0.273   1.609  1.00  0.00     0.134 C 
BRANCH   8   9
ATOM      9  C   UNL     1       3.490   0.374   0.436  1.00  0.00     0.220 C 
ATOM     10  N   UNL     1       2.676   0.803  -0.568  1.00  0.00    -0.370 N 
ATOM     11  H   UNL     1       3.062   1.236  -1.364  1.00  0.00     0.159 HD
ATOM     12  H   UNL     1       1.701   0.681  -0.498  1.00  0.00     0.159 HD
ATOM     13  O   UNL     1       4.703   0.534   0.376  1.00  0.00    -0.275 OA
ENDBRANCH   8   9
ENDBRANCH   7   8
BRANCH   7  14
ATOM     14  N   UNL     1       1.018   1.458   2.012  1.00  0.00    -0.343 N 
ATOM     15  C   UNL     1      -0.284   1.635   2.353  1.00  0.00     0.231 C 
ATOM     16  H   UNL     1       1.278   1.960   1.206  1.00  0.00     0.164 HD
ATOM     17  O   UNL     1      -0.835   2.554   1.731  1.00  0.00    -0.274 OA
BRANCH  15  18
ATOM     18  C   UNL     1      -1.092   0.790   3.398  1.00  0.00     0.077 C 
ATOM     19  C   UNL     1      -0.898  -0.747   3.250  1.00  0.00     0.043 C 
ATOM     20  C   UNL     1      -2.620   1.036   3.084  1.00  0.00     0.043 C 
ATOM     21  C   UNL     1      -1.357  -1.269   1.889  1.00  0.00     0.121 C 
ATOM     22  C   UNL     1      -3.082   0.441   1.752  1.00  0.00     0.121 C 
ATOM     23  N   UNL     1      -2.771  -0.979   1.695  1.00  0.00    -0.337 N 
ATOM     24  C   UNL     1      -3.651  -2.037   1.506  1.00  0.00     0.280 C 
ATOM     25  O   UNL     1      -3.232  -3.201   1.466  1.00  0.00    -0.268 OA
BRANCH  18  26
ATOM     26  C   UNL     1      -0.765   1.301   4.831  1.00  0.00    -0.032 A 
ATOM     27  C   UNL     1      -1.511   2.330   5.441  1.00  0.00     0.005 A 
ATOM     28  C   UNL     1       0.321   0.800   5.570  1.00  0.00     0.005 A 
ATOM     29  C   UNL     1      -1.178   2.841   6.701  1.00  0.00     0.000 A 
ATOM     30  C   UNL     1       0.686   1.343   6.808  1.00  0.00     0.000 A 
ATOM     31  C   UNL     1      -0.064   2.364   7.375  1.00  0.00     0.000 A 
ENDBRANCH  18  26
BRANCH  24  32
ATOM     32  C   UNL     1      -5.167  -1.807   1.336  1.00  0.00     0.272 C 
ATOM     33  C   UNL     1      -5.597  -1.031   0.106  1.00  0.00     0.081 C 
ATOM     34  N   UNL     1      -5.805  -1.169   2.512  1.00  0.00    -0.336 N 
ATOM     35  C   UNL     1      -6.940  -0.464   0.521  1.00  0.00     0.068 C 
ATOM     36  C   UNL     1      -6.800  -0.215   2.013  1.00  0.00     0.261 C 
ATOM     37  H   UNL     1      -5.102  -0.680   3.067  1.00  0.00     0.346 HD
ATOM     38  H   UNL     1      -6.248  -1.871   3.104  1.00  0.00     0.346 HD
ENDBRANCH  24  32
ENDBRANCH  15  18
ENDBRANCH   7  14
ENDBRANCH   4   7
ENDBRANCH   2   3
ENDBRANCH   1   2
BRANCH   1  39
ATOM     39  C   UNL     1       4.218   5.638   2.546  1.00  0.00     0.118 C 
BRANCH  39  40
ATOM     40  N   UNL     1       5.634   5.578   2.201  1.00  0.00    -0.352 N 
ATOM     41  C   UNL     1       6.441   6.475   1.544  1.00  0.00     0.251 C 
ATOM     42  H   UNL     1       6.089   4.753   2.489  1.00  0.00     0.163 HD
ATOM     43  O   UNL     1       7.566   6.124   1.192  1.00  0.00    -0.269 OA
BRANCH  41  44
ATOM     44  C   UNL     1       5.956   7.835   1.229  1.00  0.00     0.039 A 
ATOM     45  C   UNL     1       6.273   8.402  -0.009  1.00  0.00     0.014 A 
ATOM     46  C   UNL     1       5.189   8.554   2.145  1.00  0.00     0.014 A 
ATOM     47  C   UNL     1       5.742   9.647  -0.357  1.00  0.00     0.010 A 
ATOM     48  C   UNL     1       4.567   9.732   1.754  1.00  0.00     0.010 A 
ATOM     49  C   UNL     1       4.839  10.297   0.500  1.00  0.00    -0.014 A 
BRANCH  49  50
ATOM     50  C   UNL     1       4.169  11.566   0.112  1.00  0.00     0.031 A 
ATOM     51  C   UNL     1       4.346  12.800   0.955  1.00  0.00     0.074 A 
ATOM     52  C   UNL     1       3.327  11.578  -0.941  1.00  0.00     0.049 A 
ATOM     53  N   UNL     1       3.765  13.967   0.849  1.00  0.00    -0.248 NA
ATOM     54  C   UNL     1       5.264  12.688   2.098  1.00  0.00     0.031 C 
ATOM     55  C   UNL     1       3.020  10.425  -1.791  1.00  0.00     0.029 A 
ATOM     56  N   UNL     1       2.562  12.588  -1.466  1.00  0.00    -0.354 N 
ATOM     57  C   UNL     1       4.226  14.718   1.927  1.00  0.00     0.074 A 
ATOM     58  C   UNL     1       5.072  13.845   2.711  1.00  0.00     0.031 C 
ATOM     59  C   UNL     1       2.155  10.800  -2.746  1.00  0.00     0.029 A 
ATOM     60  C   UNL     1       1.804  12.202  -2.547  1.00  0.00     0.049 A 
ATOM     61  H   UNL     1       2.556  13.503  -1.104  1.00  0.00     0.167 HD
ATOM     62  C   UNL     1       3.986  16.021   2.218  1.00  0.00     0.034 A 
ATOM     63  C   UNL     1       0.915  12.893  -3.287  1.00  0.00     0.034 A 
ATOM     64  C   UNL     1       3.155  16.877   1.407  1.00  0.00     0.049 A 
ATOM     65  C   UNL     1       0.665  14.339  -2.953  1.00  0.00     0.074 A 
ATOM     66  C   UNL     1       2.912  18.231   1.550  1.00  0.00     0.029 A 
ATOM     67  N   UNL     1       2.417  16.457   0.305  1.00  0.00    -0.354 N 
ATOM     68  N   UNL     1       1.168  15.060  -1.977  1.00  0.00    -0.248 NA
ATOM     69  C   UNL     1      -0.263  15.068  -3.826  1.00  0.00     0.031 C 
ATOM     70  C   UNL     1       1.972  18.612   0.585  1.00  0.00     0.029 A 
ATOM     71  C   UNL     1       1.687  17.515  -0.214  1.00  0.00     0.049 A 
ATOM     72  H   UNL     1       2.414  15.540  -0.054  1.00  0.00     0.167 HD
ATOM     73  C   UNL     1       0.629  16.334  -2.129  1.00  0.00     0.074 A 
ATOM     74  C   UNL     1      -0.220  16.285  -3.303  1.00  0.00     0.031 C 
ATOM     75  C   UNL     1       0.821  17.444  -1.369  1.00  0.00     0.034 A 
BRANCH  62  76
ATOM     76  C   UNL     1       4.612  16.576   3.479  1.00  0.00     0.023 A 
ATOM     77  C   UNL     1       6.006  16.583   3.674  1.00  0.00     0.031 A 
ATOM     78  C   UNL     1       3.805  17.048   4.529  1.00  0.00     0.131 A 
ATOM     79  C   UNL     1       6.540  16.948   4.919  1.00  0.00     0.055 A 
ATOM     80  C   UNL     1       4.349  17.503   5.732  1.00  0.00     0.041 A 
ATOM     81  F   UNL     1       2.467  17.051   4.415  1.00  0.00    -0.206 F 
ATOM     82  C   UNL     1       5.724  17.433   5.942  1.00  0.00     0.022 A 
BRANCH  79  83
ATOM     83  S   UNL     1       8.291  16.597   5.243  1.00  0.00     0.124 S 
ATOM     84  O   UNL     1       8.355  15.159   4.987  1.00  0.00    -0.237 OA
ATOM     85  O   UNL     1       8.967  17.449   4.272  1.00  0.00    -0.237 OA
ATOM     86  O   UNL     1       8.465  16.981   6.642  1.00  0.00    -0.744 OA
ENDBRANCH  79  83
ENDBRANCH  62  76
BRANCH  63  87
ATOM     87  C   UNL     1       0.193  12.220  -4.404  1.00  0.00     0.023 A 
ATOM     88  C   UNL     1       0.430  12.575  -5.741  1.00  0.00     0.031 A 
ATOM     89  C   UNL     1      -0.745  11.204  -4.146  1.00  0.00     0.131 A 
ATOM     90  C   UNL     1      -0.282  11.937  -6.769  1.00  0.00     0.055 A 
ATOM     91  C   UNL     1      -1.416  10.541  -5.174  1.00  0.00     0.041 A 
ATOM     92  F   UNL     1      -0.999  10.819  -2.885  1.00  0.00    -0.206 F 
ATOM     93  C   UNL     1      -1.192  10.913  -6.496  1.00  0.00     0.022 A 
BRANCH  90  94
ATOM     94  S   UNL     1      -0.034  12.496  -8.477  1.00  0.00     0.124 S 
ATOM     95  O   UNL     1      -0.458  13.889  -8.398  1.00  0.00    -0.237 OA
ATOM     96  O   UNL     1       1.395  12.268  -8.666  1.00  0.00    -0.237 OA
ATOM     97  O   UNL     1      -0.910  11.619  -9.252  1.00  0.00    -0.744 OA
ENDBRANCH  90  94
ENDBRANCH  63  87
BRANCH  75  98
ATOM     98  C   UNL     1       0.109  18.701  -1.807  1.00  0.00     0.023 A 
ATOM     99  C   UNL     1      -1.292  18.807  -1.768  1.00  0.00     0.031 A 
ATOM    100  C   UNL     1       0.843  19.803  -2.280  1.00  0.00     0.131 A 
ATOM    101  C   UNL     1      -1.919  19.967  -2.246  1.00  0.00     0.055 A 
ATOM    102  C   UNL     1       0.217  20.980  -2.694  1.00  0.00     0.041 A 
ATOM    103  F   UNL     1       2.183  19.756  -2.344  1.00  0.00    -0.206 F 
ATOM    104  C   UNL     1      -1.172  21.061  -2.691  1.00  0.00     0.022 A 
BRANCH 101 105
ATOM    105  S   UNL     1      -3.728  19.991  -2.371  1.00  0.00     0.124 S 
ATOM    106  O   UNL     1      -3.985  18.861  -3.257  1.00  0.00    -0.237 OA
ATOM    107  O   UNL     1      -4.140  19.819  -0.981  1.00  0.00    -0.237 OA
ATOM    108  O   UNL     1      -4.015  21.305  -2.943  1.00  0.00    -0.744 OA
ENDBRANCH 101 105
ENDBRANCH  75  98
ENDBRANCH  49  50
ENDBRANCH  41  44
ENDBRANCH  39  40
ENDBRANCH   1  39
TORSDOF 19
