REMARK SMILES C[N@@H+]1CC2(CCN(C(=O)c3cc(-c4ccncc4)n[nH]3)CC2)C[C@H]1C(=O)NCCCNC(=O)c1ccc(-c2c3nc(c(-c4cc(S(=O)(=O)[O-])ccc4F)c4ccc([nH]4)c(-c4cc(S(=O)(=O)[O-])ccc4F)c4nc(c(-c5cc(S(=O)(=O)[O-])ccc5F)c5ccc2[nH]5)C=C4)C=C3)cc1
REMARK SMILES IDX 29 1 28 2 27 3 25 4 26 5 24 7 1 8 2 9 3 10 4 12 23 13 5 14
REMARK SMILES IDX 22 15 6 16 21 17 7 18 8 19 9 20 10 21 11 22 20 23 12 24
REMARK SMILES IDX 19 25 13 27 14 28 18 29 15 30 17 31 16 32 30 33 31 34 32 35
REMARK SMILES IDX 33 37 34 38 35 39 96 40 36 41 95 42 37 43 38 44 39 45 89 46
REMARK SMILES IDX 40 47 94 48 88 49 90 50 41 51 93 52 87 53 86 54 42 56 74 57
REMARK SMILES IDX 54 58 73 59 55 60 58 61 72 62 91 63 56 64 57 65 71 67 92 68
REMARK SMILES IDX 59 69 43 70 44 71 52 72 45 73 51 74 53 75 50 76 46 77 47 78
REMARK SMILES IDX 48 79 49 80 75 81 76 82 84 83 77 84 83 85 85 86 82 87 78 88
REMARK SMILES IDX 79 89 80 90 81 91 60 92 61 93 69 94 62 95 68 96 70 97 67 98
REMARK SMILES IDX 63 99 64 100 65 101 66 102
REMARK H PARENT 27 6 2 11 20 26 31 36 90 55 58 66
REMARK Flexibility Score: inf
ROOT
ATOM      1  C   UNL     1      -1.664   4.201  -0.323  1.00  0.00     0.042 C 
ENDROOT
BRANCH   1   2
ATOM      2  C   UNL     1      -0.429   4.548   0.495  1.00  0.00     0.118 C 
BRANCH   2   3
ATOM      3  N   UNL     1      -0.265   3.812   1.721  1.00  0.00    -0.351 N 
ATOM      4  C   UNL     1       0.631   2.826   2.027  1.00  0.00     0.278 C 
ATOM      5  O   UNL     1       0.709   2.513   3.223  1.00  0.00    -0.268 OA
ATOM      6  H   UNL     1      -0.888   4.053   2.443  1.00  0.00     0.163 HD
BRANCH   4   7
ATOM      7  C   UNL     1       1.535   2.103   0.983  1.00  0.00     0.274 C 
ATOM      8  C   UNL     1       0.851   0.037  -0.072  1.00  0.00     0.333 C 
ATOM      9  N   UNL     1       0.723   1.494  -0.086  1.00  0.00    -0.327 N 
ATOM     10  C   UNL     1       1.110   2.077  -1.373  1.00  0.00     0.269 C 
ATOM     11  H   UNL     1      -0.264   1.696   0.071  1.00  0.00     0.348 HD
ATOM     12  C   UNL     1       2.426   2.867  -1.204  1.00  0.00     0.029 C 
ATOM     13  C   UNL     1       2.660   2.900   0.322  1.00  0.00     0.088 C 
ATOM     14  C   UNL     1       2.393   4.319  -1.748  1.00  0.00     0.034 C 
ATOM     15  C   UNL     1       3.562   2.159  -2.000  1.00  0.00     0.034 C 
ATOM     16  C   UNL     1       2.054   4.337  -3.221  1.00  0.00     0.120 C 
ATOM     17  C   UNL     1       3.400   2.296  -3.538  1.00  0.00     0.120 C 
ATOM     18  N   UNL     1       3.124   3.674  -3.949  1.00  0.00    -0.337 N 
ATOM     19  C   UNL     1       3.671   4.196  -5.120  1.00  0.00     0.271 C 
ATOM     20  O   UNL     1       4.221   3.481  -5.958  1.00  0.00    -0.267 OA
BRANCH  19  21
ATOM     21  C   UNL     1       3.565   5.621  -5.309  1.00  0.00     0.123 A 
ATOM     22  C   UNL     1       3.819   6.678  -4.454  1.00  0.00     0.064 A 
ATOM     23  N   UNL     1       3.179   6.209  -6.480  1.00  0.00    -0.272 N 
ATOM     24  C   UNL     1       3.437   7.848  -5.155  1.00  0.00     0.093 A 
ATOM     25  N   UNL     1       3.032   7.545  -6.396  1.00  0.00    -0.175 NA
ATOM     26  H   UNL     1       3.022   5.702  -7.310  1.00  0.00     0.190 HD
BRANCH  24  27
ATOM     27  C   UNL     1       3.435   9.214  -4.646  1.00  0.00     0.005 A 
ATOM     28  C   UNL     1       4.564   9.729  -4.007  1.00  0.00     0.030 A 
ATOM     29  C   UNL     1       2.297  10.013  -4.762  1.00  0.00     0.030 A 
ATOM     30  C   UNL     1       4.507  11.022  -3.516  1.00  0.00     0.111 A 
ATOM     31  C   UNL     1       2.336  11.289  -4.225  1.00  0.00     0.111 A 
ATOM     32  N   UNL     1       3.417  11.812  -3.605  1.00  0.00    -0.265 NA
ENDBRANCH  24  27
ENDBRANCH  19  21
ENDBRANCH   4   7
ENDBRANCH   2   3
ENDBRANCH   1   2
BRANCH   1  33
ATOM     33  C   UNL     1      -2.753   5.264  -0.263  1.00  0.00     0.118 C 
BRANCH  33  34
ATOM     34  N   UNL     1      -2.346   6.527  -0.879  1.00  0.00    -0.352 N 
ATOM     35  C   UNL     1      -2.908   7.263  -1.897  1.00  0.00     0.251 C 
ATOM     36  H   UNL     1      -1.526   6.918  -0.500  1.00  0.00     0.163 HD
ATOM     37  O   UNL     1      -2.279   8.220  -2.344  1.00  0.00    -0.269 OA
BRANCH  35  38
ATOM     38  C   UNL     1      -4.226   6.907  -2.475  1.00  0.00     0.039 A 
ATOM     39  C   UNL     1      -4.449   7.120  -3.841  1.00  0.00     0.014 A 
ATOM     40  C   UNL     1      -5.253   6.389  -1.686  1.00  0.00     0.014 A 
ATOM     41  C   UNL     1      -5.664   6.739  -4.422  1.00  0.00     0.010 A 
ATOM     42  C   UNL     1      -6.419   5.918  -2.280  1.00  0.00     0.010 A 
ATOM     43  C   UNL     1      -6.643   6.093  -3.653  1.00  0.00    -0.014 A 
BRANCH  43  44
ATOM     44  C   UNL     1      -7.925   5.617  -4.237  1.00  0.00     0.031 A 
ATOM     45  C   UNL     1      -9.229   6.156  -3.712  1.00  0.00     0.074 A 
ATOM     46  C   UNL     1      -7.924   4.633  -5.157  1.00  0.00     0.049 A 
ATOM     47  N   UNL     1     -10.452   5.752  -3.941  1.00  0.00    -0.248 NA
ATOM     48  C   UNL     1      -9.132   7.270  -2.758  1.00  0.00     0.031 C 
ATOM     49  C   UNL     1      -6.731   3.998  -5.721  1.00  0.00     0.029 A 
ATOM     50  N   UNL     1      -8.966   3.983  -5.769  1.00  0.00    -0.354 N 
ATOM     51  C   UNL     1     -11.267   6.534  -3.129  1.00  0.00     0.074 A 
ATOM     52  C   UNL     1     -10.387   7.387  -2.356  1.00  0.00     0.031 C 
ATOM     53  C   UNL     1      -7.108   3.070  -6.616  1.00  0.00     0.029 A 
ATOM     54  C   UNL     1      -8.565   3.009  -6.654  1.00  0.00     0.049 A 
ATOM     55  H   UNL     1      -9.911   4.193  -5.592  1.00  0.00     0.167 HD
ATOM     56  C   UNL     1     -12.622   6.558  -3.051  1.00  0.00     0.034 A 
ATOM     57  C   UNL     1      -9.291   2.157  -7.402  1.00  0.00     0.034 A 
ATOM     58  C   UNL     1     -13.483   5.725  -3.855  1.00  0.00     0.049 A 
ATOM     59  C   UNL     1     -10.793   2.200  -7.309  1.00  0.00     0.074 A 
ATOM     60  C   UNL     1     -14.866   5.699  -3.905  1.00  0.00     0.029 A 
ATOM     61  N   UNL     1     -13.038   4.767  -4.759  1.00  0.00    -0.354 N 
ATOM     62  N   UNL     1     -11.552   2.954  -6.549  1.00  0.00    -0.248 NA
ATOM     63  C   UNL     1     -11.533   1.279  -8.180  1.00  0.00     0.031 C 
ATOM     64  C   UNL     1     -15.257   4.698  -4.803  1.00  0.00     0.029 A 
ATOM     65  C   UNL     1     -14.118   4.136  -5.358  1.00  0.00     0.049 A 
ATOM     66  H   UNL     1     -12.093   4.566  -4.946  1.00  0.00     0.167 HD
ATOM     67  C   UNL     1     -12.862   2.615  -6.869  1.00  0.00     0.074 A 
ATOM     68  C   UNL     1     -12.788   1.593  -7.894  1.00  0.00     0.031 C 
ATOM     69  C   UNL     1     -14.022   3.109  -6.367  1.00  0.00     0.034 A 
BRANCH  56  70
ATOM     70  C   UNL     1     -13.233   7.501  -2.039  1.00  0.00     0.023 A 
ATOM     71  C   UNL     1     -13.021   8.890  -2.109  1.00  0.00     0.031 A 
ATOM     72  C   UNL     1     -13.962   7.005  -0.945  1.00  0.00     0.131 A 
ATOM     73  C   UNL     1     -13.425   9.715  -1.050  1.00  0.00     0.055 A 
ATOM     74  C   UNL     1     -14.450   7.846   0.058  1.00  0.00     0.041 A 
ATOM     75  F   UNL     1     -14.185   5.688  -0.812  1.00  0.00    -0.206 F 
ATOM     76  C   UNL     1     -14.161   9.207   0.022  1.00  0.00     0.022 A 
BRANCH  73  77
ATOM     77  S   UNL     1     -12.800  11.418  -1.000  1.00  0.00     0.124 S 
ATOM     78  O   UNL     1     -11.355  11.200  -1.019  1.00  0.00    -0.237 OA
ATOM     79  O   UNL     1     -13.375  12.000  -2.206  1.00  0.00    -0.237 OA
ATOM     80  O   UNL     1     -13.326  11.940   0.260  1.00  0.00    -0.744 OA
ENDBRANCH  73  77
ENDBRANCH  56  70
BRANCH  57  81
ATOM     81  C   UNL     1      -8.612   1.195  -8.310  1.00  0.00     0.023 A 
ATOM     82  C   UNL     1      -8.676   1.362  -9.702  1.00  0.00     0.031 A 
ATOM     83  C   UNL     1      -7.897   0.096  -7.805  1.00  0.00     0.131 A 
ATOM     84  C   UNL     1      -8.061   0.426 -10.546  1.00  0.00     0.055 A 
ATOM     85  C   UNL     1      -7.256  -0.814  -8.649  1.00  0.00     0.041 A 
ATOM     86  F   UNL     1      -7.796  -0.097  -6.480  1.00  0.00    -0.206 F 
ATOM     87  C   UNL     1      -7.343  -0.655 -10.029  1.00  0.00     0.022 A 
BRANCH  84  88
ATOM     88  S   UNL     1      -8.243   0.624 -12.340  1.00  0.00     0.124 S 
ATOM     89  O   UNL     1      -9.688   0.510 -12.506  1.00  0.00    -0.237 OA
ATOM     90  O   UNL     1      -7.674   1.950 -12.558  1.00  0.00    -0.237 OA
ATOM     91  O   UNL     1      -7.461  -0.483 -12.885  1.00  0.00    -0.744 OA
ENDBRANCH  84  88
ENDBRANCH  57  81
BRANCH  69  92
ATOM     92  C   UNL     1     -15.298   2.574  -6.963  1.00  0.00     0.023 A 
ATOM     93  C   UNL     1     -15.734   1.261  -6.716  1.00  0.00     0.031 A 
ATOM     94  C   UNL     1     -16.075   3.387  -7.807  1.00  0.00     0.131 A 
ATOM     95  C   UNL     1     -16.892   0.783  -7.346  1.00  0.00     0.055 A 
ATOM     96  C   UNL     1     -17.251   2.921  -8.394  1.00  0.00     0.041 A 
ATOM     97  F   UNL     1     -15.699   4.648  -8.075  1.00  0.00    -0.206 F 
ATOM     98  C   UNL     1     -17.660   1.608  -8.173  1.00  0.00     0.022 A 
BRANCH  95  99
ATOM     99  S   UNL     1     -17.347  -0.960  -7.129  1.00  0.00     0.124 S 
ATOM    100  O   UNL     1     -16.179  -1.648  -7.670  1.00  0.00    -0.237 OA
ATOM    101  O   UNL     1     -17.531  -1.057  -5.685  1.00  0.00    -0.237 OA
ATOM    102  O   UNL     1     -18.569  -1.097  -7.919  1.00  0.00    -0.744 OA
ENDBRANCH  95  99
ENDBRANCH  69  92
ENDBRANCH  43  44
ENDBRANCH  35  38
ENDBRANCH  33  34
ENDBRANCH   1  33
TORSDOF 15
