REMARK SMILES Cc1cc(C)c2c(c1)C=C(C(=O)NCCCNC(=O)c1ccc(-c3c4nc(c(-c5cc(S(=O)(=O)[O-])ccc5F)c5ccc([nH]5)c(-c5cc(S(=O)(=O)[O-])ccc5F)c5nc(c(-c6cc(S(=O)(=O)[O-])ccc6F)c6ccc3[nH]6)C=C5)C=C4)cc1)[C@@H](C(F)(F)F)O2
REMARK SMILES IDX 16 1 15 2 14 3 13 4 11 5 12 6 10 8 1 9 2 10 3 11 8 12 4 13
REMARK SMILES IDX 7 14 5 15 6 16 9 17 88 18 83 19 84 20 85 21 86 22 87 23
REMARK SMILES IDX 17 24 18 25 19 27 20 28 21 29 82 30 22 31 81 32 23 33 24 34
REMARK SMILES IDX 25 35 75 36 26 37 80 38 74 39 76 40 27 41 79 42 73 43 72 44
REMARK SMILES IDX 28 46 60 47 40 48 59 49 41 50 44 51 58 52 77 53 42 54 43 55
REMARK SMILES IDX 57 57 78 58 45 59 29 60 30 61 38 62 31 63 37 64 39 65 36 66
REMARK SMILES IDX 32 67 33 68 34 69 35 70 61 71 62 72 70 73 63 74 69 75 71 76
REMARK SMILES IDX 68 77 64 78 65 79 66 80 67 81 46 82 47 83 55 84 48 85 54 86
REMARK SMILES IDX 56 87 53 88 49 89 50 90 51 91 52 92
REMARK H PARENT 13 7 17 26 76 45 44 56
REMARK Flexibility Score: inf
ROOT
ATOM      1  C   UNL     1       1.089   8.635   7.164  1.00  0.00     0.118 C 
ENDROOT
BRANCH   1   2
ATOM      2  C   UNL     1       0.693   7.190   6.895  1.00  0.00     0.042 C 
BRANCH   2   3
ATOM      3  C   UNL     1      -0.302   7.075   5.751  1.00  0.00     0.118 C 
BRANCH   3   4
ATOM      4  N   UNL     1       0.343   7.188   4.451  1.00  0.00    -0.352 N 
ATOM      5  C   UNL     1       0.643   6.366   3.418  1.00  0.00     0.251 C 
ATOM      6  O   UNL     1       1.203   6.906   2.458  1.00  0.00    -0.270 OA
ATOM      7  H   UNL     1       0.643   8.109   4.276  1.00  0.00     0.163 HD
BRANCH   5   8
ATOM      8  C   UNL     1       0.344   4.906   3.373  1.00  0.00     0.067 C 
ATOM      9  C   UNL     1       1.034  -0.043  -0.268  1.00  0.00     0.044 C 
ATOM     10  C   UNL     1       0.649   0.716   0.968  1.00  0.00    -0.050 A 
ATOM     11  C   UNL     1       0.106   0.048   2.074  1.00  0.00     0.010 A 
ATOM     12  C   UNL     1       0.877   2.097   1.041  1.00  0.00     0.015 A 
ATOM     13  C   UNL     1      -0.217   0.745   3.244  1.00  0.00    -0.008 A 
ATOM     14  C   UNL     1       0.559   2.807   2.202  1.00  0.00     0.018 A 
ATOM     15  C   UNL     1      -0.798   0.030   4.430  1.00  0.00     0.048 C 
ATOM     16  C   UNL     1       0.014   2.125   3.292  1.00  0.00     0.130 A 
ATOM     17  C   UNL     1       0.827   4.236   2.312  1.00  0.00     0.025 C 
ATOM     18  O   UNL     1      -0.268   2.754   4.472  1.00  0.00    -0.475 OA
ATOM     19  C   UNL     1      -0.468   4.187   4.411  1.00  0.00     0.314 C 
BRANCH  19  20
ATOM     20  C   UNL     1      -1.976   4.481   4.294  1.00  0.00     0.429 C 
ATOM     21  F   UNL     1      -2.616   4.144   5.441  1.00  0.00    -0.167 F 
ATOM     22  F   UNL     1      -2.240   5.792   4.081  1.00  0.00    -0.167 F 
ATOM     23  F   UNL     1      -2.566   3.799   3.287  1.00  0.00    -0.167 F 
ENDBRANCH  19  20
ENDBRANCH   5   8
ENDBRANCH   3   4
ENDBRANCH   2   3
ENDBRANCH   1   2
BRANCH   1  24
ATOM     24  N   UNL     1      -0.056   9.437   7.590  1.00  0.00    -0.352 N 
ATOM     25  C   UNL     1      -0.393   9.903   8.835  1.00  0.00     0.251 C 
ATOM     26  H   UNL     1      -0.683   9.680   6.871  1.00  0.00     0.163 HD
ATOM     27  O   UNL     1      -1.542  10.287   9.046  1.00  0.00    -0.269 OA
BRANCH  25  28
ATOM     28  C   UNL     1       0.620   9.939   9.906  1.00  0.00     0.039 A 
ATOM     29  C   UNL     1       0.255   9.612  11.213  1.00  0.00     0.014 A 
ATOM     30  C   UNL     1       1.932  10.320   9.615  1.00  0.00     0.014 A 
ATOM     31  C   UNL     1       1.226   9.604  12.215  1.00  0.00     0.010 A 
ATOM     32  C   UNL     1       2.915  10.211  10.587  1.00  0.00     0.010 A 
ATOM     33  C   UNL     1       2.570   9.868  11.901  1.00  0.00    -0.014 A 
BRANCH  33  34
ATOM     34  C   UNL     1       3.629   9.840  12.936  1.00  0.00     0.031 A 
ATOM     35  C   UNL     1       4.386  11.099  13.257  1.00  0.00     0.074 A 
ATOM     36  C   UNL     1       3.937   8.679  13.545  1.00  0.00     0.049 A 
ATOM     37  N   UNL     1       5.400  11.270  14.064  1.00  0.00    -0.248 NA
ATOM     38  C   UNL     1       3.967  12.323  12.554  1.00  0.00     0.031 C 
ATOM     39  C   UNL     1       3.282   7.393  13.296  1.00  0.00     0.029 A 
ATOM     40  N   UNL     1       4.872   8.393  14.506  1.00  0.00    -0.354 N 
ATOM     41  C   UNL     1       5.737  12.614  13.965  1.00  0.00     0.074 A 
ATOM     42  C   UNL     1       4.875  13.195  12.960  1.00  0.00     0.031 C 
ATOM     43  C   UNL     1       3.798   6.470  14.122  1.00  0.00     0.029 A 
ATOM     44  C   UNL     1       4.854   7.083  14.922  1.00  0.00     0.049 A 
ATOM     45  H   UNL     1       5.497   9.064  14.865  1.00  0.00     0.167 HD
ATOM     46  C   UNL     1       6.656  13.311  14.676  1.00  0.00     0.034 A 
ATOM     47  C   UNL     1       5.603   6.450  15.845  1.00  0.00     0.034 A 
ATOM     48  C   UNL     1       7.493  12.723  15.688  1.00  0.00     0.049 A 
ATOM     49  C   UNL     1       6.658   7.231  16.582  1.00  0.00     0.074 A 
ATOM     50  C   UNL     1       8.442  13.337  16.484  1.00  0.00     0.029 A 
ATOM     51  N   UNL     1       7.477  11.381  16.047  1.00  0.00    -0.354 N 
ATOM     52  N   UNL     1       6.968   8.502  16.474  1.00  0.00    -0.248 NA
ATOM     53  C   UNL     1       7.467   6.493  17.560  1.00  0.00     0.031 C 
ATOM     54  C   UNL     1       9.039  12.359  17.285  1.00  0.00     0.029 A 
ATOM     55  C   UNL     1       8.417  11.145  17.036  1.00  0.00     0.049 A 
ATOM     56  H   UNL     1       6.885  10.699  15.656  1.00  0.00     0.167 HD
ATOM     57  C   UNL     1       7.994   8.721  17.387  1.00  0.00     0.074 A 
ATOM     58  C   UNL     1       8.246   7.452  18.041  1.00  0.00     0.031 C 
ATOM     59  C   UNL     1       8.663   9.869  17.663  1.00  0.00     0.034 A 
BRANCH  46  60
ATOM     60  C   UNL     1       6.793  14.781  14.379  1.00  0.00     0.023 A 
ATOM     61  C   UNL     1       5.744  15.679  14.645  1.00  0.00     0.031 A 
ATOM     62  C   UNL     1       7.974  15.293  13.817  1.00  0.00     0.131 A 
ATOM     63  C   UNL     1       5.874  17.031  14.296  1.00  0.00     0.055 A 
ATOM     64  C   UNL     1       8.125  16.653  13.538  1.00  0.00     0.041 A 
ATOM     65  F   UNL     1       8.999  14.478  13.522  1.00  0.00    -0.206 F 
ATOM     66  C   UNL     1       7.067  17.529  13.768  1.00  0.00     0.022 A 
BRANCH  63  67
ATOM     67  S   UNL     1       4.423  18.107  14.446  1.00  0.00     0.124 S 
ATOM     68  O   UNL     1       3.506  17.499  13.485  1.00  0.00    -0.237 OA
ATOM     69  O   UNL     1       4.064  17.962  15.852  1.00  0.00    -0.237 OA
ATOM     70  O   UNL     1       4.933  19.423  14.065  1.00  0.00    -0.744 OA
ENDBRANCH  63  67
ENDBRANCH  46  60
BRANCH  47  71
ATOM     71  C   UNL     1       5.365   5.010  16.136  1.00  0.00     0.023 A 
ATOM     72  C   UNL     1       4.814   4.612  17.363  1.00  0.00     0.031 A 
ATOM     73  C   UNL     1       5.665   4.015  15.189  1.00  0.00     0.131 A 
ATOM     74  C   UNL     1       4.595   3.250  17.621  1.00  0.00     0.055 A 
ATOM     75  C   UNL     1       5.412   2.665  15.436  1.00  0.00     0.041 A 
ATOM     76  F   UNL     1       6.182   4.348  13.996  1.00  0.00    -0.206 F 
ATOM     77  C   UNL     1       4.878   2.275  16.661  1.00  0.00     0.022 A 
BRANCH  74  78
ATOM     78  S   UNL     1       3.950   2.765  19.245  1.00  0.00     0.124 S 
ATOM     79  O   UNL     1       5.034   3.177  20.130  1.00  0.00    -0.237 OA
ATOM     80  O   UNL     1       2.719   3.544  19.330  1.00  0.00    -0.237 OA
ATOM     81  O   UNL     1       3.761   1.321  19.118  1.00  0.00    -0.744 OA
ENDBRANCH  74  78
ENDBRANCH  47  71
BRANCH  59  82
ATOM     82  C   UNL     1       9.721   9.812  18.732  1.00  0.00     0.023 A 
ATOM     83  C   UNL     1      10.941   9.152  18.517  1.00  0.00     0.031 A 
ATOM     84  C   UNL     1       9.527  10.475  19.956  1.00  0.00     0.131 A 
ATOM     85  C   UNL     1      11.915   9.145  19.526  1.00  0.00     0.055 A 
ATOM     86  C   UNL     1      10.518  10.506  20.937  1.00  0.00     0.041 A 
ATOM     87  F   UNL     1       8.378  11.124  20.206  1.00  0.00    -0.206 F 
ATOM     88  C   UNL     1      11.718   9.834  20.726  1.00  0.00     0.022 A 
BRANCH  85  89
ATOM     89  S   UNL     1      13.434   8.191  19.262  1.00  0.00     0.124 S 
ATOM     90  O   UNL     1      12.922   6.827  19.176  1.00  0.00    -0.237 OA
ATOM     91  O   UNL     1      13.951   8.758  18.021  1.00  0.00    -0.237 OA
ATOM     92  O   UNL     1      14.231   8.481  20.453  1.00  0.00    -0.744 OA
ENDBRANCH  85  89
ENDBRANCH  59  82
ENDBRANCH  33  34
ENDBRANCH  25  28
ENDBRANCH   1  24
TORSDOF 14
