REMARK SMILES CCCC[C@H](C(=O)NCCCNC(=O)c1ccc(-c2c3nc(c(-c4cc(S(=O)(=O)[O-])ccc4F)c4ccc([nH]4)c(-c4cc(S(=O)(=O)[O-])ccc4F)c4nc(c(-c5cc(S(=O)(=O)[O-])ccc5F)c5ccc2[nH]5)C=C4)C=C3)cc1)N1C(=O)/C(=C/c2ccc(C)cc2)SC1=S
REMARK SMILES IDX 10 1 9 2 8 3 6 4 7 5 5 7 4 8 3 9 2 10 1 11 78 12 79 13 91 14
REMARK SMILES IDX 80 15 81 16 90 17 92 18 82 19 83 20 84 21 89 22 85 23 88 24
REMARK SMILES IDX 86 25 87 26 11 27 12 28 13 29 14 31 15 32 16 33 77 34 17 35
REMARK SMILES IDX 76 36 18 37 19 38 20 39 70 40 21 41 75 42 69 43 71 44 22 45
REMARK SMILES IDX 74 46 68 47 67 48 23 50 55 51 35 52 54 53 36 54 39 55 53 56
REMARK SMILES IDX 72 57 37 58 38 59 52 61 73 62 40 63 24 64 25 65 33 66 26 67
REMARK SMILES IDX 32 68 34 69 31 70 27 71 28 72 29 73 30 74 56 75 57 76 65 77
REMARK SMILES IDX 58 78 64 79 66 80 63 81 59 82 60 83 61 84 62 85 41 86 42 87
REMARK SMILES IDX 50 88 43 89 49 90 51 91 48 92 44 93 45 94 46 95 47 96
REMARK H PARENT 8 6 12 30 71 49 39 60
REMARK Flexibility Score: inf
ROOT
ATOM      1  C   UNL     1       2.030   4.282   4.419  1.00  0.00     0.042 C 
ENDROOT
BRANCH   1   2
ATOM      2  C   UNL     1       1.128   4.175   3.210  1.00  0.00     0.117 C 
BRANCH   2   3
ATOM      3  N   UNL     1       1.245   2.999   2.399  1.00  0.00    -0.354 N 
ATOM      4  C   UNL     1       0.252   2.464   1.630  1.00  0.00     0.243 C 
ATOM      5  O   UNL     1       0.600   1.657   0.761  1.00  0.00    -0.273 OA
ATOM      6  H   UNL     1       2.115   2.538   2.396  1.00  0.00     0.163 HD
BRANCH   4   7
ATOM      7  C   UNL     1      -1.258   2.840   1.818  1.00  0.00     0.181 C 
BRANCH   7   8
ATOM      8  C   UNL     1      -1.915   2.252   3.094  1.00  0.00     0.036 C 
BRANCH   8   9
ATOM      9  C   UNL     1      -2.390   3.112   4.259  1.00  0.00     0.002 C 
BRANCH   9  10
ATOM     10  C   UNL     1      -3.698   3.868   4.021  1.00  0.00    -0.003 C 
ATOM     11  C   UNL     1      -4.925   2.973   4.010  1.00  0.00     0.004 C 
ENDBRANCH   9  10
ENDBRANCH   8   9
ENDBRANCH   7   8
BRANCH   7  12
ATOM     12  N   UNL     1      -1.711   4.099   1.164  1.00  0.00    -0.280 N 
ATOM     13  C   UNL     1      -2.469   3.972  -0.013  1.00  0.00     0.266 C 
ATOM     14  C   UNL     1      -1.482   5.420   1.507  1.00  0.00     0.149 C 
ATOM     15  O   UNL     1      -2.990   2.965  -0.451  1.00  0.00    -0.268 OA
ATOM     16  C   UNL     1      -2.668   5.315  -0.632  1.00  0.00     0.081 C 
ATOM     17  S   UNL     1      -1.530   6.395   0.051  1.00  0.00    -0.054 SA
ATOM     18  S   UNL     1      -1.337   6.237   2.951  1.00  0.00    -0.052 S 
ATOM     19  C   UNL     1      -3.705   5.643  -1.416  1.00  0.00     0.029 C 
BRANCH  19  20
ATOM     20  C   UNL     1      -4.026   7.047  -1.723  1.00  0.00    -0.024 A 
ATOM     21  C   UNL     1      -5.164   7.620  -1.145  1.00  0.00     0.008 A 
ATOM     22  C   UNL     1      -3.141   7.860  -2.440  1.00  0.00     0.008 A 
ATOM     23  C   UNL     1      -5.378   8.999  -1.228  1.00  0.00     0.004 A 
ATOM     24  C   UNL     1      -3.347   9.240  -2.506  1.00  0.00     0.004 A 
ATOM     25  C   UNL     1      -4.451   9.823  -1.877  1.00  0.00    -0.051 A 
ATOM     26  C   UNL     1      -4.651  11.309  -1.904  1.00  0.00     0.044 C 
ENDBRANCH  19  20
ENDBRANCH   7  12
ENDBRANCH   4   7
ENDBRANCH   2   3
ENDBRANCH   1   2
BRANCH   1  27
ATOM     27  C   UNL     1       3.455   4.671   4.072  1.00  0.00     0.118 C 
BRANCH  27  28
ATOM     28  N   UNL     1       3.572   6.009   3.498  1.00  0.00    -0.352 N 
ATOM     29  C   UNL     1       3.747   7.263   4.037  1.00  0.00     0.251 C 
ATOM     30  H   UNL     1       3.512   6.015   2.515  1.00  0.00     0.163 HD
ATOM     31  O   UNL     1       3.655   8.230   3.281  1.00  0.00    -0.269 OA
BRANCH  29  32
ATOM     32  C   UNL     1       4.004   7.489   5.481  1.00  0.00     0.039 A 
ATOM     33  C   UNL     1       3.568   8.684   6.072  1.00  0.00     0.014 A 
ATOM     34  C   UNL     1       4.716   6.583   6.259  1.00  0.00     0.014 A 
ATOM     35  C   UNL     1       3.781   8.920   7.438  1.00  0.00     0.010 A 
ATOM     36  C   UNL     1       4.806   6.752   7.637  1.00  0.00     0.010 A 
ATOM     37  C   UNL     1       4.358   7.931   8.247  1.00  0.00    -0.014 A 
BRANCH  37  38
ATOM     38  C   UNL     1       4.556   8.098   9.715  1.00  0.00     0.031 A 
ATOM     39  C   UNL     1       5.934   7.922  10.310  1.00  0.00     0.074 A 
ATOM     40  C   UNL     1       3.495   8.288  10.526  1.00  0.00     0.049 A 
ATOM     41  N   UNL     1       6.292   7.795  11.562  1.00  0.00    -0.248 NA
ATOM     42  C   UNL     1       7.049   7.811   9.356  1.00  0.00     0.031 C 
ATOM     43  C   UNL     1       2.104   8.423  10.088  1.00  0.00     0.029 A 
ATOM     44  N   UNL     1       3.419   8.380  11.894  1.00  0.00    -0.354 N 
ATOM     45  C   UNL     1       7.659   7.530  11.541  1.00  0.00     0.074 A 
ATOM     46  C   UNL     1       8.046   7.452  10.148  1.00  0.00     0.031 C 
ATOM     47  C   UNL     1       1.319   8.609  11.162  1.00  0.00     0.029 A 
ATOM     48  C   UNL     1       2.138   8.550  12.367  1.00  0.00     0.049 A 
ATOM     49  H   UNL     1       4.207   8.328  12.481  1.00  0.00     0.167 HD
ATOM     50  C   UNL     1       8.517   7.388  12.583  1.00  0.00     0.034 A 
ATOM     51  C   UNL     1       1.673   8.631  13.629  1.00  0.00     0.034 A 
ATOM     52  C   UNL     1       8.125   7.540  13.963  1.00  0.00     0.049 A 
ATOM     53  C   UNL     1       2.650   8.527  14.772  1.00  0.00     0.074 A 
ATOM     54  C   UNL     1       8.918   7.503  15.097  1.00  0.00     0.029 A 
ATOM     55  N   UNL     1       6.825   7.774  14.396  1.00  0.00    -0.354 N 
ATOM     56  N   UNL     1       3.943   8.301  14.735  1.00  0.00    -0.248 NA
ATOM     57  C   UNL     1       2.105   8.696  16.124  1.00  0.00     0.031 C 
ATOM     58  C   UNL     1       8.093   7.669  16.215  1.00  0.00     0.029 A 
ATOM     59  C   UNL     1       6.794   7.871  15.778  1.00  0.00     0.049 A 
ATOM     60  H   UNL     1       6.041   7.859  13.807  1.00  0.00     0.167 HD
ATOM     61  C   UNL     1       4.369   8.329  16.059  1.00  0.00     0.074 A 
ATOM     62  C   UNL     1       3.199   8.607  16.866  1.00  0.00     0.031 C 
ATOM     63  C   UNL     1       5.615   8.145  16.564  1.00  0.00     0.034 A 
BRANCH  50  64
ATOM     64  C   UNL     1       9.953   7.043  12.262  1.00  0.00     0.023 A 
ATOM     65  C   UNL     1      10.766   7.895  11.493  1.00  0.00     0.031 A 
ATOM     66  C   UNL     1      10.507   5.823  12.690  1.00  0.00     0.131 A 
ATOM     67  C   UNL     1      12.043   7.475  11.093  1.00  0.00     0.055 A 
ATOM     68  C   UNL     1      11.814   5.451  12.367  1.00  0.00     0.041 A 
ATOM     69  F   UNL     1       9.779   4.958  13.414  1.00  0.00    -0.206 F 
ATOM     70  C   UNL     1      12.584   6.270  11.546  1.00  0.00     0.022 A 
BRANCH  67  71
ATOM     71  S   UNL     1      12.917   8.450   9.838  1.00  0.00     0.124 S 
ATOM     72  O   UNL     1      11.987   8.379   8.713  1.00  0.00    -0.237 OA
ATOM     73  O   UNL     1      13.043   9.752  10.481  1.00  0.00    -0.237 OA
ATOM     74  O   UNL     1      14.169   7.721   9.648  1.00  0.00    -0.744 OA
ENDBRANCH  67  71
ENDBRANCH  50  64
BRANCH  51  75
ATOM     75  C   UNL     1       0.218   8.824  13.886  1.00  0.00     0.023 A 
ATOM     76  C   UNL     1      -0.259  10.017  14.451  1.00  0.00     0.031 A 
ATOM     77  C   UNL     1      -0.713   7.811  13.597  1.00  0.00     0.131 A 
ATOM     78  C   UNL     1      -1.623  10.153  14.751  1.00  0.00     0.055 A 
ATOM     79  C   UNL     1      -2.076   7.970  13.852  1.00  0.00     0.041 A 
ATOM     80  F   UNL     1      -0.310   6.655  13.045  1.00  0.00    -0.206 F 
ATOM     81  C   UNL     1      -2.536   9.143  14.445  1.00  0.00     0.022 A 
BRANCH  78  82
ATOM     82  S   UNL     1      -2.175  11.649  15.616  1.00  0.00     0.124 S 
ATOM     83  O   UNL     1      -1.368  11.605  16.830  1.00  0.00    -0.237 OA
ATOM     84  O   UNL     1      -1.836  12.695  14.657  1.00  0.00    -0.237 OA
ATOM     85  O   UNL     1      -3.605  11.421  15.808  1.00  0.00    -0.744 OA
ENDBRANCH  78  82
ENDBRANCH  51  75
BRANCH  63  86
ATOM     86  C   UNL     1       5.773   8.289  18.056  1.00  0.00     0.023 A 
ATOM     87  C   UNL     1       5.226   7.353  18.950  1.00  0.00     0.031 A 
ATOM     88  C   UNL     1       6.471   9.388  18.587  1.00  0.00     0.131 A 
ATOM     89  C   UNL     1       5.341   7.561  20.332  1.00  0.00     0.055 A 
ATOM     90  C   UNL     1       6.628   9.561  19.962  1.00  0.00     0.041 A 
ATOM     91  F   UNL     1       7.012  10.311  17.775  1.00  0.00    -0.206 F 
ATOM     92  C   UNL     1       6.051   8.651  20.843  1.00  0.00     0.022 A 
BRANCH  89  93
ATOM     93  S   UNL     1       4.481   6.428  21.457  1.00  0.00     0.124 S 
ATOM     94  O   UNL     1       3.091   6.582  21.038  1.00  0.00    -0.237 OA
ATOM     95  O   UNL     1       5.103   5.145  21.144  1.00  0.00    -0.237 OA
ATOM     96  O   UNL     1       4.792   6.959  22.783  1.00  0.00    -0.744 OA
ENDBRANCH  89  93
ENDBRANCH  63  86
ENDBRANCH  37  38
ENDBRANCH  29  32
ENDBRANCH  27  28
ENDBRANCH   1  27
TORSDOF 18
