REMARK SMILES CC(C)Cc1ccc(S(=O)(=O)Nc2cnc(N3CCCC3)c(C(=O)NCCCNC(=O)c3ccc(-c4c5nc(c(-c6cc(S(=O)(=O)[O-])ccc6F)c6ccc([nH]6)c(-c6cc(S(=O)(=O)[O-])ccc6F)c6nc(c(-c7cc(S(=O)(=O)[O-])ccc7F)c7ccc4[nH]7)C=C6)C=C5)cc3)c2)cc1
REMARK SMILES IDX 26 1 25 2 23 3 24 4 22 6 13 7 14 8 95 9 15 10 16 11 12 12
REMARK SMILES IDX 9 14 10 15 11 16 8 17 5 18 6 19 97 20 7 21 96 22 4 23 2 24
REMARK SMILES IDX 1 25 3 26 17 27 18 28 21 29 19 30 20 31 27 32 28 33 29 34
REMARK SMILES IDX 30 35 31 37 32 38 33 39 94 40 34 41 93 42 35 43 36 44 37 45
REMARK SMILES IDX 87 46 38 47 92 48 86 49 88 50 39 51 91 52 85 53 84 54 40 56
REMARK SMILES IDX 72 57 52 58 71 59 53 60 56 61 70 62 89 63 54 64 55 65 69 67
REMARK SMILES IDX 90 68 57 69 41 70 42 71 50 72 43 73 49 74 51 75 48 76 44 77
REMARK SMILES IDX 45 78 46 79 47 80 73 81 74 82 82 83 75 84 81 85 83 86 80 87
REMARK SMILES IDX 76 88 77 89 78 90 79 91 58 92 59 93 67 94 60 95 66 96 68 97
REMARK SMILES IDX 65 98 61 99 62 100 63 101 64 102
REMARK H PARENT 25 5 12 13 29 36 88 55 56 66
REMARK Flexibility Score: inf
ROOT
ATOM      1  C   UNL     1      -4.381   1.590   0.142  1.00  0.00     0.118 C 
ENDROOT
BRANCH   1   2
ATOM      2  N   UNL     1      -5.379   0.595  -0.197  1.00  0.00    -0.352 N 
ATOM      3  C   UNL     1      -6.302   0.418  -1.194  1.00  0.00     0.255 C 
ATOM      4  O   UNL     1      -7.056  -0.532  -0.984  1.00  0.00    -0.269 OA
ATOM      5  H   UNL     1      -5.398  -0.142   0.455  1.00  0.00     0.163 HD
BRANCH   3   6
ATOM      6  C   UNL     1      -6.356   1.233  -2.457  1.00  0.00     0.084 A 
ATOM      7  C   UNL     1      -5.466   3.067  -3.745  1.00  0.00     0.068 A 
ATOM      8  C   UNL     1      -5.963   2.452  -4.879  1.00  0.00     0.140 A 
ATOM      9  C   UNL     1      -5.800   2.522  -2.514  1.00  0.00     0.046 A 
ATOM     10  N   UNL     1      -6.627   1.282  -4.860  1.00  0.00    -0.236 NA
ATOM     11  C   UNL     1      -6.808   0.653  -3.668  1.00  0.00     0.141 A 
BRANCH   7  12
ATOM     12  N   UNL     1      -4.654   4.228  -3.939  1.00  0.00    -0.278 N 
ATOM     13  H   UNL     1      -4.923   4.897  -4.609  1.00  0.00     0.180 HD
BRANCH  12  14
ATOM     14  S   UNL     1      -3.235   4.478  -3.038  1.00  0.00     0.261 S 
ATOM     15  O   UNL     1      -3.707   4.936  -1.742  1.00  0.00    -0.201 OA
ATOM     16  O   UNL     1      -2.381   5.313  -3.847  1.00  0.00    -0.201 OA
BRANCH  14  17
ATOM     17  C   UNL     1      -2.348   2.964  -2.724  1.00  0.00     0.087 A 
ATOM     18  C   UNL     1      -1.194   0.606  -1.675  1.00  0.00    -0.048 A 
ATOM     19  C   UNL     1      -0.808   1.861  -1.197  1.00  0.00     0.005 A 
ATOM     20  C   UNL     1      -2.100   0.562  -2.752  1.00  0.00     0.005 A 
ATOM     21  C   UNL     1      -1.382   3.027  -1.710  1.00  0.00     0.022 A 
ATOM     22  C   UNL     1      -2.650   1.733  -3.298  1.00  0.00     0.022 A 
BRANCH  18  23
ATOM     23  C   UNL     1      -0.782  -0.682  -0.983  1.00  0.00     0.038 C 
BRANCH  23  24
ATOM     24  C   UNL     1       0.730  -0.932  -0.779  1.00  0.00    -0.013 C 
ATOM     25  C   UNL     1       1.251  -0.389   0.557  1.00  0.00     0.008 C 
ATOM     26  C   UNL     1       1.011  -2.442  -0.810  1.00  0.00     0.008 C 
ENDBRANCH  23  24
ENDBRANCH  18  23
ENDBRANCH  14  17
ENDBRANCH  12  14
ENDBRANCH   7  12
BRANCH  11  27
ATOM     27  N   UNL     1      -7.386  -0.577  -3.765  1.00  0.00    -0.356 N 
ATOM     28  C   UNL     1      -8.704  -0.888  -3.239  1.00  0.00     0.118 C 
ATOM     29  C   UNL     1      -7.000  -1.523  -4.798  1.00  0.00     0.118 C 
ATOM     30  C   UNL     1      -8.687  -2.411  -3.302  1.00  0.00     0.023 C 
ATOM     31  C   UNL     1      -8.000  -2.676  -4.639  1.00  0.00     0.023 C 
ENDBRANCH  11  27
ENDBRANCH   3   6
ENDBRANCH   1   2
BRANCH   1  32
ATOM     32  C   UNL     1      -4.924   2.562   1.184  1.00  0.00     0.042 C 
BRANCH  32  33
ATOM     33  C   UNL     1      -5.243   1.888   2.518  1.00  0.00     0.118 C 
BRANCH  33  34
ATOM     34  N   UNL     1      -4.055   1.324   3.142  1.00  0.00    -0.352 N 
ATOM     35  C   UNL     1      -3.494   1.590   4.364  1.00  0.00     0.251 C 
ATOM     36  H   UNL     1      -3.583   0.648   2.604  1.00  0.00     0.163 HD
ATOM     37  O   UNL     1      -2.358   1.188   4.599  1.00  0.00    -0.269 OA
BRANCH  35  38
ATOM     38  C   UNL     1      -4.242   2.360   5.380  1.00  0.00     0.039 A 
ATOM     39  C   UNL     1      -3.555   3.303   6.149  1.00  0.00     0.014 A 
ATOM     40  C   UNL     1      -5.603   2.130   5.605  1.00  0.00     0.014 A 
ATOM     41  C   UNL     1      -4.242   4.047   7.109  1.00  0.00     0.010 A 
ATOM     42  C   UNL     1      -6.302   2.922   6.512  1.00  0.00     0.010 A 
ATOM     43  C   UNL     1      -5.626   3.880   7.281  1.00  0.00    -0.014 A 
BRANCH  43  44
ATOM     44  C   UNL     1      -6.371   4.699   8.271  1.00  0.00     0.031 A 
ATOM     45  C   UNL     1      -7.013   4.051   9.465  1.00  0.00     0.074 A 
ATOM     46  C   UNL     1      -6.515   6.020   8.057  1.00  0.00     0.049 A 
ATOM     47  N   UNL     1      -7.720   4.594  10.424  1.00  0.00    -0.248 NA
ATOM     48  C   UNL     1      -6.874   2.592   9.573  1.00  0.00     0.031 C 
ATOM     49  C   UNL     1      -6.007   6.747   6.891  1.00  0.00     0.029 A 
ATOM     50  N   UNL     1      -7.140   6.984   8.804  1.00  0.00    -0.354 N 
ATOM     51  C   UNL     1      -8.119   3.542  11.243  1.00  0.00     0.074 A 
ATOM     52  C   UNL     1      -7.635   2.327  10.623  1.00  0.00     0.031 C 
ATOM     53  C   UNL     1      -6.328   8.045   7.010  1.00  0.00     0.029 A 
ATOM     54  C   UNL     1      -7.082   8.238   8.245  1.00  0.00     0.049 A 
ATOM     55  H   UNL     1      -7.589   6.796   9.660  1.00  0.00     0.167 HD
ATOM     56  C   UNL     1      -8.801   3.589  12.416  1.00  0.00     0.034 A 
ATOM     57  C   UNL     1      -7.579   9.411   8.678  1.00  0.00     0.034 A 
ATOM     58  C   UNL     1      -9.273   4.814  13.019  1.00  0.00     0.049 A 
ATOM     59  C   UNL     1      -8.294   9.453  10.000  1.00  0.00     0.074 A 
ATOM     60  C   UNL     1      -9.922   4.991  14.229  1.00  0.00     0.029 A 
ATOM     61  N   UNL     1      -9.154   6.076  12.448  1.00  0.00    -0.354 N 
ATOM     62  N   UNL     1      -8.599   8.462  10.806  1.00  0.00    -0.248 NA
ATOM     63  C   UNL     1      -8.706  10.776  10.483  1.00  0.00     0.031 C 
ATOM     64  C   UNL     1     -10.243   6.349  14.362  1.00  0.00     0.029 A 
ATOM     65  C   UNL     1      -9.738   7.032  13.268  1.00  0.00     0.049 A 
ATOM     66  H   UNL     1      -8.719   6.265  11.585  1.00  0.00     0.167 HD
ATOM     67  C   UNL     1      -9.235   9.044  11.897  1.00  0.00     0.074 A 
ATOM     68  C   UNL     1      -9.238  10.474  11.658  1.00  0.00     0.031 C 
ATOM     69  C   UNL     1      -9.768   8.451  12.997  1.00  0.00     0.034 A 
BRANCH  56  70
ATOM     70  C   UNL     1      -9.089   2.268  13.094  1.00  0.00     0.023 A 
ATOM     71  C   UNL     1      -8.051   1.413  13.510  1.00  0.00     0.031 A 
ATOM     72  C   UNL     1     -10.410   1.821  13.265  1.00  0.00     0.131 A 
ATOM     73  C   UNL     1      -8.345   0.122  13.973  1.00  0.00     0.055 A 
ATOM     74  C   UNL     1     -10.700   0.569  13.813  1.00  0.00     0.041 A 
ATOM     75  F   UNL     1     -11.446   2.580  12.873  1.00  0.00    -0.206 F 
ATOM     76  C   UNL     1      -9.665  -0.298  14.150  1.00  0.00     0.022 A 
BRANCH  73  77
ATOM     77  S   UNL     1      -6.981  -1.060  14.162  1.00  0.00     0.124 S 
ATOM     78  O   UNL     1      -6.400  -1.057  12.821  1.00  0.00    -0.237 OA
ATOM     79  O   UNL     1      -6.175  -0.446  15.210  1.00  0.00    -0.237 OA
ATOM     80  O   UNL     1      -7.653  -2.303  14.537  1.00  0.00    -0.744 OA
ENDBRANCH  73  77
ENDBRANCH  56  70
BRANCH  57  81
ATOM     81  C   UNL     1      -7.411  10.637   7.852  1.00  0.00     0.023 A 
ATOM     82  C   UNL     1      -6.546  11.668   8.250  1.00  0.00     0.031 A 
ATOM     83  C   UNL     1      -8.114  10.787   6.644  1.00  0.00     0.131 A 
ATOM     84  C   UNL     1      -6.428  12.822   7.459  1.00  0.00     0.055 A 
ATOM     85  C   UNL     1      -7.965  11.920   5.843  1.00  0.00     0.041 A 
ATOM     86  F   UNL     1      -8.939   9.819   6.215  1.00  0.00    -0.206 F 
ATOM     87  C   UNL     1      -7.124  12.950   6.254  1.00  0.00     0.022 A 
BRANCH  84  88
ATOM     88  S   UNL     1      -5.374  14.175   8.048  1.00  0.00     0.124 S 
ATOM     89  O   UNL     1      -6.026  14.537   9.301  1.00  0.00    -0.237 OA
ATOM     90  O   UNL     1      -4.076  13.518   8.166  1.00  0.00    -0.237 OA
ATOM     91  O   UNL     1      -5.470  15.170   6.982  1.00  0.00    -0.744 OA
ENDBRANCH  84  88
ENDBRANCH  57  81
BRANCH  69  92
ATOM     92  C   UNL     1     -10.391   9.370  14.020  1.00  0.00     0.023 A 
ATOM     93  C   UNL     1     -11.550  10.112  13.730  1.00  0.00     0.031 A 
ATOM     94  C   UNL     1      -9.792   9.541  15.280  1.00  0.00     0.131 A 
ATOM     95  C   UNL     1     -12.035  11.043  14.661  1.00  0.00     0.055 A 
ATOM     96  C   UNL     1     -10.314  10.425  16.226  1.00  0.00     0.041 A 
ATOM     97  F   UNL     1      -8.683   8.861  15.608  1.00  0.00    -0.206 F 
ATOM     98  C   UNL     1     -11.432  11.195  15.912  1.00  0.00     0.022 A 
BRANCH  95  99
ATOM     99  S   UNL     1     -13.395  12.137  14.169  1.00  0.00     0.124 S 
ATOM    100  O   UNL     1     -12.864  12.757  12.958  1.00  0.00    -0.237 OA
ATOM    101  O   UNL     1     -14.495  11.198  13.975  1.00  0.00    -0.237 OA
ATOM    102  O   UNL     1     -13.542  13.037  15.311  1.00  0.00    -0.744 OA
ENDBRANCH  95  99
ENDBRANCH  69  92
ENDBRANCH  43  44
ENDBRANCH  35  38
ENDBRANCH  33  34
ENDBRANCH  32  33
ENDBRANCH   1  32
TORSDOF 19
