REMARK SMILES Cc1ccc(S(=O)(=O)n2cc(C(=O)C(=O)N[C@@H](Cc3cnc[nH]3)C(=O)NCCCNC(=O)c3ccc(-c4c5nc(c(-c6cc(S(=O)(=O)[O-])ccc6F)c6ccc([nH]6)c(-c6cc(S(=O)(=O)[O-])ccc6F)c6nc(c(-c7cc(S(=O)(=O)[O-])ccc7F)c7ccc4[nH]7)C=C6)C=C5)cc3)c3ccccc32)cc1
REMARK SMILES IDX 27 1 26 2 24 3 25 4 17 6 16 7 14 8 15 9 12 11 13 12 11 13
REMARK SMILES IDX 9 14 10 15 101 16 96 17 100 18 97 19 99 20 98 21 6 22 7 23
REMARK SMILES IDX 8 24 5 25 1 26 2 27 3 28 103 29 4 30 102 31 18 32 19 33
REMARK SMILES IDX 20 34 23 35 21 36 22 37 28 39 29 40 30 41 31 42 32 44 33 45
REMARK SMILES IDX 34 46 95 47 35 48 94 49 36 50 37 51 38 52 88 53 39 54 93 55
REMARK SMILES IDX 87 56 89 57 40 58 92 59 86 60 85 61 41 63 73 64 53 65 72 66
REMARK SMILES IDX 54 67 57 68 71 69 90 70 55 71 56 72 70 74 91 75 58 76 42 77
REMARK SMILES IDX 43 78 51 79 44 80 50 81 52 82 49 83 45 84 46 85 47 86 48 87
REMARK SMILES IDX 74 88 75 89 83 90 76 91 82 92 84 93 81 94 77 95 78 96 79 97
REMARK SMILES IDX 80 98 59 99 60 100 68 101 61 102 67 103 69 104 66 105 62 106
REMARK SMILES IDX 63 107 64 108 65 109
REMARK H PARENT 26 5 16 10 23 38 30 43 89 62 57 73
REMARK Flexibility Score: inf
ROOT
ATOM      1  C   UNL     1      -8.702   6.371   5.844  1.00  0.00     0.117 C 
ENDROOT
BRANCH   1   2
ATOM      2  N   UNL     1      -7.620   7.080   5.196  1.00  0.00    -0.354 N 
ATOM      3  C   UNL     1      -7.383   7.258   3.863  1.00  0.00     0.242 C 
ATOM      4  O   UNL     1      -6.568   8.129   3.541  1.00  0.00    -0.273 OA
ATOM      5  H   UNL     1      -6.962   7.492   5.801  1.00  0.00     0.163 HD
BRANCH   3   6
ATOM      6  C   UNL     1      -8.096   6.427   2.764  1.00  0.00     0.177 C 
BRANCH   6   7
ATOM      7  N   UNL     1      -7.895   4.981   2.977  1.00  0.00    -0.337 N 
ATOM      8  C   UNL     1      -6.960   4.112   2.435  1.00  0.00     0.293 C 
ATOM      9  O   UNL     1      -6.827   3.009   2.960  1.00  0.00    -0.265 OA
ATOM     10  H   UNL     1      -8.528   4.566   3.606  1.00  0.00     0.164 HD
BRANCH   8  11
ATOM     11  C   UNL     1      -6.131   4.469   1.165  1.00  0.00     0.252 C 
ATOM     12  O   UNL     1      -6.253   5.589   0.682  1.00  0.00    -0.283 OA
BRANCH  11  13
ATOM     13  C   UNL     1      -5.259   3.491   0.477  1.00  0.00     0.054 A 
ATOM     14  N   UNL     1      -4.169   1.634  -0.133  1.00  0.00    -0.240 N 
ATOM     15  C   UNL     1      -4.965   2.186   0.839  1.00  0.00     0.117 A 
ATOM     16  C   UNL     1      -3.913   2.534  -1.145  1.00  0.00     0.065 A 
ATOM     17  C   UNL     1      -4.543   3.725  -0.760  1.00  0.00     0.012 A 
ATOM     18  C   UNL     1      -3.180   2.433  -2.344  1.00  0.00     0.028 A 
ATOM     19  C   UNL     1      -4.396   4.854  -1.598  1.00  0.00     0.011 A 
ATOM     20  C   UNL     1      -3.054   3.570  -3.145  1.00  0.00     0.002 A 
ATOM     21  C   UNL     1      -3.647   4.769  -2.775  1.00  0.00     0.001 A 
BRANCH  14  22
ATOM     22  S   UNL     1      -3.582   0.034  -0.099  1.00  0.00     0.268 S 
ATOM     23  O   UNL     1      -3.915  -0.525  -1.386  1.00  0.00    -0.201 OA
ATOM     24  O   UNL     1      -4.079  -0.548   1.144  1.00  0.00    -0.201 OA
BRANCH  22  25
ATOM     25  C   UNL     1      -1.812   0.085   0.025  1.00  0.00     0.088 A 
ATOM     26  C   UNL     1       2.491  -0.034   0.058  1.00  0.00     0.044 C 
ATOM     27  C   UNL     1       0.991   0.012   0.057  1.00  0.00    -0.051 A 
ATOM     28  C   UNL     1       0.257  -1.173  -0.072  1.00  0.00     0.005 A 
ATOM     29  C   UNL     1       0.308   1.226   0.200  1.00  0.00     0.005 A 
ATOM     30  C   UNL     1      -1.139  -1.138  -0.095  1.00  0.00     0.022 A 
ATOM     31  C   UNL     1      -1.091   1.267   0.195  1.00  0.00     0.022 A 
ENDBRANCH  22  25
ENDBRANCH  14  22
ENDBRANCH  11  13
ENDBRANCH   8  11
ENDBRANCH   6   7
BRANCH   6  32
ATOM     32  C   UNL     1      -9.538   6.862   2.395  1.00  0.00     0.090 C 
BRANCH  32  33
ATOM     33  C   UNL     1     -10.650   6.494   3.321  1.00  0.00     0.037 A 
ATOM     34  C   UNL     1     -11.278   5.291   3.585  1.00  0.00     0.134 A 
ATOM     35  N   UNL     1     -11.257   7.391   4.180  1.00  0.00    -0.348 N 
ATOM     36  N   UNL     1     -12.147   5.412   4.637  1.00  0.00    -0.245 NA
ATOM     37  C   UNL     1     -12.106   6.679   4.985  1.00  0.00     0.196 A 
ATOM     38  H   UNL     1     -11.106   8.364   4.208  1.00  0.00     0.167 HD
ENDBRANCH  32  33
ENDBRANCH   6  32
ENDBRANCH   3   6
ENDBRANCH   1   2
BRANCH   1  39
ATOM     39  C   UNL     1      -8.292   5.172   6.667  1.00  0.00     0.042 C 
BRANCH  39  40
ATOM     40  C   UNL     1      -8.398   5.452   8.149  1.00  0.00     0.118 C 
BRANCH  40  41
ATOM     41  N   UNL     1      -9.737   5.330   8.731  1.00  0.00    -0.352 N 
ATOM     42  C   UNL     1     -10.127   5.531  10.052  1.00  0.00     0.251 C 
ATOM     43  H   UNL     1     -10.454   5.072   8.107  1.00  0.00     0.163 HD
ATOM     44  O   UNL     1     -11.279   5.317  10.415  1.00  0.00    -0.269 OA
BRANCH  42  45
ATOM     45  C   UNL     1      -9.152   6.120  11.002  1.00  0.00     0.039 A 
ATOM     46  C   UNL     1      -9.523   7.266  11.717  1.00  0.00     0.014 A 
ATOM     47  C   UNL     1      -7.819   5.755  10.910  1.00  0.00     0.014 A 
ATOM     48  C   UNL     1      -8.541   8.189  12.067  1.00  0.00     0.010 A 
ATOM     49  C   UNL     1      -6.885   6.749  11.052  1.00  0.00     0.010 A 
ATOM     50  C   UNL     1      -7.248   7.984  11.598  1.00  0.00    -0.014 A 
BRANCH  50  51
ATOM     51  C   UNL     1      -6.201   8.996  11.556  1.00  0.00     0.031 A 
ATOM     52  C   UNL     1      -4.960   8.773  12.330  1.00  0.00     0.074 A 
ATOM     53  C   UNL     1      -6.294  10.018  10.675  1.00  0.00     0.049 A 
ATOM     54  N   UNL     1      -4.066   9.671  12.540  1.00  0.00    -0.248 NA
ATOM     55  C   UNL     1      -4.635   7.497  12.964  1.00  0.00     0.031 C 
ATOM     56  C   UNL     1      -5.224  10.905  10.225  1.00  0.00     0.029 A 
ATOM     57  N   UNL     1      -7.458  10.607  10.179  1.00  0.00    -0.354 N 
ATOM     58  C   UNL     1      -2.960   9.058  13.082  1.00  0.00     0.074 A 
ATOM     59  C   UNL     1      -3.373   7.704  13.346  1.00  0.00     0.031 C 
ATOM     60  C   UNL     1      -5.764  12.047   9.773  1.00  0.00     0.029 A 
ATOM     61  C   UNL     1      -7.186  11.987  10.053  1.00  0.00     0.049 A 
ATOM     62  H   UNL     1      -8.303  10.151   9.960  1.00  0.00     0.167 HD
ATOM     63  C   UNL     1      -1.793   9.755  13.142  1.00  0.00     0.034 A 
ATOM     64  C   UNL     1      -7.879  12.902  10.792  1.00  0.00     0.034 A 
ATOM     65  C   UNL     1      -2.000  11.140  12.725  1.00  0.00     0.049 A 
ATOM     66  C   UNL     1      -7.002  13.682  11.753  1.00  0.00     0.074 A 
ATOM     67  C   UNL     1      -1.788  11.822  11.539  1.00  0.00     0.029 A 
ATOM     68  N   UNL     1      -2.808  11.953  13.509  1.00  0.00    -0.354 N 
ATOM     69  N   UNL     1      -5.786  13.334  12.080  1.00  0.00    -0.248 NA
ATOM     70  C   UNL     1      -7.413  14.918  12.411  1.00  0.00     0.031 C 
ATOM     71  C   UNL     1      -2.539  13.028  11.591  1.00  0.00     0.029 A 
ATOM     72  C   UNL     1      -3.170  13.093  12.822  1.00  0.00     0.049 A 
ATOM     73  H   UNL     1      -3.084  11.744  14.431  1.00  0.00     0.167 HD
ATOM     74  C   UNL     1      -5.254  14.246  12.960  1.00  0.00     0.074 A 
ATOM     75  C   UNL     1      -6.312  15.228  13.121  1.00  0.00     0.031 C 
ATOM     76  C   UNL     1      -3.993  14.101  13.477  1.00  0.00     0.034 A 
BRANCH  63  77
ATOM     77  C   UNL     1      -0.426   9.150  13.350  1.00  0.00     0.023 A 
ATOM     78  C   UNL     1       0.693   9.824  12.818  1.00  0.00     0.031 A 
ATOM     79  C   UNL     1      -0.144   7.935  14.001  1.00  0.00     0.131 A 
ATOM     80  C   UNL     1       1.983   9.266  12.868  1.00  0.00     0.055 A 
ATOM     81  C   UNL     1       1.131   7.353  14.009  1.00  0.00     0.041 A 
ATOM     82  F   UNL     1      -1.069   7.278  14.710  1.00  0.00    -0.206 F 
ATOM     83  C   UNL     1       2.204   8.015  13.433  1.00  0.00     0.022 A 
BRANCH  80  84
ATOM     84  S   UNL     1       3.371  10.207  12.180  1.00  0.00     0.124 S 
ATOM     85  O   UNL     1       2.986  10.346  10.780  1.00  0.00    -0.237 OA
ATOM     86  O   UNL     1       3.347  11.425  12.982  1.00  0.00    -0.237 OA
ATOM     87  O   UNL     1       4.521   9.335  12.419  1.00  0.00    -0.744 OA
ENDBRANCH  80  84
ENDBRANCH  63  77
BRANCH  64  88
ATOM     88  C   UNL     1      -9.305  12.498  10.980  1.00  0.00     0.023 A 
ATOM     89  C   UNL     1     -10.063  12.312   9.800  1.00  0.00     0.031 A 
ATOM     90  C   UNL     1      -9.748  11.860  12.146  1.00  0.00     0.131 A 
ATOM     91  C   UNL     1     -11.093  11.360   9.758  1.00  0.00     0.055 A 
ATOM     92  C   UNL     1     -10.832  10.969  12.117  1.00  0.00     0.041 A 
ATOM     93  F   UNL     1      -9.052  11.964  13.289  1.00  0.00    -0.206 F 
ATOM     94  C   UNL     1     -11.475  10.675  10.911  1.00  0.00     0.022 A 
BRANCH  91  95
ATOM     95  S   UNL     1     -11.719  10.844   8.128  1.00  0.00     0.124 S 
ATOM     96  O   UNL     1     -12.601  11.950   7.772  1.00  0.00    -0.237 OA
ATOM     97  O   UNL     1     -10.499  10.725   7.330  1.00  0.00    -0.237 OA
ATOM     98  O   UNL     1     -12.384   9.570   8.387  1.00  0.00    -0.744 OA
ENDBRANCH  91  95
ENDBRANCH  64  88
BRANCH  76  99
ATOM     99  C   UNL     1      -3.367  14.899  14.611  1.00  0.00     0.023 A 
ATOM    100  C   UNL     1      -4.088  15.748  15.459  1.00  0.00     0.031 A 
ATOM    101  C   UNL     1      -1.991  14.747  14.935  1.00  0.00     0.131 A 
ATOM    102  C   UNL     1      -3.455  16.436  16.514  1.00  0.00     0.055 A 
ATOM    103  C   UNL     1      -1.385  15.360  16.036  1.00  0.00     0.041 A 
ATOM    104  F   UNL     1      -1.165  13.986  14.203  1.00  0.00    -0.206 F 
ATOM    105  C   UNL     1      -2.116  16.224  16.829  1.00  0.00     0.022 A 
BRANCH 102 106
ATOM    106  S   UNL     1      -4.414  17.672  17.427  1.00  0.00     0.124 S 
ATOM    107  O   UNL     1      -4.736  18.635  16.377  1.00  0.00    -0.237 OA
ATOM    108  O   UNL     1      -5.537  16.887  17.931  1.00  0.00    -0.237 OA
ATOM    109  O   UNL     1      -3.482  18.151  18.445  1.00  0.00    -0.744 OA
ENDBRANCH 102 106
ENDBRANCH  76  99
ENDBRANCH  50  51
ENDBRANCH  42  45
ENDBRANCH  40  41
ENDBRANCH  39  40
ENDBRANCH   1  39
TORSDOF 20
