REMARK SMILES O=C(CN1C(=O)/C(=C2/Sc3ccccc3N2CCCS(=O)(=O)[O-])SC1=S)NCCCNC(=O)c1ccc(-c2c3nc(c(-c4cc(S(=O)(=O)[O-])ccc4F)c4ccc([nH]4)c(-c4cc(S(=O)(=O)[O-])ccc4F)c4nc(c(-c5cc(S(=O)(=O)[O-])ccc5F)c5ccc2[nH]5)C=C4)C=C3)cc1
REMARK SMILES IDX 28 1 27 2 1 3 2 4 3 6 4 7 5 8 25 9 6 10 7 11 24 12 26 13
REMARK SMILES IDX 8 14 9 15 16 16 10 17 15 18 11 19 14 20 12 21 13 22 17 23
REMARK SMILES IDX 18 24 19 25 20 26 21 27 22 28 23 29 29 30 30 31 31 32 32 33
REMARK SMILES IDX 33 35 34 36 35 37 96 38 36 39 95 40 37 41 38 42 39 43 89 44
REMARK SMILES IDX 40 45 94 46 88 47 90 48 41 49 93 50 87 51 86 52 42 54 74 55
REMARK SMILES IDX 54 56 73 57 55 58 58 59 72 60 91 61 56 62 57 63 71 65 92 66
REMARK SMILES IDX 59 67 43 68 44 69 52 70 45 71 51 72 53 73 50 74 46 75 47 76
REMARK SMILES IDX 48 77 49 78 75 79 76 80 84 81 77 82 83 83 85 84 82 85 78 86
REMARK SMILES IDX 79 87 80 88 81 89 60 90 61 91 69 92 62 93 68 94 70 95 67 96
REMARK SMILES IDX 63 97 64 98 65 99 66 100
REMARK H PARENT 27 5 31 34 90 53 58 64
REMARK Flexibility Score: inf
ROOT
ATOM      1  C   UNL     1       2.065  -2.511  -0.977  1.00  0.00     0.117 C 
ENDROOT
BRANCH   1   2
ATOM      2  N   UNL     1       2.774  -1.538  -0.161  1.00  0.00    -0.354 N 
ATOM      3  O   UNL     1       0.944  -0.238   0.266  1.00  0.00    -0.273 OA
ATOM      4  C   UNL     1       2.091  -0.578   0.551  1.00  0.00     0.240 C 
ATOM      5  H   UNL     1       3.757  -1.566  -0.117  1.00  0.00     0.163 HD
BRANCH   4   6
ATOM      6  C   UNL     1       2.829   0.095   1.717  1.00  0.00     0.227 C 
BRANCH   6   7
ATOM      7  N   UNL     1       4.111  -0.455   2.182  1.00  0.00    -0.283 N 
ATOM      8  C   UNL     1       5.035   0.438   2.688  1.00  0.00     0.269 C 
ATOM      9  C   UNL     1       4.315  -1.726   2.655  1.00  0.00     0.148 C 
ATOM     10  O   UNL     1       4.727   1.545   3.114  1.00  0.00    -0.268 OA
ATOM     11  C   UNL     1       6.356  -0.207   2.904  1.00  0.00     0.111 C 
ATOM     12  S   UNL     1       6.008  -1.910   3.085  1.00  0.00    -0.052 SA
ATOM     13  S   UNL     1       3.216  -2.962   2.841  1.00  0.00    -0.052 S 
ATOM     14  C   UNL     1       7.583   0.375   2.917  1.00  0.00     0.100 C 
ATOM     15  S   UNL     1       9.008  -0.745   3.146  1.00  0.00    -0.068 SA
ATOM     16  N   UNL     1       8.006   1.723   2.756  1.00  0.00    -0.334 N 
ATOM     17  C   UNL     1      10.111   0.636   3.016  1.00  0.00     0.037 A 
ATOM     18  C   UNL     1       9.428   1.843   2.787  1.00  0.00     0.056 A 
ATOM     19  C   UNL     1      11.492   0.575   3.161  1.00  0.00     0.017 A 
ATOM     20  C   UNL     1      10.183   3.008   2.647  1.00  0.00     0.027 A 
ATOM     21  C   UNL     1      12.228   1.752   3.058  1.00  0.00     0.001 A 
ATOM     22  C   UNL     1      11.577   2.961   2.791  1.00  0.00     0.002 A 
BRANCH  16  23
ATOM     23  C   UNL     1       7.256   2.959   3.011  1.00  0.00     0.124 C 
BRANCH  23  24
ATOM     24  C   UNL     1       6.863   3.724   1.735  1.00  0.00     0.037 C 
BRANCH  24  25
ATOM     25  C   UNL     1       5.419   3.621   1.254  1.00  0.00     0.124 C 
BRANCH  25  26
ATOM     26  S   UNL     1       4.184   4.473   2.244  1.00  0.00     0.095 S 
ATOM     27  O   UNL     1       4.374   5.898   2.116  1.00  0.00    -0.243 OA
ATOM     28  O   UNL     1       2.901   3.840   2.029  1.00  0.00    -0.243 OA
ATOM     29  O   UNL     1       4.643   4.048   3.730  1.00  0.00    -0.748 OA
ENDBRANCH  25  26
ENDBRANCH  24  25
ENDBRANCH  23  24
ENDBRANCH  16  23
ENDBRANCH   6   7
ENDBRANCH   4   6
ENDBRANCH   1   2
BRANCH   1  30
ATOM     30  C   UNL     1       2.464  -2.505  -2.441  1.00  0.00     0.042 C 
BRANCH  30  31
ATOM     31  C   UNL     1       3.953  -2.681  -2.702  1.00  0.00     0.118 C 
BRANCH  31  32
ATOM     32  N   UNL     1       4.519  -3.903  -2.142  1.00  0.00    -0.352 N 
ATOM     33  C   UNL     1       5.216  -4.921  -2.755  1.00  0.00     0.251 C 
ATOM     34  H   UNL     1       4.382  -4.019  -1.173  1.00  0.00     0.163 HD
ATOM     35  O   UNL     1       5.543  -5.909  -2.104  1.00  0.00    -0.269 OA
BRANCH  33  36
ATOM     36  C   UNL     1       5.514  -4.846  -4.201  1.00  0.00     0.039 A 
ATOM     37  C   UNL     1       6.004  -3.671  -4.770  1.00  0.00     0.014 A 
ATOM     38  C   UNL     1       5.241  -5.954  -5.008  1.00  0.00     0.014 A 
ATOM     39  C   UNL     1       6.011  -3.530  -6.153  1.00  0.00     0.010 A 
ATOM     40  C   UNL     1       5.346  -5.842  -6.397  1.00  0.00     0.010 A 
ATOM     41  C   UNL     1       5.666  -4.609  -6.984  1.00  0.00    -0.014 A 
BRANCH  41  42
ATOM     42  C   UNL     1       5.629  -4.418  -8.459  1.00  0.00     0.031 A 
ATOM     43  C   UNL     1       4.337  -4.557  -9.222  1.00  0.00     0.074 A 
ATOM     44  C   UNL     1       6.756  -4.062  -9.105  1.00  0.00     0.049 A 
ATOM     45  N   UNL     1       4.118  -4.410 -10.503  1.00  0.00    -0.248 NA
ATOM     46  C   UNL     1       3.133  -4.910  -8.450  1.00  0.00     0.031 C 
ATOM     47  C   UNL     1       8.060  -3.883  -8.466  1.00  0.00     0.029 A 
ATOM     48  N   UNL     1       6.989  -3.765 -10.425  1.00  0.00    -0.354 N 
ATOM     49  C   UNL     1       2.765  -4.670 -10.695  1.00  0.00     0.074 A 
ATOM     50  C   UNL     1       2.217  -5.017  -9.404  1.00  0.00     0.031 C 
ATOM     51  C   UNL     1       8.941  -3.457  -9.380  1.00  0.00     0.029 A 
ATOM     52  C   UNL     1       8.291  -3.407 -10.687  1.00  0.00     0.049 A 
ATOM     53  H   UNL     1       6.290  -3.804 -11.117  1.00  0.00     0.167 HD
ATOM     54  C   UNL     1       2.046  -4.607 -11.842  1.00  0.00     0.034 A 
ATOM     55  C   UNL     1       8.903  -3.090 -11.847  1.00  0.00     0.034 A 
ATOM     56  C   UNL     1       2.603  -4.232 -13.117  1.00  0.00     0.049 A 
ATOM     57  C   UNL     1       8.089  -3.064 -13.113  1.00  0.00     0.074 A 
ATOM     58  C   UNL     1       1.948  -4.111 -14.330  1.00  0.00     0.029 A 
ATOM     59  N   UNL     1       3.933  -3.914 -13.349  1.00  0.00    -0.354 N 
ATOM     60  N   UNL     1       6.804  -3.276 -13.269  1.00  0.00    -0.248 NA
ATOM     61  C   UNL     1       8.800  -2.757 -14.362  1.00  0.00     0.031 C 
ATOM     62  C   UNL     1       2.890  -3.782 -15.305  1.00  0.00     0.029 A 
ATOM     63  C   UNL     1       4.122  -3.624 -14.691  1.00  0.00     0.049 A 
ATOM     64  H   UNL     1       4.638  -3.897 -12.662  1.00  0.00     0.167 HD
ATOM     65  C   UNL     1       6.549  -3.112 -14.627  1.00  0.00     0.074 A 
ATOM     66  C   UNL     1       7.809  -2.756 -15.245  1.00  0.00     0.031 C 
ATOM     67  C   UNL     1       5.378  -3.252 -15.298  1.00  0.00     0.034 A 
BRANCH  54  68
ATOM     68  C   UNL     1       0.572  -4.932 -11.797  1.00  0.00     0.023 A 
ATOM     69  C   UNL     1       0.071  -6.026 -12.529  1.00  0.00     0.031 A 
ATOM     70  C   UNL     1      -0.348  -4.086 -11.153  1.00  0.00     0.131 A 
ATOM     71  C   UNL     1      -1.312  -6.222 -12.630  1.00  0.00     0.055 A 
ATOM     72  C   UNL     1      -1.724  -4.310 -11.223  1.00  0.00     0.041 A 
ATOM     73  F   UNL     1       0.079  -3.029 -10.443  1.00  0.00    -0.206 F 
ATOM     74  C   UNL     1      -2.212  -5.374 -11.976  1.00  0.00     0.022 A 
BRANCH  71  75
ATOM     75  S   UNL     1      -2.001  -7.540 -13.670  1.00  0.00     0.124 S 
ATOM     76  O   UNL     1      -2.764  -8.319 -12.697  1.00  0.00    -0.237 OA
ATOM     77  O   UNL     1      -2.801  -6.785 -14.630  1.00  0.00    -0.237 OA
ATOM     78  O   UNL     1      -0.824  -8.208 -14.215  1.00  0.00    -0.744 OA
ENDBRANCH  71  75
ENDBRANCH  54  68
BRANCH  55  79
ATOM     79  C   UNL     1      10.354  -2.740 -11.826  1.00  0.00     0.023 A 
ATOM     80  C   UNL     1      11.312  -3.663 -11.366  1.00  0.00     0.031 A 
ATOM     81  C   UNL     1      10.787  -1.443 -12.143  1.00  0.00     0.131 A 
ATOM     82  C   UNL     1      12.633  -3.250 -11.152  1.00  0.00     0.055 A 
ATOM     83  C   UNL     1      12.123  -1.058 -12.006  1.00  0.00     0.041 A 
ATOM     84  F   UNL     1       9.910  -0.523 -12.574  1.00  0.00    -0.206 F 
ATOM     85  C   UNL     1      13.049  -1.958 -11.487  1.00  0.00     0.022 A 
BRANCH  82  86
ATOM     86  S   UNL     1      13.812  -4.324 -10.287  1.00  0.00     0.124 S 
ATOM     87  O   UNL     1      14.855  -4.503 -11.292  1.00  0.00    -0.237 OA
ATOM     88  O   UNL     1      14.178  -3.500  -9.137  1.00  0.00    -0.237 OA
ATOM     89  O   UNL     1      13.028  -5.513  -9.971  1.00  0.00    -0.744 OA
ENDBRANCH  82  86
ENDBRANCH  55  79
BRANCH  67  90
ATOM     90  C   UNL     1       5.367  -3.021 -16.790  1.00  0.00     0.023 A 
ATOM     91  C   UNL     1       4.586  -1.982 -17.333  1.00  0.00     0.031 A 
ATOM     92  C   UNL     1       5.983  -3.922 -17.674  1.00  0.00     0.131 A 
ATOM     93  C   UNL     1       4.400  -1.901 -18.719  1.00  0.00     0.055 A 
ATOM     94  C   UNL     1       5.836  -3.808 -19.057  1.00  0.00     0.041 A 
ATOM     95  F   UNL     1       6.729  -4.935 -17.204  1.00  0.00    -0.206 F 
ATOM     96  C   UNL     1       5.028  -2.804 -19.584  1.00  0.00     0.022 A 
BRANCH  93  97
ATOM     97  S   UNL     1       3.265  -0.685 -19.442  1.00  0.00     0.124 S 
ATOM     98  O   UNL     1       4.155   0.077 -20.315  1.00  0.00    -0.237 OA
ATOM     99  O   UNL     1       2.298  -1.537 -20.128  1.00  0.00    -0.237 OA
ATOM    100  O   UNL     1       2.751   0.046 -18.289  1.00  0.00    -0.744 OA
ENDBRANCH  93  97
ENDBRANCH  67  90
ENDBRANCH  41  42
ENDBRANCH  33  36
ENDBRANCH  31  32
ENDBRANCH  30  31
ENDBRANCH   1  30
TORSDOF 18
