REMARK SMILES O=C(Cc1ccccc1C(=O)NCCCNC(=O)c1ccc(-c2c3nc(c(-c4cc(S(=O)(=O)[O-])ccc4F)c4ccc([nH]4)c(-c4cc(S(=O)(=O)[O-])ccc4F)c4nc(c(-c5cc(S(=O)(=O)[O-])ccc5F)c5ccc2[nH]5)C=C4)C=C3)cc1)Nc1ccc(S(=O)(=O)N2CCCC2)cc1
REMARK SMILES IDX 13 1 12 2 10 3 11 4 9 6 4 7 5 8 6 9 8 10 7 11 3 12 2 13 1 14
REMARK SMILES IDX 82 15 83 17 84 18 96 19 85 20 95 21 86 22 87 23 88 24 89 25
REMARK SMILES IDX 90 26 91 27 94 28 92 29 93 30 14 31 15 32 16 33 17 34 18 36
REMARK SMILES IDX 19 37 20 38 81 39 21 40 80 41 22 42 23 43 24 44 74 45 25 46
REMARK SMILES IDX 79 47 73 48 75 49 26 50 78 51 72 52 71 53 27 55 59 56 39 57
REMARK SMILES IDX 58 58 40 59 43 60 57 61 76 62 41 63 42 64 56 66 77 67 44 68
REMARK SMILES IDX 28 69 29 70 37 71 30 72 36 73 38 74 35 75 31 76 32 77 33 78
REMARK SMILES IDX 34 79 60 80 61 81 69 82 62 83 68 84 70 85 67 86 63 87 64 88
REMARK SMILES IDX 65 89 66 90 45 91 46 92 54 93 47 94 53 95 55 96 52 97 48 98
REMARK SMILES IDX 49 99 50 100 51 101
REMARK H PARENT 12 5 82 16 16 35 75 54 43 65
REMARK Flexibility Score: inf
ROOT
ATOM      1  C   UNL     1       1.512   0.738  -2.844  1.00  0.00     0.118 C 
ENDROOT
BRANCH   1   2
ATOM      2  N   UNL     1       1.517   2.126  -2.423  1.00  0.00    -0.352 N 
ATOM      3  C   UNL     1       2.353   3.005  -1.793  1.00  0.00     0.251 C 
ATOM      4  O   UNL     1       1.830   4.114  -1.603  1.00  0.00    -0.269 OA
ATOM      5  H   UNL     1       0.668   2.564  -2.661  1.00  0.00     0.163 HD
BRANCH   3   6
ATOM      6  C   UNL     1       3.809   2.857  -1.409  1.00  0.00     0.043 A 
ATOM      7  C   UNL     1       4.558   1.751  -0.944  1.00  0.00    -0.026 A 
ATOM      8  C   UNL     1       5.920   1.937  -0.570  1.00  0.00     0.005 A 
ATOM      9  C   UNL     1       6.523   3.189  -0.562  1.00  0.00     0.000 A 
ATOM     10  C   UNL     1       4.470   4.116  -1.389  1.00  0.00     0.014 A 
ATOM     11  C   UNL     1       5.787   4.288  -0.954  1.00  0.00     0.001 A 
BRANCH   7  12
ATOM     12  C   UNL     1       4.010   0.401  -0.567  1.00  0.00     0.136 C 
BRANCH  12  13
ATOM     13  C   UNL     1       3.104   0.520   0.633  1.00  0.00     0.228 C 
ATOM     14  O   UNL     1       2.058   1.158   0.571  1.00  0.00    -0.274 OA
ATOM     15  N   UNL     1       3.579  -0.079   1.782  1.00  0.00    -0.326 N 
ATOM     16  H   UNL     1       4.518  -0.373   1.808  1.00  0.00     0.169 HD
BRANCH  15  17
ATOM     17  C   UNL     1       2.775  -0.288   2.915  1.00  0.00     0.041 A 
ATOM     18  C   UNL     1       3.385  -0.440   4.160  1.00  0.00     0.027 A 
ATOM     19  C   UNL     1       1.382  -0.359   2.812  1.00  0.00     0.027 A 
ATOM     20  C   UNL     1       2.599  -0.645   5.297  1.00  0.00     0.024 A 
ATOM     21  C   UNL     1       0.596  -0.535   3.940  1.00  0.00     0.024 A 
ATOM     22  C   UNL     1       1.205  -0.708   5.177  1.00  0.00     0.082 A 
BRANCH  22  23
ATOM     23  S   UNL     1       0.208  -1.091   6.602  1.00  0.00     0.243 S 
ATOM     24  O   UNL     1       1.126  -1.504   7.643  1.00  0.00    -0.207 OA
ATOM     25  O   UNL     1      -0.694   0.025   6.793  1.00  0.00    -0.207 OA
BRANCH  23  26
ATOM     26  N   UNL     1      -0.664  -2.447   6.129  1.00  0.00    -0.198 NA
ATOM     27  C   UNL     1       0.046  -3.668   5.718  1.00  0.00     0.102 C 
ATOM     28  C   UNL     1      -1.901  -2.317   5.337  1.00  0.00     0.102 C 
ATOM     29  C   UNL     1      -0.364  -3.879   4.271  1.00  0.00     0.018 C 
ATOM     30  C   UNL     1      -1.758  -3.284   4.167  1.00  0.00     0.018 C 
ENDBRANCH  23  26
ENDBRANCH  22  23
ENDBRANCH  15  17
ENDBRANCH  12  13
ENDBRANCH   7  12
ENDBRANCH   3   6
ENDBRANCH   1   2
BRANCH   1  31
ATOM     31  C   UNL     1       0.678  -0.114  -1.876  1.00  0.00     0.042 C 
BRANCH  31  32
ATOM     32  C   UNL     1      -0.757  -0.381  -2.323  1.00  0.00     0.118 C 
BRANCH  32  33
ATOM     33  N   UNL     1      -0.834  -1.406  -3.348  1.00  0.00    -0.352 N 
ATOM     34  C   UNL     1      -1.361  -2.676  -3.339  1.00  0.00     0.251 C 
ATOM     35  H   UNL     1      -0.435  -1.143  -4.209  1.00  0.00     0.163 HD
ATOM     36  O   UNL     1      -1.090  -3.407  -4.293  1.00  0.00    -0.269 OA
BRANCH  34  37
ATOM     37  C   UNL     1      -2.213  -3.200  -2.236  1.00  0.00     0.039 A 
ATOM     38  C   UNL     1      -2.211  -4.583  -2.004  1.00  0.00     0.014 A 
ATOM     39  C   UNL     1      -3.082  -2.402  -1.490  1.00  0.00     0.014 A 
ATOM     40  C   UNL     1      -3.042  -5.149  -1.027  1.00  0.00     0.010 A 
ATOM     41  C   UNL     1      -3.835  -2.953  -0.446  1.00  0.00     0.010 A 
ATOM     42  C   UNL     1      -3.848  -4.338  -0.216  1.00  0.00    -0.014 A 
BRANCH  42  43
ATOM     43  C   UNL     1      -4.758  -4.919   0.818  1.00  0.00     0.031 A 
ATOM     44  C   UNL     1      -6.246  -4.661   0.747  1.00  0.00     0.074 A 
ATOM     45  C   UNL     1      -4.263  -5.642   1.844  1.00  0.00     0.049 A 
ATOM     46  N   UNL     1      -7.186  -4.953   1.613  1.00  0.00    -0.248 NA
ATOM     47  C   UNL     1      -6.735  -3.953  -0.446  1.00  0.00     0.031 C 
ATOM     48  C   UNL     1      -2.852  -5.974   2.053  1.00  0.00     0.029 A 
ATOM     49  N   UNL     1      -4.895  -6.212   2.924  1.00  0.00    -0.354 N 
ATOM     50  C   UNL     1      -8.370  -4.458   1.074  1.00  0.00     0.074 A 
ATOM     51  C   UNL     1      -8.013  -3.772  -0.150  1.00  0.00     0.031 C 
ATOM     52  C   UNL     1      -2.726  -6.677   3.191  1.00  0.00     0.029 A 
ATOM     53  C   UNL     1      -4.036  -6.806   3.819  1.00  0.00     0.049 A 
ATOM     54  H   UNL     1      -5.872  -6.195   3.046  1.00  0.00     0.167 HD
ATOM     55  C   UNL     1      -9.643  -4.595   1.526  1.00  0.00     0.034 A 
ATOM     56  C   UNL     1      -4.265  -7.362   5.024  1.00  0.00     0.034 A 
ATOM     57  C   UNL     1     -10.001  -5.310   2.727  1.00  0.00     0.049 A 
ATOM     58  C   UNL     1      -5.674  -7.455   5.541  1.00  0.00     0.074 A 
ATOM     59  C   UNL     1     -11.262  -5.564   3.239  1.00  0.00     0.029 A 
ATOM     60  N   UNL     1      -9.096  -5.892   3.604  1.00  0.00    -0.354 N 
ATOM     61  N   UNL     1      -6.780  -6.995   5.008  1.00  0.00    -0.248 NA
ATOM     62  C   UNL     1      -5.862  -8.171   6.809  1.00  0.00     0.031 C 
ATOM     63  C   UNL     1     -11.118  -6.251   4.450  1.00  0.00     0.029 A 
ATOM     64  C   UNL     1      -9.770  -6.488   4.660  1.00  0.00     0.049 A 
ATOM     65  H   UNL     1      -8.117  -5.883   3.493  1.00  0.00     0.167 HD
ATOM     66  C   UNL     1      -7.804  -7.410   5.854  1.00  0.00     0.074 A 
ATOM     67  C   UNL     1      -7.180  -8.149   6.933  1.00  0.00     0.031 C 
ATOM     68  C   UNL     1      -9.142  -7.215   5.737  1.00  0.00     0.034 A 
BRANCH  55  69
ATOM     69  C   UNL     1     -10.743  -3.956   0.708  1.00  0.00     0.023 A 
ATOM     70  C   UNL     1     -11.001  -4.356  -0.616  1.00  0.00     0.031 A 
ATOM     71  C   UNL     1     -11.528  -2.920   1.243  1.00  0.00     0.131 A 
ATOM     72  C   UNL     1     -11.951  -3.669  -1.386  1.00  0.00     0.055 A 
ATOM     73  C   UNL     1     -12.535  -2.298   0.499  1.00  0.00     0.041 A 
ATOM     74  F   UNL     1     -11.322  -2.483   2.495  1.00  0.00    -0.206 F 
ATOM     75  C   UNL     1     -12.739  -2.660  -0.830  1.00  0.00     0.022 A 
BRANCH  72  76
ATOM     76  S   UNL     1     -12.036  -4.016  -3.164  1.00  0.00     0.124 S 
ATOM     77  O   UNL     1     -10.688  -3.657  -3.597  1.00  0.00    -0.237 OA
ATOM     78  O   UNL     1     -12.358  -5.438  -3.194  1.00  0.00    -0.237 OA
ATOM     79  O   UNL     1     -13.094  -3.126  -3.637  1.00  0.00    -0.744 OA
ENDBRANCH  72  76
ENDBRANCH  55  69
BRANCH  56  80
ATOM     80  C   UNL     1      -3.132  -7.840   5.862  1.00  0.00     0.023 A 
ATOM     81  C   UNL     1      -2.913  -9.206   6.088  1.00  0.00     0.031 A 
ATOM     82  C   UNL     1      -2.294  -6.916   6.507  1.00  0.00     0.131 A 
ATOM     83  C   UNL     1      -1.902  -9.609   6.974  1.00  0.00     0.055 A 
ATOM     84  C   UNL     1      -1.263  -7.323   7.354  1.00  0.00     0.041 A 
ATOM     85  F   UNL     1      -2.474  -5.599   6.321  1.00  0.00    -0.206 F 
ATOM     86  C   UNL     1      -1.069  -8.678   7.599  1.00  0.00     0.022 A 
BRANCH  83  87
ATOM     87  S   UNL     1      -1.738 -11.375   7.354  1.00  0.00     0.124 S 
ATOM     88  O   UNL     1      -3.038 -11.673   7.944  1.00  0.00    -0.237 OA
ATOM     89  O   UNL     1      -1.486 -11.944   6.034  1.00  0.00    -0.237 OA
ATOM     90  O   UNL     1      -0.605 -11.420   8.275  1.00  0.00    -0.744 OA
ENDBRANCH  83  87
ENDBRANCH  56  80
BRANCH  68  91
ATOM     91  C   UNL     1     -10.018  -7.881   6.767  1.00  0.00     0.023 A 
ATOM     92  C   UNL     1     -10.011  -7.487   8.116  1.00  0.00     0.031 A 
ATOM     93  C   UNL     1     -10.837  -8.961   6.395  1.00  0.00     0.131 A 
ATOM     94  C   UNL     1     -10.757  -8.213   9.057  1.00  0.00     0.055 A 
ATOM     95  C   UNL     1     -11.625  -9.640   7.325  1.00  0.00     0.041 A 
ATOM     96  F   UNL     1     -10.877  -9.382   5.120  1.00  0.00    -0.206 F 
ATOM     97  C   UNL     1     -11.575  -9.277   8.668  1.00  0.00     0.022 A 
BRANCH  94  98
ATOM     98  S   UNL     1     -10.557  -7.819  10.816  1.00  0.00     0.124 S 
ATOM     99  O   UNL     1      -9.122  -8.005  11.006  1.00  0.00    -0.237 OA
ATOM    100  O   UNL     1     -11.036  -6.442  10.883  1.00  0.00    -0.237 OA
ATOM    101  O   UNL     1     -11.404  -8.803  11.487  1.00  0.00    -0.744 OA
ENDBRANCH  94  98
ENDBRANCH  68  91
ENDBRANCH  42  43
ENDBRANCH  34  37
ENDBRANCH  32  33
ENDBRANCH  31  32
ENDBRANCH   1  31
TORSDOF 18
