REMARK SMILES O=C(NCCCNC(=O)[C@@]1(Cc2ccnc3ccccc23)CCC[NH2+]C1)c1ccc(-c2c3nc(c(-c4cc(S(=O)(=O)[O-])ccc4F)c4ccc([nH]4)c(-c4cc(S(=O)(=O)[O-])ccc4F)c4nc(c(-c5cc(S(=O)(=O)[O-])ccc5F)c5ccc2[nH]5)C=C4)C=C3)cc1
REMARK SMILES IDX 4 1 3 2 1 3 2 4 27 6 28 7 89 8 29 9 88 10 30 11 31 12 32 13
REMARK SMILES IDX 82 14 33 15 87 16 81 17 83 18 34 19 86 20 80 21 79 22 35 24
REMARK SMILES IDX 67 25 47 26 66 27 48 28 51 29 65 30 84 31 49 32 50 33 64 35
REMARK SMILES IDX 85 36 52 37 36 38 37 39 45 40 38 41 44 42 46 43 43 44 39 45
REMARK SMILES IDX 40 46 41 47 42 48 68 49 69 50 77 51 70 52 76 53 78 54 75 55
REMARK SMILES IDX 71 56 72 57 73 58 74 59 53 60 54 61 62 62 55 63 61 64 63 65
REMARK SMILES IDX 60 66 56 67 57 68 58 69 59 70 5 71 6 72 7 73 8 74 9 76 10 77
REMARK SMILES IDX 22 78 26 79 23 80 25 81 24 82 11 85 12 86 13 87 21 88 14 89
REMARK SMILES IDX 16 90 20 91 15 92 17 93 19 94 18 95
REMARK H PARENT 3 5 83 23 51 34 7 75 25 83 25 84
REMARK Flexibility Score: inf
ROOT
ATOM      1  C   UNL     1       2.187   0.627  -7.055  1.00  0.00     0.118 C 
ENDROOT
BRANCH   1   2
ATOM      2  N   UNL     1       2.118  -0.122  -8.310  1.00  0.00    -0.352 N 
ATOM      3  O   UNL     1       1.760  -1.933  -9.597  1.00  0.00    -0.269 OA
ATOM      4  C   UNL     1       1.452  -1.290  -8.604  1.00  0.00     0.251 C 
ATOM      5  H   UNL     1       2.624   0.269  -9.058  1.00  0.00     0.163 HD
BRANCH   4   6
ATOM      6  C   UNL     1       0.361  -1.742  -7.718  1.00  0.00     0.039 A 
ATOM      7  C   UNL     1      -0.497  -0.800  -7.156  1.00  0.00     0.014 A 
ATOM      8  C   UNL     1       0.168  -3.105  -7.469  1.00  0.00     0.014 A 
ATOM      9  C   UNL     1      -1.419  -1.192  -6.205  1.00  0.00     0.010 A 
ATOM     10  C   UNL     1      -0.867  -3.512  -6.620  1.00  0.00     0.010 A 
ATOM     11  C   UNL     1      -1.657  -2.554  -5.966  1.00  0.00    -0.014 A 
BRANCH  11  12
ATOM     12  C   UNL     1      -2.814  -2.904  -5.105  1.00  0.00     0.031 A 
ATOM     13  C   UNL     1      -2.637  -3.635  -3.807  1.00  0.00     0.074 A 
ATOM     14  C   UNL     1      -4.027  -2.449  -5.482  1.00  0.00     0.049 A 
ATOM     15  N   UNL     1      -3.538  -3.934  -2.908  1.00  0.00    -0.248 NA
ATOM     16  C   UNL     1      -1.282  -4.099  -3.476  1.00  0.00     0.031 C 
ATOM     17  C   UNL     1      -4.301  -1.737  -6.738  1.00  0.00     0.029 A 
ATOM     18  N   UNL     1      -5.238  -2.456  -4.843  1.00  0.00    -0.354 N 
ATOM     19  C   UNL     1      -2.868  -4.630  -1.909  1.00  0.00     0.074 A 
ATOM     20  C   UNL     1      -1.487  -4.739  -2.333  1.00  0.00     0.031 C 
ATOM     21  C   UNL     1      -5.564  -1.297  -6.731  1.00  0.00     0.029 A 
ATOM     22  C   UNL     1      -6.224  -1.784  -5.529  1.00  0.00     0.049 A 
ATOM     23  H   UNL     1      -5.389  -2.900  -3.978  1.00  0.00     0.167 HD
ATOM     24  C   UNL     1      -3.363  -5.121  -0.746  1.00  0.00     0.034 A 
ATOM     25  C   UNL     1      -7.525  -1.598  -5.238  1.00  0.00     0.034 A 
ATOM     26  C   UNL     1      -4.749  -5.000  -0.352  1.00  0.00     0.049 A 
ATOM     27  C   UNL     1      -8.046  -2.174  -3.952  1.00  0.00     0.074 A 
ATOM     28  C   UNL     1      -5.365  -5.469   0.795  1.00  0.00     0.029 A 
ATOM     29  N   UNL     1      -5.736  -4.361  -1.095  1.00  0.00    -0.354 N 
ATOM     30  N   UNL     1      -7.396  -2.840  -3.024  1.00  0.00    -0.248 NA
ATOM     31  C   UNL     1      -9.471  -1.976  -3.673  1.00  0.00     0.031 C 
ATOM     32  C   UNL     1      -6.730  -5.169   0.717  1.00  0.00     0.029 A 
ATOM     33  C   UNL     1      -6.957  -4.444  -0.442  1.00  0.00     0.049 A 
ATOM     34  H   UNL     1      -5.589  -3.914  -1.960  1.00  0.00     0.167 HD
ATOM     35  C   UNL     1      -8.338  -3.139  -2.048  1.00  0.00     0.074 A 
ATOM     36  C   UNL     1      -9.584  -2.537  -2.479  1.00  0.00     0.031 C 
ATOM     37  C   UNL     1      -8.194  -3.859  -0.906  1.00  0.00     0.034 A 
BRANCH  24  38
ATOM     38  C   UNL     1      -2.412  -5.868   0.159  1.00  0.00     0.023 A 
ATOM     39  C   UNL     1      -1.325  -5.229   0.780  1.00  0.00     0.031 A 
ATOM     40  C   UNL     1      -2.591  -7.242   0.401  1.00  0.00     0.131 A 
ATOM     41  C   UNL     1      -0.429  -5.972   1.566  1.00  0.00     0.055 A 
ATOM     42  C   UNL     1      -1.739  -7.961   1.242  1.00  0.00     0.041 A 
ATOM     43  F   UNL     1      -3.598  -7.913  -0.182  1.00  0.00    -0.206 F 
ATOM     44  C   UNL     1      -0.644  -7.328   1.822  1.00  0.00     0.022 A 
BRANCH  41  45
ATOM     45  S   UNL     1       1.086  -5.166   2.154  1.00  0.00     0.124 S 
ATOM     46  O   UNL     1       1.724  -4.783   0.896  1.00  0.00    -0.237 OA
ATOM     47  O   UNL     1       0.568  -4.071   2.966  1.00  0.00    -0.237 OA
ATOM     48  O   UNL     1       1.771  -6.223   2.895  1.00  0.00    -0.744 OA
ENDBRANCH  41  45
ENDBRANCH  24  38
BRANCH  25  49
ATOM     49  C   UNL     1      -8.422  -0.895  -6.200  1.00  0.00     0.023 A 
ATOM     50  C   UNL     1      -9.108   0.275  -5.843  1.00  0.00     0.031 A 
ATOM     51  C   UNL     1      -8.637  -1.414  -7.492  1.00  0.00     0.131 A 
ATOM     52  C   UNL     1     -10.011   0.859  -6.745  1.00  0.00     0.055 A 
ATOM     53  C   UNL     1      -9.482  -0.791  -8.410  1.00  0.00     0.041 A 
ATOM     54  F   UNL     1      -8.008  -2.531  -7.889  1.00  0.00    -0.206 F 
ATOM     55  C   UNL     1     -10.189   0.344  -8.032  1.00  0.00     0.022 A 
BRANCH  52  56
ATOM     56  S   UNL     1     -11.038   2.240  -6.174  1.00  0.00     0.124 S 
ATOM     57  O   UNL     1     -11.658   1.678  -4.980  1.00  0.00    -0.237 OA
ATOM     58  O   UNL     1     -10.043   3.283  -5.950  1.00  0.00    -0.237 OA
ATOM     59  O   UNL     1     -11.944   2.476  -7.296  1.00  0.00    -0.744 OA
ENDBRANCH  52  56
ENDBRANCH  25  49
BRANCH  37  60
ATOM     60  C   UNL     1      -9.429  -4.006  -0.052  1.00  0.00     0.023 A 
ATOM     61  C   UNL     1     -10.557  -4.708  -0.513  1.00  0.00     0.031 A 
ATOM     62  C   UNL     1      -9.503  -3.385   1.206  1.00  0.00     0.131 A 
ATOM     63  C   UNL     1     -11.738  -4.702   0.240  1.00  0.00     0.055 A 
ATOM     64  C   UNL     1     -10.659  -3.445   1.985  1.00  0.00     0.041 A 
ATOM     65  F   UNL     1      -8.457  -2.699   1.693  1.00  0.00    -0.206 F 
ATOM     66  C   UNL     1     -11.792  -4.089   1.494  1.00  0.00     0.022 A 
BRANCH  63  67
ATOM     67  S   UNL     1     -13.242  -5.393  -0.501  1.00  0.00     0.124 S 
ATOM     68  O   UNL     1     -13.365  -4.607  -1.725  1.00  0.00    -0.237 OA
ATOM     69  O   UNL     1     -12.885  -6.797  -0.679  1.00  0.00    -0.237 OA
ATOM     70  O   UNL     1     -14.270  -5.138   0.506  1.00  0.00    -0.744 OA
ENDBRANCH  63  67
ENDBRANCH  37  60
ENDBRANCH  11  12
ENDBRANCH   4   6
ENDBRANCH   1   2
BRANCH   1  71
ATOM     71  C   UNL     1       3.531   0.423  -6.364  1.00  0.00     0.042 C 
BRANCH  71  72
ATOM     72  C   UNL     1       4.648   1.096  -7.154  1.00  0.00     0.117 C 
BRANCH  72  73
ATOM     73  N   UNL     1       4.670   2.519  -6.879  1.00  0.00    -0.355 N 
ATOM     74  C   UNL     1       5.212   3.305  -5.922  1.00  0.00     0.232 C 
ATOM     75  H   UNL     1       4.171   3.038  -7.551  1.00  0.00     0.163 HD
ATOM     76  O   UNL     1       4.771   4.466  -5.946  1.00  0.00    -0.274 OA
BRANCH  74  77
ATOM     77  C   UNL     1       6.406   2.955  -4.990  1.00  0.00     0.102 C 
ATOM     78  C   UNL     1       6.584   1.475  -4.583  1.00  0.00     0.029 C 
ATOM     79  C   UNL     1       7.622   3.387  -5.854  1.00  0.00     0.277 C 
ATOM     80  C   UNL     1       7.998   1.085  -4.132  1.00  0.00     0.063 C 
ATOM     81  N   UNL     1       8.935   3.032  -5.328  1.00  0.00    -0.345 N 
ATOM     82  C   UNL     1       9.076   1.608  -5.073  1.00  0.00     0.260 C 
ATOM     83  H   UNL     1       9.644   3.313  -6.005  1.00  0.00     0.346 HD
ATOM     84  H   UNL     1       9.049   3.515  -4.436  1.00  0.00     0.346 HD
BRANCH  77  85
ATOM     85  C   UNL     1       6.154   3.868  -3.713  1.00  0.00     0.059 C 
BRANCH  85  86
ATOM     86  C   UNL     1       7.063   3.720  -2.509  1.00  0.00    -0.036 A 
ATOM     87  C   UNL     1       6.668   2.860  -1.475  1.00  0.00     0.024 A 
ATOM     88  C   UNL     1       8.354   4.301  -2.456  1.00  0.00     0.003 A 
ATOM     89  C   UNL     1       7.601   2.504  -0.521  1.00  0.00     0.112 A 
ATOM     90  C   UNL     1       9.254   3.786  -1.499  1.00  0.00     0.070 A 
ATOM     91  C   UNL     1       8.802   5.317  -3.334  1.00  0.00     0.010 A 
ATOM     92  N   UNL     1       8.887   2.914  -0.543  1.00  0.00    -0.256 NA
ATOM     93  C   UNL     1      10.587   4.166  -1.575  1.00  0.00     0.029 A 
ATOM     94  C   UNL     1      10.139   5.703  -3.370  1.00  0.00     0.001 A 
ATOM     95  C   UNL     1      11.043   5.095  -2.515  1.00  0.00     0.002 A 
ENDBRANCH  85  86
ENDBRANCH  77  85
ENDBRANCH  74  77
ENDBRANCH  72  73
ENDBRANCH  71  72
ENDBRANCH   1  71
TORSDOF 15
