REMARK SMILES O=C(NCCCNC(=O)c1c[nH]c(=O)c(-c2cccc([N+](=O)[O-])c2)c1)c1ccc(-c2c3nc(c(-c4cc(S(=O)(=O)[O-])ccc4F)c4ccc([nH]4)c(-c4cc(S(=O)(=O)[O-])ccc4F)c4nc(c(-c5cc(S(=O)(=O)[O-])ccc5F)c5ccc2[nH]5)C=C4)C=C3)cc1
REMARK SMILES IDX 4 1 3 2 1 3 2 4 26 6 27 7 88 8 28 9 87 10 29 11 30 12 31 13
REMARK SMILES IDX 81 14 32 15 86 16 80 17 82 18 33 19 85 20 79 21 78 22 34 24
REMARK SMILES IDX 66 25 46 26 65 27 47 28 50 29 64 30 83 31 48 32 49 33 63 35
REMARK SMILES IDX 84 36 51 37 35 38 36 39 44 40 37 41 43 42 45 43 42 44 38 45
REMARK SMILES IDX 39 46 40 47 41 48 67 49 68 50 76 51 69 52 75 53 77 54 74 55
REMARK SMILES IDX 70 56 71 57 72 58 73 59 52 60 53 61 61 62 54 63 60 64 62 65
REMARK SMILES IDX 59 66 55 67 56 68 57 69 58 70 5 71 6 72 7 73 8 74 9 76 10 77
REMARK SMILES IDX 11 78 25 79 12 80 15 81 13 82 14 84 16 85 17 86 24 87 18 88
REMARK SMILES IDX 20 89 19 90 21 91 22 92 23 93
REMARK H PARENT 3 5 82 23 50 34 7 75 12 83
REMARK Flexibility Score: inf
ROOT
ATOM      1  C   UNL     1       4.491   0.057  -1.429  1.00  0.00     0.118 C 
ENDROOT
BRANCH   1   2
ATOM      2  N   UNL     1       3.054   0.152  -1.203  1.00  0.00    -0.352 N 
ATOM      3  O   UNL     1       1.100  -0.050  -0.106  1.00  0.00    -0.269 OA
ATOM      4  C   UNL     1       2.326   0.002  -0.045  1.00  0.00     0.251 C 
ATOM      5  H   UNL     1       2.520   0.354  -2.005  1.00  0.00     0.163 HD
BRANCH   4   6
ATOM      6  C   UNL     1       3.015  -0.113   1.259  1.00  0.00     0.039 A 
ATOM      7  C   UNL     1       4.116   0.691   1.552  1.00  0.00     0.014 A 
ATOM      8  C   UNL     1       2.546  -1.026   2.209  1.00  0.00     0.014 A 
ATOM      9  C   UNL     1       4.855   0.459   2.704  1.00  0.00     0.010 A 
ATOM     10  C   UNL     1       3.224  -1.173   3.424  1.00  0.00     0.010 A 
ATOM     11  C   UNL     1       4.403  -0.454   3.669  1.00  0.00    -0.014 A 
BRANCH  11  12
ATOM     12  C   UNL     1       5.149  -0.575   4.949  1.00  0.00     0.031 A 
ATOM     13  C   UNL     1       5.796  -1.870   5.358  1.00  0.00     0.074 A 
ATOM     14  C   UNL     1       5.271   0.519   5.728  1.00  0.00     0.049 A 
ATOM     15  N   UNL     1       6.485  -2.140   6.438  1.00  0.00    -0.248 NA
ATOM     16  C   UNL     1       5.642  -3.010   4.444  1.00  0.00     0.031 C 
ATOM     17  C   UNL     1       4.689   1.832   5.428  1.00  0.00     0.029 A 
ATOM     18  N   UNL     1       5.936   0.718   6.910  1.00  0.00    -0.354 N 
ATOM     19  C   UNL     1       6.842  -3.481   6.340  1.00  0.00     0.074 A 
ATOM     20  C   UNL     1       6.253  -3.978   5.113  1.00  0.00     0.031 C 
ATOM     21  C   UNL     1       5.066   2.707   6.369  1.00  0.00     0.029 A 
ATOM     22  C   UNL     1       5.838   2.005   7.386  1.00  0.00     0.049 A 
ATOM     23  H   UNL     1       6.435   0.008   7.374  1.00  0.00     0.167 HD
ATOM     24  C   UNL     1       7.599  -4.221   7.190  1.00  0.00     0.034 A 
ATOM     25  C   UNL     1       6.290   2.557   8.528  1.00  0.00     0.034 A 
ATOM     26  C   UNL     1       8.170  -3.706   8.413  1.00  0.00     0.049 A 
ATOM     27  C   UNL     1       7.062   1.693   9.488  1.00  0.00     0.074 A 
ATOM     28  C   UNL     1       8.964  -4.364   9.337  1.00  0.00     0.029 A 
ATOM     29  N   UNL     1       8.000  -2.413   8.893  1.00  0.00    -0.354 N 
ATOM     30  N   UNL     1       7.401   0.429   9.372  1.00  0.00    -0.248 NA
ATOM     31  C   UNL     1       7.516   2.329  10.729  1.00  0.00     0.031 C 
ATOM     32  C   UNL     1       9.206  -3.498  10.409  1.00  0.00     0.029 A 
ATOM     33  C   UNL     1       8.643  -2.267  10.115  1.00  0.00     0.049 A 
ATOM     34  H   UNL     1       7.496  -1.703   8.433  1.00  0.00     0.167 HD
ATOM     35  C   UNL     1       8.133   0.129  10.516  1.00  0.00     0.074 A 
ATOM     36  C   UNL     1       8.204   1.349  11.294  1.00  0.00     0.031 C 
ATOM     37  C   UNL     1       8.697  -1.048  10.889  1.00  0.00     0.034 A 
BRANCH  24  38
ATOM     38  C   UNL     1       7.816  -5.676   6.845  1.00  0.00     0.023 A 
ATOM     39  C   UNL     1       8.504  -6.067   5.683  1.00  0.00     0.031 A 
ATOM     40  C   UNL     1       7.320  -6.690   7.685  1.00  0.00     0.131 A 
ATOM     41  C   UNL     1       8.615  -7.428   5.357  1.00  0.00     0.055 A 
ATOM     42  C   UNL     1       7.506  -8.044   7.397  1.00  0.00     0.041 A 
ATOM     43  F   UNL     1       6.637  -6.382   8.798  1.00  0.00    -0.206 F 
ATOM     44  C   UNL     1       8.144  -8.420   6.219  1.00  0.00     0.022 A 
BRANCH  41  45
ATOM     45  S   UNL     1       9.251  -7.874   3.718  1.00  0.00     0.124 S 
ATOM     46  O   UNL     1       8.323  -7.166   2.838  1.00  0.00    -0.237 OA
ATOM     47  O   UNL     1      10.614  -7.356   3.757  1.00  0.00    -0.237 OA
ATOM     48  O   UNL     1       9.136  -9.331   3.691  1.00  0.00    -0.744 OA
ENDBRANCH  41  45
ENDBRANCH  24  38
BRANCH  25  49
ATOM     49  C   UNL     1       5.988   3.982   8.847  1.00  0.00     0.023 A 
ATOM     50  C   UNL     1       7.017   4.920   9.020  1.00  0.00     0.031 A 
ATOM     51  C   UNL     1       4.662   4.417   9.028  1.00  0.00     0.131 A 
ATOM     52  C   UNL     1       6.707   6.230   9.415  1.00  0.00     0.055 A 
ATOM     53  C   UNL     1       4.356   5.739   9.354  1.00  0.00     0.041 A 
ATOM     54  F   UNL     1       3.638   3.562   8.874  1.00  0.00    -0.206 F 
ATOM     55  C   UNL     1       5.384   6.650   9.566  1.00  0.00     0.022 A 
BRANCH  52  56
ATOM     56  S   UNL     1       8.069   7.350   9.837  1.00  0.00     0.124 S 
ATOM     57  O   UNL     1       8.758   6.598  10.879  1.00  0.00    -0.237 OA
ATOM     58  O   UNL     1       8.768   7.470   8.562  1.00  0.00    -0.237 OA
ATOM     59  O   UNL     1       7.385   8.561  10.288  1.00  0.00    -0.744 OA
ENDBRANCH  52  56
ENDBRANCH  25  49
BRANCH  37  60
ATOM     60  C   UNL     1       9.483  -1.050  12.178  1.00  0.00     0.023 A 
ATOM     61  C   UNL     1       8.868  -0.825  13.423  1.00  0.00     0.031 A 
ATOM     62  C   UNL     1      10.874  -1.254  12.156  1.00  0.00     0.131 A 
ATOM     63  C   UNL     1       9.651  -0.745  14.585  1.00  0.00     0.055 A 
ATOM     64  C   UNL     1      11.638  -1.244  13.324  1.00  0.00     0.041 A 
ATOM     65  F   UNL     1      11.516  -1.466  10.996  1.00  0.00    -0.206 F 
ATOM     66  C   UNL     1      11.029  -0.973  14.546  1.00  0.00     0.022 A 
BRANCH  63  67
ATOM     67  S   UNL     1       8.860  -0.230  16.134  1.00  0.00     0.124 S 
ATOM     68  O   UNL     1       8.313   1.074  15.775  1.00  0.00    -0.237 OA
ATOM     69  O   UNL     1       7.884  -1.292  16.354  1.00  0.00    -0.237 OA
ATOM     70  O   UNL     1       9.966  -0.197  17.089  1.00  0.00    -0.744 OA
ENDBRANCH  63  67
ENDBRANCH  37  60
ENDBRANCH  11  12
ENDBRANCH   4   6
ENDBRANCH   1   2
BRANCH   1  71
ATOM     71  C   UNL     1       4.878  -1.139  -2.281  1.00  0.00     0.042 C 
BRANCH  71  72
ATOM     72  C   UNL     1       4.329  -1.086  -3.696  1.00  0.00     0.118 C 
BRANCH  72  73
ATOM     73  N   UNL     1       4.854   0.039  -4.463  1.00  0.00    -0.352 N 
ATOM     74  C   UNL     1       5.725   0.064  -5.515  1.00  0.00     0.252 C 
ATOM     75  H   UNL     1       4.527   0.922  -4.177  1.00  0.00     0.163 HD
ATOM     76  O   UNL     1       6.141   1.138  -5.944  1.00  0.00    -0.269 OA
BRANCH  74  77
ATOM     77  C   UNL     1       6.162  -1.223  -6.113  1.00  0.00     0.056 A 
ATOM     78  C   UNL     1       7.475  -1.442  -6.265  1.00  0.00     0.099 A 
ATOM     79  C   UNL     1       5.218  -2.247  -6.506  1.00  0.00     0.029 A 
ATOM     80  N   UNL     1       7.921  -2.656  -6.731  1.00  0.00    -0.328 N 
ATOM     81  C   UNL     1       5.622  -3.473  -6.886  1.00  0.00     0.048 A 
ATOM     82  C   UNL     1       7.098  -3.717  -7.040  1.00  0.00     0.255 A 
ATOM     83  H   UNL     1       8.891  -2.775  -6.853  1.00  0.00     0.169 HD
ATOM     84  O   UNL     1       7.548  -4.790  -7.434  1.00  0.00    -0.269 OA
BRANCH  81  85
ATOM     85  C   UNL     1       4.620  -4.544  -7.022  1.00  0.00    -0.006 A 
ATOM     86  C   UNL     1       3.497  -4.386  -7.850  1.00  0.00     0.009 A 
ATOM     87  C   UNL     1       4.736  -5.706  -6.243  1.00  0.00     0.094 A 
ATOM     88  C   UNL     1       2.498  -5.362  -7.896  1.00  0.00     0.008 A 
ATOM     89  C   UNL     1       3.732  -6.682  -6.293  1.00  0.00     0.270 A 
ATOM     90  C   UNL     1       2.610  -6.511  -7.115  1.00  0.00     0.085 A 
BRANCH  89  91
ATOM     91  N   UNL     1       3.843  -7.888  -5.463  1.00  0.00     0.062 N 
ATOM     92  O   UNL     1       2.950  -8.742  -5.571  1.00  0.00    -0.258 OA
ATOM     93  O   UNL     1       4.818  -7.981  -4.707  1.00  0.00    -0.258 OA
ENDBRANCH  89  91
ENDBRANCH  81  85
ENDBRANCH  74  77
ENDBRANCH  72  73
ENDBRANCH  71  72
ENDBRANCH   1  71
TORSDOF 15
