REMARK SMILES C=CCN(CC(=O)NCCCNC(=O)c1ccc(-c2c3nc(c(-c4cc(S(=O)(=O)[O-])ccc4F)c4ccc([nH]4)c(-c4cc(S(=O)(=O)[O-])ccc4F)c4nc(c(-c5cc(S(=O)(=O)[O-])ccc5F)c5ccc2[nH]5)C=C4)C=C3)cc1)C(=O)c1cc(-c2csc(C)n2)c[nH]1
REMARK SMILES IDX 9 1 8 2 6 3 7 4 5 6 4 7 3 8 2 9 1 10 78 11 79 12 80 13 81 14
REMARK SMILES IDX 90 15 82 16 89 17 83 19 84 20 88 21 85 22 86 23 87 24 10 25
REMARK SMILES IDX 11 26 12 27 13 28 14 30 15 31 16 32 77 33 17 34 76 35 18 36
REMARK SMILES IDX 19 37 20 38 70 39 21 40 75 41 69 42 71 43 22 44 74 45 68 46
REMARK SMILES IDX 67 47 23 49 55 50 35 51 54 52 36 53 39 54 53 55 72 56 37 57
REMARK SMILES IDX 38 58 52 60 73 61 40 62 24 63 25 64 33 65 26 66 32 67 34 68
REMARK SMILES IDX 31 69 27 70 28 71 29 72 30 73 56 74 57 75 65 76 58 77 64 78
REMARK SMILES IDX 66 79 63 80 59 81 60 82 61 83 62 84 41 85 42 86 50 87 43 88
REMARK SMILES IDX 49 89 51 90 48 91 44 92 45 93 46 94 47 95
REMARK H PARENT 8 5 90 18 12 29 71 48 39 59
REMARK Flexibility Score: inf
ROOT
ATOM      1  C   UNL     1      -4.389  -0.126   0.943  1.00  0.00     0.117 C 
ENDROOT
BRANCH   1   2
ATOM      2  N   UNL     1      -4.626  -1.498   1.344  1.00  0.00    -0.354 N 
ATOM      3  C   UNL     1      -3.765  -2.454   1.785  1.00  0.00     0.239 C 
ATOM      4  O   UNL     1      -4.270  -3.424   2.362  1.00  0.00    -0.273 OA
ATOM      5  H   UNL     1      -5.566  -1.785   1.289  1.00  0.00     0.163 HD
BRANCH   3   6
ATOM      6  C   UNL     1      -2.241  -2.280   1.749  1.00  0.00     0.220 C 
BRANCH   6   7
ATOM      7  N   UNL     1      -1.610  -1.790   0.517  1.00  0.00    -0.324 N 
BRANCH   7   8
ATOM      8  C   UNL     1      -0.855  -0.544   0.593  1.00  0.00     0.147 C 
BRANCH   8   9
ATOM      9  C   UNL     1       0.483  -0.809   1.223  1.00  0.00    -0.014 C 
ATOM     10  C   UNL     1       1.647  -0.753   0.562  1.00  0.00     0.006 C 
ENDBRANCH   8   9
ENDBRANCH   7   8
BRANCH   7  11
ATOM     11  C   UNL     1      -1.388  -2.590  -0.612  1.00  0.00     0.271 C 
ATOM     12  O   UNL     1      -0.669  -2.214  -1.537  1.00  0.00    -0.267 OA
BRANCH  11  13
ATOM     13  C   UNL     1      -1.954  -3.919  -0.643  1.00  0.00     0.105 A 
ATOM     14  C   UNL     1      -3.268  -4.359  -0.651  1.00  0.00     0.043 A 
ATOM     15  N   UNL     1      -1.166  -5.039  -0.802  1.00  0.00    -0.357 N 
ATOM     16  C   UNL     1      -3.254  -5.777  -0.688  1.00  0.00     0.019 A 
ATOM     17  C   UNL     1      -1.936  -6.168  -0.762  1.00  0.00     0.093 A 
ATOM     18  H   UNL     1      -0.189  -5.027  -0.926  1.00  0.00     0.166 HD
BRANCH  16  19
ATOM     19  C   UNL     1      -4.432  -6.646  -0.655  1.00  0.00     0.083 A 
ATOM     20  C   UNL     1      -5.736  -6.269  -0.898  1.00  0.00     0.095 A 
ATOM     21  N   UNL     1      -4.251  -7.985  -0.349  1.00  0.00    -0.241 NA
ATOM     22  S   UNL     1      -6.775  -7.622  -0.728  1.00  0.00    -0.127 S 
ATOM     23  C   UNL     1      -5.415  -8.598  -0.337  1.00  0.00     0.090 A 
ATOM     24  C   UNL     1      -5.602 -10.037  -0.013  1.00  0.00     0.079 C 
ENDBRANCH  16  19
ENDBRANCH  11  13
ENDBRANCH   7  11
ENDBRANCH   6   7
ENDBRANCH   3   6
ENDBRANCH   1   2
BRANCH   1  25
ATOM     25  C   UNL     1      -4.268   0.073  -0.564  1.00  0.00     0.042 C 
BRANCH  25  26
ATOM     26  C   UNL     1      -5.467  -0.423  -1.369  1.00  0.00     0.118 C 
BRANCH  26  27
ATOM     27  N   UNL     1      -6.696   0.277  -1.033  1.00  0.00    -0.352 N 
ATOM     28  C   UNL     1      -7.350   1.302  -1.669  1.00  0.00     0.251 C 
ATOM     29  H   UNL     1      -7.133  -0.037  -0.208  1.00  0.00     0.163 HD
ATOM     30  O   UNL     1      -8.246   1.890  -1.068  1.00  0.00    -0.269 OA
BRANCH  28  31
ATOM     31  C   UNL     1      -6.993   1.717  -3.046  1.00  0.00     0.039 A 
ATOM     32  C   UNL     1      -6.967   3.085  -3.346  1.00  0.00     0.014 A 
ATOM     33  C   UNL     1      -6.780   0.782  -4.062  1.00  0.00     0.014 A 
ATOM     34  C   UNL     1      -6.674   3.515  -4.645  1.00  0.00     0.010 A 
ATOM     35  C   UNL     1      -6.447   1.212  -5.349  1.00  0.00     0.010 A 
ATOM     36  C   UNL     1      -6.393   2.581  -5.652  1.00  0.00    -0.014 A 
BRANCH  36  37
ATOM     37  C   UNL     1      -6.068   3.007  -7.036  1.00  0.00     0.031 A 
ATOM     38  C   UNL     1      -7.029   2.720  -8.155  1.00  0.00     0.074 A 
ATOM     39  C   UNL     1      -4.878   3.576  -7.306  1.00  0.00     0.049 A 
ATOM     40  N   UNL     1      -6.841   2.795  -9.447  1.00  0.00    -0.248 NA
ATOM     41  C   UNL     1      -8.369   2.259  -7.763  1.00  0.00     0.031 C 
ATOM     42  C   UNL     1      -3.842   3.889  -6.321  1.00  0.00     0.029 A 
ATOM     43  N   UNL     1      -4.333   3.967  -8.502  1.00  0.00    -0.354 N 
ATOM     44  C   UNL     1      -8.014   2.328 -10.027  1.00  0.00     0.074 A 
ATOM     45  C   UNL     1      -8.917   1.999  -8.942  1.00  0.00     0.031 C 
ATOM     46  C   UNL     1      -2.781   4.417  -6.955  1.00  0.00     0.029 A 
ATOM     47  C   UNL     1      -3.052   4.449  -8.388  1.00  0.00     0.049 A 
ATOM     48  H   UNL     1      -4.814   3.908  -9.359  1.00  0.00     0.167 HD
ATOM     49  C   UNL     1      -8.303   2.164 -11.341  1.00  0.00     0.034 A 
ATOM     50  C   UNL     1      -2.181   4.840  -9.336  1.00  0.00     0.034 A 
ATOM     51  C   UNL     1      -7.424   2.532 -12.421  1.00  0.00     0.049 A 
ATOM     52  C   UNL     1      -2.565   4.755 -10.783  1.00  0.00     0.074 A 
ATOM     53  C   UNL     1      -7.628   2.412 -13.786  1.00  0.00     0.029 A 
ATOM     54  N   UNL     1      -6.174   3.110 -12.258  1.00  0.00    -0.354 N 
ATOM     55  N   UNL     1      -3.648   4.247 -11.318  1.00  0.00    -0.248 NA
ATOM     56  C   UNL     1      -1.602   5.293 -11.753  1.00  0.00     0.031 C 
ATOM     57  C   UNL     1      -6.496   2.910 -14.447  1.00  0.00     0.029 A 
ATOM     58  C   UNL     1      -5.599   3.361 -13.493  1.00  0.00     0.049 A 
ATOM     59  H   UNL     1      -5.756   3.312 -11.389  1.00  0.00     0.167 HD
ATOM     60  C   UNL     1      -3.487   4.382 -12.691  1.00  0.00     0.074 A 
ATOM     61  C   UNL     1      -2.210   5.034 -12.903  1.00  0.00     0.031 C 
ATOM     62  C   UNL     1      -4.321   3.995 -13.686  1.00  0.00     0.034 A 
BRANCH  49  63
ATOM     63  C   UNL     1      -9.605   1.490 -11.665  1.00  0.00     0.023 A 
ATOM     64  C   UNL     1     -10.834   2.159 -11.550  1.00  0.00     0.031 A 
ATOM     65  C   UNL     1      -9.612   0.136 -12.044  1.00  0.00     0.131 A 
ATOM     66  C   UNL     1     -12.028   1.454 -11.766  1.00  0.00     0.055 A 
ATOM     67  C   UNL     1     -10.801  -0.546 -12.302  1.00  0.00     0.041 A 
ATOM     68  F   UNL     1      -8.462  -0.550 -12.141  1.00  0.00    -0.206 F 
ATOM     69  C   UNL     1     -12.019   0.111 -12.153  1.00  0.00     0.022 A 
BRANCH  66  70
ATOM     70  S   UNL     1     -13.603   2.288 -11.428  1.00  0.00     0.124 S 
ATOM     71  O   UNL     1     -13.450   2.658 -10.024  1.00  0.00    -0.237 OA
ATOM     72  O   UNL     1     -13.588   3.388 -12.386  1.00  0.00    -0.237 OA
ATOM     73  O   UNL     1     -14.602   1.252 -11.686  1.00  0.00    -0.744 OA
ENDBRANCH  66  70
ENDBRANCH  49  63
BRANCH  50  74
ATOM     74  C   UNL     1      -0.821   5.278  -8.945  1.00  0.00     0.023 A 
ATOM     75  C   UNL     1      -0.546   6.623  -8.662  1.00  0.00     0.031 A 
ATOM     76  C   UNL     1       0.216   4.339  -8.837  1.00  0.00     0.131 A 
ATOM     77  C   UNL     1       0.752   6.997  -8.288  1.00  0.00     0.055 A 
ATOM     78  C   UNL     1       1.505   4.715  -8.462  1.00  0.00     0.041 A 
ATOM     79  F   UNL     1      -0.018   3.041  -9.087  1.00  0.00    -0.206 F 
ATOM     80  C   UNL     1       1.779   6.053  -8.186  1.00  0.00     0.022 A 
BRANCH  77  81
ATOM     81  S   UNL     1       1.080   8.741  -7.914  1.00  0.00     0.124 S 
ATOM     82  O   UNL     1       0.863   9.373  -9.210  1.00  0.00    -0.237 OA
ATOM     83  O   UNL     1       0.083   9.025  -6.886  1.00  0.00    -0.237 OA
ATOM     84  O   UNL     1       2.464   8.734  -7.445  1.00  0.00    -0.744 OA
ENDBRANCH  77  81
ENDBRANCH  50  74
BRANCH  62  85
ATOM     85  C   UNL     1      -3.871   4.280 -15.088  1.00  0.00     0.023 A 
ATOM     86  C   UNL     1      -3.042   3.380 -15.777  1.00  0.00     0.031 A 
ATOM     87  C   UNL     1      -4.264   5.464 -15.730  1.00  0.00     0.131 A 
ATOM     88  C   UNL     1      -2.613   3.691 -17.076  1.00  0.00     0.055 A 
ATOM     89  C   UNL     1      -3.844   5.762 -17.027  1.00  0.00     0.041 A 
ATOM     90  F   UNL     1      -5.049   6.353 -15.100  1.00  0.00    -0.206 F 
ATOM     91  C   UNL     1      -3.012   4.875 -17.705  1.00  0.00     0.022 A 
BRANCH  88  92
ATOM     92  S   UNL     1      -1.504   2.538 -17.931  1.00  0.00     0.124 S 
ATOM     93  O   UNL     1      -0.329   2.546 -17.066  1.00  0.00    -0.237 OA
ATOM     94  O   UNL     1      -2.282   1.303 -17.941  1.00  0.00    -0.237 OA
ATOM     95  O   UNL     1      -1.311   3.156 -19.242  1.00  0.00    -0.744 OA
ENDBRANCH  88  92
ENDBRANCH  62  85
ENDBRANCH  36  37
ENDBRANCH  28  31
ENDBRANCH  26  27
ENDBRANCH  25  26
ENDBRANCH   1  25
TORSDOF 19
