REMARK SMILES CC1(C)C(CNC(=O)[C@H]2C[C@H]2C(=O)NCCCNC(=O)c2ccc(-c3c4nc(c(-c5cc(S(=O)(=O)[O-])ccc5F)c5ccc([nH]5)c(-c5cc(S(=O)(=O)[O-])ccc5F)c5nc(c(-c6cc(S(=O)(=O)[O-])ccc6F)c6ccc3[nH]6)C=C5)C=C4)cc2)C1(C)C
REMARK SMILES IDX 16 1 15 2 14 3 12 4 13 5 11 7 9 8 10 9 7 10 6 11 8 13 5 14
REMARK SMILES IDX 4 15 1 16 2 17 3 18 84 19 85 20 86 21 17 22 18 23 19 24
REMARK SMILES IDX 20 26 21 27 22 28 83 29 23 30 82 31 24 32 25 33 26 34 76 35
REMARK SMILES IDX 27 36 81 37 75 38 77 39 28 40 80 41 74 42 73 43 29 45 61 46
REMARK SMILES IDX 41 47 60 48 42 49 45 50 59 51 78 52 43 53 44 54 58 56 79 57
REMARK SMILES IDX 46 58 30 59 31 60 39 61 32 62 38 63 40 64 37 65 33 66 34 67
REMARK SMILES IDX 35 68 36 69 62 70 63 71 71 72 64 73 70 74 72 75 69 76 65 77
REMARK SMILES IDX 66 78 67 79 68 80 47 81 48 82 56 83 49 84 55 85 57 86 54 87
REMARK SMILES IDX 50 88 51 89 52 90 53 91
REMARK H PARENT 14 6 6 12 18 25 77 44 45 55
REMARK Flexibility Score: inf
ROOT
ATOM      1  C   UNL     1       7.171  -4.477  -1.702  1.00  0.00     0.042 C 
ENDROOT
BRANCH   1   2
ATOM      2  C   UNL     1       6.744  -4.853  -3.118  1.00  0.00     0.117 C 
BRANCH   2   3
ATOM      3  N   UNL     1       5.595  -5.737  -3.144  1.00  0.00    -0.356 N 
ATOM      4  C   UNL     1       4.337  -5.656  -3.668  1.00  0.00     0.223 C 
ATOM      5  O   UNL     1       3.569  -6.585  -3.411  1.00  0.00    -0.275 OA
ATOM      6  H   UNL     1       5.759  -6.589  -2.679  1.00  0.00     0.163 HD
BRANCH   4   7
ATOM      7  C   UNL     1       3.839  -4.611  -4.600  1.00  0.00     0.091 C 
ATOM      8  C   UNL     1       3.663  -3.147  -4.238  1.00  0.00     0.091 C 
ATOM      9  C   UNL     1       4.607  -3.565  -5.344  1.00  0.00     0.028 C 
BRANCH   8  10
ATOM     10  C   UNL     1       4.099  -2.620  -2.925  1.00  0.00     0.223 C 
ATOM     11  N   UNL     1       4.541  -1.330  -2.842  1.00  0.00    -0.356 N 
ATOM     12  H   UNL     1       4.822  -1.036  -1.945  1.00  0.00     0.163 HD
ATOM     13  O   UNL     1       3.995  -3.303  -1.913  1.00  0.00    -0.275 OA
BRANCH  11  14
ATOM     14  C   UNL     1       4.654  -0.338  -3.885  1.00  0.00     0.120 C 
BRANCH  14  15
ATOM     15  C   UNL     1       3.416   0.504  -3.931  1.00  0.00     0.021 C 
ATOM     16  C   UNL     1       1.770   2.028  -2.595  1.00  0.00     0.012 C 
ATOM     17  C   UNL     1       3.175   1.780  -3.117  1.00  0.00    -0.025 C 
ATOM     18  C   UNL     1       4.226   2.303  -2.163  1.00  0.00     0.012 C 
ATOM     19  C   UNL     1       3.402   1.850  -4.644  1.00  0.00    -0.025 C 
ATOM     20  C   UNL     1       2.229   2.109  -5.568  1.00  0.00     0.012 C 
ATOM     21  C   UNL     1       4.685   2.432  -5.199  1.00  0.00     0.012 C 
ENDBRANCH  14  15
ENDBRANCH  11  14
ENDBRANCH   8  10
ENDBRANCH   4   7
ENDBRANCH   2   3
ENDBRANCH   1   2
BRANCH   1  22
ATOM     22  C   UNL     1       7.637  -5.642  -0.841  1.00  0.00     0.118 C 
BRANCH  22  23
ATOM     23  N   UNL     1       8.901  -6.206  -1.291  1.00  0.00    -0.352 N 
ATOM     24  C   UNL     1      10.152  -6.165  -0.724  1.00  0.00     0.251 C 
ATOM     25  H   UNL     1       8.852  -6.697  -2.143  1.00  0.00     0.163 HD
ATOM     26  O   UNL     1      11.116  -6.538  -1.391  1.00  0.00    -0.269 OA
BRANCH  24  27
ATOM     27  C   UNL     1      10.359  -5.654   0.654  1.00  0.00     0.039 A 
ATOM     28  C   UNL     1      11.506  -4.901   0.925  1.00  0.00     0.014 A 
ATOM     29  C   UNL     1       9.464  -5.937   1.688  1.00  0.00     0.014 A 
ATOM     30  C   UNL     1      11.714  -4.380   2.206  1.00  0.00     0.010 A 
ATOM     31  C   UNL     1       9.622  -5.335   2.937  1.00  0.00     0.010 A 
ATOM     32  C   UNL     1      10.754  -4.557   3.216  1.00  0.00    -0.014 A 
BRANCH  32  33
ATOM     33  C   UNL     1      10.932  -3.946   4.562  1.00  0.00     0.031 A 
ATOM     34  C   UNL     1      11.035  -4.816   5.789  1.00  0.00     0.074 A 
ATOM     35  C   UNL     1      10.960  -2.603   4.687  1.00  0.00     0.049 A 
ATOM     36  N   UNL     1      11.164  -4.468   7.045  1.00  0.00    -0.248 NA
ATOM     37  C   UNL     1      10.952  -6.269   5.578  1.00  0.00     0.031 C 
ATOM     38  C   UNL     1      10.822  -1.650   3.584  1.00  0.00     0.029 A 
ATOM     39  N   UNL     1      11.115  -1.805   5.794  1.00  0.00    -0.354 N 
ATOM     40  C   UNL     1      11.165  -5.654   7.772  1.00  0.00     0.074 A 
ATOM     41  C   UNL     1      10.956  -6.725   6.822  1.00  0.00     0.031 C 
ATOM     42  C   UNL     1      10.938  -0.401   4.063  1.00  0.00     0.029 A 
ATOM     43  C   UNL     1      11.109  -0.458   5.511  1.00  0.00     0.049 A 
ATOM     44  H   UNL     1      11.220  -2.163   6.705  1.00  0.00     0.167 HD
ATOM     45  C   UNL     1      11.348  -5.837   9.105  1.00  0.00     0.034 A 
ATOM     46  C   UNL     1      11.222   0.612   6.324  1.00  0.00     0.034 A 
ATOM     47  C   UNL     1      11.566  -4.758  10.040  1.00  0.00     0.049 A 
ATOM     48  C   UNL     1      11.410   0.384   7.803  1.00  0.00     0.074 A 
ATOM     49  C   UNL     1      11.817  -4.834  11.399  1.00  0.00     0.029 A 
ATOM     50  N   UNL     1      11.549  -3.407   9.717  1.00  0.00    -0.354 N 
ATOM     51  N   UNL     1      11.469  -0.749   8.466  1.00  0.00    -0.248 NA
ATOM     52  C   UNL     1      11.564   1.580   8.639  1.00  0.00     0.031 C 
ATOM     53  C   UNL     1      11.876  -3.532  11.909  1.00  0.00     0.029 A 
ATOM     54  C   UNL     1      11.752  -2.640  10.856  1.00  0.00     0.049 A 
ATOM     55  H   UNL     1      11.413  -3.045   8.812  1.00  0.00     0.167 HD
ATOM     56  C   UNL     1      11.701  -0.398   9.794  1.00  0.00     0.074 A 
ATOM     57  C   UNL     1      11.795   1.047   9.829  1.00  0.00     0.031 C 
ATOM     58  C   UNL     1      11.828  -1.198  10.885  1.00  0.00     0.034 A 
BRANCH  45  59
ATOM     59  C   UNL     1      11.292  -7.255   9.628  1.00  0.00     0.023 A 
ATOM     60  C   UNL     1      12.207  -8.237   9.208  1.00  0.00     0.031 A 
ATOM     61  C   UNL     1      10.293  -7.639  10.541  1.00  0.00     0.131 A 
ATOM     62  C   UNL     1      12.058  -9.566   9.637  1.00  0.00     0.055 A 
ATOM     63  C   UNL     1      10.203  -8.944  11.031  1.00  0.00     0.041 A 
ATOM     64  F   UNL     1       9.377  -6.754  10.964  1.00  0.00    -0.206 F 
ATOM     65  C   UNL     1      11.079  -9.920  10.567  1.00  0.00     0.022 A 
BRANCH  62  66
ATOM     66  S   UNL     1      13.066 -10.850   8.845  1.00  0.00     0.124 S 
ATOM     67  O   UNL     1      12.693 -10.694   7.441  1.00  0.00    -0.237 OA
ATOM     68  O   UNL     1      14.423 -10.446   9.194  1.00  0.00    -0.237 OA
ATOM     69  O   UNL     1      12.601 -12.085   9.472  1.00  0.00    -0.744 OA
ENDBRANCH  62  66
ENDBRANCH  45  59
BRANCH  46  70
ATOM     70  C   UNL     1      11.162   1.996   5.771  1.00  0.00     0.023 A 
ATOM     71  C   UNL     1      12.265   2.862   5.863  1.00  0.00     0.031 A 
ATOM     72  C   UNL     1       9.984   2.493   5.186  1.00  0.00     0.131 A 
ATOM     73  C   UNL     1      12.150   4.192   5.430  1.00  0.00     0.055 A 
ATOM     74  C   UNL     1       9.893   3.800   4.703  1.00  0.00     0.041 A 
ATOM     75  F   UNL     1       8.901   1.708   5.067  1.00  0.00    -0.206 F 
ATOM     76  C   UNL     1      10.976   4.663   4.837  1.00  0.00     0.022 A 
BRANCH  73  77
ATOM     77  S   UNL     1      13.530   5.329   5.738  1.00  0.00     0.124 S 
ATOM     78  O   UNL     1      13.661   5.252   7.188  1.00  0.00    -0.237 OA
ATOM     79  O   UNL     1      14.604   4.718   4.962  1.00  0.00    -0.237 OA
ATOM     80  O   UNL     1      13.040   6.605   5.221  1.00  0.00    -0.744 OA
ENDBRANCH  73  77
ENDBRANCH  46  70
BRANCH  58  81
ATOM     81  C   UNL     1      12.130  -0.515  12.200  1.00  0.00     0.023 A 
ATOM     82  C   UNL     1      11.227   0.382  12.796  1.00  0.00     0.031 A 
ATOM     83  C   UNL     1      13.361  -0.735  12.845  1.00  0.00     0.131 A 
ATOM     84  C   UNL     1      11.599   1.088  13.950  1.00  0.00     0.055 A 
ATOM     85  C   UNL     1      13.694  -0.088  14.035  1.00  0.00     0.041 A 
ATOM     86  F   UNL     1      14.267  -1.578  12.323  1.00  0.00    -0.206 F 
ATOM     87  C   UNL     1      12.819   0.845  14.584  1.00  0.00     0.022 A 
BRANCH  84  88
ATOM     88  S   UNL     1      10.523   2.426  14.536  1.00  0.00     0.124 S 
ATOM     89  O   UNL     1      10.421   3.273  13.351  1.00  0.00    -0.237 OA
ATOM     90  O   UNL     1       9.309   1.708  14.911  1.00  0.00    -0.237 OA
ATOM     91  O   UNL     1      11.271   3.005  15.650  1.00  0.00    -0.744 OA
ENDBRANCH  84  88
ENDBRANCH  58  81
ENDBRANCH  32  33
ENDBRANCH  24  27
ENDBRANCH  22  23
ENDBRANCH   1  22
TORSDOF 16
