REMARK SMILES O=C(COc1ccccc1/C=N/N1[C@@H](S)N=N[C@H]1[C@@H]1C=C(c2ccccc2)N=N1)NCCCNC(=O)c1ccc(-c2c3nc(c(-c4cc(S(=O)(=O)[O-])ccc4F)c4ccc([nH]4)c(-c4cc(S(=O)(=O)[O-])ccc4F)c4nc(c(-c5cc(S(=O)(=O)[O-])ccc5F)c5ccc2[nH]5)C=C4)C=C3)cc1
REMARK SMILES IDX 1 1 2 2 30 3 3 5 4 6 5 7 6 8 10 9 7 10 9 11 8 12 11 13 12 14
REMARK SMILES IDX 13 15 14 16 18 17 16 18 17 19 15 20 19 22 20 23 29 24 21 25
REMARK SMILES IDX 28 26 22 27 23 28 27 29 24 30 26 31 25 32 31 33 32 34 33 35
REMARK SMILES IDX 34 36 35 37 36 39 37 40 38 41 99 42 39 43 98 44 40 45 41 46
REMARK SMILES IDX 42 47 92 48 43 49 97 50 91 51 93 52 44 53 96 54 90 55 89 56
REMARK SMILES IDX 45 58 77 59 57 60 76 61 58 62 61 63 75 64 94 65 59 66 60 67
REMARK SMILES IDX 74 69 95 70 62 71 46 72 47 73 55 74 48 75 54 76 56 77 53 78
REMARK SMILES IDX 49 79 50 80 51 81 52 82 78 83 79 84 87 85 80 86 86 87 88 88
REMARK SMILES IDX 85 89 81 90 82 91 83 92 84 93 63 94 64 95 72 96 65 97 71 98
REMARK SMILES IDX 73 99 70 100 66 101 67 102 68 103 69 104
REMARK H PARENT 30 4 15 21 34 38 93 57 61 68
REMARK Flexibility Score: inf
ROOT
ATOM      1  O   UNL     1       1.616   0.607   0.885  1.00  0.00    -0.271 OA
ATOM      2  C   UNL     1       2.111  -0.255   0.151  1.00  0.00     0.257 C 
ATOM      3  N   UNL     1       2.511  -0.244  -1.258  1.00  0.00    -0.353 N 
ATOM      4  H   UNL     1       3.032  -1.066  -1.410  1.00  0.00     0.163 HD
ENDROOT
BRANCH   2   5
ATOM      5  C   UNL     1       2.150  -1.497   0.992  1.00  0.00     0.329 C 
BRANCH   5   6
ATOM      6  O   UNL     1       2.393  -2.711   0.429  1.00  0.00    -0.483 OA
BRANCH   6   7
ATOM      7  C   UNL     1       1.527  -3.242  -0.462  1.00  0.00     0.128 A 
ATOM      8  C   UNL     1       1.956  -4.593  -0.516  1.00  0.00     0.047 A 
ATOM      9  C   UNL     1       0.588  -2.683  -1.370  1.00  0.00     0.037 A 
ATOM     10  C   UNL     1       1.590  -5.419  -1.544  1.00  0.00     0.004 A 
ATOM     11  C   UNL     1       0.256  -3.564  -2.422  1.00  0.00     0.013 A 
ATOM     12  C   UNL     1       0.757  -4.892  -2.514  1.00  0.00     0.001 A 
BRANCH   9  13
ATOM     13  C   UNL     1       0.102  -1.193  -1.601  1.00  0.00     0.145 C 
ATOM     14  N   UNL     1      -0.040  -0.222  -0.718  1.00  0.00    -0.180 NA
BRANCH  14  15
ATOM     15  N   UNL     1       0.160   1.236  -1.185  1.00  0.00    -0.233 NA
ATOM     16  C   UNL     1      -0.973   2.123  -0.749  1.00  0.00     0.298 C 
ATOM     17  C   UNL     1       1.342   2.285  -0.457  1.00  0.00     0.274 C 
ATOM     18  N   UNL     1      -0.628   2.871   0.488  1.00  0.00    -0.153 NA
ATOM     19  N   UNL     1       0.617   2.997   0.647  1.00  0.00    -0.161 NA
BRANCH  16  20
ATOM     20  S   UNL     1      -2.590   1.268  -0.756  1.00  0.00    -0.128 SA
ATOM     21  H   UNL     1      -2.571   0.254   0.150  1.00  0.00     0.106 HD
ENDBRANCH  16  20
BRANCH  17  22
ATOM     22  C   UNL     1       3.169   2.274  -0.096  1.00  0.00     0.202 C 
ATOM     23  C   UNL     1       4.272   1.576  -0.902  1.00  0.00     0.037 C 
ATOM     24  N   UNL     1       3.632   1.754   1.275  1.00  0.00    -0.177 NA
ATOM     25  C   UNL     1       4.970   0.719  -0.144  1.00  0.00     0.091 C 
ATOM     26  N   UNL     1       4.569   0.865   1.163  1.00  0.00    -0.155 NA
BRANCH  25  27
ATOM     27  C   UNL     1       5.727  -0.455  -0.761  1.00  0.00     0.002 A 
ATOM     28  C   UNL     1       5.123  -1.721  -0.903  1.00  0.00     0.010 A 
ATOM     29  C   UNL     1       6.980  -0.366  -1.375  1.00  0.00     0.010 A 
ATOM     30  C   UNL     1       5.631  -2.792  -1.662  1.00  0.00     0.001 A 
ATOM     31  C   UNL     1       7.560  -1.466  -2.068  1.00  0.00     0.001 A 
ATOM     32  C   UNL     1       6.875  -2.669  -2.237  1.00  0.00     0.000 A 
ENDBRANCH  25  27
ENDBRANCH  17  22
ENDBRANCH  14  15
ENDBRANCH   9  13
ENDBRANCH   6   7
ENDBRANCH   5   6
ENDBRANCH   2   5
BRANCH   3  33
ATOM     33  C   UNL     1       2.462   0.564  -2.710  1.00  0.00     0.117 C 
BRANCH  33  34
ATOM     34  C   UNL     1       2.371   2.114  -3.279  1.00  0.00     0.042 C 
BRANCH  34  35
ATOM     35  C   UNL     1       3.439   3.289  -3.314  1.00  0.00     0.118 C 
BRANCH  35  36
ATOM     36  N   UNL     1       4.412   3.249  -4.423  1.00  0.00    -0.352 N 
ATOM     37  C   UNL     1       5.609   3.952  -4.605  1.00  0.00     0.251 C 
ATOM     38  H   UNL     1       4.182   2.629  -5.153  1.00  0.00     0.163 HD
ATOM     39  O   UNL     1       5.934   4.269  -5.745  1.00  0.00    -0.269 OA
BRANCH  37  40
ATOM     40  C   UNL     1       6.521   4.259  -3.471  1.00  0.00     0.039 A 
ATOM     41  C   UNL     1       7.519   5.236  -3.506  1.00  0.00     0.014 A 
ATOM     42  C   UNL     1       6.453   3.438  -2.362  1.00  0.00     0.014 A 
ATOM     43  C   UNL     1       8.375   5.383  -2.401  1.00  0.00     0.010 A 
ATOM     44  C   UNL     1       7.176   3.665  -1.215  1.00  0.00     0.010 A 
ATOM     45  C   UNL     1       8.195   4.592  -1.249  1.00  0.00    -0.014 A 
BRANCH  45  46
ATOM     46  C   UNL     1       8.948   4.816  -0.012  1.00  0.00     0.031 A 
ATOM     47  C   UNL     1       8.826   6.212   0.465  1.00  0.00     0.074 A 
ATOM     48  C   UNL     1       9.516   3.851   0.752  1.00  0.00     0.049 A 
ATOM     49  N   UNL     1       9.676   7.165   0.277  1.00  0.00    -0.248 NA
ATOM     50  C   UNL     1       7.529   6.671   0.986  1.00  0.00     0.031 C 
ATOM     51  C   UNL     1       9.467   2.398   0.546  1.00  0.00     0.029 A 
ATOM     52  N   UNL     1      10.208   3.953   1.929  1.00  0.00    -0.354 N 
ATOM     53  C   UNL     1       9.152   8.260   0.950  1.00  0.00     0.074 A 
ATOM     54  C   UNL     1       7.750   7.984   1.101  1.00  0.00     0.031 C 
ATOM     55  C   UNL     1       9.913   1.753   1.650  1.00  0.00     0.029 A 
ATOM     56  C   UNL     1      10.451   2.735   2.576  1.00  0.00     0.049 A 
ATOM     57  H   UNL     1      10.511   4.816   2.293  1.00  0.00     0.167 HD
ATOM     58  C   UNL     1       9.983   9.109   1.615  1.00  0.00     0.034 A 
ATOM     59  C   UNL     1      11.095   2.532   3.760  1.00  0.00     0.034 A 
ATOM     60  C   UNL     1      11.361   8.831   1.259  1.00  0.00     0.049 A 
ATOM     61  C   UNL     1      11.993   3.690   3.947  1.00  0.00     0.074 A 
ATOM     62  C   UNL     1      12.148   8.962   0.135  1.00  0.00     0.029 A 
ATOM     63  N   UNL     1      11.982   7.921   2.083  1.00  0.00    -0.354 N 
ATOM     64  N   UNL     1      13.000   3.934   3.156  1.00  0.00    -0.248 NA
ATOM     65  C   UNL     1      11.554   4.819   4.756  1.00  0.00     0.031 C 
ATOM     66  C   UNL     1      13.101   7.899   0.202  1.00  0.00     0.029 A 
ATOM     67  C   UNL     1      12.916   7.194   1.391  1.00  0.00     0.049 A 
ATOM     68  H   UNL     1      11.783   7.808   3.040  1.00  0.00     0.167 HD
ATOM     69  C   UNL     1      13.008   5.309   3.023  1.00  0.00     0.074 A 
ATOM     70  C   UNL     1      12.237   5.801   4.159  1.00  0.00     0.031 C 
ATOM     71  C   UNL     1      13.372   5.888   1.842  1.00  0.00     0.034 A 
BRANCH  58  72
ATOM     72  C   UNL     1       9.659   9.821   2.920  1.00  0.00     0.023 A 
ATOM     73  C   UNL     1      10.688  10.601   3.490  1.00  0.00     0.031 A 
ATOM     74  C   UNL     1       8.559   9.556   3.765  1.00  0.00     0.131 A 
ATOM     75  C   UNL     1      10.647  10.982   4.843  1.00  0.00     0.055 A 
ATOM     76  C   UNL     1       8.499   9.982   5.096  1.00  0.00     0.041 A 
ATOM     77  F   UNL     1       7.519   8.802   3.398  1.00  0.00    -0.206 F 
ATOM     78  C   UNL     1       9.560  10.672   5.653  1.00  0.00     0.022 A 
BRANCH  75  79
ATOM     79  S   UNL     1      12.115  11.754   5.571  1.00  0.00     0.124 S 
ATOM     80  O   UNL     1      13.147  10.766   5.279  1.00  0.00    -0.237 OA
ATOM     81  O   UNL     1      12.192  13.008   4.831  1.00  0.00    -0.237 OA
ATOM     82  O   UNL     1      11.762  11.886   6.983  1.00  0.00    -0.744 OA
ENDBRANCH  75  79
ENDBRANCH  58  72
BRANCH  59  83
ATOM     83  C   UNL     1      10.823   1.544   4.844  1.00  0.00     0.023 A 
ATOM     84  C   UNL     1      11.778   1.157   5.816  1.00  0.00     0.031 A 
ATOM     85  C   UNL     1       9.482   1.190   5.101  1.00  0.00     0.131 A 
ATOM     86  C   UNL     1      11.370   0.470   6.989  1.00  0.00     0.055 A 
ATOM     87  C   UNL     1       9.084   0.524   6.265  1.00  0.00     0.041 A 
ATOM     88  F   UNL     1       8.499   1.570   4.269  1.00  0.00    -0.206 F 
ATOM     89  C   UNL     1      10.026   0.172   7.220  1.00  0.00     0.022 A 
BRANCH  86  90
ATOM     90  S   UNL     1      12.576   0.023   8.289  1.00  0.00     0.124 S 
ATOM     91  O   UNL     1      13.418  -0.958   7.613  1.00  0.00    -0.237 OA
ATOM     92  O   UNL     1      13.195   1.305   8.600  1.00  0.00    -0.237 OA
ATOM     93  O   UNL     1      11.741  -0.526   9.359  1.00  0.00    -0.744 OA
ENDBRANCH  86  90
ENDBRANCH  59  83
BRANCH  71  94
ATOM     94  C   UNL     1      14.219   5.059   0.900  1.00  0.00     0.023 A 
ATOM     95  C   UNL     1      13.825   3.847   0.289  1.00  0.00     0.031 A 
ATOM     96  C   UNL     1      15.493   5.564   0.591  1.00  0.00     0.131 A 
ATOM     97  C   UNL     1      14.708   3.183  -0.587  1.00  0.00     0.055 A 
ATOM     98  C   UNL     1      16.354   4.917  -0.292  1.00  0.00     0.041 A 
ATOM     99  F   UNL     1      15.918   6.717   1.134  1.00  0.00    -0.206 F 
ATOM    100  C   UNL     1      15.967   3.719  -0.880  1.00  0.00     0.022 A 
BRANCH  97 101
ATOM    101  S   UNL     1      14.250   1.589  -1.347  1.00  0.00     0.124 S 
ATOM    102  O   UNL     1      13.798   0.785  -0.211  1.00  0.00    -0.237 OA
ATOM    103  O   UNL     1      13.216   1.973  -2.301  1.00  0.00    -0.237 OA
ATOM    104  O   UNL     1      15.497   1.128  -1.956  1.00  0.00    -0.744 OA
ENDBRANCH  97 101
ENDBRANCH  71  94
ENDBRANCH  45  46
ENDBRANCH  37  40
ENDBRANCH  35  36
ENDBRANCH  34  35
ENDBRANCH  33  34
ENDBRANCH   3  33
TORSDOF 20
