REMARK SMILES C#CCN(CC(=O)NCCCNC(=O)c1ccc(-c2c3nc(c(-c4cc(S(=O)(=O)[O-])ccc4F)c4ccc([nH]4)c(-c4cc(S(=O)(=O)[O-])ccc4F)c4nc(c(-c5cc(S(=O)(=O)[O-])ccc5F)c5ccc2[nH]5)C=C4)C=C3)cc1)C(=O)NCC[C@@H]1CCCO1
REMARK SMILES IDX 9 1 8 2 6 3 7 4 5 6 4 7 3 8 2 9 1 10 78 11 79 12 80 13 81 15
REMARK SMILES IDX 82 16 83 17 84 18 87 19 85 20 86 21 10 22 11 23 12 24 13 25
REMARK SMILES IDX 14 27 15 28 16 29 77 30 17 31 76 32 18 33 19 34 20 35 70 36
REMARK SMILES IDX 21 37 75 38 69 39 71 40 22 41 74 42 68 43 67 44 23 46 55 47
REMARK SMILES IDX 35 48 54 49 36 50 39 51 53 52 72 53 37 54 38 55 52 57 73 58
REMARK SMILES IDX 40 59 24 60 25 61 33 62 26 63 32 64 34 65 31 66 27 67 28 68
REMARK SMILES IDX 29 69 30 70 56 71 57 72 65 73 58 74 64 75 66 76 63 77 59 78
REMARK SMILES IDX 60 79 61 80 62 81 41 82 42 83 50 84 43 85 49 86 51 87 48 88
REMARK SMILES IDX 44 89 45 90 46 91 47 92
REMARK H PARENT 8 5 80 14 12 26 71 45 39 56
REMARK Flexibility Score: inf
ROOT
ATOM      1  C   UNL     1      -5.186  -0.254   0.331  1.00  0.00     0.117 C 
ENDROOT
BRANCH   1   2
ATOM      2  N   UNL     1      -5.468   0.548  -0.841  1.00  0.00    -0.354 N 
ATOM      3  C   UNL     1      -4.678   0.829  -1.917  1.00  0.00     0.239 C 
ATOM      4  O   UNL     1      -5.247   1.236  -2.935  1.00  0.00    -0.273 OA
ATOM      5  H   UNL     1      -6.366   0.951  -0.866  1.00  0.00     0.163 HD
BRANCH   3   6
ATOM      6  C   UNL     1      -3.174   0.504  -1.933  1.00  0.00     0.222 C 
BRANCH   6   7
ATOM      7  N   UNL     1      -2.414   1.014  -0.796  1.00  0.00    -0.304 N 
BRANCH   7   8
ATOM      8  C   UNL     1      -1.838   0.018   0.097  1.00  0.00     0.211 C 
BRANCH   8   9
ATOM      9  C   UNL     1      -0.318   0.018   0.097  1.00  0.00    -0.085 C 
ATOM     10  C   UNL     1       0.986   0.018   0.097  1.00  0.00     0.006 C 
ENDBRANCH   8   9
ENDBRANCH   7   8
BRANCH   7  11
ATOM     11  C   UNL     1      -2.167   2.317  -0.478  1.00  0.00     0.318 C 
ATOM     12  O   UNL     1      -1.633   2.627   0.593  1.00  0.00    -0.249 OA
ATOM     13  N   UNL     1      -2.472   3.360  -1.260  1.00  0.00    -0.338 N 
ATOM     14  H   UNL     1      -2.216   4.204  -0.823  1.00  0.00     0.165 HD
BRANCH  13  15
ATOM     15  C   UNL     1      -3.066   3.621  -2.562  1.00  0.00     0.120 C 
BRANCH  15  16
ATOM     16  C   UNL     1      -4.347   4.448  -2.424  1.00  0.00     0.053 C 
BRANCH  16  17
ATOM     17  C   UNL     1      -4.048   5.930  -2.203  1.00  0.00     0.120 C 
ATOM     18  C   UNL     1      -5.299   6.785  -2.056  1.00  0.00     0.034 C 
ATOM     19  O   UNL     1      -3.331   6.453  -3.340  1.00  0.00    -0.378 OA
ATOM     20  C   UNL     1      -4.831   8.113  -2.596  1.00  0.00     0.031 C 
ATOM     21  C   UNL     1      -3.946   7.682  -3.742  1.00  0.00     0.160 C 
ENDBRANCH  16  17
ENDBRANCH  15  16
ENDBRANCH  13  15
ENDBRANCH   7  11
ENDBRANCH   6   7
ENDBRANCH   3   6
ENDBRANCH   1   2
BRANCH   1  22
ATOM     22  C   UNL     1      -4.991   0.567   1.601  1.00  0.00     0.042 C 
BRANCH  22  23
ATOM     23  C   UNL     1      -6.229   1.328   2.068  1.00  0.00     0.118 C 
BRANCH  23  24
ATOM     24  N   UNL     1      -7.373   0.455   2.282  1.00  0.00    -0.352 N 
ATOM     25  C   UNL     1      -8.066   0.132   3.419  1.00  0.00     0.251 C 
ATOM     26  H   UNL     1      -7.709   0.020   1.466  1.00  0.00     0.163 HD
ATOM     27  O   UNL     1      -8.846  -0.823   3.369  1.00  0.00    -0.269 OA
BRANCH  25  28
ATOM     28  C   UNL     1      -7.904   0.885   4.683  1.00  0.00     0.039 A 
ATOM     29  C   UNL     1      -8.038   0.193   5.893  1.00  0.00     0.014 A 
ATOM     30  C   UNL     1      -7.713   2.270   4.703  1.00  0.00     0.014 A 
ATOM     31  C   UNL     1      -7.946   0.876   7.108  1.00  0.00     0.010 A 
ATOM     32  C   UNL     1      -7.544   2.939   5.916  1.00  0.00     0.010 A 
ATOM     33  C   UNL     1      -7.677   2.253   7.132  1.00  0.00    -0.014 A 
BRANCH  33  34
ATOM     34  C   UNL     1      -7.569   2.990   8.420  1.00  0.00     0.031 A 
ATOM     35  C   UNL     1      -8.574   4.056   8.769  1.00  0.00     0.074 A 
ATOM     36  C   UNL     1      -6.547   2.724   9.257  1.00  0.00     0.049 A 
ATOM     37  N   UNL     1      -8.623   4.838   9.818  1.00  0.00    -0.248 NA
ATOM     38  C   UNL     1      -9.649   4.293   7.795  1.00  0.00     0.031 C 
ATOM     39  C   UNL     1      -5.490   1.740   9.012  1.00  0.00     0.029 A 
ATOM     40  N   UNL     1      -6.225   3.258  10.479  1.00  0.00    -0.354 N 
ATOM     41  C   UNL     1      -9.724   5.667   9.623  1.00  0.00     0.074 A 
ATOM     42  C   UNL     1     -10.274   5.332   8.327  1.00  0.00     0.031 C 
ATOM     43  C   UNL     1      -4.653   1.724  10.062  1.00  0.00     0.029 A 
ATOM     44  C   UNL     1      -5.088   2.720  11.036  1.00  0.00     0.049 A 
ATOM     45  H   UNL     1      -6.758   3.961  10.917  1.00  0.00     0.167 HD
ATOM     46  C   UNL     1     -10.242   6.604  10.458  1.00  0.00     0.034 A 
ATOM     47  C   UNL     1      -4.462   3.003  12.195  1.00  0.00     0.034 A 
ATOM     48  C   UNL     1      -9.691   6.915  11.755  1.00  0.00     0.049 A 
ATOM     49  C   UNL     1      -5.048   4.056  13.101  1.00  0.00     0.074 A 
ATOM     50  C   UNL     1     -10.164   7.805  12.704  1.00  0.00     0.029 A 
ATOM     51  N   UNL     1      -8.537   6.349  12.285  1.00  0.00    -0.354 N 
ATOM     52  N   UNL     1      -6.118   4.797  12.923  1.00  0.00    -0.248 NA
ATOM     53  C   UNL     1      -4.349   4.301  14.368  1.00  0.00     0.031 C 
ATOM     54  C   UNL     1      -9.267   7.821  13.778  1.00  0.00     0.029 A 
ATOM     55  C   UNL     1      -8.270   6.891  13.534  1.00  0.00     0.049 A 
ATOM     56  H   UNL     1      -7.990   5.663  11.839  1.00  0.00     0.167 HD
ATOM     57  C   UNL     1      -6.232   5.577  14.070  1.00  0.00     0.074 A 
ATOM     58  C   UNL     1      -5.135   5.201  14.938  1.00  0.00     0.031 C 
ATOM     59  C   UNL     1      -7.161   6.517  14.381  1.00  0.00     0.034 A 
BRANCH  46  60
ATOM     60  C   UNL     1     -11.452   7.370   9.975  1.00  0.00     0.023 A 
ATOM     61  C   UNL     1     -12.673   6.726   9.702  1.00  0.00     0.031 A 
ATOM     62  C   UNL     1     -11.378   8.756   9.754  1.00  0.00     0.131 A 
ATOM     63  C   UNL     1     -13.739   7.450   9.148  1.00  0.00     0.055 A 
ATOM     64  C   UNL     1     -12.471   9.487   9.281  1.00  0.00     0.041 A 
ATOM     65  F   UNL     1     -10.236   9.425   9.978  1.00  0.00    -0.206 F 
ATOM     66  C   UNL     1     -13.656   8.831   8.959  1.00  0.00     0.022 A 
BRANCH  63  67
ATOM     67  S   UNL     1     -15.184   6.536   8.541  1.00  0.00     0.124 S 
ATOM     68  O   UNL     1     -14.578   5.661   7.540  1.00  0.00    -0.237 OA
ATOM     69  O   UNL     1     -15.674   5.881   9.748  1.00  0.00    -0.237 OA
ATOM     70  O   UNL     1     -16.050   7.581   8.001  1.00  0.00    -0.744 OA
ENDBRANCH  63  67
ENDBRANCH  46  60
BRANCH  47  71
ATOM     71  C   UNL     1      -3.210   2.287  12.572  1.00  0.00     0.023 A 
ATOM     72  C   UNL     1      -3.172   1.439  13.690  1.00  0.00     0.031 A 
ATOM     73  C   UNL     1      -2.023   2.473  11.843  1.00  0.00     0.131 A 
ATOM     74  C   UNL     1      -1.961   0.843  14.074  1.00  0.00     0.055 A 
ATOM     75  C   UNL     1      -0.832   1.839  12.200  1.00  0.00     0.041 A 
ATOM     76  F   UNL     1      -2.007   3.269  10.762  1.00  0.00    -0.206 F 
ATOM     77  C   UNL     1      -0.793   1.028  13.330  1.00  0.00     0.022 A 
BRANCH  74  78
ATOM     78  S   UNL     1      -1.916  -0.116  15.613  1.00  0.00     0.124 S 
ATOM     79  O   UNL     1      -2.363   0.869  16.591  1.00  0.00    -0.237 OA
ATOM     80  O   UNL     1      -2.848  -1.200  15.322  1.00  0.00    -0.237 OA
ATOM     81  O   UNL     1      -0.514  -0.515  15.724  1.00  0.00    -0.744 OA
ENDBRANCH  74  78
ENDBRANCH  47  71
BRANCH  59  82
ATOM     82  C   UNL     1      -7.040   7.172  15.735  1.00  0.00     0.023 A 
ATOM     83  C   UNL     1      -5.964   8.019  16.051  1.00  0.00     0.031 A 
ATOM     84  C   UNL     1      -8.004   6.924  16.729  1.00  0.00     0.131 A 
ATOM     85  C   UNL     1      -5.844   8.541  17.348  1.00  0.00     0.055 A 
ATOM     86  C   UNL     1      -7.910   7.494  17.999  1.00  0.00     0.041 A 
ATOM     87  F   UNL     1      -9.051   6.122  16.481  1.00  0.00    -0.206 F 
ATOM     88  C   UNL     1      -6.819   8.296  18.319  1.00  0.00     0.022 A 
BRANCH  85  89
ATOM     89  S   UNL     1      -4.346   9.469  17.778  1.00  0.00     0.124 S 
ATOM     90  O   UNL     1      -3.296   8.491  17.513  1.00  0.00    -0.237 OA
ATOM     91  O   UNL     1      -4.407  10.603  16.861  1.00  0.00    -0.237 OA
ATOM     92  O   UNL     1      -4.542   9.802  19.188  1.00  0.00    -0.744 OA
ENDBRANCH  85  89
ENDBRANCH  59  82
ENDBRANCH  33  34
ENDBRANCH  25  28
ENDBRANCH  23  24
ENDBRANCH  22  23
ENDBRANCH   1  22
TORSDOF 20
