REMARK SMILES O=C(NCCCNC(=O)[C@H]1CC[C@@H](C[NH2+][C@H]2CCC[C@H](C3CC3)C2)CC1)c1ccc(-c2c3nc(c(-c4cc(S(=O)(=O)[O-])ccc4F)c4ccc([nH]4)c(-c4cc(S(=O)(=O)[O-])ccc4F)c4nc(c(-c5cc(S(=O)(=O)[O-])ccc5F)c5ccc2[nH]5)C=C4)C=C3)cc1
REMARK SMILES IDX 5 1 4 2 3 3 1 4 2 5 27 7 28 8 89 9 29 10 88 11 30 12 31 13
REMARK SMILES IDX 32 14 82 15 33 16 87 17 81 18 83 19 34 20 86 21 80 22 79 23
REMARK SMILES IDX 35 25 67 26 47 27 66 28 48 29 51 30 65 31 84 32 49 33 50 34
REMARK SMILES IDX 64 36 85 37 52 38 36 39 37 40 45 41 38 42 44 43 46 44 43 45
REMARK SMILES IDX 39 46 40 47 41 48 42 49 68 50 69 51 77 52 70 53 76 54 78 55
REMARK SMILES IDX 75 56 71 57 72 58 73 59 74 60 53 61 54 62 62 63 55 64 61 65
REMARK SMILES IDX 63 66 60 67 56 68 57 69 58 70 59 71 6 72 7 73 8 74 9 76
REMARK SMILES IDX 10 77 26 78 11 79 25 80 12 81 13 82 14 83 15 84 16 87 17 88
REMARK SMILES IDX 24 89 18 90 20 91 19 92 21 93 22 94 23 95
REMARK H PARENT 3 6 83 24 51 35 7 75 15 85 15 86
REMARK Flexibility Score: inf
ROOT
ATOM      1  C   UNL     1       5.623  -2.620  -7.474  1.00  0.00     0.042 C 
ENDROOT
BRANCH   1   2
ATOM      2  C   UNL     1       5.170  -1.193  -7.196  1.00  0.00     0.118 C 
BRANCH   2   3
ATOM      3  N   UNL     1       5.625  -0.715  -5.891  1.00  0.00    -0.352 N 
ATOM      4  O   UNL     1       7.028   0.207  -4.394  1.00  0.00    -0.269 OA
ATOM      5  C   UNL     1       6.648   0.142  -5.558  1.00  0.00     0.251 C 
ATOM      6  H   UNL     1       5.115  -1.064  -5.124  1.00  0.00     0.163 HD
BRANCH   5   7
ATOM      7  C   UNL     1       7.286   0.974  -6.600  1.00  0.00     0.039 A 
ATOM      8  C   UNL     1       6.512   1.552  -7.603  1.00  0.00     0.014 A 
ATOM      9  C   UNL     1       8.665   1.199  -6.566  1.00  0.00     0.014 A 
ATOM     10  C   UNL     1       7.128   2.177  -8.676  1.00  0.00     0.010 A 
ATOM     11  C   UNL     1       9.272   1.943  -7.584  1.00  0.00     0.010 A 
ATOM     12  C   UNL     1       8.514   2.400  -8.674  1.00  0.00    -0.014 A 
BRANCH  12  13
ATOM     13  C   UNL     1       9.117   3.140  -9.813  1.00  0.00     0.031 A 
ATOM     14  C   UNL     1      10.143   2.494 -10.703  1.00  0.00     0.074 A 
ATOM     15  C   UNL     1       8.674   4.386 -10.078  1.00  0.00     0.049 A 
ATOM     16  N   UNL     1      10.731   2.976 -11.769  1.00  0.00    -0.248 NA
ATOM     17  C   UNL     1      10.576   1.135 -10.345  1.00  0.00     0.031 C 
ATOM     18  C   UNL     1       7.680   5.112  -9.280  1.00  0.00     0.029 A 
ATOM     19  N   UNL     1       8.962   5.248 -11.104  1.00  0.00    -0.354 N 
ATOM     20  C   UNL     1      11.623   1.995 -12.193  1.00  0.00     0.074 A 
ATOM     21  C   UNL     1      11.520   0.904 -11.246  1.00  0.00     0.031 C 
ATOM     22  C   UNL     1       7.387   6.270  -9.886  1.00  0.00     0.029 A 
ATOM     23  C   UNL     1       8.230   6.413 -11.066  1.00  0.00     0.049 A 
ATOM     24  H   UNL     1       9.629   5.053 -11.801  1.00  0.00     0.167 HD
ATOM     25  C   UNL     1      12.442   2.005 -13.274  1.00  0.00     0.034 A 
ATOM     26  C   UNL     1       8.245   7.486 -11.879  1.00  0.00     0.034 A 
ATOM     27  C   UNL     1      12.517   3.101 -14.213  1.00  0.00     0.049 A 
ATOM     28  C   UNL     1       9.181   7.480 -13.056  1.00  0.00     0.074 A 
ATOM     29  C   UNL     1      13.291   3.207 -15.356  1.00  0.00     0.029 A 
ATOM     30  N   UNL     1      11.797   4.287 -14.115  1.00  0.00    -0.354 N 
ATOM     31  N   UNL     1      10.010   6.539 -13.447  1.00  0.00    -0.248 NA
ATOM     32  C   UNL     1       9.179   8.677 -13.903  1.00  0.00     0.031 C 
ATOM     33  C   UNL     1      13.093   4.479 -15.907  1.00  0.00     0.029 A 
ATOM     34  C   UNL     1      12.131   5.138 -15.159  1.00  0.00     0.049 A 
ATOM     35  H   UNL     1      11.144   4.492 -13.407  1.00  0.00     0.167 HD
ATOM     36  C   UNL     1      10.609   7.023 -14.605  1.00  0.00     0.074 A 
ATOM     37  C   UNL     1      10.028   8.327 -14.857  1.00  0.00     0.031 C 
ATOM     38  C   UNL     1      11.551   6.441 -15.391  1.00  0.00     0.034 A 
BRANCH  25  39
ATOM     39  C   UNL     1      13.361   0.818 -13.465  1.00  0.00     0.023 A 
ATOM     40  C   UNL     1      12.870  -0.480 -13.689  1.00  0.00     0.031 A 
ATOM     41  C   UNL     1      14.756   0.986 -13.391  1.00  0.00     0.131 A 
ATOM     42  C   UNL     1      13.758  -1.566 -13.754  1.00  0.00     0.055 A 
ATOM     43  C   UNL     1      15.639  -0.086 -13.541  1.00  0.00     0.041 A 
ATOM     44  F   UNL     1      15.288   2.196 -13.157  1.00  0.00    -0.206 F 
ATOM     45  C   UNL     1      15.140  -1.375 -13.707  1.00  0.00     0.022 A 
BRANCH  42  46
ATOM     46  S   UNL     1      13.075  -3.247 -13.745  1.00  0.00     0.124 S 
ATOM     47  O   UNL     1      12.293  -3.244 -12.511  1.00  0.00    -0.237 OA
ATOM     48  O   UNL     1      12.310  -3.284 -14.986  1.00  0.00    -0.237 OA
ATOM     49  O   UNL     1      14.262  -4.100 -13.718  1.00  0.00    -0.744 OA
ENDBRANCH  42  46
ENDBRANCH  25  39
BRANCH  26  50
ATOM     50  C   UNL     1       7.368   8.658 -11.596  1.00  0.00     0.023 A 
ATOM     51  C   UNL     1       6.372   9.054 -12.501  1.00  0.00     0.031 A 
ATOM     52  C   UNL     1       7.535   9.420 -10.425  1.00  0.00     0.131 A 
ATOM     53  C   UNL     1       5.611  10.204 -12.243  1.00  0.00     0.055 A 
ATOM     54  C   UNL     1       6.735  10.528 -10.144  1.00  0.00     0.041 A 
ATOM     55  F   UNL     1       8.470   9.083  -9.522  1.00  0.00    -0.206 F 
ATOM     56  C   UNL     1       5.774  10.934 -11.064  1.00  0.00     0.022 A 
BRANCH  53  57
ATOM     57  S   UNL     1       4.458  10.786 -13.517  1.00  0.00     0.124 S 
ATOM     58  O   UNL     1       5.346  10.969 -14.660  1.00  0.00    -0.237 OA
ATOM     59  O   UNL     1       3.519   9.674 -13.606  1.00  0.00    -0.237 OA
ATOM     60  O   UNL     1       3.913  12.016 -12.946  1.00  0.00    -0.744 OA
ENDBRANCH  53  57
ENDBRANCH  26  50
BRANCH  38  61
ATOM     61  C   UNL     1      11.964   7.201 -16.629  1.00  0.00     0.023 A 
ATOM     62  C   UNL     1      12.630   8.437 -16.554  1.00  0.00     0.031 A 
ATOM     63  C   UNL     1      11.647   6.697 -17.903  1.00  0.00     0.131 A 
ATOM     64  C   UNL     1      12.891   9.162 -17.727  1.00  0.00     0.055 A 
ATOM     65  C   UNL     1      11.973   7.390 -19.069  1.00  0.00     0.041 A 
ATOM     66  F   UNL     1      11.008   5.524 -18.034  1.00  0.00    -0.206 F 
ATOM     67  C   UNL     1      12.582   8.638 -18.985  1.00  0.00     0.022 A 
BRANCH  64  68
ATOM     68  S   UNL     1      13.530  10.853 -17.580  1.00  0.00     0.124 S 
ATOM     69  O   UNL     1      12.517  11.489 -16.743  1.00  0.00    -0.237 OA
ATOM     70  O   UNL     1      14.832  10.641 -16.955  1.00  0.00    -0.237 OA
ATOM     71  O   UNL     1      13.576  11.324 -18.963  1.00  0.00    -0.744 OA
ENDBRANCH  64  68
ENDBRANCH  38  61
ENDBRANCH  12  13
ENDBRANCH   5   7
ENDBRANCH   2   3
ENDBRANCH   1   2
BRANCH   1  72
ATOM     72  C   UNL     1       4.997  -3.617  -6.515  1.00  0.00     0.117 C 
BRANCH  72  73
ATOM     73  N   UNL     1       3.589  -3.834  -6.802  1.00  0.00    -0.356 N 
ATOM     74  C   UNL     1       2.872  -4.794  -7.428  1.00  0.00     0.223 C 
ATOM     75  H   UNL     1       3.021  -3.107  -6.459  1.00  0.00     0.163 HD
ATOM     76  O   UNL     1       1.656  -4.564  -7.495  1.00  0.00    -0.275 OA
BRANCH  74  77
ATOM     77  C   UNL     1       3.444  -6.072  -8.070  1.00  0.00     0.078 C 
ATOM     78  C   UNL     1       4.831  -6.520  -7.607  1.00  0.00     0.014 C 
ATOM     79  C   UNL     1       2.373  -7.173  -7.870  1.00  0.00     0.014 C 
ATOM     80  C   UNL     1       5.207  -7.959  -7.947  1.00  0.00     0.010 C 
ATOM     81  C   UNL     1       2.838  -8.586  -8.201  1.00  0.00     0.010 C 
ATOM     82  C   UNL     1       4.142  -8.957  -7.482  1.00  0.00     0.044 C 
BRANCH  82  83
ATOM     83  C   UNL     1       4.039  -8.968  -5.935  1.00  0.00     0.264 C 
BRANCH  83  84
ATOM     84  N   UNL     1       3.082  -9.960  -5.448  1.00  0.00    -0.344 N 
ATOM     85  H   UNL     1       3.473 -10.890  -5.600  1.00  0.00     0.346 HD
ATOM     86  H   UNL     1       2.213  -9.822  -5.963  1.00  0.00     0.346 HD
BRANCH  84  87
ATOM     87  C   UNL     1       2.773  -9.810  -4.016  1.00  0.00     0.182 C 
ATOM     88  C   UNL     1       1.886  -8.593  -3.697  1.00  0.00     0.065 C 
ATOM     89  C   UNL     1       2.059 -11.085  -3.536  1.00  0.00     0.069 C 
ATOM     90  C   UNL     1       0.492  -8.708  -4.306  1.00  0.00     0.006 C 
ATOM     91  C   UNL     1       0.637 -11.256  -4.116  1.00  0.00    -0.002 C 
ATOM     92  C   UNL     1      -0.204  -9.992  -3.865  1.00  0.00     0.004 C 
BRANCH  91  93
ATOM     93  C   UNL     1       0.011 -12.528  -3.571  1.00  0.00    -0.008 C 
ATOM     94  C   UNL     1      -1.307 -12.583  -2.832  1.00  0.00     0.004 C 
ATOM     95  C   UNL     1      -1.217 -13.098  -4.239  1.00  0.00     0.004 C 
ENDBRANCH  91  93
ENDBRANCH  84  87
ENDBRANCH  83  84
ENDBRANCH  82  83
ENDBRANCH  74  77
ENDBRANCH  72  73
ENDBRANCH   1  72
TORSDOF 17
