REMARK SMILES N#Cc1ccc(C(=O)NCCCNC(=O)c2ccc(-c3c4nc(c(-c5cc(S(=O)(=O)[O-])ccc5F)c5ccc([nH]5)c(-c5cc(S(=O)(=O)[O-])ccc5F)c5nc(c(-c6cc(S(=O)(=O)[O-])ccc6F)c6ccc3[nH]6)C=C5)C=C4)cc2)nc1/C=C/c1ccc(O)c(Cl)c1
REMARK SMILES IDX 11 1 10 2 9 3 7 4 8 5 6 7 3 8 4 9 80 10 5 11 79 12 2 13 1 14
REMARK SMILES IDX 81 15 82 16 83 17 84 18 90 19 85 20 88 21 86 22 89 23 87 24
REMARK SMILES IDX 12 26 13 27 14 28 15 30 16 31 17 32 78 33 18 34 77 35 19 36
REMARK SMILES IDX 20 37 21 38 71 39 22 40 76 41 70 42 72 43 23 44 75 45 69 46
REMARK SMILES IDX 68 47 24 49 56 50 36 51 55 52 37 53 40 54 54 55 73 56 38 57
REMARK SMILES IDX 39 58 53 60 74 61 41 62 25 63 26 64 34 65 27 66 33 67 35 68
REMARK SMILES IDX 32 69 28 70 29 71 30 72 31 73 57 74 58 75 66 76 59 77 65 78
REMARK SMILES IDX 67 79 64 80 60 81 61 82 62 83 63 84 42 85 43 86 51 87 44 88
REMARK SMILES IDX 50 89 52 90 49 91 45 92 46 93 47 94 48 95
REMARK H PARENT 9 6 87 25 13 29 72 48 40 59
REMARK Flexibility Score: inf
ROOT
ATOM      1  C   UNL     1      -4.130   3.444  -1.144  1.00  0.00     0.042 C 
ENDROOT
BRANCH   1   2
ATOM      2  C   UNL     1      -3.949   2.720   0.187  1.00  0.00     0.118 C 
BRANCH   2   3
ATOM      3  N   UNL     1      -4.162   1.291   0.056  1.00  0.00    -0.351 N 
ATOM      4  C   UNL     1      -3.359   0.177   0.001  1.00  0.00     0.269 C 
ATOM      5  O   UNL     1      -3.966  -0.897  -0.061  1.00  0.00    -0.268 OA
ATOM      6  H   UNL     1      -5.117   1.063  -0.010  1.00  0.00     0.163 HD
BRANCH   4   7
ATOM      7  C   UNL     1      -1.847   0.166   0.015  1.00  0.00     0.128 A 
ATOM      8  C   UNL     1       0.907  -0.160   0.005  1.00  0.00     0.078 A 
ATOM      9  C   UNL     1       0.357   1.118   0.053  1.00  0.00     0.024 A 
ATOM     10  C   UNL     1       0.036  -1.248  -0.018  1.00  0.00     0.082 A 
ATOM     11  C   UNL     1      -1.028   1.283   0.044  1.00  0.00     0.035 A 
ATOM     12  N   UNL     1      -1.312  -1.090  -0.009  1.00  0.00    -0.242 NA
BRANCH   8  13
ATOM     13  C   UNL     1       2.329  -0.301  -0.003  1.00  0.00     0.101 C 
ATOM     14  N   UNL     1       3.486  -0.414  -0.003  1.00  0.00    -0.192 NA
ENDBRANCH   8  13
BRANCH  10  15
ATOM     15  C   UNL     1       0.529  -2.637   0.021  1.00  0.00     0.030 C 
ATOM     16  C   UNL     1      -0.233  -3.739   0.124  1.00  0.00     0.010 C 
BRANCH  16  17
ATOM     17  C   UNL     1       0.385  -5.061   0.296  1.00  0.00    -0.024 A 
ATOM     18  C   UNL     1      -0.057  -6.155  -0.457  1.00  0.00     0.012 A 
ATOM     19  C   UNL     1       1.410  -5.248   1.238  1.00  0.00     0.032 A 
ATOM     20  C   UNL     1       0.543  -7.410  -0.301  1.00  0.00     0.048 A 
ATOM     21  C   UNL     1       2.009  -6.496   1.390  1.00  0.00     0.083 A 
ATOM     22  C   UNL     1       1.577  -7.572   0.616  1.00  0.00     0.134 A 
ATOM     23  Cl  UNL     1       3.283  -6.693   2.535  1.00  0.00    -0.080 Cl
BRANCH  22  24
ATOM     24  O   UNL     1       2.144  -8.812   0.724  1.00  0.00    -0.506 OA
ATOM     25  H   UNL     1       1.834  -9.517   0.191  1.00  0.00     0.293 HD
ENDBRANCH  22  24
ENDBRANCH  16  17
ENDBRANCH  10  15
ENDBRANCH   4   7
ENDBRANCH   2   3
ENDBRANCH   1   2
BRANCH   1  26
ATOM     26  C   UNL     1      -5.600   3.724  -1.456  1.00  0.00     0.118 C 
BRANCH  26  27
ATOM     27  N   UNL     1      -6.214   4.581  -0.443  1.00  0.00    -0.352 N 
ATOM     28  C   UNL     1      -6.599   5.897  -0.499  1.00  0.00     0.251 C 
ATOM     29  H   UNL     1      -6.378   4.142   0.423  1.00  0.00     0.163 HD
ATOM     30  O   UNL     1      -6.794   6.511   0.545  1.00  0.00    -0.269 OA
BRANCH  28  31
ATOM     31  C   UNL     1      -6.769   6.562  -1.805  1.00  0.00     0.039 A 
ATOM     32  C   UNL     1      -6.374   7.893  -1.954  1.00  0.00     0.014 A 
ATOM     33  C   UNL     1      -7.334   5.872  -2.880  1.00  0.00     0.014 A 
ATOM     34  C   UNL     1      -6.472   8.502  -3.205  1.00  0.00     0.010 A 
ATOM     35  C   UNL     1      -7.333   6.444  -4.144  1.00  0.00     0.010 A 
ATOM     36  C   UNL     1      -6.903   7.766  -4.321  1.00  0.00    -0.014 A 
BRANCH  36  37
ATOM     37  C   UNL     1      -6.906   8.357  -5.683  1.00  0.00     0.031 A 
ATOM     38  C   UNL     1      -8.194   8.475  -6.451  1.00  0.00     0.074 A 
ATOM     39  C   UNL     1      -5.738   8.722  -6.248  1.00  0.00     0.049 A 
ATOM     40  N   UNL     1      -8.389   8.886  -7.677  1.00  0.00    -0.248 NA
ATOM     41  C   UNL     1      -9.420   8.047  -5.759  1.00  0.00     0.031 C 
ATOM     42  C   UNL     1      -4.423   8.619  -5.610  1.00  0.00     0.029 A 
ATOM     43  N   UNL     1      -5.463   9.249  -7.484  1.00  0.00    -0.354 N 
ATOM     44  C   UNL     1      -9.754   8.760  -7.905  1.00  0.00     0.074 A 
ATOM     45  C   UNL     1     -10.326   8.168  -6.716  1.00  0.00     0.031 C 
ATOM     46  C   UNL     1      -3.490   9.104  -6.443  1.00  0.00     0.029 A 
ATOM     47  C   UNL     1      -4.125   9.489  -7.699  1.00  0.00     0.049 A 
ATOM     48  H   UNL     1      -6.158   9.439  -8.155  1.00  0.00     0.167 HD
ATOM     49  C   UNL     1     -10.467   9.129  -8.998  1.00  0.00     0.034 A 
ATOM     50  C   UNL     1      -3.480   9.946  -8.790  1.00  0.00     0.034 A 
ATOM     51  C   UNL     1      -9.875   9.717 -10.174  1.00  0.00     0.049 A 
ATOM     52  C   UNL     1      -4.289  10.290 -10.016  1.00  0.00     0.074 A 
ATOM     53  C   UNL     1     -10.507  10.170 -11.319  1.00  0.00     0.029 A 
ATOM     54  N   UNL     1      -8.514   9.920 -10.367  1.00  0.00    -0.354 N 
ATOM     55  N   UNL     1      -5.588  10.214 -10.197  1.00  0.00    -0.248 NA
ATOM     56  C   UNL     1      -3.546  10.787 -11.180  1.00  0.00     0.031 C 
ATOM     57  C   UNL     1      -9.526  10.556 -12.236  1.00  0.00     0.029 A 
ATOM     58  C   UNL     1      -8.285  10.446 -11.629  1.00  0.00     0.049 A 
ATOM     59  H   UNL     1      -7.814   9.719  -9.704  1.00  0.00     0.167 HD
ATOM     60  C   UNL     1      -5.818  10.687 -11.486  1.00  0.00     0.074 A 
ATOM     61  C   UNL     1      -4.528  11.061 -12.026  1.00  0.00     0.031 C 
ATOM     62  C   UNL     1      -6.991  10.804 -12.161  1.00  0.00     0.034 A 
BRANCH  49  63
ATOM     63  C   UNL     1     -11.955   8.875  -8.980  1.00  0.00     0.023 A 
ATOM     64  C   UNL     1     -12.797   9.477  -8.029  1.00  0.00     0.031 A 
ATOM     65  C   UNL     1     -12.541   8.004  -9.916  1.00  0.00     0.131 A 
ATOM     66  C   UNL     1     -14.159   9.142  -7.986  1.00  0.00     0.055 A 
ATOM     67  C   UNL     1     -13.913   7.747  -9.926  1.00  0.00     0.041 A 
ATOM     68  F   UNL     1     -11.786   7.376 -10.832  1.00  0.00    -0.206 F 
ATOM     69  C   UNL     1     -14.729   8.306  -8.947  1.00  0.00     0.022 A 
BRANCH  66  70
ATOM     70  S   UNL     1     -15.137   9.687  -6.559  1.00  0.00     0.124 S 
ATOM     71  O   UNL     1     -14.389   9.101  -5.448  1.00  0.00    -0.237 OA
ATOM     72  O   UNL     1     -15.079  11.140  -6.672  1.00  0.00    -0.237 OA
ATOM     73  O   UNL     1     -16.451   9.093  -6.798  1.00  0.00    -0.744 OA
ENDBRANCH  66  70
ENDBRANCH  49  63
BRANCH  50  74
ATOM     74  C   UNL     1      -1.994  10.085  -8.790  1.00  0.00     0.023 A 
ATOM     75  C   UNL     1      -1.384  11.335  -8.980  1.00  0.00     0.031 A 
ATOM     76  C   UNL     1      -1.159   8.961  -8.653  1.00  0.00     0.131 A 
ATOM     77  C   UNL     1       0.012  11.424  -9.085  1.00  0.00     0.055 A 
ATOM     78  C   UNL     1       0.232   9.064  -8.689  1.00  0.00     0.041 A 
ATOM     79  F   UNL     1      -1.688   7.740  -8.471  1.00  0.00    -0.206 F 
ATOM     80  C   UNL     1       0.825  10.300  -8.923  1.00  0.00     0.022 A 
BRANCH  77  81
ATOM     81  S   UNL     1       0.747  13.014  -9.556  1.00  0.00     0.124 S 
ATOM     82  O   UNL     1       0.085  13.279 -10.828  1.00  0.00    -0.237 OA
ATOM     83  O   UNL     1       0.359  13.869  -8.439  1.00  0.00    -0.237 OA
ATOM     84  O   UNL     1       2.175  12.715  -9.643  1.00  0.00    -0.744 OA
ENDBRANCH  77  81
ENDBRANCH  50  74
BRANCH  62  85
ATOM     85  C   UNL     1      -6.934  11.406 -13.545  1.00  0.00     0.023 A 
ATOM     86  C   UNL     1      -6.256  10.775 -14.602  1.00  0.00     0.031 A 
ATOM     87  C   UNL     1      -7.565  12.636 -13.807  1.00  0.00     0.131 A 
ATOM     88  C   UNL     1      -6.173  11.404 -15.853  1.00  0.00     0.055 A 
ATOM     89  C   UNL     1      -7.546  13.218 -15.075  1.00  0.00     0.041 A 
ATOM     90  F   UNL     1      -8.220  13.290 -12.835  1.00  0.00    -0.206 F 
ATOM     91  C   UNL     1      -6.833  12.609 -16.103  1.00  0.00     0.022 A 
BRANCH  88  92
ATOM     92  S   UNL     1      -5.090  10.683 -17.117  1.00  0.00     0.124 S 
ATOM     93  O   UNL     1      -3.800  10.669 -16.436  1.00  0.00    -0.237 OA
ATOM     94  O   UNL     1      -5.704   9.379 -17.347  1.00  0.00    -0.237 OA
ATOM     95  O   UNL     1      -5.193  11.622 -18.232  1.00  0.00    -0.744 OA
ENDBRANCH  88  92
ENDBRANCH  62  85
ENDBRANCH  36  37
ENDBRANCH  28  31
ENDBRANCH  26  27
ENDBRANCH   1  26
TORSDOF 17
