REMARK SMILES Cc1cc(C(=O)NCCCNC(=O)c2ccc(-c3c4nc(c(-c5cc(S(=O)(=O)[O-])ccc5F)c5ccc([nH]5)c(-c5cc(S(=O)(=O)[O-])ccc5F)c5nc(c(-c6cc(S(=O)(=O)[O-])ccc6F)c6ccc3[nH]6)C=C5)C=C4)cc2)ccc1NC(=O)c1ccc(=O)n(CCOc2ccccc2)n1
REMARK SMILES IDX 5 1 6 2 7 3 4 5 1 6 2 7 3 8 79 9 78 10 77 11 80 12 81 13
REMARK SMILES IDX 82 15 83 16 84 17 98 18 85 19 88 20 86 21 87 22 89 23 90 24
REMARK SMILES IDX 91 25 92 26 93 27 97 28 94 29 96 30 95 31 8 32 9 33 10 34
REMARK SMILES IDX 11 35 12 36 13 38 14 39 15 40 76 41 16 42 75 43 17 44 18 45
REMARK SMILES IDX 19 46 69 47 20 48 74 49 68 50 70 51 21 52 73 53 67 54 66 55
REMARK SMILES IDX 22 57 54 58 34 59 53 60 35 61 38 62 52 63 71 64 36 65 37 66
REMARK SMILES IDX 51 68 72 69 39 70 23 71 24 72 32 73 25 74 31 75 33 76 30 77
REMARK SMILES IDX 26 78 27 79 28 80 29 81 55 82 56 83 64 84 57 85 63 86 65 87
REMARK SMILES IDX 62 88 58 89 59 90 60 91 61 92 40 93 41 94 49 95 42 96 48 97
REMARK SMILES IDX 50 98 47 99 43 100 44 101 45 102 46 103
REMARK H PARENT 7 4 80 14 11 37 70 56 38 67
REMARK Flexibility Score: inf
ROOT
ATOM      1  C   UNL     1      -1.603  -2.569  -0.207  1.00  0.00     0.251 C 
ATOM      2  O   UNL     1      -1.090  -3.669  -0.229  1.00  0.00    -0.269 OA
ATOM      3  N   UNL     1      -2.921  -2.372  -0.602  1.00  0.00    -0.352 N 
ATOM      4  H   UNL     1      -3.434  -3.188  -0.801  1.00  0.00     0.163 HD
ENDROOT
BRANCH   1   5
ATOM      5  C   UNL     1      -0.783  -1.389   0.192  1.00  0.00     0.040 A 
ATOM      6  C   UNL     1       2.791  -0.160  -0.135  1.00  0.00     0.046 C 
ATOM      7  C   UNL     1       1.304  -0.102   0.084  1.00  0.00    -0.027 A 
ATOM      8  C   UNL     1       0.574  -1.301  -0.137  1.00  0.00     0.019 A 
ATOM      9  C   UNL     1       0.622   1.029   0.576  1.00  0.00     0.044 A 
ATOM     10  C   UNL     1      -0.645   0.822   1.113  1.00  0.00     0.027 A 
ATOM     11  C   UNL     1      -1.337  -0.370   0.945  1.00  0.00     0.016 A 
BRANCH   9  12
ATOM     12  N   UNL     1       1.201   2.323   0.576  1.00  0.00    -0.320 N 
ATOM     13  C   UNL     1       0.583   3.574   0.566  1.00  0.00     0.276 C 
ATOM     14  H   UNL     1       2.186   2.342   0.585  1.00  0.00     0.170 HD
ATOM     15  O   UNL     1       1.227   4.617   0.625  1.00  0.00    -0.267 OA
BRANCH  13  16
ATOM     16  C   UNL     1      -0.896   3.650   0.206  1.00  0.00     0.149 A 
ATOM     17  C   UNL     1      -1.156   3.703  -1.244  1.00  0.00     0.042 A 
ATOM     18  N   UNL     1      -1.813   3.591   1.127  1.00  0.00    -0.164 NA
ATOM     19  C   UNL     1      -2.334   3.219  -1.625  1.00  0.00     0.076 A 
ATOM     20  N   UNL     1      -3.081   3.177   0.688  1.00  0.00    -0.226 N 
ATOM     21  C   UNL     1      -3.277   2.706  -0.611  1.00  0.00     0.266 A 
ATOM     22  O   UNL     1      -4.187   1.980  -0.993  1.00  0.00    -0.268 OA
BRANCH  20  23
ATOM     23  C   UNL     1      -4.073   2.843   1.730  1.00  0.00     0.190 C 
BRANCH  23  24
ATOM     24  C   UNL     1      -4.827   4.053   2.312  1.00  0.00     0.253 C 
BRANCH  24  25
ATOM     25  O   UNL     1      -6.062   4.374   1.632  1.00  0.00    -0.492 OA
BRANCH  25  26
ATOM     26  C   UNL     1      -5.888   5.307   0.652  1.00  0.00     0.119 A 
ATOM     27  C   UNL     1      -6.194   6.642   0.875  1.00  0.00     0.046 A 
ATOM     28  C   UNL     1      -5.501   4.898  -0.615  1.00  0.00     0.046 A 
ATOM     29  C   UNL     1      -5.975   7.577  -0.144  1.00  0.00     0.004 A 
ATOM     30  C   UNL     1      -5.197   5.825  -1.605  1.00  0.00     0.004 A 
ATOM     31  C   UNL     1      -5.427   7.174  -1.365  1.00  0.00     0.000 A 
ENDBRANCH  25  26
ENDBRANCH  24  25
ENDBRANCH  23  24
ENDBRANCH  20  23
ENDBRANCH  13  16
ENDBRANCH   9  12
ENDBRANCH   1   5
BRANCH   3  32
ATOM     32  C   UNL     1      -3.647  -1.110  -0.762  1.00  0.00     0.118 C 
BRANCH  32  33
ATOM     33  C   UNL     1      -4.622  -1.080  -1.925  1.00  0.00     0.042 C 
BRANCH  33  34
ATOM     34  C   UNL     1      -5.970  -1.716  -1.620  1.00  0.00     0.118 C 
BRANCH  34  35
ATOM     35  N   UNL     1      -7.050  -0.752  -1.331  1.00  0.00    -0.352 N 
ATOM     36  C   UNL     1      -8.414  -0.805  -1.600  1.00  0.00     0.251 C 
ATOM     37  H   UNL     1      -6.755   0.066  -0.870  1.00  0.00     0.163 HD
ATOM     38  O   UNL     1      -9.200   0.041  -1.184  1.00  0.00    -0.269 OA
BRANCH  36  39
ATOM     39  C   UNL     1      -8.961  -1.991  -2.300  1.00  0.00     0.039 A 
ATOM     40  C   UNL     1      -9.796  -2.818  -1.539  1.00  0.00     0.014 A 
ATOM     41  C   UNL     1      -8.245  -2.494  -3.372  1.00  0.00     0.014 A 
ATOM     42  C   UNL     1      -9.564  -4.185  -1.559  1.00  0.00     0.010 A 
ATOM     43  C   UNL     1      -7.909  -3.827  -3.295  1.00  0.00     0.010 A 
ATOM     44  C   UNL     1      -8.494  -4.642  -2.317  1.00  0.00    -0.014 A 
BRANCH  44  45
ATOM     45  C   UNL     1      -7.907  -5.961  -2.171  1.00  0.00     0.031 A 
ATOM     46  C   UNL     1      -8.276  -6.959  -3.180  1.00  0.00     0.074 A 
ATOM     47  C   UNL     1      -7.031  -6.247  -1.182  1.00  0.00     0.049 A 
ATOM     48  N   UNL     1      -8.292  -8.226  -2.983  1.00  0.00    -0.248 NA
ATOM     49  C   UNL     1      -8.757  -6.571  -4.501  1.00  0.00     0.031 C 
ATOM     50  C   UNL     1      -6.217  -7.450  -1.032  1.00  0.00     0.029 A 
ATOM     51  N   UNL     1      -6.861  -5.568   0.021  1.00  0.00    -0.354 N 
ATOM     52  C   UNL     1      -8.491  -8.827  -4.204  1.00  0.00     0.074 A 
ATOM     53  C   UNL     1      -8.886  -7.760  -5.086  1.00  0.00     0.031 C 
ATOM     54  C   UNL     1      -5.842  -7.566   0.254  1.00  0.00     0.029 A 
ATOM     55  C   UNL     1      -6.516  -6.523   1.003  1.00  0.00     0.049 A 
ATOM     56  H   UNL     1      -6.963  -4.599   0.163  1.00  0.00     0.167 HD
ATOM     57  C   UNL     1      -8.148 -10.136  -4.350  1.00  0.00     0.034 A 
ATOM     58  C   UNL     1      -7.351  -6.725   2.068  1.00  0.00     0.034 A 
ATOM     59  C   UNL     1      -7.724 -10.702  -3.061  1.00  0.00     0.049 A 
ATOM     60  C   UNL     1      -8.064  -8.069   2.015  1.00  0.00     0.074 A 
ATOM     61  C   UNL     1      -6.492 -10.949  -2.478  1.00  0.00     0.029 A 
ATOM     62  N   UNL     1      -8.646 -10.756  -2.025  1.00  0.00    -0.354 N 
ATOM     63  N   UNL     1      -7.891  -8.975   1.088  1.00  0.00    -0.248 NA
ATOM     64  C   UNL     1      -9.098  -8.455   2.972  1.00  0.00     0.031 C 
ATOM     65  C   UNL     1      -6.689 -11.103  -1.070  1.00  0.00     0.029 A 
ATOM     66  C   UNL     1      -8.042 -11.000  -0.804  1.00  0.00     0.049 A 
ATOM     67  H   UNL     1      -9.615 -10.635  -2.145  1.00  0.00     0.167 HD
ATOM     68  C   UNL     1      -8.791  -9.999   1.256  1.00  0.00     0.074 A 
ATOM     69  C   UNL     1      -9.534  -9.613   2.448  1.00  0.00     0.031 C 
ATOM     70  C   UNL     1      -8.883 -11.061   0.390  1.00  0.00     0.034 A 
BRANCH  57  71
ATOM     71  C   UNL     1      -7.914 -10.803  -5.690  1.00  0.00     0.023 A 
ATOM     72  C   UNL     1      -7.072 -11.931  -5.739  1.00  0.00     0.031 A 
ATOM     73  C   UNL     1      -8.408 -10.377  -6.942  1.00  0.00     0.131 A 
ATOM     74  C   UNL     1      -6.682 -12.507  -6.963  1.00  0.00     0.055 A 
ATOM     75  C   UNL     1      -7.976 -10.909  -8.164  1.00  0.00     0.041 A 
ATOM     76  F   UNL     1      -9.384  -9.471  -7.057  1.00  0.00    -0.206 F 
ATOM     77  C   UNL     1      -7.098 -11.977  -8.180  1.00  0.00     0.022 A 
BRANCH  74  78
ATOM     78  S   UNL     1      -5.621 -13.973  -6.942  1.00  0.00     0.124 S 
ATOM     79  O   UNL     1      -4.417 -13.471  -6.289  1.00  0.00    -0.237 OA
ATOM     80  O   UNL     1      -6.424 -14.923  -6.181  1.00  0.00    -0.237 OA
ATOM     81  O   UNL     1      -5.465 -14.297  -8.360  1.00  0.00    -0.744 OA
ENDBRANCH  74  78
ENDBRANCH  57  71
BRANCH  58  82
ATOM     82  C   UNL     1      -7.931  -5.425   2.541  1.00  0.00     0.023 A 
ATOM     83  C   UNL     1      -7.005  -4.440   2.964  1.00  0.00     0.031 A 
ATOM     84  C   UNL     1      -9.180  -4.993   2.075  1.00  0.00     0.131 A 
ATOM     85  C   UNL     1      -7.236  -3.087   2.665  1.00  0.00     0.055 A 
ATOM     86  C   UNL     1      -9.432  -3.635   1.852  1.00  0.00     0.041 A 
ATOM     87  F   UNL     1     -10.104  -5.875   1.668  1.00  0.00    -0.206 F 
ATOM     88  C   UNL     1      -8.432  -2.685   2.072  1.00  0.00     0.022 A 
BRANCH  85  89
ATOM     89  S   UNL     1      -5.848  -1.915   2.778  1.00  0.00     0.124 S 
ATOM     90  O   UNL     1      -5.891  -1.514   4.179  1.00  0.00    -0.237 OA
ATOM     91  O   UNL     1      -4.703  -2.729   2.380  1.00  0.00    -0.237 OA
ATOM     92  O   UNL     1      -6.190  -0.869   1.815  1.00  0.00    -0.744 OA
ENDBRANCH  85  89
ENDBRANCH  58  82
BRANCH  70  93
ATOM     93  C   UNL     1      -9.828 -12.239   0.571  1.00  0.00     0.023 A 
ATOM     94  C   UNL     1     -10.332 -12.610   1.824  1.00  0.00     0.031 A 
ATOM     95  C   UNL     1     -10.219 -13.079  -0.503  1.00  0.00     0.131 A 
ATOM     96  C   UNL     1     -11.291 -13.630   1.956  1.00  0.00     0.055 A 
ATOM     97  C   UNL     1     -11.111 -14.146  -0.360  1.00  0.00     0.041 A 
ATOM     98  F   UNL     1      -9.767 -12.909  -1.752  1.00  0.00    -0.206 F 
ATOM     99  C   UNL     1     -11.681 -14.409   0.872  1.00  0.00     0.022 A 
BRANCH  96 100
ATOM    100  S   UNL     1     -12.067 -13.866   3.573  1.00  0.00     0.124 S 
ATOM    101  O   UNL     1     -10.917 -14.029   4.456  1.00  0.00    -0.237 OA
ATOM    102  O   UNL     1     -12.812 -12.619   3.728  1.00  0.00    -0.237 OA
ATOM    103  O   UNL     1     -12.887 -15.061   3.391  1.00  0.00    -0.744 OA
ENDBRANCH  96 100
ENDBRANCH  70  93
ENDBRANCH  44  45
ENDBRANCH  36  39
ENDBRANCH  34  35
ENDBRANCH  33  34
ENDBRANCH  32  33
ENDBRANCH   3  32
TORSDOF 19
