REMARK SMILES C[C@H]1[C@H](C)CC[C@@]2(C(=O)NCCCNC(=O)c3ccc(-c4c5nc(c(-c6cc(S(=O)(=O)[O-])ccc6F)c6ccc([nH]6)c(-c6cc(S(=O)(=O)[O-])ccc6F)c6nc(c(-c7cc(S(=O)(=O)[O-])ccc7F)c7ccc4[nH]7)C=C6)C=C5)cc3)CC[C@@]3(C)C(=CC[C@@H]4[C@@]5(C)CC[C@H](O)C(C)(C)[C@@H]5CC[C@]43C)[C@H]12
REMARK SMILES IDX 13 1 12 2 11 3 10 4 8 5 9 6 7 8 1 9 2 10 3 11 102 12 4 13
REMARK SMILES IDX 5 14 84 15 6 16 80 17 82 18 85 19 81 20 83 21 100 22 86 23
REMARK SMILES IDX 87 24 99 25 101 26 88 27 98 28 89 29 90 30 97 31 91 32 94 33
REMARK SMILES IDX 92 34 95 35 96 36 93 37 14 39 15 40 16 42 17 43 18 44 79 45
REMARK SMILES IDX 19 46 78 47 20 48 21 49 22 50 72 51 23 52 77 53 71 54 73 55
REMARK SMILES IDX 24 56 76 57 70 58 69 59 25 61 57 62 37 63 56 64 38 65 41 66
REMARK SMILES IDX 55 67 74 68 39 69 40 70 54 72 75 73 42 74 26 75 27 76 35 77
REMARK SMILES IDX 28 78 34 79 36 80 33 81 29 82 30 83 31 84 32 85 58 86 59 87
REMARK SMILES IDX 67 88 60 89 66 90 68 91 65 92 61 93 62 94 63 95 64 96 43 97
REMARK SMILES IDX 44 98 52 99 45 100 51 101 53 102 50 103 46 104 47 105 48 106
REMARK SMILES IDX 49 107
REMARK H PARENT 10 7 93 38 14 41 73 60 41 71
REMARK Flexibility Score: inf
ROOT
ATOM      1  C   UNL     1      -1.084  -0.065  -2.210  1.00  0.00     0.118 C 
ENDROOT
BRANCH   1   2
ATOM      2  C   UNL     1      -1.341  -1.526  -2.577  1.00  0.00     0.042 C 
BRANCH   2   3
ATOM      3  C   UNL     1      -0.881  -2.499  -1.491  1.00  0.00     0.117 C 
BRANCH   3   4
ATOM      4  N   UNL     1      -1.666  -2.420  -0.273  1.00  0.00    -0.356 N 
ATOM      5  C   UNL     1      -1.467  -2.820   1.009  1.00  0.00     0.226 C 
ATOM      6  O   UNL     1      -2.528  -2.942   1.640  1.00  0.00    -0.274 OA
ATOM      7  H   UNL     1      -2.535  -1.978  -0.406  1.00  0.00     0.163 HD
BRANCH   5   8
ATOM      8  C   UNL     1      -0.081  -3.086   1.711  1.00  0.00     0.056 C 
ATOM      9  C   UNL     1       2.406  -0.063   1.074  1.00  0.00     0.008 C 
ATOM     10  C   UNL     1       1.546  -1.301   0.734  1.00  0.00    -0.003 C 
ATOM     11  C   UNL     1       2.441  -2.430   0.143  1.00  0.00    -0.011 C 
ATOM     12  C   UNL     1       0.770  -1.811   1.970  1.00  0.00     0.034 C 
ATOM     13  C   UNL     1       3.064  -2.024  -1.204  1.00  0.00     0.008 C 
ATOM     14  C   UNL     1       1.757  -3.797  -0.036  1.00  0.00     0.005 C 
ATOM     15  C   UNL     1      -0.148  -0.839   2.727  1.00  0.00    -0.063 C 
ATOM     16  C   UNL     1       0.712  -4.199   0.996  1.00  0.00     0.018 C 
ATOM     17  C   UNL     1      -0.399  -3.657   3.156  1.00  0.00     0.018 C 
ATOM     18  C   UNL     1      -0.461  -1.224   4.197  1.00  0.00    -0.006 C 
ATOM     19  C   UNL     1      -0.820   0.131   2.076  1.00  0.00    -0.027 C 
ATOM     20  C   UNL     1      -1.036  -2.680   4.171  1.00  0.00     0.013 C 
ATOM     21  C   UNL     1       0.853  -1.258   5.027  1.00  0.00     0.017 C 
ATOM     22  C   UNL     1      -1.505  -0.168   4.877  1.00  0.00    -0.020 C 
ATOM     23  C   UNL     1      -2.045   0.817   2.607  1.00  0.00     0.032 C 
ATOM     24  C   UNL     1      -2.651   0.076   3.823  1.00  0.00     0.006 C 
ATOM     25  C   UNL     1      -2.087  -0.696   6.213  1.00  0.00     0.008 C 
ATOM     26  C   UNL     1      -0.764   1.162   5.226  1.00  0.00     0.012 C 
ATOM     27  C   UNL     1      -4.053   0.636   4.320  1.00  0.00    -0.025 C 
ATOM     28  C   UNL     1      -3.292   0.109   6.713  1.00  0.00     0.005 C 
ATOM     29  C   UNL     1      -4.047   2.179   4.325  1.00  0.00     0.012 C 
ATOM     30  C   UNL     1      -5.149   0.157   3.312  1.00  0.00     0.010 C 
ATOM     31  C   UNL     1      -4.438  -0.012   5.700  1.00  0.00     0.003 C 
ATOM     32  C   UNL     1      -6.581   0.463   3.748  1.00  0.00     0.033 C 
ATOM     33  C   UNL     1      -5.871   0.343   6.252  1.00  0.00    -0.006 C 
ATOM     34  C   UNL     1      -6.911  -0.043   5.155  1.00  0.00     0.120 C 
ATOM     35  C   UNL     1      -6.040   1.806   6.717  1.00  0.00     0.014 C 
ATOM     36  C   UNL     1      -6.187  -0.522   7.505  1.00  0.00     0.014 C 
BRANCH  34  37
ATOM     37  O   UNL     1      -8.223   0.392   5.514  1.00  0.00    -0.393 OA
ATOM     38  H   UNL     1      -8.245   1.361   5.548  1.00  0.00     0.210 HD
ENDBRANCH  34  37
ENDBRANCH   5   8
ENDBRANCH   3   4
ENDBRANCH   2   3
ENDBRANCH   1   2
BRANCH   1  39
ATOM     39  N   UNL     1       0.248   0.425  -2.550  1.00  0.00    -0.352 N 
ATOM     40  C   UNL     1       0.820   0.834  -3.736  1.00  0.00     0.251 C 
ATOM     41  H   UNL     1       0.859   0.473  -1.780  1.00  0.00     0.163 HD
ATOM     42  O   UNL     1       2.005   1.151  -3.733  1.00  0.00    -0.269 OA
BRANCH  40  43
ATOM     43  C   UNL     1       0.065   0.824  -5.015  1.00  0.00     0.039 A 
ATOM     44  C   UNL     1       0.736   0.451  -6.187  1.00  0.00     0.014 A 
ATOM     45  C   UNL     1      -1.280   1.168  -5.091  1.00  0.00     0.014 A 
ATOM     46  C   UNL     1       0.031   0.311  -7.390  1.00  0.00     0.010 A 
ATOM     47  C   UNL     1      -2.003   0.913  -6.253  1.00  0.00     0.010 A 
ATOM     48  C   UNL     1      -1.363   0.463  -7.417  1.00  0.00    -0.014 A 
BRANCH  48  49
ATOM     49  C   UNL     1      -2.185   0.141  -8.620  1.00  0.00     0.031 A 
ATOM     50  C   UNL     1      -3.147   1.161  -9.176  1.00  0.00     0.074 A 
ATOM     51  C   UNL     1      -2.172  -1.111  -9.126  1.00  0.00     0.049 A 
ATOM     52  N   UNL     1      -4.118   1.005 -10.041  1.00  0.00    -0.248 NA
ATOM     53  C   UNL     1      -3.039   2.524  -8.637  1.00  0.00     0.031 C 
ATOM     54  C   UNL     1      -1.336  -2.214  -8.645  1.00  0.00     0.029 A 
ATOM     55  N   UNL     1      -2.902  -1.676 -10.143  1.00  0.00    -0.354 N 
ATOM     56  C   UNL     1      -4.775   2.231 -10.099  1.00  0.00     0.074 A 
ATOM     57  C   UNL     1      -4.120   3.099  -9.143  1.00  0.00     0.031 C 
ATOM     58  C   UNL     1      -1.577  -3.308  -9.384  1.00  0.00     0.029 A 
ATOM     59  C   UNL     1      -2.627  -3.009 -10.349  1.00  0.00     0.049 A 
ATOM     60  H   UNL     1      -3.560  -1.174 -10.676  1.00  0.00     0.167 HD
ATOM     61  C   UNL     1      -5.815   2.604 -10.889  1.00  0.00     0.034 A 
ATOM     62  C   UNL     1      -3.172  -3.899 -11.202  1.00  0.00     0.034 A 
ATOM     63  C   UNL     1      -6.407   1.747 -11.888  1.00  0.00     0.049 A 
ATOM     64  C   UNL     1      -4.279  -3.446 -12.117  1.00  0.00     0.074 A 
ATOM     65  C   UNL     1      -7.402   2.045 -12.803  1.00  0.00     0.029 A 
ATOM     66  N   UNL     1      -6.048   0.424 -12.113  1.00  0.00    -0.354 N 
ATOM     67  N   UNL     1      -4.870  -2.276 -12.179  1.00  0.00    -0.248 NA
ATOM     68  C   UNL     1      -4.786  -4.430 -13.082  1.00  0.00     0.031 C 
ATOM     69  C   UNL     1      -7.674   0.893 -13.550  1.00  0.00     0.029 A 
ATOM     70  C   UNL     1      -6.807  -0.108 -13.144  1.00  0.00     0.049 A 
ATOM     71  H   UNL     1      -5.355  -0.065 -11.613  1.00  0.00     0.167 HD
ATOM     72  C   UNL     1      -5.802  -2.377 -13.207  1.00  0.00     0.074 A 
ATOM     73  C   UNL     1      -5.683  -3.717 -13.746  1.00  0.00     0.031 C 
ATOM     74  C   UNL     1      -6.676  -1.446 -13.667  1.00  0.00     0.034 A 
BRANCH  61  75
ATOM     75  C   UNL     1      -6.380   3.992 -10.690  1.00  0.00     0.023 A 
ATOM     76  C   UNL     1      -5.600   5.145 -10.887  1.00  0.00     0.031 A 
ATOM     77  C   UNL     1      -7.706   4.168 -10.255  1.00  0.00     0.131 A 
ATOM     78  C   UNL     1      -6.113   6.406 -10.553  1.00  0.00     0.055 A 
ATOM     79  C   UNL     1      -8.243   5.436 -10.016  1.00  0.00     0.041 A 
ATOM     80  F   UNL     1      -8.500   3.108 -10.035  1.00  0.00    -0.206 F 
ATOM     81  C   UNL     1      -7.438   6.564 -10.144  1.00  0.00     0.022 A 
BRANCH  78  82
ATOM     82  S   UNL     1      -4.970   7.813 -10.499  1.00  0.00     0.124 S 
ATOM     83  O   UNL     1      -4.012   7.373  -9.486  1.00  0.00    -0.237 OA
ATOM     84  O   UNL     1      -4.471   7.868 -11.868  1.00  0.00    -0.237 OA
ATOM     85  O   UNL     1      -5.821   8.932 -10.098  1.00  0.00    -0.744 OA
ENDBRANCH  78  82
ENDBRANCH  61  75
BRANCH  62  86
ATOM     86  C   UNL     1      -2.686  -5.308 -11.235  1.00  0.00     0.023 A 
ATOM     87  C   UNL     1      -2.010  -5.807 -12.359  1.00  0.00     0.031 A 
ATOM     88  C   UNL     1      -2.911  -6.182 -10.158  1.00  0.00     0.131 A 
ATOM     89  C   UNL     1      -1.621  -7.154 -12.401  1.00  0.00     0.055 A 
ATOM     90  C   UNL     1      -2.479  -7.510 -10.184  1.00  0.00     0.041 A 
ATOM     91  F   UNL     1      -3.541  -5.751  -9.053  1.00  0.00    -0.206 F 
ATOM     92  C   UNL     1      -1.841  -8.006 -11.317  1.00  0.00     0.022 A 
BRANCH  89  93
ATOM     93  S   UNL     1      -0.886  -7.797 -13.930  1.00  0.00     0.124 S 
ATOM     94  O   UNL     1      -1.935  -7.518 -14.904  1.00  0.00    -0.237 OA
ATOM     95  O   UNL     1       0.326  -6.993 -14.043  1.00  0.00    -0.237 OA
ATOM     96  O   UNL     1      -0.668  -9.211 -13.634  1.00  0.00    -0.744 OA
ENDBRANCH  89  93
ENDBRANCH  62  86
BRANCH  74  97
ATOM     97  C   UNL     1      -7.530  -1.836 -14.845  1.00  0.00     0.023 A 
ATOM     98  C   UNL     1      -8.555  -2.790 -14.732  1.00  0.00     0.031 A 
ATOM     99  C   UNL     1      -7.307  -1.245 -16.102  1.00  0.00     0.131 A 
ATOM    100  C   UNL     1      -9.291  -3.160 -15.867  1.00  0.00     0.055 A 
ATOM    101  C   UNL     1      -8.077  -1.579 -17.216  1.00  0.00     0.041 A 
ATOM    102  F   UNL     1      -6.339  -0.329 -16.263  1.00  0.00    -0.206 F 
ATOM    103  C   UNL     1      -9.068  -2.550 -17.105  1.00  0.00     0.022 A 
BRANCH 100 104
ATOM    104  S   UNL     1     -10.499  -4.506 -15.723  1.00  0.00     0.124 S 
ATOM    105  O   UNL     1      -9.660  -5.622 -15.299  1.00  0.00    -0.237 OA
ATOM    106  O   UNL     1     -11.425  -3.988 -14.721  1.00  0.00    -0.237 OA
ATOM    107  O   UNL     1     -11.048  -4.620 -17.072  1.00  0.00    -0.744 OA
ENDBRANCH 100 104
ENDBRANCH  74  97
ENDBRANCH  48  49
ENDBRANCH  40  43
ENDBRANCH   1  39
TORSDOF 14
