REMARK SMILES CC[C@]1(C(=O)NCCCNC(=O)c2ccc(-c3c4nc(c(-c5cc(S(=O)(=O)[O-])ccc5F)c5ccc([nH]5)c(-c5cc(S(=O)(=O)[O-])ccc5F)c5nc(c(-c6cc(S(=O)(=O)[O-])ccc6F)c6ccc3[nH]6)C=C5)C=C4)cc2)CCC[N@@H+](Cc2cc(OC)ccc2F)C1
REMARK SMILES IDX 8 1 7 2 6 3 4 4 5 5 3 7 76 8 90 9 77 10 79 11 78 12 2 14
REMARK SMILES IDX 1 15 80 16 81 17 82 18 88 19 83 20 87 21 89 22 86 23 84 24
REMARK SMILES IDX 85 25 9 26 10 27 11 28 12 30 13 31 14 32 75 33 15 34 74 35
REMARK SMILES IDX 16 36 17 37 18 38 68 39 19 40 73 41 67 42 69 43 20 44 72 45
REMARK SMILES IDX 66 46 65 47 21 49 53 50 33 51 52 52 34 53 37 54 51 55 70 56
REMARK SMILES IDX 35 57 36 58 50 60 71 61 38 62 22 63 23 64 31 65 24 66 30 67
REMARK SMILES IDX 32 68 29 69 25 70 26 71 27 72 28 73 54 74 55 75 63 76 56 77
REMARK SMILES IDX 62 78 64 79 61 80 57 81 58 82 59 83 60 84 39 85 40 86 48 87
REMARK SMILES IDX 41 88 47 89 49 90 46 91 42 92 43 93 44 94 45 95
REMARK H PARENT 6 6 79 13 10 29 69 48 37 59
REMARK Flexibility Score: inf
ROOT
ATOM      1  C   UNL     1       1.234   5.385   3.218  1.00  0.00     0.042 C 
ENDROOT
BRANCH   1   2
ATOM      2  C   UNL     1       2.039   4.092   3.101  1.00  0.00     0.117 C 
BRANCH   2   3
ATOM      3  N   UNL     1       1.356   2.939   3.674  1.00  0.00    -0.355 N 
ATOM      4  C   UNL     1       0.744   1.842   3.148  1.00  0.00     0.231 C 
ATOM      5  O   UNL     1       0.267   1.071   3.989  1.00  0.00    -0.274 OA
ATOM      6  H   UNL     1       1.331   2.958   4.657  1.00  0.00     0.163 HD
BRANCH   4   7
ATOM      7  C   UNL     1       0.640   1.544   1.621  1.00  0.00     0.098 C 
ATOM      8  C   UNL     1      -0.127   2.699   0.932  1.00  0.00     0.028 C 
ATOM      9  C   UNL     1       2.068   1.360   1.057  1.00  0.00     0.279 C 
ATOM     10  C   UNL     1       0.165   2.885  -0.554  1.00  0.00     0.063 C 
ATOM     11  N   UNL     1       2.133   1.459  -0.407  1.00  0.00    -0.330 N 
ATOM     12  C   UNL     1       1.649   2.747  -0.890  1.00  0.00     0.262 C 
ATOM     13  H   UNL     1       1.477   0.767  -0.769  1.00  0.00     0.348 HD
BRANCH   7  14
ATOM     14  C   UNL     1      -0.168   0.200   1.472  1.00  0.00     0.019 C 
ATOM     15  C   UNL     1      -0.112  -0.542   0.142  1.00  0.00     0.005 C 
ENDBRANCH   7  14
BRANCH  11  16
ATOM     16  C   UNL     1       3.412   1.028  -0.981  1.00  0.00     0.302 C 
BRANCH  16  17
ATOM     17  C   UNL     1       4.642   1.837  -0.652  1.00  0.00     0.046 A 
ATOM     18  C   UNL     1       5.202   2.712  -1.596  1.00  0.00     0.059 A 
ATOM     19  C   UNL     1       5.296   1.693   0.575  1.00  0.00     0.132 A 
ATOM     20  C   UNL     1       6.383   3.411  -1.317  1.00  0.00     0.119 A 
ATOM     21  C   UNL     1       6.427   2.438   0.890  1.00  0.00     0.043 A 
ATOM     22  F   UNL     1       4.848   0.814   1.482  1.00  0.00    -0.206 F 
ATOM     23  C   UNL     1       6.971   3.304  -0.056  1.00  0.00     0.049 A 
BRANCH  20  24
ATOM     24  O   UNL     1       6.875   4.164  -2.349  1.00  0.00    -0.497 OA
ATOM     25  C   UNL     1       8.264   4.473  -2.279  1.00  0.00     0.278 C 
ENDBRANCH  20  24
ENDBRANCH  16  17
ENDBRANCH  11  16
ENDBRANCH   4   7
ENDBRANCH   2   3
ENDBRANCH   1   2
BRANCH   1  26
ATOM     26  C   UNL     1       0.960   5.844   4.644  1.00  0.00     0.118 C 
BRANCH  26  27
ATOM     27  N   UNL     1       2.153   6.329   5.318  1.00  0.00    -0.352 N 
ATOM     28  C   UNL     1       2.514   7.601   5.696  1.00  0.00     0.251 C 
ATOM     29  H   UNL     1       2.811   5.631   5.540  1.00  0.00     0.163 HD
ATOM     30  O   UNL     1       3.668   7.800   6.066  1.00  0.00    -0.269 OA
BRANCH  28  31
ATOM     31  C   UNL     1       1.550   8.729   5.637  1.00  0.00     0.039 A 
ATOM     32  C   UNL     1       2.015   9.989   5.242  1.00  0.00     0.014 A 
ATOM     33  C   UNL     1       0.213   8.579   6.009  1.00  0.00     0.014 A 
ATOM     34  C   UNL     1       1.129  11.069   5.156  1.00  0.00     0.010 A 
ATOM     35  C   UNL     1      -0.686   9.632   5.840  1.00  0.00     0.010 A 
ATOM     36  C   UNL     1      -0.238  10.893   5.417  1.00  0.00    -0.014 A 
BRANCH  36  37
ATOM     37  C   UNL     1      -1.209  12.013   5.267  1.00  0.00     0.031 A 
ATOM     38  C   UNL     1      -1.982  12.512   6.460  1.00  0.00     0.074 A 
ATOM     39  C   UNL     1      -1.439  12.542   4.048  1.00  0.00     0.049 A 
ATOM     40  N   UNL     1      -2.929  13.414   6.517  1.00  0.00    -0.248 NA
ATOM     41  C   UNL     1      -1.668  11.890   7.755  1.00  0.00     0.031 C 
ATOM     42  C   UNL     1      -0.781  12.123   2.808  1.00  0.00     0.029 A 
ATOM     43  N   UNL     1      -2.296  13.537   3.647  1.00  0.00    -0.354 N 
ATOM     44  C   UNL     1      -3.335  13.457   7.848  1.00  0.00     0.074 A 
ATOM     45  C   UNL     1      -2.571  12.446   8.548  1.00  0.00     0.031 C 
ATOM     46  C   UNL     1      -1.241  12.871   1.792  1.00  0.00     0.029 A 
ATOM     47  C   UNL     1      -2.260  13.787   2.293  1.00  0.00     0.049 A 
ATOM     48  H   UNL     1      -2.881  14.027   4.269  1.00  0.00     0.167 HD
ATOM     49  C   UNL     1      -4.241  14.278   8.435  1.00  0.00     0.034 A 
ATOM     50  C   UNL     1      -2.977  14.643   1.538  1.00  0.00     0.034 A 
ATOM     51  C   UNL     1      -4.986  15.292   7.725  1.00  0.00     0.049 A 
ATOM     52  C   UNL     1      -3.999  15.528   2.208  1.00  0.00     0.074 A 
ATOM     53  C   UNL     1      -5.887  16.212   8.231  1.00  0.00     0.029 A 
ATOM     54  N   UNL     1      -4.922  15.514   6.355  1.00  0.00    -0.354 N 
ATOM     55  N   UNL     1      -4.336  15.587   3.475  1.00  0.00    -0.248 NA
ATOM     56  C   UNL     1      -4.728  16.467   1.346  1.00  0.00     0.031 C 
ATOM     57  C   UNL     1      -6.419  16.941   7.162  1.00  0.00     0.029 A 
ATOM     58  C   UNL     1      -5.791  16.534   5.996  1.00  0.00     0.049 A 
ATOM     59  H   UNL     1      -4.344  15.019   5.730  1.00  0.00     0.167 HD
ATOM     60  C   UNL     1      -5.295  16.594   3.565  1.00  0.00     0.074 A 
ATOM     61  C   UNL     1      -5.469  17.121   2.228  1.00  0.00     0.031 C 
ATOM     62  C   UNL     1      -5.965  17.045   4.656  1.00  0.00     0.034 A 
BRANCH  49  63
ATOM     63  C   UNL     1      -4.494  14.092   9.914  1.00  0.00     0.023 A 
ATOM     64  C   UNL     1      -3.478  14.284  10.868  1.00  0.00     0.031 A 
ATOM     65  C   UNL     1      -5.760  13.692  10.377  1.00  0.00     0.131 A 
ATOM     66  C   UNL     1      -3.722  13.998  12.220  1.00  0.00     0.055 A 
ATOM     67  C   UNL     1      -6.020  13.492  11.735  1.00  0.00     0.041 A 
ATOM     68  F   UNL     1      -6.766  13.474   9.515  1.00  0.00    -0.206 F 
ATOM     69  C   UNL     1      -4.993  13.629  12.664  1.00  0.00     0.022 A 
BRANCH  66  70
ATOM     70  S   UNL     1      -2.316  13.970  13.365  1.00  0.00     0.124 S 
ATOM     71  O   UNL     1      -1.457  12.959  12.753  1.00  0.00    -0.237 OA
ATOM     72  O   UNL     1      -1.830  15.344  13.302  1.00  0.00    -0.237 OA
ATOM     73  O   UNL     1      -2.917  13.578  14.638  1.00  0.00    -0.744 OA
ENDBRANCH  66  70
ENDBRANCH  49  63
BRANCH  50  74
ATOM     74  C   UNL     1      -2.769  14.705   0.062  1.00  0.00     0.023 A 
ATOM     75  C   UNL     1      -2.272  15.865  -0.551  1.00  0.00     0.031 A 
ATOM     76  C   UNL     1      -3.104  13.615  -0.762  1.00  0.00     0.131 A 
ATOM     77  C   UNL     1      -2.166  15.928  -1.949  1.00  0.00     0.055 A 
ATOM     78  C   UNL     1      -2.946  13.663  -2.148  1.00  0.00     0.041 A 
ATOM     79  F   UNL     1      -3.579  12.479  -0.227  1.00  0.00    -0.206 F 
ATOM     80  C   UNL     1      -2.487  14.830  -2.751  1.00  0.00     0.022 A 
BRANCH  77  81
ATOM     81  S   UNL     1      -1.681  17.499  -2.715  1.00  0.00     0.124 S 
ATOM     82  O   UNL     1      -2.716  18.401  -2.223  1.00  0.00    -0.237 OA
ATOM     83  O   UNL     1      -0.342  17.700  -2.170  1.00  0.00    -0.237 OA
ATOM     84  O   UNL     1      -1.732  17.210  -4.146  1.00  0.00    -0.744 OA
ENDBRANCH  77  81
ENDBRANCH  50  74
BRANCH  62  85
ATOM     85  C   UNL     1      -6.915  18.201   4.449  1.00  0.00     0.023 A 
ATOM     86  C   UNL     1      -8.087  18.071   3.685  1.00  0.00     0.031 A 
ATOM     87  C   UNL     1      -6.632  19.456   5.018  1.00  0.00     0.131 A 
ATOM     88  C   UNL     1      -8.905  19.190   3.463  1.00  0.00     0.055 A 
ATOM     89  C   UNL     1      -7.481  20.549   4.846  1.00  0.00     0.041 A 
ATOM     90  F   UNL     1      -5.524  19.638   5.755  1.00  0.00    -0.206 F 
ATOM     91  C   UNL     1      -8.618  20.424   4.053  1.00  0.00     0.022 A 
BRANCH  88  92
ATOM     92  S   UNL     1     -10.301  19.037   2.315  1.00  0.00     0.124 S 
ATOM     93  O   UNL     1      -9.636  18.627   1.082  1.00  0.00    -0.237 OA
ATOM     94  O   UNL     1     -11.127  18.022   2.962  1.00  0.00    -0.237 OA
ATOM     95  O   UNL     1     -10.876  20.381   2.292  1.00  0.00    -0.744 OA
ENDBRANCH  88  92
ENDBRANCH  62  85
ENDBRANCH  36  37
ENDBRANCH  28  31
ENDBRANCH  26  27
ENDBRANCH   1  26
TORSDOF 17
