REMARK SMILES Nc1ccc(SCc2ccc(C(=O)NCCCNC(=O)c3ccc(-c4c5nc(c(-c6cc(S(=O)(=O)[O-])ccc6F)c6ccc([nH]6)c(-c6cc(S(=O)(=O)[O-])ccc6F)c6nc(c(-c7cc(S(=O)(=O)[O-])ccc7F)c7ccc4[nH]7)C=C6)C=C5)cc3)o2)cc1
REMARK SMILES IDX 15 1 14 2 12 3 13 4 11 6 8 7 9 8 84 9 10 10 7 11 6 12 5 13
REMARK SMILES IDX 2 14 3 15 86 16 4 17 85 18 1 19 16 22 17 23 18 24 19 25
REMARK SMILES IDX 20 27 21 28 22 29 83 30 23 31 82 32 24 33 25 34 26 35 76 36
REMARK SMILES IDX 27 37 81 38 75 39 77 40 28 41 80 42 74 43 73 44 29 46 61 47
REMARK SMILES IDX 41 48 60 49 42 50 45 51 59 52 78 53 43 54 44 55 58 57 79 58
REMARK SMILES IDX 46 59 30 60 31 61 39 62 32 63 38 64 40 65 37 66 33 67 34 68
REMARK SMILES IDX 35 69 36 70 62 71 63 72 71 73 64 74 70 75 72 76 69 77 65 78
REMARK SMILES IDX 66 79 67 80 68 81 47 82 48 83 56 84 49 85 55 86 57 87 54 88
REMARK SMILES IDX 50 89 51 90 52 91 53 92
REMARK H PARENT 14 5 1 20 1 21 18 26 77 45 45 56
REMARK Flexibility Score: inf
ROOT
ATOM      1  C   UNL     1      -2.292   5.140   5.103  1.00  0.00     0.118 C 
ENDROOT
BRANCH   1   2
ATOM      2  N   UNL     1      -2.241   3.697   5.204  1.00  0.00    -0.349 N 
ATOM      3  C   UNL     1      -2.646   2.702   4.345  1.00  0.00     0.286 C 
ATOM      4  O   UNL     1      -2.383   1.555   4.712  1.00  0.00    -0.266 OA
ATOM      5  H   UNL     1      -1.843   3.366   6.042  1.00  0.00     0.163 HD
BRANCH   3   6
ATOM      6  C   UNL     1      -3.315   2.996   3.088  1.00  0.00     0.191 A 
ATOM      7  C   UNL     1      -4.031   2.396   1.069  1.00  0.00     0.115 A 
ATOM      8  C   UNL     1      -4.358   3.725   1.221  1.00  0.00     0.047 A 
ATOM      9  O   UNL     1      -3.410   1.954   2.196  1.00  0.00    -0.455 OA
ATOM     10  C   UNL     1      -3.929   4.099   2.519  1.00  0.00     0.056 A 
BRANCH   7  11
ATOM     11  C   UNL     1      -4.229   1.450  -0.066  1.00  0.00     0.150 C 
BRANCH  11  12
ATOM     12  S   UNL     1      -3.583  -0.237   0.147  1.00  0.00    -0.118 SA
BRANCH  12  13
ATOM     13  C   UNL     1      -1.806  -0.068   0.029  1.00  0.00     0.008 A 
ATOM     14  C   UNL     1       1.028  -0.037  -0.044  1.00  0.00     0.031 A 
ATOM     15  C   UNL     1       0.331  -1.243  -0.018  1.00  0.00     0.026 A 
ATOM     16  C   UNL     1       0.296   1.148  -0.106  1.00  0.00     0.026 A 
ATOM     17  C   UNL     1      -1.068  -1.258   0.036  1.00  0.00     0.017 A 
ATOM     18  C   UNL     1      -1.105   1.135  -0.060  1.00  0.00     0.017 A 
BRANCH  14  19
ATOM     19  N   UNL     1       2.410  -0.020  -0.152  1.00  0.00    -0.399 N 
ATOM     20  H   UNL     1       2.918  -0.862  -0.107  1.00  0.00     0.156 HD
ATOM     21  H   UNL     1       2.884   0.835  -0.273  1.00  0.00     0.156 HD
ENDBRANCH  14  19
ENDBRANCH  12  13
ENDBRANCH  11  12
ENDBRANCH   7  11
ENDBRANCH   3   6
ENDBRANCH   1   2
BRANCH   1  22
ATOM     22  C   UNL     1      -3.471   5.718   5.880  1.00  0.00     0.042 C 
BRANCH  22  23
ATOM     23  C   UNL     1      -3.230   5.763   7.389  1.00  0.00     0.118 C 
BRANCH  23  24
ATOM     24  N   UNL     1      -2.149   6.676   7.740  1.00  0.00    -0.352 N 
ATOM     25  C   UNL     1      -2.158   7.821   8.496  1.00  0.00     0.251 C 
ATOM     26  H   UNL     1      -1.268   6.431   7.374  1.00  0.00     0.163 HD
ATOM     27  O   UNL     1      -1.192   8.578   8.437  1.00  0.00    -0.269 OA
BRANCH  25  28
ATOM     28  C   UNL     1      -3.310   8.149   9.363  1.00  0.00     0.039 A 
ATOM     29  C   UNL     1      -3.704   9.485   9.486  1.00  0.00     0.014 A 
ATOM     30  C   UNL     1      -3.969   7.158  10.095  1.00  0.00     0.014 A 
ATOM     31  C   UNL     1      -4.794   9.816  10.295  1.00  0.00     0.010 A 
ATOM     32  C   UNL     1      -5.104   7.479  10.835  1.00  0.00     0.010 A 
ATOM     33  C   UNL     1      -5.526   8.811  10.948  1.00  0.00    -0.014 A 
BRANCH  33  34
ATOM     34  C   UNL     1      -6.732   9.138  11.754  1.00  0.00     0.031 A 
ATOM     35  C   UNL     1      -6.758   8.853  13.231  1.00  0.00     0.074 A 
ATOM     36  C   UNL     1      -7.823   9.636  11.141  1.00  0.00     0.049 A 
ATOM     37  N   UNL     1      -7.735   9.007  14.088  1.00  0.00    -0.248 NA
ATOM     38  C   UNL     1      -5.531   8.292  13.813  1.00  0.00     0.031 C 
ATOM     39  C   UNL     1      -7.929   9.921   9.708  1.00  0.00     0.029 A 
ATOM     40  N   UNL     1      -9.051   9.990  11.640  1.00  0.00    -0.354 N 
ATOM     41  C   UNL     1      -7.246   8.552  15.308  1.00  0.00     0.074 A 
ATOM     42  C   UNL     1      -5.911   8.050  15.058  1.00  0.00     0.031 C 
ATOM     43  C   UNL     1      -9.140  10.438   9.451  1.00  0.00     0.029 A 
ATOM     44  C   UNL     1      -9.917  10.472  10.686  1.00  0.00     0.049 A 
ATOM     45  H   UNL     1      -9.290   9.907  12.591  1.00  0.00     0.167 HD
ATOM     46  C   UNL     1      -7.844   8.575  16.526  1.00  0.00     0.034 A 
ATOM     47  C   UNL     1     -11.195  10.885  10.791  1.00  0.00     0.034 A 
ATOM     48  C   UNL     1      -9.178   9.078  16.751  1.00  0.00     0.049 A 
ATOM     49  C   UNL     1     -11.857  10.858  12.144  1.00  0.00     0.074 A 
ATOM     50  C   UNL     1      -9.867   9.192  17.946  1.00  0.00     0.029 A 
ATOM     51  N   UNL     1     -10.034   9.539  15.757  1.00  0.00    -0.354 N 
ATOM     52  N   UNL     1     -11.366  10.470  13.299  1.00  0.00    -0.248 NA
ATOM     53  C   UNL     1     -13.244  11.335  12.209  1.00  0.00     0.031 C 
ATOM     54  C   UNL     1     -11.162   9.645  17.666  1.00  0.00     0.029 A 
ATOM     55  C   UNL     1     -11.255   9.901  16.307  1.00  0.00     0.049 A 
ATOM     56  H   UNL     1      -9.807   9.600  14.801  1.00  0.00     0.167 HD
ATOM     57  C   UNL     1     -12.375  10.687  14.233  1.00  0.00     0.074 A 
ATOM     58  C   UNL     1     -13.494  11.253  13.507  1.00  0.00     0.031 C 
ATOM     59  C   UNL     1     -12.373  10.447  15.570  1.00  0.00     0.034 A 
BRANCH  46  60
ATOM     60  C   UNL     1      -7.062   8.008  17.691  1.00  0.00     0.023 A 
ATOM     61  C   UNL     1      -5.821   8.545  18.078  1.00  0.00     0.031 A 
ATOM     62  C   UNL     1      -7.536   6.887  18.395  1.00  0.00     0.131 A 
ATOM     63  C   UNL     1      -5.054   7.904  19.063  1.00  0.00     0.055 A 
ATOM     64  C   UNL     1      -6.811   6.312  19.441  1.00  0.00     0.041 A 
ATOM     65  F   UNL     1      -8.704   6.313  18.063  1.00  0.00    -0.206 F 
ATOM     66  C   UNL     1      -5.552   6.807  19.767  1.00  0.00     0.022 A 
BRANCH  63  67
ATOM     67  S   UNL     1      -3.326   8.414  19.277  1.00  0.00     0.124 S 
ATOM     68  O   UNL     1      -2.792   8.222  17.930  1.00  0.00    -0.237 OA
ATOM     69  O   UNL     1      -3.457   9.796  19.722  1.00  0.00    -0.237 OA
ATOM     70  O   UNL     1      -2.815   7.480  20.279  1.00  0.00    -0.744 OA
ENDBRANCH  63  67
ENDBRANCH  46  60
BRANCH  47  71
ATOM     71  C   UNL     1     -11.933  11.359   9.586  1.00  0.00     0.023 A 
ATOM     72  C   UNL     1     -12.359  12.692   9.479  1.00  0.00     0.031 A 
ATOM     73  C   UNL     1     -12.242  10.481   8.531  1.00  0.00     0.131 A 
ATOM     74  C   UNL     1     -13.103  13.101   8.362  1.00  0.00     0.055 A 
ATOM     75  C   UNL     1     -12.936  10.906   7.397  1.00  0.00     0.041 A 
ATOM     76  F   UNL     1     -11.853   9.197   8.580  1.00  0.00    -0.206 F 
ATOM     77  C   UNL     1     -13.382  12.221   7.313  1.00  0.00     0.022 A 
BRANCH  74  78
ATOM     78  S   UNL     1     -13.767  14.789   8.331  1.00  0.00     0.124 S 
ATOM     79  O   UNL     1     -14.604  14.800   9.526  1.00  0.00    -0.237 OA
ATOM     80  O   UNL     1     -12.552  15.594   8.390  1.00  0.00    -0.237 OA
ATOM     81  O   UNL     1     -14.489  14.847   7.062  1.00  0.00    -0.744 OA
ENDBRANCH  74  78
ENDBRANCH  47  71
BRANCH  59  82
ATOM     82  C   UNL     1     -13.614  10.840  16.338  1.00  0.00     0.023 A 
ATOM     83  C   UNL     1     -14.853  10.212  16.120  1.00  0.00     0.031 A 
ATOM     84  C   UNL     1     -13.557  11.873  17.291  1.00  0.00     0.131 A 
ATOM     85  C   UNL     1     -15.995  10.664  16.798  1.00  0.00     0.055 A 
ATOM     86  C   UNL     1     -14.682  12.270  18.014  1.00  0.00     0.041 A 
ATOM     87  F   UNL     1     -12.403  12.513  17.538  1.00  0.00    -0.206 F 
ATOM     88  C   UNL     1     -15.914  11.675  17.759  1.00  0.00     0.022 A 
BRANCH  85  89
ATOM     89  S   UNL     1     -17.611   9.986  16.330  1.00  0.00     0.124 S 
ATOM     90  O   UNL     1     -17.672  10.306  14.907  1.00  0.00    -0.237 OA
ATOM     91  O   UNL     1     -17.465   8.572  16.659  1.00  0.00    -0.237 OA
ATOM     92  O   UNL     1     -18.550  10.725  17.172  1.00  0.00    -0.744 OA
ENDBRANCH  85  89
ENDBRANCH  59  82
ENDBRANCH  33  34
ENDBRANCH  25  28
ENDBRANCH  23  24
ENDBRANCH  22  23
ENDBRANCH   1  22
TORSDOF 17
