REMARK SMILES O=C(NCCCNC(=O)c1cc([C@@H]2C=NN=C2c2ccc(F)cc2)c2c(ccc3ccccc32)n1)c1ccc(-c2c3nc(c(-c4cc(S(=O)(=O)[O-])ccc4F)c4ccc([nH]4)c(-c4cc(S(=O)(=O)[O-])ccc4F)c4nc(c(-c5cc(S(=O)(=O)[O-])ccc5F)c5ccc2[nH]5)C=C4)C=C3)cc1
REMARK SMILES IDX 4 1 3 2 1 3 2 4 36 6 37 7 98 8 38 9 97 10 39 11 40 12 41 13
REMARK SMILES IDX 91 14 42 15 96 16 90 17 92 18 43 19 95 20 89 21 88 22 44 24
REMARK SMILES IDX 76 25 56 26 75 27 57 28 60 29 74 30 93 31 58 32 59 33 73 35
REMARK SMILES IDX 94 36 61 37 45 38 46 39 54 40 47 41 53 42 55 43 52 44 48 45
REMARK SMILES IDX 49 46 50 47 51 48 77 49 78 50 86 51 79 52 85 53 87 54 84 55
REMARK SMILES IDX 80 56 81 57 82 58 83 59 62 60 63 61 71 62 64 63 70 64 72 65
REMARK SMILES IDX 69 66 65 67 66 68 67 69 68 70 5 71 6 72 7 73 8 74 9 76 10 77
REMARK SMILES IDX 11 78 35 79 12 80 26 81 25 82 27 83 34 84 28 85 29 86 33 87
REMARK SMILES IDX 30 88 32 89 31 90 13 91 14 92 17 93 15 94 16 95 18 96 19 97
REMARK SMILES IDX 24 98 20 99 23 100 21 101 22 102
REMARK H PARENT 3 5 92 23 60 34 7 75
REMARK Flexibility Score: inf
ROOT
ATOM      1  C   UNL     1       4.730   0.749  -0.595  1.00  0.00     0.118 C 
ENDROOT
BRANCH   1   2
ATOM      2  N   UNL     1       3.311   0.937  -0.367  1.00  0.00    -0.352 N 
ATOM      3  O   UNL     1       1.238   0.687   0.320  1.00  0.00    -0.269 OA
ATOM      4  C   UNL     1       2.269   0.112  -0.042  1.00  0.00     0.251 C 
ATOM      5  H   UNL     1       3.033   1.876  -0.470  1.00  0.00     0.163 HD
BRANCH   4   6
ATOM      6  C   UNL     1       2.263  -1.376  -0.149  1.00  0.00     0.039 A 
ATOM      7  C   UNL     1       3.347  -2.181  -0.500  1.00  0.00     0.014 A 
ATOM      8  C   UNL     1       1.018  -1.998   0.070  1.00  0.00     0.014 A 
ATOM      9  C   UNL     1       3.174  -3.552  -0.708  1.00  0.00     0.010 A 
ATOM     10  C   UNL     1       0.842  -3.366  -0.123  1.00  0.00     0.010 A 
ATOM     11  C   UNL     1       1.917  -4.143  -0.545  1.00  0.00    -0.014 A 
BRANCH  11  12
ATOM     12  C   UNL     1       1.798  -5.599  -0.664  1.00  0.00     0.031 A 
ATOM     13  C   UNL     1       2.531  -6.379   0.379  1.00  0.00     0.074 A 
ATOM     14  C   UNL     1       0.966  -6.229  -1.520  1.00  0.00     0.049 A 
ATOM     15  N   UNL     1       3.454  -7.272   0.217  1.00  0.00    -0.248 NA
ATOM     16  C   UNL     1       2.256  -6.061   1.790  1.00  0.00     0.031 C 
ATOM     17  C   UNL     1      -0.027  -5.633  -2.416  1.00  0.00     0.029 A 
ATOM     18  N   UNL     1       0.762  -7.571  -1.689  1.00  0.00    -0.354 N 
ATOM     19  C   UNL     1       3.756  -7.759   1.488  1.00  0.00     0.074 A 
ATOM     20  C   UNL     1       3.080  -6.897   2.423  1.00  0.00     0.031 C 
ATOM     21  C   UNL     1      -0.865  -6.599  -2.862  1.00  0.00     0.029 A 
ATOM     22  C   UNL     1      -0.399  -7.893  -2.389  1.00  0.00     0.049 A 
ATOM     23  H   UNL     1       1.384  -8.252  -1.345  1.00  0.00     0.167 HD
ATOM     24  C   UNL     1       4.413  -8.936   1.687  1.00  0.00     0.034 A 
ATOM     25  C   UNL     1      -0.965  -9.125  -2.519  1.00  0.00     0.034 A 
ATOM     26  C   UNL     1       5.088  -9.385   0.501  1.00  0.00     0.049 A 
ATOM     27  C   UNL     1       0.114 -10.116  -2.288  1.00  0.00     0.074 A 
ATOM     28  C   UNL     1       6.101  -8.874  -0.288  1.00  0.00     0.029 A 
ATOM     29  N   UNL     1       4.492 -10.363  -0.257  1.00  0.00    -0.354 N 
ATOM     30  N   UNL     1       1.152 -10.251  -3.066  1.00  0.00    -0.248 NA
ATOM     31  C   UNL     1       0.263 -10.661  -0.949  1.00  0.00     0.031 C 
ATOM     32  C   UNL     1       5.723  -9.198  -1.623  1.00  0.00     0.029 A 
ATOM     33  C   UNL     1       4.539  -9.937  -1.562  1.00  0.00     0.049 A 
ATOM     34  H   UNL     1       4.105 -11.207   0.071  1.00  0.00     0.167 HD
ATOM     35  C   UNL     1       2.209 -10.502  -2.207  1.00  0.00     0.074 A 
ATOM     36  C   UNL     1       1.587 -10.834  -0.927  1.00  0.00     0.031 C 
ATOM     37  C   UNL     1       3.489 -10.161  -2.534  1.00  0.00     0.034 A 
BRANCH  24  38
ATOM     38  C   UNL     1       4.224  -9.824   2.890  1.00  0.00     0.023 A 
ATOM     39  C   UNL     1       5.133 -10.876   3.118  1.00  0.00     0.031 A 
ATOM     40  C   UNL     1       3.043  -9.841   3.666  1.00  0.00     0.131 A 
ATOM     41  C   UNL     1       4.840 -11.889   4.051  1.00  0.00     0.055 A 
ATOM     42  C   UNL     1       2.783 -10.816   4.632  1.00  0.00     0.041 A 
ATOM     43  F   UNL     1       2.045  -8.971   3.459  1.00  0.00    -0.206 F 
ATOM     44  C   UNL     1       3.675 -11.859   4.816  1.00  0.00     0.022 A 
BRANCH  41  45
ATOM     45  S   UNL     1       5.945 -13.323   4.166  1.00  0.00     0.124 S 
ATOM     46  O   UNL     1       5.901 -13.846   2.806  1.00  0.00    -0.237 OA
ATOM     47  O   UNL     1       7.202 -12.706   4.579  1.00  0.00    -0.237 OA
ATOM     48  O   UNL     1       5.307 -14.164   5.178  1.00  0.00    -0.744 OA
ENDBRANCH  41  45
ENDBRANCH  24  38
BRANCH  25  49
ATOM     49  C   UNL     1      -2.415  -9.488  -2.501  1.00  0.00     0.023 A 
ATOM     50  C   UNL     1      -2.872 -10.784  -2.836  1.00  0.00     0.031 A 
ATOM     51  C   UNL     1      -3.358  -8.632  -1.889  1.00  0.00     0.131 A 
ATOM     52  C   UNL     1      -4.203 -11.174  -2.550  1.00  0.00     0.055 A 
ATOM     53  C   UNL     1      -4.672  -9.020  -1.615  1.00  0.00     0.041 A 
ATOM     54  F   UNL     1      -3.012  -7.414  -1.446  1.00  0.00    -0.206 F 
ATOM     55  C   UNL     1      -5.098 -10.299  -1.933  1.00  0.00     0.022 A 
BRANCH  52  56
ATOM     56  S   UNL     1      -4.761 -12.884  -2.853  1.00  0.00     0.124 S 
ATOM     57  O   UNL     1      -5.038 -12.866  -4.284  1.00  0.00    -0.237 OA
ATOM     58  O   UNL     1      -3.613 -13.677  -2.425  1.00  0.00    -0.237 OA
ATOM     59  O   UNL     1      -5.941 -13.010  -1.996  1.00  0.00    -0.744 OA
ENDBRANCH  52  56
ENDBRANCH  25  49
BRANCH  37  60
ATOM     60  C   UNL     1       3.797  -9.772  -3.964  1.00  0.00     0.023 A 
ATOM     61  C   UNL     1       3.261  -8.643  -4.626  1.00  0.00     0.031 A 
ATOM     62  C   UNL     1       4.806 -10.498  -4.619  1.00  0.00     0.131 A 
ATOM     63  C   UNL     1       3.746  -8.281  -5.900  1.00  0.00     0.055 A 
ATOM     64  C   UNL     1       5.293 -10.128  -5.871  1.00  0.00     0.041 A 
ATOM     65  F   UNL     1       5.375 -11.559  -4.022  1.00  0.00    -0.206 F 
ATOM     66  C   UNL     1       4.764  -9.017  -6.517  1.00  0.00     0.022 A 
BRANCH  63  67
ATOM     67  S   UNL     1       3.086  -6.817  -6.764  1.00  0.00     0.124 S 
ATOM     68  O   UNL     1       1.663  -7.112  -6.881  1.00  0.00    -0.237 OA
ATOM     69  O   UNL     1       3.444  -5.721  -5.866  1.00  0.00    -0.237 OA
ATOM     70  O   UNL     1       3.814  -6.813  -8.035  1.00  0.00    -0.744 OA
ENDBRANCH  63  67
ENDBRANCH  37  60
ENDBRANCH  11  12
ENDBRANCH   4   6
ENDBRANCH   1   2
BRANCH   1  71
ATOM     71  C   UNL     1       5.116   0.430  -2.035  1.00  0.00     0.042 C 
BRANCH  71  72
ATOM     72  C   UNL     1       4.634   1.433  -3.075  1.00  0.00     0.118 C 
BRANCH  72  73
ATOM     73  N   UNL     1       5.231   2.755  -2.932  1.00  0.00    -0.351 N 
ATOM     74  C   UNL     1       6.030   3.474  -3.796  1.00  0.00     0.269 C 
ATOM     75  H   UNL     1       5.033   3.207  -2.080  1.00  0.00     0.163 HD
ATOM     76  O   UNL     1       6.496   4.550  -3.409  1.00  0.00    -0.268 OA
BRANCH  74  77
ATOM     77  C   UNL     1       6.296   2.992  -5.184  1.00  0.00     0.129 A 
ATOM     78  C   UNL     1       5.278   2.501  -5.964  1.00  0.00     0.039 A 
ATOM     79  N   UNL     1       7.541   3.133  -5.657  1.00  0.00    -0.243 NA
ATOM     80  C   UNL     1       5.532   2.014  -7.269  1.00  0.00    -0.021 A 
ATOM     81  C   UNL     1       7.800   2.751  -6.913  1.00  0.00     0.072 A 
ATOM     82  C   UNL     1       6.867   2.163  -7.827  1.00  0.00     0.012 A 
ATOM     83  C   UNL     1       9.101   3.008  -7.283  1.00  0.00     0.029 A 
ATOM     84  C   UNL     1       7.396   1.851  -9.175  1.00  0.00    -0.009 A 
ATOM     85  C   UNL     1       9.583   2.717  -8.548  1.00  0.00     0.011 A 
ATOM     86  C   UNL     1       8.753   2.143  -9.496  1.00  0.00    -0.018 A 
ATOM     87  C   UNL     1       6.677   1.282 -10.251  1.00  0.00     0.009 A 
ATOM     88  C   UNL     1       9.301   1.875 -10.765  1.00  0.00     0.009 A 
ATOM     89  C   UNL     1       7.219   1.008 -11.513  1.00  0.00     0.001 A 
ATOM     90  C   UNL     1       8.539   1.306 -11.774  1.00  0.00     0.001 A 
BRANCH  80  91
ATOM     91  C   UNL     1       4.268   1.458  -7.893  1.00  0.00     0.115 C 
ATOM     92  C   UNL     1       4.263   0.063  -8.405  1.00  0.00     0.123 C 
ATOM     93  C   UNL     1       3.627   2.130  -9.065  1.00  0.00     0.083 C 
ATOM     94  N   UNL     1       3.629  -0.045  -9.530  1.00  0.00    -0.162 NA
ATOM     95  N   UNL     1       3.217   1.266  -9.949  1.00  0.00    -0.154 NA
BRANCH  93  96
ATOM     96  C   UNL     1       3.328   3.575  -9.147  1.00  0.00    -0.001 A 
ATOM     97  C   UNL     1       2.107   3.952  -9.723  1.00  0.00     0.013 A 
ATOM     98  C   UNL     1       4.203   4.561  -8.680  1.00  0.00     0.013 A 
ATOM     99  C   UNL     1       1.753   5.301  -9.798  1.00  0.00     0.040 A 
ATOM    100  C   UNL     1       3.845   5.910  -8.753  1.00  0.00     0.040 A 
ATOM    101  C   UNL     1       2.623   6.267  -9.306  1.00  0.00     0.123 A 
ATOM    102  F   UNL     1       2.284   7.560  -9.373  1.00  0.00    -0.207 F 
ENDBRANCH  93  96
ENDBRANCH  80  91
ENDBRANCH  74  77
ENDBRANCH  72  73
ENDBRANCH  71  72
ENDBRANCH   1  71
TORSDOF 15
