REMARK SMILES CCc1ccc2[nH]c(C(=O)c3cc(C)ccn3)c(CC(=O)NCCCNC(=O)c3ccc(-c4c5nc(c(-c6cc(S(=O)(=O)[O-])ccc6F)c6ccc([nH]6)c(-c6cc(S(=O)(=O)[O-])ccc6F)c6nc(c(-c7cc(S(=O)(=O)[O-])ccc7F)c7ccc4[nH]7)C=C6)C=C5)cc3)c2c1
REMARK SMILES IDX 24 1 23 2 22 3 20 4 21 5 19 7 18 8 3 9 4 10 93 11 5 12 92 13
REMARK SMILES IDX 6 14 7 15 8 16 2 18 1 19 9 20 10 21 11 22 12 23 17 24 13 25
REMARK SMILES IDX 16 26 14 27 15 28 25 29 26 30 27 31 28 33 29 34 30 35 91 36
REMARK SMILES IDX 31 37 90 38 32 39 33 40 34 41 84 42 35 43 89 44 83 45 85 46
REMARK SMILES IDX 36 47 88 48 82 49 81 50 37 52 69 53 49 54 68 55 50 56 53 57
REMARK SMILES IDX 67 58 86 59 51 60 52 61 66 63 87 64 54 65 38 66 39 67 47 68
REMARK SMILES IDX 40 69 46 70 48 71 45 72 41 73 42 74 43 75 44 76 70 77 71 78
REMARK SMILES IDX 79 79 72 80 78 81 80 82 77 83 73 84 74 85 75 86 76 87 55 88
REMARK SMILES IDX 56 89 64 90 57 91 63 92 65 93 62 94 58 95 59 96 60 97 61 98
REMARK H PARENT 22 6 7 17 26 32 85 51 53 62
REMARK Flexibility Score: inf
ROOT
ATOM      1  C   UNL     1       4.896  -3.517   0.151  1.00  0.00     0.042 C 
ENDROOT
BRANCH   1   2
ATOM      2  C   UNL     1       5.487  -2.530  -0.851  1.00  0.00     0.117 C 
BRANCH   2   3
ATOM      3  N   UNL     1       6.419  -3.140  -1.776  1.00  0.00    -0.356 N 
ATOM      4  C   UNL     1       6.265  -3.435  -3.101  1.00  0.00     0.224 C 
ATOM      5  O   UNL     1       7.286  -3.735  -3.728  1.00  0.00    -0.275 OA
ATOM      6  H   UNL     1       7.294  -3.379  -1.393  1.00  0.00     0.163 HD
BRANCH   4   7
ATOM      7  C   UNL     1       4.921  -3.269  -3.802  1.00  0.00     0.138 C 
BRANCH   7   8
ATOM      8  C   UNL     1       3.796  -4.089  -3.226  1.00  0.00    -0.002 A 
ATOM      9  C   UNL     1       0.907  -2.062  -1.701  1.00  0.00    -0.048 A 
ATOM     10  C   UNL     1       0.203  -3.172  -1.227  1.00  0.00     0.006 A 
ATOM     11  C   UNL     1       2.108  -2.254  -2.404  1.00  0.00     0.014 A 
ATOM     12  C   UNL     1       0.665  -4.475  -1.441  1.00  0.00     0.027 A 
ATOM     13  C   UNL     1       2.607  -3.558  -2.619  1.00  0.00     0.004 A 
ATOM     14  C   UNL     1       1.868  -4.632  -2.138  1.00  0.00     0.046 A 
ATOM     15  N   UNL     1       2.559  -5.773  -2.463  1.00  0.00    -0.352 N 
ATOM     16  C   UNL     1       3.681  -5.481  -3.212  1.00  0.00     0.093 A 
ATOM     17  H   UNL     1       2.289  -6.682  -2.196  1.00  0.00     0.167 HD
BRANCH   9  18
ATOM     18  C   UNL     1       0.416  -0.664  -1.417  1.00  0.00     0.032 C 
ATOM     19  C   UNL     1       0.974  -0.130  -0.105  1.00  0.00     0.009 C 
ENDBRANCH   9  18
BRANCH  16  20
ATOM     20  C   UNL     1       4.555  -6.471  -3.831  1.00  0.00     0.227 C 
ATOM     21  O   UNL     1       5.509  -6.175  -4.553  1.00  0.00    -0.285 OA
BRANCH  20  22
ATOM     22  C   UNL     1       4.243  -7.914  -3.666  1.00  0.00     0.113 A 
ATOM     23  C   UNL     1       3.103  -8.443  -4.266  1.00  0.00     0.036 A 
ATOM     24  N   UNL     1       5.120  -8.642  -2.932  1.00  0.00    -0.253 NA
ATOM     25  C   UNL     1       2.839  -9.803  -4.102  1.00  0.00    -0.047 A 
ATOM     26  C   UNL     1       4.856  -9.959  -2.813  1.00  0.00     0.112 A 
ATOM     27  C   UNL     1       1.629 -10.440  -4.717  1.00  0.00     0.044 C 
ATOM     28  C   UNL     1       3.744 -10.575  -3.368  1.00  0.00     0.023 A 
ENDBRANCH  20  22
ENDBRANCH  16  20
ENDBRANCH   7   8
ENDBRANCH   4   7
ENDBRANCH   2   3
ENDBRANCH   1   2
BRANCH   1  29
ATOM     29  C   UNL     1       5.899  -4.093   1.148  1.00  0.00     0.118 C 
BRANCH  29  30
ATOM     30  N   UNL     1       6.495  -3.074   1.997  1.00  0.00    -0.352 N 
ATOM     31  C   UNL     1       6.586  -2.976   3.361  1.00  0.00     0.251 C 
ATOM     32  H   UNL     1       6.904  -2.324   1.507  1.00  0.00     0.163 HD
ATOM     33  O   UNL     1       6.977  -1.913   3.842  1.00  0.00    -0.269 OA
BRANCH  31  34
ATOM     34  C   UNL     1       6.219  -4.099   4.259  1.00  0.00     0.039 A 
ATOM     35  C   UNL     1       5.669  -3.791   5.509  1.00  0.00     0.014 A 
ATOM     36  C   UNL     1       6.485  -5.434   3.938  1.00  0.00     0.014 A 
ATOM     37  C   UNL     1       5.363  -4.809   6.416  1.00  0.00     0.010 A 
ATOM     38  C   UNL     1       6.116  -6.455   4.817  1.00  0.00     0.010 A 
ATOM     39  C   UNL     1       5.570  -6.154   6.073  1.00  0.00    -0.014 A 
BRANCH  39  40
ATOM     40  C   UNL     1       5.264  -7.240   7.042  1.00  0.00     0.031 A 
ATOM     41  C   UNL     1       6.377  -8.081   7.613  1.00  0.00     0.074 A 
ATOM     42  C   UNL     1       3.986  -7.490   7.388  1.00  0.00     0.049 A 
ATOM     43  N   UNL     1       6.312  -9.090   8.445  1.00  0.00    -0.248 NA
ATOM     44  C   UNL     1       7.739  -7.761   7.163  1.00  0.00     0.031 C 
ATOM     45  C   UNL     1       2.817  -6.775   6.872  1.00  0.00     0.029 A 
ATOM     46  N   UNL     1       3.456  -8.413   8.253  1.00  0.00    -0.354 N 
ATOM     47  C   UNL     1       7.621  -9.536   8.606  1.00  0.00     0.074 A 
ATOM     48  C   UNL     1       8.447  -8.722   7.737  1.00  0.00     0.031 C 
ATOM     49  C   UNL     1       1.710  -7.271   7.449  1.00  0.00     0.029 A 
ATOM     50  C   UNL     1       2.085  -8.356   8.350  1.00  0.00     0.049 A 
ATOM     51  H   UNL     1       4.005  -9.056   8.757  1.00  0.00     0.167 HD
ATOM     52  C   UNL     1       8.095 -10.515   9.417  1.00  0.00     0.034 A 
ATOM     53  C   UNL     1       1.228  -9.094   9.083  1.00  0.00     0.034 A 
ATOM     54  C   UNL     1       7.263 -11.306  10.293  1.00  0.00     0.049 A 
ATOM     55  C   UNL     1       1.777 -10.160   9.994  1.00  0.00     0.074 A 
ATOM     56  C   UNL     1       7.642 -12.290  11.190  1.00  0.00     0.029 A 
ATOM     57  N   UNL     1       5.881 -11.202  10.383  1.00  0.00    -0.354 N 
ATOM     58  N   UNL     1       3.023 -10.540  10.167  1.00  0.00    -0.248 NA
ATOM     59  C   UNL     1       0.805 -10.883  10.823  1.00  0.00     0.031 C 
ATOM     60  C   UNL     1       6.486 -12.816  11.782  1.00  0.00     0.029 A 
ATOM     61  C   UNL     1       5.391 -12.116  11.304  1.00  0.00     0.049 A 
ATOM     62  H   UNL     1       5.329 -10.570   9.868  1.00  0.00     0.167 HD
ATOM     63  C   UNL     1       2.984 -11.530  11.144  1.00  0.00     0.074 A 
ATOM     64  C   UNL     1       1.596 -11.671  11.537  1.00  0.00     0.031 C 
ATOM     65  C   UNL     1       4.001 -12.258  11.671  1.00  0.00     0.034 A 
BRANCH  52  66
ATOM     66  C   UNL     1       9.579 -10.795   9.367  1.00  0.00     0.023 A 
ATOM     67  C   UNL     1      10.526  -9.825   9.745  1.00  0.00     0.031 A 
ATOM     68  C   UNL     1      10.057 -12.030   8.896  1.00  0.00     0.131 A 
ATOM     69  C   UNL     1      11.895 -10.074   9.564  1.00  0.00     0.055 A 
ATOM     70  C   UNL     1      11.424 -12.302   8.796  1.00  0.00     0.041 A 
ATOM     71  F   UNL     1       9.204 -12.989   8.504  1.00  0.00    -0.206 F 
ATOM     72  C   UNL     1      12.352 -11.315   9.115  1.00  0.00     0.022 A 
BRANCH  69  73
ATOM     73  S   UNL     1      13.060  -8.701   9.781  1.00  0.00     0.124 S 
ATOM     74  O   UNL     1      12.578  -7.747   8.785  1.00  0.00    -0.237 OA
ATOM     75  O   UNL     1      12.853  -8.329  11.175  1.00  0.00    -0.237 OA
ATOM     76  O   UNL     1      14.358  -9.302   9.481  1.00  0.00    -0.744 OA
ENDBRANCH  69  73
ENDBRANCH  52  66
BRANCH  53  77
ATOM     77  C   UNL     1      -0.239  -8.853   8.994  1.00  0.00     0.023 A 
ATOM     78  C   UNL     1      -0.956  -8.347  10.090  1.00  0.00     0.031 A 
ATOM     79  C   UNL     1      -0.952  -9.164   7.824  1.00  0.00     0.131 A 
ATOM     80  C   UNL     1      -2.350  -8.211  10.010  1.00  0.00     0.055 A 
ATOM     81  C   UNL     1      -2.333  -8.984   7.733  1.00  0.00     0.041 A 
ATOM     82  F   UNL     1      -0.311  -9.641   6.745  1.00  0.00    -0.206 F 
ATOM     83  C   UNL     1      -3.042  -8.516   8.835  1.00  0.00     0.022 A 
BRANCH  80  84
ATOM     84  S   UNL     1      -3.259  -7.695  11.492  1.00  0.00     0.124 S 
ATOM     85  O   UNL     1      -2.887  -8.734  12.446  1.00  0.00    -0.237 OA
ATOM     86  O   UNL     1      -2.706  -6.368  11.739  1.00  0.00    -0.237 OA
ATOM     87  O   UNL     1      -4.655  -7.715  11.059  1.00  0.00    -0.744 OA
ENDBRANCH  80  84
ENDBRANCH  53  77
BRANCH  65  88
ATOM     88  C   UNL     1       3.638 -13.245  12.753  1.00  0.00     0.023 A 
ATOM     89  C   UNL     1       2.845 -14.375  12.483  1.00  0.00     0.031 A 
ATOM     90  C   UNL     1       4.054 -13.029  14.079  1.00  0.00     0.131 A 
ATOM     91  C   UNL     1       2.435 -15.208  13.535  1.00  0.00     0.055 A 
ATOM     92  C   UNL     1       3.692 -13.895  15.112  1.00  0.00     0.041 A 
ATOM     93  F   UNL     1       4.811 -11.966  14.393  1.00  0.00    -0.206 F 
ATOM     94  C   UNL     1       2.864 -14.983  14.845  1.00  0.00     0.022 A 
BRANCH  91  95
ATOM     95  S   UNL     1       1.238 -16.526  13.184  1.00  0.00     0.124 S 
ATOM     96  O   UNL     1       0.138 -15.785  12.576  1.00  0.00    -0.237 OA
ATOM     97  O   UNL     1       1.991 -17.398  12.288  1.00  0.00    -0.237 OA
ATOM     98  O   UNL     1       0.952 -17.089  14.502  1.00  0.00    -0.744 OA
ENDBRANCH  91  95
ENDBRANCH  65  88
ENDBRANCH  39  40
ENDBRANCH  31  34
ENDBRANCH  29  30
ENDBRANCH   1  29
TORSDOF 17
