REMARK SMILES N#C/C(=C/c1ccc(-c2cccc(C(=O)NCCCNC(=O)c3ccc(-c4c5nc(c(-c6cc(S(=O)(=O)[O-])ccc6F)c6ccc([nH]6)c(-c6cc(S(=O)(=O)[O-])ccc6F)c6nc(c(-c7cc(S(=O)(=O)[O-])ccc7F)c7ccc4[nH]7)C=C6)C=C5)cc3)c2)o1)c1ccc(F)cc1
REMARK SMILES IDX 18 1 17 2 16 3 14 4 15 5 13 7 9 8 10 9 86 10 11 11 12 12
REMARK SMILES IDX 8 13 5 14 6 15 87 16 7 17 4 18 3 19 2 20 1 21 88 22 89 23
REMARK SMILES IDX 94 24 90 25 93 26 91 27 92 28 19 29 20 30 21 31 22 33 23 34
REMARK SMILES IDX 24 35 85 36 25 37 84 38 26 39 27 40 28 41 78 42 29 43 83 44
REMARK SMILES IDX 77 45 79 46 30 47 82 48 76 49 75 50 31 52 63 53 43 54 62 55
REMARK SMILES IDX 44 56 47 57 61 58 80 59 45 60 46 61 60 63 81 64 48 65 32 66
REMARK SMILES IDX 33 67 41 68 34 69 40 70 42 71 39 72 35 73 36 74 37 75 38 76
REMARK SMILES IDX 64 77 65 78 73 79 66 80 72 81 74 82 71 83 67 84 68 85 69 86
REMARK SMILES IDX 70 87 49 88 50 89 58 90 51 91 57 92 59 93 56 94 52 95 53 96
REMARK SMILES IDX 54 97 55 98
REMARK H PARENT 16 6 20 32 79 51 47 62
REMARK Flexibility Score: inf
ROOT
ATOM      1  C   UNL     1      10.241   0.966  -5.401  1.00  0.00     0.042 C 
ENDROOT
BRANCH   1   2
ATOM      2  C   UNL     1      11.040   0.766  -4.123  1.00  0.00     0.118 C 
BRANCH   2   3
ATOM      3  N   UNL     1      12.022   1.813  -3.846  1.00  0.00    -0.352 N 
ATOM      4  C   UNL     1      12.174   2.770  -2.864  1.00  0.00     0.251 C 
ATOM      5  O   UNL     1      13.161   3.505  -2.931  1.00  0.00    -0.269 OA
ATOM      6  H   UNL     1      12.742   1.842  -4.516  1.00  0.00     0.163 HD
BRANCH   4   7
ATOM      7  C   UNL     1      11.187   3.008  -1.774  1.00  0.00     0.040 A 
ATOM      8  C   UNL     1       9.159   2.345  -0.605  1.00  0.00     0.018 A 
ATOM      9  C   UNL     1       9.060   3.616  -0.041  1.00  0.00     0.012 A 
ATOM     10  C   UNL     1      10.311   2.029  -1.335  1.00  0.00     0.025 A 
ATOM     11  C   UNL     1      10.067   4.559  -0.279  1.00  0.00     0.002 A 
ATOM     12  C   UNL     1      11.098   4.272  -1.183  1.00  0.00     0.014 A 
BRANCH   8  13
ATOM     13  C   UNL     1       8.087   1.356  -0.615  1.00  0.00     0.134 A 
ATOM     14  C   UNL     1       5.960   0.738  -0.847  1.00  0.00     0.128 A 
ATOM     15  C   UNL     1       6.760  -0.383  -1.046  1.00  0.00     0.051 A 
ATOM     16  O   UNL     1       6.798   1.813  -0.614  1.00  0.00    -0.457 OA
ATOM     17  C   UNL     1       8.096  -0.006  -0.827  1.00  0.00     0.051 A 
BRANCH  14  18
ATOM     18  C   UNL     1       4.535   0.797  -0.789  1.00  0.00     0.067 C 
ATOM     19  C   UNL     1       3.843   0.023   0.075  1.00  0.00     0.063 C 
BRANCH  19  20
ATOM     20  C   UNL     1       2.323   0.023   0.075  1.00  0.00     0.100 C 
ATOM     21  N   UNL     1       1.062   0.023   0.075  1.00  0.00    -0.192 NA
ENDBRANCH  19  20
BRANCH  19  22
ATOM     22  C   UNL     1       4.504  -0.846   1.097  1.00  0.00    -0.007 A 
ATOM     23  C   UNL     1       5.501  -0.326   1.950  1.00  0.00     0.012 A 
ATOM     24  C   UNL     1       4.206  -2.215   1.175  1.00  0.00     0.012 A 
ATOM     25  C   UNL     1       6.259  -1.169   2.765  1.00  0.00     0.040 A 
ATOM     26  C   UNL     1       4.943  -3.052   2.019  1.00  0.00     0.040 A 
ATOM     27  C   UNL     1       5.979  -2.527   2.784  1.00  0.00     0.123 A 
ATOM     28  F   UNL     1       6.724  -3.343   3.541  1.00  0.00    -0.207 F 
ENDBRANCH  19  22
ENDBRANCH  14  18
ENDBRANCH   8  13
ENDBRANCH   4   7
ENDBRANCH   2   3
ENDBRANCH   1   2
BRANCH   1  29
ATOM     29  C   UNL     1      11.018   0.667  -6.673  1.00  0.00     0.118 C 
BRANCH  29  30
ATOM     30  N   UNL     1      11.481  -0.716  -6.734  1.00  0.00    -0.352 N 
ATOM     31  C   UNL     1      11.055  -1.781  -7.494  1.00  0.00     0.251 C 
ATOM     32  H   UNL     1      12.227  -0.923  -6.127  1.00  0.00     0.163 HD
ATOM     33  O   UNL     1      11.430  -2.911  -7.196  1.00  0.00    -0.269 OA
BRANCH  31  34
ATOM     34  C   UNL     1      10.144  -1.578  -8.643  1.00  0.00     0.039 A 
ATOM     35  C   UNL     1       9.159  -2.533  -8.913  1.00  0.00     0.014 A 
ATOM     36  C   UNL     1      10.274  -0.465  -9.474  1.00  0.00     0.014 A 
ATOM     37  C   UNL     1       8.257  -2.323  -9.960  1.00  0.00     0.010 A 
ATOM     38  C   UNL     1       9.312  -0.204 -10.443  1.00  0.00     0.010 A 
ATOM     39  C   UNL     1       8.294  -1.132 -10.702  1.00  0.00    -0.014 A 
BRANCH  39  40
ATOM     40  C   UNL     1       7.292  -0.834 -11.758  1.00  0.00     0.031 A 
ATOM     41  C   UNL     1       7.739  -0.610 -13.178  1.00  0.00     0.074 A 
ATOM     42  C   UNL     1       5.995  -0.683 -11.422  1.00  0.00     0.049 A 
ATOM     43  N   UNL     1       7.041  -0.228 -14.217  1.00  0.00    -0.248 NA
ATOM     44  C   UNL     1       9.170  -0.807 -13.458  1.00  0.00     0.031 C 
ATOM     45  C   UNL     1       5.448  -0.834 -10.072  1.00  0.00     0.029 A 
ATOM     46  N   UNL     1       4.901  -0.357 -12.185  1.00  0.00    -0.354 N 
ATOM     47  C   UNL     1       7.948  -0.123 -15.266  1.00  0.00     0.074 A 
ATOM     48  C   UNL     1       9.256  -0.413 -14.719  1.00  0.00     0.031 C 
ATOM     49  C   UNL     1       4.122  -0.631 -10.107  1.00  0.00     0.029 A 
ATOM     50  C   UNL     1       3.729  -0.278 -11.467  1.00  0.00     0.049 A 
ATOM     51  H   UNL     1       4.950  -0.195 -13.155  1.00  0.00     0.167 HD
ATOM     52  C   UNL     1       7.709   0.164 -16.570  1.00  0.00     0.034 A 
ATOM     53  C   UNL     1       2.483   0.061 -11.856  1.00  0.00     0.034 A 
ATOM     54  C   UNL     1       6.394   0.438 -17.097  1.00  0.00     0.049 A 
ATOM     55  C   UNL     1       2.247   0.412 -13.303  1.00  0.00     0.074 A 
ATOM     56  C   UNL     1       6.026   0.683 -18.408  1.00  0.00     0.029 A 
ATOM     57  N   UNL     1       5.232   0.512 -16.339  1.00  0.00    -0.354 N 
ATOM     58  N   UNL     1       3.108   0.456 -14.294  1.00  0.00    -0.248 NA
ATOM     59  C   UNL     1       0.871   0.751 -13.687  1.00  0.00     0.031 C 
ATOM     60  C   UNL     1       4.661   0.983 -18.431  1.00  0.00     0.029 A 
ATOM     61  C   UNL     1       4.155   0.837 -17.149  1.00  0.00     0.049 A 
ATOM     62  H   UNL     1       5.181   0.356 -15.368  1.00  0.00     0.167 HD
ATOM     63  C   UNL     1       2.369   0.795 -15.424  1.00  0.00     0.074 A 
ATOM     64  C   UNL     1       0.992   0.929 -14.994  1.00  0.00     0.031 C 
ATOM     65  C   UNL     1       2.788   0.976 -16.703  1.00  0.00     0.034 A 
BRANCH  52  66
ATOM     66  C   UNL     1       8.896   0.219 -17.502  1.00  0.00     0.023 A 
ATOM     67  C   UNL     1       9.709  -0.906 -17.733  1.00  0.00     0.031 A 
ATOM     68  C   UNL     1       9.238   1.418 -18.153  1.00  0.00     0.131 A 
ATOM     69  C   UNL     1      10.862  -0.789 -18.523  1.00  0.00     0.055 A 
ATOM     70  C   UNL     1      10.337   1.505 -19.010  1.00  0.00     0.041 A 
ATOM     71  F   UNL     1       8.516   2.532 -17.956  1.00  0.00    -0.206 F 
ATOM     72  C   UNL     1      11.166   0.401 -19.187  1.00  0.00     0.022 A 
BRANCH  69  73
ATOM     73  S   UNL     1      12.038  -2.169 -18.545  1.00  0.00     0.124 S 
ATOM     74  O   UNL     1      12.370  -2.296 -17.128  1.00  0.00    -0.237 OA
ATOM     75  O   UNL     1      11.245  -3.252 -19.115  1.00  0.00    -0.237 OA
ATOM     76  O   UNL     1      13.126  -1.679 -19.390  1.00  0.00    -0.744 OA
ENDBRANCH  69  73
ENDBRANCH  52  66
BRANCH  53  77
ATOM     77  C   UNL     1       1.366   0.099 -10.868  1.00  0.00     0.023 A 
ATOM     78  C   UNL     1       0.263  -0.760 -10.992  1.00  0.00     0.031 A 
ATOM     79  C   UNL     1       1.361   1.025  -9.809  1.00  0.00     0.131 A 
ATOM     80  C   UNL     1      -0.820  -0.643 -10.107  1.00  0.00     0.055 A 
ATOM     81  C   UNL     1       0.309   1.097  -8.895  1.00  0.00     0.041 A 
ATOM     82  F   UNL     1       2.392   1.869  -9.640  1.00  0.00    -0.206 F 
ATOM     83  C   UNL     1      -0.798   0.269  -9.050  1.00  0.00     0.022 A 
BRANCH  80  84
ATOM     84  S   UNL     1      -2.305  -1.637 -10.419  1.00  0.00     0.124 S 
ATOM     85  O   UNL     1      -2.661  -1.221 -11.771  1.00  0.00    -0.237 OA
ATOM     86  O   UNL     1      -1.794  -2.996 -10.278  1.00  0.00    -0.237 OA
ATOM     87  O   UNL     1      -3.228  -1.207  -9.370  1.00  0.00    -0.744 OA
ENDBRANCH  80  84
ENDBRANCH  53  77
BRANCH  65  88
ATOM     88  C   UNL     1       1.733   1.292 -17.735  1.00  0.00     0.023 A 
ATOM     89  C   UNL     1       1.008   2.496 -17.711  1.00  0.00     0.031 A 
ATOM     90  C   UNL     1       1.449   0.370 -18.759  1.00  0.00     0.131 A 
ATOM     91  C   UNL     1      -0.002   2.723 -18.659  1.00  0.00     0.055 A 
ATOM     92  C   UNL     1       0.490   0.630 -19.738  1.00  0.00     0.041 A 
ATOM     93  F   UNL     1       2.107  -0.799 -18.828  1.00  0.00    -0.206 F 
ATOM     94  C   UNL     1      -0.251   1.806 -19.684  1.00  0.00     0.022 A 
BRANCH  91  95
ATOM     95  S   UNL     1      -1.052   4.190 -18.478  1.00  0.00     0.124 S 
ATOM     96  O   UNL     1      -1.626   3.990 -17.152  1.00  0.00    -0.237 OA
ATOM     97  O   UNL     1      -0.089   5.280 -18.599  1.00  0.00    -0.237 OA
ATOM     98  O   UNL     1      -1.997   4.074 -19.587  1.00  0.00    -0.744 OA
ENDBRANCH  91  95
ENDBRANCH  65  88
ENDBRANCH  39  40
ENDBRANCH  31  34
ENDBRANCH  29  30
ENDBRANCH   1  29
TORSDOF 17
