REMARK SMILES O=C(NCCCNC(=O)c1ccc(-c2c3nc(c(-c4cc(S(=O)(=O)[O-])ccc4F)c4ccc([nH]4)c(-c4cc(S(=O)(=O)[O-])ccc4F)c4nc(c(-c5cc(S(=O)(=O)[O-])ccc5F)c5ccc2[nH]5)C=C4)C=C3)cc1)c1ccc(Cn2cc(Cl)c(=O)[nH]c2=O)cc1
REMARK SMILES IDX 5 1 4 2 3 3 1 4 2 5 73 7 74 8 88 9 75 10 87 11 76 12 77 13
REMARK SMILES IDX 78 14 79 15 85 16 80 17 84 18 86 19 81 20 82 21 83 23 6 24
REMARK SMILES IDX 7 25 8 26 9 28 10 29 11 30 72 31 12 32 71 33 13 34 14 35
REMARK SMILES IDX 15 36 65 37 16 38 70 39 64 40 66 41 17 42 69 43 63 44 62 45
REMARK SMILES IDX 18 47 50 48 30 49 49 50 31 51 34 52 48 53 67 54 32 55 33 56
REMARK SMILES IDX 47 58 68 59 35 60 19 61 20 62 28 63 21 64 27 65 29 66 26 67
REMARK SMILES IDX 22 68 23 69 24 70 25 71 51 72 52 73 60 74 53 75 59 76 61 77
REMARK SMILES IDX 58 78 54 79 55 80 56 81 57 82 36 83 37 84 45 85 38 86 44 87
REMARK SMILES IDX 46 88 43 89 39 90 40 91 41 92 42 93
REMARK H PARENT 3 6 84 22 7 27 66 46 34 57
REMARK Flexibility Score: inf
ROOT
ATOM      1  C   UNL     1       4.887   1.919  -1.368  1.00  0.00     0.042 C 
ENDROOT
BRANCH   1   2
ATOM      2  C   UNL     1       4.425   1.272  -0.070  1.00  0.00     0.118 C 
BRANCH   2   3
ATOM      3  N   UNL     1       2.980   1.089  -0.018  1.00  0.00    -0.352 N 
ATOM      4  O   UNL     1       1.029  -0.053  -0.130  1.00  0.00    -0.269 OA
ATOM      5  C   UNL     1       2.252  -0.075  -0.023  1.00  0.00     0.251 C 
ATOM      6  H   UNL     1       2.450   1.918   0.028  1.00  0.00     0.163 HD
BRANCH   5   7
ATOM      7  C   UNL     1       2.954  -1.366   0.098  1.00  0.00     0.039 A 
ATOM      8  C   UNL     1       3.792  -1.605   1.188  1.00  0.00     0.014 A 
ATOM      9  C   UNL     1       2.780  -2.338  -0.888  1.00  0.00     0.014 A 
ATOM     10  C   UNL     1       4.533  -2.783   1.242  1.00  0.00     0.006 A 
ATOM     11  C   UNL     1       3.535  -3.513  -0.838  1.00  0.00     0.006 A 
ATOM     12  C   UNL     1       4.443  -3.732   0.211  1.00  0.00    -0.028 A 
BRANCH  12  13
ATOM     13  C   UNL     1       5.339  -4.954   0.216  1.00  0.00     0.162 C 
BRANCH  13  14
ATOM     14  N   UNL     1       6.655  -4.713  -0.395  1.00  0.00    -0.295 N 
ATOM     15  C   UNL     1       7.555  -3.854   0.217  1.00  0.00     0.117 A 
ATOM     16  C   UNL     1       6.982  -5.383  -1.570  1.00  0.00     0.328 A 
ATOM     17  C   UNL     1       8.767  -3.599  -0.282  1.00  0.00     0.122 A 
ATOM     18  N   UNL     1       8.232  -5.116  -2.074  1.00  0.00    -0.273 N 
ATOM     19  O   UNL     1       6.245  -6.183  -2.139  1.00  0.00    -0.248 OA
ATOM     20  Cl  UNL     1       9.860  -2.527   0.491  1.00  0.00    -0.077 Cl
ATOM     21  C   UNL     1       9.176  -4.285  -1.529  1.00  0.00     0.272 A 
ATOM     22  H   UNL     1       8.475  -5.569  -2.913  1.00  0.00     0.175 HD
ATOM     23  O   UNL     1      10.284  -4.152  -2.035  1.00  0.00    -0.268 OA
ENDBRANCH  13  14
ENDBRANCH  12  13
ENDBRANCH   5   7
ENDBRANCH   2   3
ENDBRANCH   1   2
BRANCH   1  24
ATOM     24  C   UNL     1       4.388   3.343  -1.569  1.00  0.00     0.118 C 
BRANCH  24  25
ATOM     25  N   UNL     1       4.889   4.268  -0.560  1.00  0.00    -0.352 N 
ATOM     26  C   UNL     1       5.691   5.378  -0.695  1.00  0.00     0.251 C 
ATOM     27  H   UNL     1       4.611   4.067   0.363  1.00  0.00     0.163 HD
ATOM     28  O   UNL     1       6.143   5.920   0.310  1.00  0.00    -0.269 OA
BRANCH  26  29
ATOM     29  C   UNL     1       6.032   5.892  -2.040  1.00  0.00     0.039 A 
ATOM     30  C   UNL     1       7.349   6.276  -2.308  1.00  0.00     0.014 A 
ATOM     31  C   UNL     1       5.062   5.982  -3.040  1.00  0.00     0.014 A 
ATOM     32  C   UNL     1       7.710   6.658  -3.603  1.00  0.00     0.010 A 
ATOM     33  C   UNL     1       5.441   6.273  -4.347  1.00  0.00     0.010 A 
ATOM     34  C   UNL     1       6.771   6.607  -4.646  1.00  0.00    -0.014 A 
BRANCH  34  35
ATOM     35  C   UNL     1       7.150   6.889  -6.057  1.00  0.00     0.031 A 
ATOM     36  C   UNL     1       6.497   8.023  -6.800  1.00  0.00     0.074 A 
ATOM     37  C   UNL     1       8.014   6.072  -6.695  1.00  0.00     0.049 A 
ATOM     38  N   UNL     1       6.589   8.349  -8.063  1.00  0.00    -0.248 NA
ATOM     39  C   UNL     1       5.594   8.885  -6.021  1.00  0.00     0.031 C 
ATOM     40  C   UNL     1       8.690   4.920  -6.094  1.00  0.00     0.029 A 
ATOM     41  N   UNL     1       8.460   6.073  -7.995  1.00  0.00    -0.354 N 
ATOM     42  C   UNL     1       5.744   9.441  -8.236  1.00  0.00     0.074 A 
ATOM     43  C   UNL     1       5.104   9.680  -6.960  1.00  0.00     0.031 C 
ATOM     44  C   UNL     1       9.478   4.342  -7.014  1.00  0.00     0.029 A 
ATOM     45  C   UNL     1       9.320   5.039  -8.287  1.00  0.00     0.049 A 
ATOM     46  H   UNL     1       8.189   6.751  -8.656  1.00  0.00     0.167 HD
ATOM     47  C   UNL     1       5.538  10.186  -9.350  1.00  0.00     0.034 A 
ATOM     48  C   UNL     1       9.896   4.675  -9.450  1.00  0.00     0.034 A 
ATOM     49  C   UNL     1       6.194   9.939 -10.611  1.00  0.00     0.049 A 
ATOM     50  C   UNL     1       9.617   5.492 -10.688  1.00  0.00     0.074 A 
ATOM     51  C   UNL     1       6.101  10.665 -11.786  1.00  0.00     0.029 A 
ATOM     52  N   UNL     1       7.055   8.879 -10.868  1.00  0.00    -0.354 N 
ATOM     53  N   UNL     1       8.849   6.549 -10.824  1.00  0.00    -0.248 NA
ATOM     54  C   UNL     1      10.284   5.072 -11.927  1.00  0.00     0.031 C 
ATOM     55  C   UNL     1       6.838  10.002 -12.771  1.00  0.00     0.029 A 
ATOM     56  C   UNL     1       7.468   8.912 -12.192  1.00  0.00     0.049 A 
ATOM     57  H   UNL     1       7.332   8.204 -10.208  1.00  0.00     0.167 HD
ATOM     58  C   UNL     1       8.973   6.940 -12.155  1.00  0.00     0.074 A 
ATOM     59  C   UNL     1       9.894   6.011 -12.776  1.00  0.00     0.031 C 
ATOM     60  C   UNL     1       8.384   7.977 -12.803  1.00  0.00     0.034 A 
BRANCH  47  61
ATOM     61  C   UNL     1       4.542  11.318  -9.258  1.00  0.00     0.023 A 
ATOM     62  C   UNL     1       4.732  12.402  -8.384  1.00  0.00     0.031 A 
ATOM     63  C   UNL     1       3.375  11.304 -10.043  1.00  0.00     0.131 A 
ATOM     64  C   UNL     1       3.737  13.384  -8.258  1.00  0.00     0.055 A 
ATOM     65  C   UNL     1       2.430  12.331  -9.977  1.00  0.00     0.041 A 
ATOM     66  F   UNL     1       3.125  10.286 -10.881  1.00  0.00    -0.206 F 
ATOM     67  C   UNL     1       2.601  13.371  -9.069  1.00  0.00     0.022 A 
BRANCH  64  68
ATOM     68  S   UNL     1       3.880  14.591  -6.912  1.00  0.00     0.124 S 
ATOM     69  O   UNL     1       3.931  13.721  -5.739  1.00  0.00    -0.237 OA
ATOM     70  O   UNL     1       5.117  15.289  -7.244  1.00  0.00    -0.237 OA
ATOM     71  O   UNL     1       2.661  15.387  -7.035  1.00  0.00    -0.744 OA
ENDBRANCH  64  68
ENDBRANCH  47  61
BRANCH  48  72
ATOM     72  C   UNL     1      10.777   3.472  -9.516  1.00  0.00     0.023 A 
ATOM     73  C   UNL     1      12.134   3.586  -9.855  1.00  0.00     0.031 A 
ATOM     74  C   UNL     1      10.263   2.182  -9.287  1.00  0.00     0.131 A 
ATOM     75  C   UNL     1      12.919   2.432 -10.005  1.00  0.00     0.055 A 
ATOM     76  C   UNL     1      11.062   1.042  -9.378  1.00  0.00     0.041 A 
ATOM     77  F   UNL     1       8.972   2.014  -8.959  1.00  0.00    -0.206 F 
ATOM     78  C   UNL     1      12.396   1.162  -9.753  1.00  0.00     0.022 A 
BRANCH  75  79
ATOM     79  S   UNL     1      14.611   2.609 -10.635  1.00  0.00     0.124 S 
ATOM     80  O   UNL     1      14.383   3.274 -11.912  1.00  0.00    -0.237 OA
ATOM     81  O   UNL     1      15.239   3.415  -9.593  1.00  0.00    -0.237 OA
ATOM     82  O   UNL     1      15.086   1.230 -10.725  1.00  0.00    -0.744 OA
ENDBRANCH  75  79
ENDBRANCH  48  72
BRANCH  60  83
ATOM     83  C   UNL     1       8.764   8.199 -14.247  1.00  0.00     0.023 A 
ATOM     84  C   UNL     1       8.416   7.287 -15.258  1.00  0.00     0.031 A 
ATOM     85  C   UNL     1       9.477   9.354 -14.616  1.00  0.00     0.131 A 
ATOM     86  C   UNL     1       8.820   7.523 -16.581  1.00  0.00     0.055 A 
ATOM     87  C   UNL     1       9.822   9.615 -15.943  1.00  0.00     0.041 A 
ATOM     88  F   UNL     1       9.841  10.257 -13.691  1.00  0.00    -0.206 F 
ATOM     89  C   UNL     1       9.503   8.691 -16.933  1.00  0.00     0.022 A 
BRANCH  86  90
ATOM     90  S   UNL     1       8.513   6.244 -17.830  1.00  0.00     0.124 S 
ATOM     91  O   UNL     1       9.239   5.103 -17.281  1.00  0.00    -0.237 OA
ATOM     92  O   UNL     1       7.058   6.139 -17.820  1.00  0.00    -0.237 OA
ATOM     93  O   UNL     1       9.083   6.812 -19.051  1.00  0.00    -0.744 OA
ENDBRANCH  86  90
ENDBRANCH  60  83
ENDBRANCH  34  35
ENDBRANCH  26  29
ENDBRANCH  24  25
ENDBRANCH   1  24
TORSDOF 15
