REMARK SMILES CCCC[C@H]1C(=S)c2cc(C(=O)NCCCNC(=O)c3ccc(-c4c5nc(c(-c6cc(S(=O)(=O)[O-])ccc6F)c6ccc([nH]6)c(-c6cc(S(=O)(=O)[O-])ccc6F)c6nc(c(-c7cc(S(=O)(=O)[O-])ccc7F)c7ccc4[nH]7)C=C6)C=C5)cc3)ccc2N=C1C
REMARK SMILES IDX 15 1 14 2 13 3 11 4 12 5 10 7 5 8 6 9 87 10 7 11 8 12 86 13
REMARK SMILES IDX 88 14 9 15 85 16 84 17 83 18 4 19 3 20 2 21 1 22 16 23 17 24
REMARK SMILES IDX 18 25 19 27 20 28 21 29 82 30 22 31 81 32 23 33 24 34 25 35
REMARK SMILES IDX 75 36 26 37 80 38 74 39 76 40 27 41 79 42 73 43 72 44 28 46
REMARK SMILES IDX 60 47 40 48 59 49 41 50 44 51 58 52 77 53 42 54 43 55 57 57
REMARK SMILES IDX 78 58 45 59 29 60 30 61 38 62 31 63 37 64 39 65 36 66 32 67
REMARK SMILES IDX 33 68 34 69 35 70 61 71 62 72 70 73 63 74 69 75 71 76 68 77
REMARK SMILES IDX 64 78 65 79 66 80 67 81 46 82 47 83 55 84 48 85 54 86 56 87
REMARK SMILES IDX 53 88 49 89 50 90 51 91 52 92
REMARK H PARENT 13 6 17 26 76 45 44 56
REMARK Flexibility Score: inf
ROOT
ATOM      1  C   UNL     1      -5.300   5.721   4.215  1.00  0.00     0.042 C 
ENDROOT
BRANCH   1   2
ATOM      2  C   UNL     1      -5.803   5.704   2.774  1.00  0.00     0.118 C 
BRANCH   2   3
ATOM      3  N   UNL     1      -4.972   6.526   1.914  1.00  0.00    -0.352 N 
ATOM      4  C   UNL     1      -3.910   6.255   1.094  1.00  0.00     0.251 C 
ATOM      5  O   UNL     1      -3.453   7.201   0.450  1.00  0.00    -0.269 OA
ATOM      6  H   UNL     1      -5.224   7.477   1.922  1.00  0.00     0.163 HD
BRANCH   4   7
ATOM      7  C   UNL     1      -3.315   4.900   0.897  1.00  0.00     0.040 A 
ATOM      8  C   UNL     1      -1.040   1.795  -2.259  1.00  0.00     0.075 C 
ATOM      9  C   UNL     1      -1.192   3.244  -1.812  1.00  0.00     0.033 C 
ATOM     10  C   UNL     1      -1.162   0.803  -1.121  1.00  0.00     0.024 C 
ATOM     11  S   UNL     1      -0.418   4.467  -2.688  1.00  0.00    -0.083 S 
ATOM     12  C   UNL     1      -1.978   3.474  -0.578  1.00  0.00     0.016 A 
ATOM     13  N   UNL     1      -1.675   1.092   0.032  1.00  0.00    -0.257 NA
ATOM     14  C   UNL     1      -0.682  -0.610  -1.343  1.00  0.00     0.062 C 
ATOM     15  C   UNL     1      -2.567   4.713  -0.279  1.00  0.00     0.025 A 
ATOM     16  C   UNL     1      -2.149   2.387   0.285  1.00  0.00     0.071 A 
ATOM     17  C   UNL     1      -2.850   2.587   1.475  1.00  0.00     0.030 A 
ATOM     18  C   UNL     1      -3.410   3.832   1.788  1.00  0.00     0.016 A 
BRANCH   8  19
ATOM     19  C   UNL     1      -1.913   1.442  -3.484  1.00  0.00     0.015 C 
BRANCH  19  20
ATOM     20  C   UNL     1      -3.331   0.895  -3.263  1.00  0.00     0.001 C 
BRANCH  20  21
ATOM     21  C   UNL     1      -4.359   1.810  -2.603  1.00  0.00    -0.003 C 
ATOM     22  C   UNL     1      -4.575   3.134  -3.315  1.00  0.00     0.004 C 
ENDBRANCH  20  21
ENDBRANCH  19  20
ENDBRANCH   8  19
ENDBRANCH   4   7
ENDBRANCH   2   3
ENDBRANCH   1   2
BRANCH   1  23
ATOM     23  C   UNL     1      -5.528   7.053   4.922  1.00  0.00     0.118 C 
BRANCH  23  24
ATOM     24  N   UNL     1      -6.935   7.291   5.216  1.00  0.00    -0.352 N 
ATOM     25  C   UNL     1      -7.567   7.472   6.426  1.00  0.00     0.251 C 
ATOM     26  H   UNL     1      -7.524   7.329   4.429  1.00  0.00     0.163 HD
ATOM     27  O   UNL     1      -8.790   7.451   6.473  1.00  0.00    -0.269 OA
BRANCH  25  28
ATOM     28  C   UNL     1      -6.772   7.660   7.662  1.00  0.00     0.039 A 
ATOM     29  C   UNL     1      -5.636   8.472   7.668  1.00  0.00     0.014 A 
ATOM     30  C   UNL     1      -7.176   7.020   8.838  1.00  0.00     0.014 A 
ATOM     31  C   UNL     1      -4.814   8.504   8.789  1.00  0.00     0.010 A 
ATOM     32  C   UNL     1      -6.396   7.128   9.994  1.00  0.00     0.010 A 
ATOM     33  C   UNL     1      -5.181   7.831   9.966  1.00  0.00    -0.014 A 
BRANCH  33  34
ATOM     34  C   UNL     1      -4.284   7.888  11.151  1.00  0.00     0.031 A 
ATOM     35  C   UNL     1      -3.628   6.643  11.684  1.00  0.00     0.074 A 
ATOM     36  C   UNL     1      -4.024   9.083  11.718  1.00  0.00     0.049 A 
ATOM     37  N   UNL     1      -2.788   6.518  12.679  1.00  0.00    -0.248 NA
ATOM     38  C   UNL     1      -3.960   5.372  11.021  1.00  0.00     0.031 C 
ATOM     39  C   UNL     1      -4.610  10.353  11.288  1.00  0.00     0.029 A 
ATOM     40  N   UNL     1      -3.195   9.433  12.755  1.00  0.00    -0.354 N 
ATOM     41  C   UNL     1      -2.504   5.160  12.773  1.00  0.00     0.074 A 
ATOM     42  C   UNL     1      -3.290   4.496  11.758  1.00  0.00     0.031 C 
ATOM     43  C   UNL     1      -4.085  11.347  12.016  1.00  0.00     0.029 A 
ATOM     44  C   UNL     1      -3.180  10.784  13.015  1.00  0.00     0.049 A 
ATOM     45  H   UNL     1      -2.661   8.780  13.263  1.00  0.00     0.167 HD
ATOM     46  C   UNL     1      -1.652   4.532  13.619  1.00  0.00     0.034 A 
ATOM     47  C   UNL     1      -2.527  11.495  13.958  1.00  0.00     0.034 A 
ATOM     48  C   UNL     1      -0.859   5.214  14.610  1.00  0.00     0.049 A 
ATOM     49  C   UNL     1      -1.599  10.771  14.897  1.00  0.00     0.074 A 
ATOM     50  C   UNL     1       0.065   4.670  15.485  1.00  0.00     0.029 A 
ATOM     51  N   UNL     1      -0.888   6.579  14.860  1.00  0.00    -0.354 N 
ATOM     52  N   UNL     1      -1.296   9.494  14.931  1.00  0.00    -0.248 NA
ATOM     53  C   UNL     1      -0.919  11.574  15.922  1.00  0.00     0.031 C 
ATOM     54  C   UNL     1       0.542   5.691  16.306  1.00  0.00     0.029 A 
ATOM     55  C   UNL     1      -0.022   6.889  15.897  1.00  0.00     0.049 A 
ATOM     56  H   UNL     1      -1.442   7.231  14.372  1.00  0.00     0.167 HD
ATOM     57  C   UNL     1      -0.382   9.343  15.970  1.00  0.00     0.074 A 
ATOM     58  C   UNL     1      -0.157  10.665  16.518  1.00  0.00     0.031 C 
ATOM     59  C   UNL     1       0.207   8.211  16.431  1.00  0.00     0.034 A 
BRANCH  46  60
ATOM     60  C   UNL     1      -1.507   3.032  13.522  1.00  0.00     0.023 A 
ATOM     61  C   UNL     1      -1.858   2.219  14.617  1.00  0.00     0.031 A 
ATOM     62  C   UNL     1      -0.902   2.421  12.409  1.00  0.00     0.131 A 
ATOM     63  C   UNL     1      -1.572   0.848  14.588  1.00  0.00     0.055 A 
ATOM     64  C   UNL     1      -0.657   1.047  12.369  1.00  0.00     0.041 A 
ATOM     65  F   UNL     1      -0.546   3.151  11.339  1.00  0.00    -0.206 F 
ATOM     66  C   UNL     1      -0.980   0.257  13.468  1.00  0.00     0.022 A 
BRANCH  63  67
ATOM     67  S   UNL     1      -1.893  -0.209  16.027  1.00  0.00     0.124 S 
ATOM     68  O   UNL     1      -2.824  -1.191  15.473  1.00  0.00    -0.237 OA
ATOM     69  O   UNL     1      -0.560  -0.719  16.335  1.00  0.00    -0.237 OA
ATOM     70  O   UNL     1      -2.465   0.701  17.012  1.00  0.00    -0.744 OA
ENDBRANCH  63  67
ENDBRANCH  46  60
BRANCH  47  71
ATOM     71  C   UNL     1      -2.719  12.975  14.009  1.00  0.00     0.023 A 
ATOM     72  C   UNL     1      -3.997  13.527  14.219  1.00  0.00     0.031 A 
ATOM     73  C   UNL     1      -1.661  13.853  13.724  1.00  0.00     0.131 A 
ATOM     74  C   UNL     1      -4.200  14.903  14.055  1.00  0.00     0.055 A 
ATOM     75  C   UNL     1      -1.852  15.234  13.641  1.00  0.00     0.041 A 
ATOM     76  F   UNL     1      -0.426  13.376  13.504  1.00  0.00    -0.206 F 
ATOM     77  C   UNL     1      -3.132  15.763  13.784  1.00  0.00     0.022 A 
BRANCH  74  78
ATOM     78  S   UNL     1      -5.877  15.595  14.026  1.00  0.00     0.124 S 
ATOM     79  O   UNL     1      -5.847  16.513  15.160  1.00  0.00    -0.237 OA
ATOM     80  O   UNL     1      -5.919  16.223  12.707  1.00  0.00    -0.237 OA
ATOM     81  O   UNL     1      -6.735  14.426  14.181  1.00  0.00    -0.744 OA
ENDBRANCH  74  78
ENDBRANCH  47  71
BRANCH  59  82
ATOM     82  C   UNL     1       1.162   8.317  17.596  1.00  0.00     0.023 A 
ATOM     83  C   UNL     1       2.511   7.943  17.437  1.00  0.00     0.031 A 
ATOM     84  C   UNL     1       0.706   8.626  18.889  1.00  0.00     0.131 A 
ATOM     85  C   UNL     1       3.343   7.841  18.558  1.00  0.00     0.055 A 
ATOM     86  C   UNL     1       1.553   8.572  19.997  1.00  0.00     0.041 A 
ATOM     87  F   UNL     1      -0.573   8.978  19.095  1.00  0.00    -0.206 F 
ATOM     88  C   UNL     1       2.874   8.162  19.836  1.00  0.00     0.022 A 
BRANCH  85  89
ATOM     89  S   UNL     1       5.032   7.195  18.414  1.00  0.00     0.124 S 
ATOM     90  O   UNL     1       5.828   8.323  18.892  1.00  0.00    -0.237 OA
ATOM     91  O   UNL     1       4.996   6.037  19.304  1.00  0.00    -0.237 OA
ATOM     92  O   UNL     1       5.174   6.891  16.994  1.00  0.00    -0.744 OA
ENDBRANCH  85  89
ENDBRANCH  59  82
ENDBRANCH  33  34
ENDBRANCH  25  28
ENDBRANCH  23  24
ENDBRANCH   1  23
TORSDOF 16
