REMARK SMILES Cc1cccc(OC2(C(=O)NCCCNC(=O)c3ccc(-c4c5nc(c(-c6cc(S(=O)(=O)[O-])ccc6F)c6ccc([nH]6)c(-c6cc(S(=O)(=O)[O-])ccc6F)c6nc(c(-c7cc(S(=O)(=O)[O-])ccc7F)c7ccc4[nH]7)C=C6)C=C5)cc3)CCN(C(=O)c3cnc[nH]c3=O)CC2)c1
REMARK SMILES IDX 13 1 12 2 11 3 9 4 10 5 8 7 81 8 94 9 82 10 93 11 83 12
REMARK SMILES IDX 84 13 85 14 7 15 6 16 1 17 2 18 3 19 95 20 4 21 5 22 86 23
REMARK SMILES IDX 87 24 91 25 88 26 90 27 92 28 89 29 14 31 15 32 16 33 17 35
REMARK SMILES IDX 18 36 19 37 80 38 20 39 79 40 21 41 22 42 23 43 73 44 24 45
REMARK SMILES IDX 78 46 72 47 74 48 25 49 77 50 71 51 70 52 26 54 58 55 38 56
REMARK SMILES IDX 57 57 39 58 42 59 56 60 75 61 40 62 41 63 55 65 76 66 43 67
REMARK SMILES IDX 27 68 28 69 36 70 29 71 35 72 37 73 34 74 30 75 31 76 32 77
REMARK SMILES IDX 33 78 59 79 60 80 68 81 61 82 67 83 69 84 66 85 62 86 63 87
REMARK SMILES IDX 64 88 65 89 44 90 45 91 53 92 46 93 52 94 54 95 51 96 47 97
REMARK SMILES IDX 48 98 49 99 50 100
REMARK H PARENT 11 6 90 30 15 34 74 53 42 64
REMARK Flexibility Score: inf
ROOT
ATOM      1  C   UNL     1       1.153   6.410  -1.639  1.00  0.00     0.042 C 
ENDROOT
BRANCH   1   2
ATOM      2  C   UNL     1      -0.335   6.478  -1.288  1.00  0.00     0.118 C 
BRANCH   2   3
ATOM      3  N   UNL     1      -1.098   5.294  -1.701  1.00  0.00    -0.353 N 
ATOM      4  C   UNL     1      -1.359   4.074  -1.140  1.00  0.00     0.264 C 
ATOM      5  O   UNL     1      -2.171   3.360  -1.744  1.00  0.00    -0.270 OA
ATOM      6  H   UNL     1      -1.518   5.403  -2.585  1.00  0.00     0.163 HD
BRANCH   4   7
ATOM      7  C   UNL     1      -0.729   3.579   0.208  1.00  0.00     0.190 C 
ATOM      8  C   UNL     1       0.773   3.859   0.269  1.00  0.00     0.080 C 
ATOM      9  C   UNL     1      -1.429   4.328   1.381  1.00  0.00     0.080 C 
ATOM     10  C   UNL     1       1.392   3.571   1.618  1.00  0.00     0.124 C 
ATOM     11  C   UNL     1      -0.741   4.030   2.724  1.00  0.00     0.124 C 
ATOM     12  N   UNL     1       0.682   4.344   2.617  1.00  0.00    -0.338 N 
ATOM     13  C   UNL     1       1.265   5.500   3.102  1.00  0.00     0.261 C 
ATOM     14  O   UNL     1       2.173   6.101   2.535  1.00  0.00    -0.269 OA
BRANCH   7  15
ATOM     15  O   UNL     1      -1.145   2.213   0.441  1.00  0.00    -0.477 OA
BRANCH  15  16
ATOM     16  C   UNL     1      -0.558   1.032   0.128  1.00  0.00     0.121 A 
ATOM     17  C   UNL     1       2.749  -0.826  -0.189  1.00  0.00     0.044 C 
ATOM     18  C   UNL     1       1.272  -0.561  -0.130  1.00  0.00    -0.047 A 
ATOM     19  C   UNL     1       0.367  -1.623  -0.108  1.00  0.00     0.003 A 
ATOM     20  C   UNL     1       0.793   0.758  -0.049  1.00  0.00     0.049 A 
ATOM     21  C   UNL     1      -0.995  -1.366   0.006  1.00  0.00     0.004 A 
ATOM     22  C   UNL     1      -1.446  -0.050   0.136  1.00  0.00     0.046 A 
ENDBRANCH  15  16
ENDBRANCH   7  15
BRANCH  13  23
ATOM     23  C   UNL     1       0.810   5.934   4.429  1.00  0.00     0.123 A 
ATOM     24  C   UNL     1       0.217   7.124   4.603  1.00  0.00     0.132 A 
ATOM     25  C   UNL     1       1.068   5.117   5.626  1.00  0.00     0.263 A 
ATOM     26  N   UNL     1      -0.208   7.618   5.816  1.00  0.00    -0.246 NA
ATOM     27  N   UNL     1       0.642   5.668   6.801  1.00  0.00    -0.312 N 
ATOM     28  O   UNL     1       1.631   4.028   5.605  1.00  0.00    -0.269 OA
ATOM     29  C   UNL     1       0.025   6.882   6.849  1.00  0.00     0.199 A 
ATOM     30  H   UNL     1       0.784   5.172   7.640  1.00  0.00     0.171 HD
ENDBRANCH  13  23
ENDBRANCH   4   7
ENDBRANCH   2   3
ENDBRANCH   1   2
BRANCH   1  31
ATOM     31  C   UNL     1       1.610   7.366  -2.731  1.00  0.00     0.118 C 
BRANCH  31  32
ATOM     32  N   UNL     1       2.228   8.587  -2.204  1.00  0.00    -0.352 N 
ATOM     33  C   UNL     1       3.274   9.322  -2.742  1.00  0.00     0.251 C 
ATOM     34  H   UNL     1       1.853   8.928  -1.359  1.00  0.00     0.163 HD
ATOM     35  O   UNL     1       3.671  10.371  -2.267  1.00  0.00    -0.269 OA
BRANCH  33  36
ATOM     36  C   UNL     1       3.850   8.815  -4.004  1.00  0.00     0.039 A 
ATOM     37  C   UNL     1       3.361   9.383  -5.182  1.00  0.00     0.014 A 
ATOM     38  C   UNL     1       4.484   7.572  -3.995  1.00  0.00     0.014 A 
ATOM     39  C   UNL     1       3.268   8.588  -6.316  1.00  0.00     0.010 A 
ATOM     40  C   UNL     1       4.339   6.764  -5.113  1.00  0.00     0.010 A 
ATOM     41  C   UNL     1       3.640   7.242  -6.232  1.00  0.00    -0.014 A 
BRANCH  41  42
ATOM     42  C   UNL     1       3.109   6.251  -7.169  1.00  0.00     0.031 A 
ATOM     43  C   UNL     1       3.964   5.635  -8.200  1.00  0.00     0.074 A 
ATOM     44  C   UNL     1       1.796   5.918  -7.145  1.00  0.00     0.049 A 
ATOM     45  N   UNL     1       3.532   5.282  -9.365  1.00  0.00    -0.248 NA
ATOM     46  C   UNL     1       5.390   5.398  -8.010  1.00  0.00     0.031 C 
ATOM     47  C   UNL     1       1.145   4.851  -7.902  1.00  0.00     0.029 A 
ATOM     48  N   UNL     1       0.738   6.657  -6.606  1.00  0.00    -0.354 N 
ATOM     49  C   UNL     1       4.524   4.557  -9.973  1.00  0.00     0.074 A 
ATOM     50  C   UNL     1       5.683   4.708  -9.118  1.00  0.00     0.031 C 
ATOM     51  C   UNL     1      -0.157   5.146  -8.029  1.00  0.00     0.029 A 
ATOM     52  C   UNL     1      -0.373   6.459  -7.451  1.00  0.00     0.049 A 
ATOM     53  H   UNL     1       0.764   7.210  -5.791  1.00  0.00     0.167 HD
ATOM     54  C   UNL     1       4.251   3.802 -11.072  1.00  0.00     0.034 A 
ATOM     55  C   UNL     1      -1.000   7.505  -8.060  1.00  0.00     0.034 A 
ATOM     56  C   UNL     1       2.849   3.862 -11.472  1.00  0.00     0.049 A 
ATOM     57  C   UNL     1      -0.961   7.466  -9.576  1.00  0.00     0.074 A 
ATOM     58  C   UNL     1       1.762   3.015 -11.328  1.00  0.00     0.029 A 
ATOM     59  N   UNL     1       2.336   5.061 -11.930  1.00  0.00    -0.354 N 
ATOM     60  N   UNL     1      -0.419   6.515 -10.287  1.00  0.00    -0.248 NA
ATOM     61  C   UNL     1      -1.441   8.573 -10.405  1.00  0.00     0.031 C 
ATOM     62  C   UNL     1       0.589   3.725 -11.716  1.00  0.00     0.029 A 
ATOM     63  C   UNL     1       0.968   4.995 -12.109  1.00  0.00     0.049 A 
ATOM     64  H   UNL     1       2.879   5.863 -12.107  1.00  0.00     0.167 HD
ATOM     65  C   UNL     1      -0.372   6.907 -11.603  1.00  0.00     0.074 A 
ATOM     66  C   UNL     1      -1.039   8.195 -11.628  1.00  0.00     0.031 C 
ATOM     67  C   UNL     1       0.270   6.184 -12.570  1.00  0.00     0.034 A 
BRANCH  54  68
ATOM     68  C   UNL     1       5.235   2.814 -11.634  1.00  0.00     0.023 A 
ATOM     69  C   UNL     1       4.776   1.582 -12.137  1.00  0.00     0.031 A 
ATOM     70  C   UNL     1       6.626   3.023 -11.684  1.00  0.00     0.131 A 
ATOM     71  C   UNL     1       5.676   0.590 -12.559  1.00  0.00     0.055 A 
ATOM     72  C   UNL     1       7.527   2.014 -12.047  1.00  0.00     0.041 A 
ATOM     73  F   UNL     1       7.160   4.222 -11.402  1.00  0.00    -0.206 F 
ATOM     74  C   UNL     1       7.053   0.781 -12.474  1.00  0.00     0.022 A 
BRANCH  71  75
ATOM     75  S   UNL     1       5.015  -0.962 -13.226  1.00  0.00     0.124 S 
ATOM     76  O   UNL     1       4.158  -1.427 -12.141  1.00  0.00    -0.237 OA
ATOM     77  O   UNL     1       4.337  -0.511 -14.436  1.00  0.00    -0.237 OA
ATOM     78  O   UNL     1       6.213  -1.769 -13.454  1.00  0.00    -0.744 OA
ENDBRANCH  71  75
ENDBRANCH  54  68
BRANCH  55  79
ATOM     79  C   UNL     1      -1.013   8.744  -7.236  1.00  0.00     0.023 A 
ATOM     80  C   UNL     1      -1.727   8.726  -6.019  1.00  0.00     0.031 A 
ATOM     81  C   UNL     1      -0.098   9.783  -7.447  1.00  0.00     0.131 A 
ATOM     82  C   UNL     1      -1.433   9.659  -5.015  1.00  0.00     0.055 A 
ATOM     83  C   UNL     1       0.167  10.733  -6.455  1.00  0.00     0.041 A 
ATOM     84  F   UNL     1       0.637   9.830  -8.567  1.00  0.00    -0.206 F 
ATOM     85  C   UNL     1      -0.472  10.651  -5.220  1.00  0.00     0.022 A 
BRANCH  82  86
ATOM     86  S   UNL     1      -2.142   9.459  -3.357  1.00  0.00     0.124 S 
ATOM     87  O   UNL     1      -3.189  10.471  -3.342  1.00  0.00    -0.237 OA
ATOM     88  O   UNL     1      -2.595   8.069  -3.353  1.00  0.00    -0.237 OA
ATOM     89  O   UNL     1      -0.998   9.716  -2.482  1.00  0.00    -0.744 OA
ENDBRANCH  82  86
ENDBRANCH  55  79
BRANCH  67  90
ATOM     90  C   UNL     1       0.332   6.586 -14.026  1.00  0.00     0.023 A 
ATOM     91  C   UNL     1      -0.734   7.237 -14.669  1.00  0.00     0.031 A 
ATOM     92  C   UNL     1       1.443   6.267 -14.842  1.00  0.00     0.131 A 
ATOM     93  C   UNL     1      -0.635   7.627 -16.018  1.00  0.00     0.055 A 
ATOM     94  C   UNL     1       1.504   6.583 -16.203  1.00  0.00     0.041 A 
ATOM     95  F   UNL     1       2.535   5.666 -14.350  1.00  0.00    -0.206 F 
ATOM     96  C   UNL     1       0.469   7.285 -16.796  1.00  0.00     0.022 A 
BRANCH  93  97
ATOM     97  S   UNL     1      -1.947   8.661 -16.718  1.00  0.00     0.124 S 
ATOM     98  O   UNL     1      -3.147   7.875 -16.453  1.00  0.00    -0.237 OA
ATOM     99  O   UNL     1      -1.805   9.887 -15.937  1.00  0.00    -0.237 OA
ATOM    100  O   UNL     1      -1.579   8.779 -18.128  1.00  0.00    -0.744 OA
ENDBRANCH  93  97
ENDBRANCH  67  90
ENDBRANCH  41  42
ENDBRANCH  33  36
ENDBRANCH  31  32
ENDBRANCH   1  31
TORSDOF 16
