REMARK SMILES CCc1nc(COC)cc(N2CCCC[C@H]2C(=O)NCCCNC(=O)c2ccc(-c3c4nc(c(-c5cc(S(=O)(=O)[O-])ccc5F)c5ccc([nH]5)c(-c5cc(S(=O)(=O)[O-])ccc5F)c5nc(c(-c6cc(S(=O)(=O)[O-])ccc6F)c6ccc3[nH]6)C=C5)C=C4)cc2)n1
REMARK SMILES IDX 21 1 20 2 19 3 17 4 18 5 16 7 11 8 12 9 13 10 15 11 14 12
REMARK SMILES IDX 10 13 3 14 4 15 89 16 5 17 9 18 2 19 1 20 6 21 7 22 8 23
REMARK SMILES IDX 22 24 23 25 24 26 25 28 26 29 27 30 88 31 28 32 87 33 29 34
REMARK SMILES IDX 30 35 31 36 81 37 32 38 86 39 80 40 82 41 33 42 85 43 79 44
REMARK SMILES IDX 78 45 34 47 66 48 46 49 65 50 47 51 50 52 64 53 83 54 48 55
REMARK SMILES IDX 49 56 63 58 84 59 51 60 35 61 36 62 44 63 37 64 43 65 45 66
REMARK SMILES IDX 42 67 38 68 39 69 40 70 41 71 67 72 68 73 76 74 69 75 75 76
REMARK SMILES IDX 77 77 74 78 70 79 71 80 72 81 73 82 52 83 53 84 61 85 54 86
REMARK SMILES IDX 60 87 62 88 59 89 55 90 56 91 57 92 58 93
REMARK H PARENT 19 6 23 27 82 46 50 57
REMARK Flexibility Score: inf
ROOT
ATOM      1  C   UNL     1       1.424   6.335   6.140  1.00  0.00     0.042 C 
ENDROOT
BRANCH   1   2
ATOM      2  C   UNL     1       2.242   5.114   5.814  1.00  0.00     0.117 C 
BRANCH   2   3
ATOM      3  N   UNL     1       2.985   4.559   6.911  1.00  0.00    -0.354 N 
ATOM      4  C   UNL     1       3.127   3.229   7.202  1.00  0.00     0.242 C 
ATOM      5  O   UNL     1       3.899   2.939   8.119  1.00  0.00    -0.273 OA
ATOM      6  H   UNL     1       3.436   5.197   7.511  1.00  0.00     0.163 HD
BRANCH   4   7
ATOM      7  C   UNL     1       2.313   2.170   6.392  1.00  0.00     0.173 C 
ATOM      8  N   UNL     1       2.920   1.926   5.054  1.00  0.00    -0.344 N 
ATOM      9  C   UNL     1       4.140   1.130   5.010  1.00  0.00     0.119 C 
ATOM     10  C   UNL     1       3.998  -0.178   5.782  1.00  0.00     0.022 C 
ATOM     11  C   UNL     1       2.205   0.862   7.195  1.00  0.00     0.035 C 
ATOM     12  C   UNL     1       3.500   0.052   7.203  1.00  0.00     0.004 C 
BRANCH   8  13
ATOM     13  C   UNL     1       2.092   1.902   3.932  1.00  0.00     0.133 A 
ATOM     14  C   UNL     1       0.828   0.840   2.335  1.00  0.00     0.130 A 
ATOM     15  N   UNL     1       0.332   1.982   1.823  1.00  0.00    -0.235 NA
ATOM     16  N   UNL     1       1.659   0.749   3.402  1.00  0.00    -0.216 NA
ATOM     17  C   UNL     1       0.829   3.120   2.315  1.00  0.00     0.072 A 
ATOM     18  C   UNL     1       1.768   3.100   3.322  1.00  0.00     0.073 A 
BRANCH  14  19
ATOM     19  C   UNL     1       0.506  -0.406   1.556  1.00  0.00     0.074 C 
ATOM     20  C   UNL     1       1.007  -0.282   0.119  1.00  0.00     0.012 C 
ENDBRANCH  14  19
BRANCH  17  21
ATOM     21  C   UNL     1       0.376   4.436   1.722  1.00  0.00     0.216 C 
BRANCH  21  22
ATOM     22  O   UNL     1       1.029   4.763   0.494  1.00  0.00    -0.378 OA
ATOM     23  C   UNL     1       2.385   5.151   0.661  1.00  0.00     0.195 C 
ENDBRANCH  21  22
ENDBRANCH  17  21
ENDBRANCH   8  13
ENDBRANCH   4   7
ENDBRANCH   2   3
ENDBRANCH   1   2
BRANCH   1  24
ATOM     24  C   UNL     1       2.263   7.556   6.435  1.00  0.00     0.118 C 
BRANCH  24  25
ATOM     25  N   UNL     1       3.039   8.010   5.286  1.00  0.00    -0.352 N 
ATOM     26  C   UNL     1       2.989   9.204   4.605  1.00  0.00     0.251 C 
ATOM     27  H   UNL     1       3.699   7.363   4.947  1.00  0.00     0.163 HD
ATOM     28  O   UNL     1       3.610   9.319   3.550  1.00  0.00    -0.269 OA
BRANCH  26  29
ATOM     29  C   UNL     1       2.165  10.319   5.123  1.00  0.00     0.039 A 
ATOM     30  C   UNL     1       1.466  11.133   4.230  1.00  0.00     0.014 A 
ATOM     31  C   UNL     1       2.061  10.547   6.495  1.00  0.00     0.014 A 
ATOM     32  C   UNL     1       0.612  12.123   4.724  1.00  0.00     0.010 A 
ATOM     33  C   UNL     1       1.100  11.419   6.983  1.00  0.00     0.010 A 
ATOM     34  C   UNL     1       0.392  12.248   6.106  1.00  0.00    -0.014 A 
BRANCH  34  35
ATOM     35  C   UNL     1      -0.512  13.285   6.667  1.00  0.00     0.031 A 
ATOM     36  C   UNL     1       0.040  14.304   7.633  1.00  0.00     0.074 A 
ATOM     37  C   UNL     1      -1.824  13.277   6.360  1.00  0.00     0.049 A 
ATOM     38  N   UNL     1      -0.585  15.241   8.298  1.00  0.00    -0.248 NA
ATOM     39  C   UNL     1       1.481  14.228   7.926  1.00  0.00     0.031 C 
ATOM     40  C   UNL     1      -2.484  12.307   5.482  1.00  0.00     0.029 A 
ATOM     41  N   UNL     1      -2.840  14.111   6.752  1.00  0.00    -0.354 N 
ATOM     42  C   UNL     1       0.381  15.846   9.097  1.00  0.00     0.074 A 
ATOM     43  C   UNL     1       1.608  15.109   8.903  1.00  0.00     0.031 C 
ATOM     44  C   UNL     1      -3.783  12.629   5.368  1.00  0.00     0.029 A 
ATOM     45  C   UNL     1      -4.061  13.794   6.202  1.00  0.00     0.049 A 
ATOM     46  H   UNL     1      -2.708  14.866   7.370  1.00  0.00     0.167 HD
ATOM     47  C   UNL     1       0.266  16.939   9.889  1.00  0.00     0.034 A 
ATOM     48  C   UNL     1      -5.267  14.377   6.355  1.00  0.00     0.034 A 
ATOM     49  C   UNL     1      -0.961  17.678  10.046  1.00  0.00     0.049 A 
ATOM     50  C   UNL     1      -5.373  15.591   7.245  1.00  0.00     0.074 A 
ATOM     51  C   UNL     1      -1.186  18.830  10.779  1.00  0.00     0.029 A 
ATOM     52  N   UNL     1      -2.173  17.337   9.459  1.00  0.00    -0.354 N 
ATOM     53  N   UNL     1      -4.439  16.182   7.954  1.00  0.00    -0.248 NA
ATOM     54  C   UNL     1      -6.692  16.227   7.338  1.00  0.00     0.031 C 
ATOM     55  C   UNL     1      -2.547  19.143  10.693  1.00  0.00     0.029 A 
ATOM     56  C   UNL     1      -3.154  18.241   9.833  1.00  0.00     0.049 A 
ATOM     57  H   UNL     1      -2.314  16.566   8.863  1.00  0.00     0.167 HD
ATOM     58  C   UNL     1      -5.051  17.286   8.544  1.00  0.00     0.074 A 
ATOM     59  C   UNL     1      -6.428  17.282   8.094  1.00  0.00     0.031 C 
ATOM     60  C   UNL     1      -4.524  18.221   9.375  1.00  0.00     0.034 A 
BRANCH  47  61
ATOM     61  C   UNL     1       1.496  17.380  10.650  1.00  0.00     0.023 A 
ATOM     62  C   UNL     1       2.679  17.762   9.990  1.00  0.00     0.031 A 
ATOM     63  C   UNL     1       1.504  17.379  12.056  1.00  0.00     0.131 A 
ATOM     64  C   UNL     1       3.838  18.041  10.729  1.00  0.00     0.055 A 
ATOM     65  C   UNL     1       2.634  17.750  12.787  1.00  0.00     0.041 A 
ATOM     66  F   UNL     1       0.416  17.000  12.745  1.00  0.00    -0.206 F 
ATOM     67  C   UNL     1       3.816  18.066  12.124  1.00  0.00     0.022 A 
BRANCH  64  68
ATOM     68  S   UNL     1       5.411  18.206   9.841  1.00  0.00     0.124 S 
ATOM     69  O   UNL     1       5.510  16.909   9.174  1.00  0.00    -0.237 OA
ATOM     70  O   UNL     1       5.166  19.352   8.974  1.00  0.00    -0.237 OA
ATOM     71  O   UNL     1       6.386  18.425  10.907  1.00  0.00    -0.744 OA
ENDBRANCH  64  68
ENDBRANCH  47  61
BRANCH  48  72
ATOM     72  C   UNL     1      -6.466  13.836   5.652  1.00  0.00     0.023 A 
ATOM     73  C   UNL     1      -7.149  14.601   4.693  1.00  0.00     0.031 A 
ATOM     74  C   UNL     1      -6.977  12.563   5.962  1.00  0.00     0.131 A 
ATOM     75  C   UNL     1      -8.333  14.111   4.119  1.00  0.00     0.055 A 
ATOM     76  C   UNL     1      -8.121  12.055   5.345  1.00  0.00     0.041 A 
ATOM     77  F   UNL     1      -6.361  11.786   6.867  1.00  0.00    -0.206 F 
ATOM     78  C   UNL     1      -8.816  12.838   4.428  1.00  0.00     0.022 A 
BRANCH  75  79
ATOM     79  S   UNL     1      -9.290  15.206   3.034  1.00  0.00     0.124 S 
ATOM     80  O   UNL     1      -9.542  16.344   3.910  1.00  0.00    -0.237 OA
ATOM     81  O   UNL     1      -8.357  15.434   1.936  1.00  0.00    -0.237 OA
ATOM     82  O   UNL     1     -10.465  14.406   2.695  1.00  0.00    -0.744 OA
ENDBRANCH  75  79
ENDBRANCH  48  72
BRANCH  60  83
ATOM     83  C   UNL     1      -5.429  19.354   9.797  1.00  0.00     0.023 A 
ATOM     84  C   UNL     1      -6.572  19.141  10.585  1.00  0.00     0.031 A 
ATOM     85  C   UNL     1      -5.147  20.669   9.384  1.00  0.00     0.131 A 
ATOM     86  C   UNL     1      -7.429  20.213  10.877  1.00  0.00     0.055 A 
ATOM     87  C   UNL     1      -5.963  21.743   9.739  1.00  0.00     0.041 A 
ATOM     88  F   UNL     1      -4.069  20.933   8.627  1.00  0.00    -0.206 F 
ATOM     89  C   UNL     1      -7.121  21.516  10.476  1.00  0.00     0.022 A 
BRANCH  86  90
ATOM     90  S   UNL     1      -9.014  19.863  11.686  1.00  0.00     0.124 S 
ATOM     91  O   UNL     1      -9.613  18.895  10.773  1.00  0.00    -0.237 OA
ATOM     92  O   UNL     1      -8.593  19.341  12.982  1.00  0.00    -0.237 OA
ATOM     93  O   UNL     1      -9.673  21.168  11.727  1.00  0.00    -0.744 OA
ENDBRANCH  86  90
ENDBRANCH  60  83
ENDBRANCH  34  35
ENDBRANCH  26  29
ENDBRANCH  24  25
ENDBRANCH   1  24
TORSDOF 17
