REMARK SMILES C[C@@H](Oc1cncc(C(=O)NCCCNC(=O)c2ccc(-c3c4nc(c(-c5cc(S(=O)(=O)[O-])ccc5F)c5ccc([nH]5)c(-c5cc(S(=O)(=O)[O-])ccc5F)c5nc(c(-c6cc(S(=O)(=O)[O-])ccc6F)c6ccc3[nH]6)C=C5)C=C4)cc2)n1)C(F)(F)F
REMARK SMILES IDX 13 1 12 2 11 3 9 4 10 5 8 7 4 8 5 9 81 10 6 11 7 12 3 13
REMARK SMILES IDX 2 14 1 15 82 16 83 17 84 18 85 19 14 20 15 21 16 22 17 24
REMARK SMILES IDX 18 25 19 26 80 27 20 28 79 29 21 30 22 31 23 32 73 33 24 34
REMARK SMILES IDX 78 35 72 36 74 37 25 38 77 39 71 40 70 41 26 43 58 44 38 45
REMARK SMILES IDX 57 46 39 47 42 48 56 49 75 50 40 51 41 52 55 54 76 55 43 56
REMARK SMILES IDX 27 57 28 58 36 59 29 60 35 61 37 62 34 63 30 64 31 65 32 66
REMARK SMILES IDX 33 67 59 68 60 69 68 70 61 71 67 72 69 73 66 74 62 75 63 76
REMARK SMILES IDX 64 77 65 78 44 79 45 80 53 81 46 82 52 83 54 84 51 85 47 86
REMARK SMILES IDX 48 87 49 88 50 89
REMARK H PARENT 11 6 15 23 74 42 42 53
REMARK Flexibility Score: inf
ROOT
ATOM      1  C   UNL     1       1.985   5.780   3.620  1.00  0.00     0.042 C 
ENDROOT
BRANCH   1   2
ATOM      2  C   UNL     1       2.480   5.964   2.188  1.00  0.00     0.118 C 
BRANCH   2   3
ATOM      3  N   UNL     1       3.928   5.864   2.113  1.00  0.00    -0.351 N 
ATOM      4  C   UNL     1       4.756   4.873   1.647  1.00  0.00     0.271 C 
ATOM      5  O   UNL     1       5.972   5.064   1.744  1.00  0.00    -0.267 OA
ATOM      6  H   UNL     1       4.403   6.654   2.460  1.00  0.00     0.163 HD
BRANCH   4   7
ATOM      7  C   UNL     1       4.275   3.623   0.991  1.00  0.00     0.150 A 
ATOM      8  C   UNL     1       2.631   2.226   0.227  1.00  0.00     0.233 A 
ATOM      9  C   UNL     1       3.577   1.497  -0.483  1.00  0.00     0.179 A 
ATOM     10  N   UNL     1       2.953   3.301   0.976  1.00  0.00    -0.205 NA
ATOM     11  N   UNL     1       4.900   1.765  -0.425  1.00  0.00    -0.257 NA
ATOM     12  C   UNL     1       5.224   2.851   0.322  1.00  0.00     0.145 A 
BRANCH   8  13
ATOM     13  O   UNL     1       1.295   2.008   0.015  1.00  0.00    -0.464 OA
BRANCH  13  14
ATOM     14  C   UNL     1       0.758   0.964   0.854  1.00  0.00     0.277 C 
ATOM     15  C   UNL     1       0.908  -0.382   0.139  1.00  0.00     0.063 C 
BRANCH  14  16
ATOM     16  C   UNL     1      -0.730   1.241   1.099  1.00  0.00     0.425 C 
ATOM     17  F   UNL     1      -1.293   0.242   1.821  1.00  0.00    -0.167 F 
ATOM     18  F   UNL     1      -0.920   2.388   1.784  1.00  0.00    -0.167 F 
ATOM     19  F   UNL     1      -1.417   1.329  -0.064  1.00  0.00    -0.167 F 
ENDBRANCH  14  16
ENDBRANCH  13  14
ENDBRANCH   8  13
ENDBRANCH   4   7
ENDBRANCH   2   3
ENDBRANCH   1   2
BRANCH   1  20
ATOM     20  C   UNL     1       2.394   6.912   4.563  1.00  0.00     0.118 C 
BRANCH  20  21
ATOM     21  N   UNL     1       1.823   8.195   4.173  1.00  0.00    -0.352 N 
ATOM     22  C   UNL     1       1.004   9.050   4.863  1.00  0.00     0.251 C 
ATOM     23  H   UNL     1       2.064   8.496   3.267  1.00  0.00     0.163 HD
ATOM     24  O   UNL     1       0.464   9.976   4.253  1.00  0.00    -0.269 OA
BRANCH  22  25
ATOM     25  C   UNL     1       0.755   8.874   6.310  1.00  0.00     0.039 A 
ATOM     26  C   UNL     1      -0.528   9.124   6.806  1.00  0.00     0.014 A 
ATOM     27  C   UNL     1       1.783   8.521   7.189  1.00  0.00     0.014 A 
ATOM     28  C   UNL     1      -0.791   8.971   8.170  1.00  0.00     0.010 A 
ATOM     29  C   UNL     1       1.502   8.298   8.537  1.00  0.00     0.010 A 
ATOM     30  C   UNL     1       0.215   8.530   9.044  1.00  0.00    -0.014 A 
BRANCH  30  31
ATOM     31  C   UNL     1      -0.063   8.320  10.490  1.00  0.00     0.031 A 
ATOM     32  C   UNL     1       0.634   9.162  11.525  1.00  0.00     0.074 A 
ATOM     33  C   UNL     1      -0.902   7.337  10.871  1.00  0.00     0.049 A 
ATOM     34  N   UNL     1       0.572   9.090  12.831  1.00  0.00    -0.248 NA
ATOM     35  C   UNL     1       1.547  10.200  11.024  1.00  0.00     0.031 C 
ATOM     36  C   UNL     1      -1.603   6.427   9.962  1.00  0.00     0.029 A 
ATOM     37  N   UNL     1      -1.303   6.931  12.119  1.00  0.00    -0.354 N 
ATOM     38  C   UNL     1       1.448  10.061  13.307  1.00  0.00     0.074 A 
ATOM     39  C   UNL     1       2.071  10.664  12.148  1.00  0.00     0.031 C 
ATOM     40  C   UNL     1      -2.363   5.586  10.681  1.00  0.00     0.029 A 
ATOM     41  C   UNL     1      -2.173   5.865  12.101  1.00  0.00     0.049 A 
ATOM     42  H   UNL     1      -0.997   7.362  12.949  1.00  0.00     0.167 HD
ATOM     43  C   UNL     1       1.692  10.429  14.590  1.00  0.00     0.034 A 
ATOM     44  C   UNL     1      -2.744   5.182  13.112  1.00  0.00     0.034 A 
ATOM     45  C   UNL     1       1.048   9.827  15.733  1.00  0.00     0.049 A 
ATOM     46  C   UNL     1      -2.456   5.606  14.530  1.00  0.00     0.074 A 
ATOM     47  C   UNL     1       1.172  10.162  17.070  1.00  0.00     0.029 A 
ATOM     48  N   UNL     1       0.162   8.757  15.676  1.00  0.00    -0.354 N 
ATOM     49  N   UNL     1      -1.669   6.564  14.962  1.00  0.00    -0.248 NA
ATOM     50  C   UNL     1      -3.146   4.867  15.594  1.00  0.00     0.031 C 
ATOM     51  C   UNL     1       0.418   9.256  17.824  1.00  0.00     0.029 A 
ATOM     52  C   UNL     1      -0.242   8.402  16.954  1.00  0.00     0.049 A 
ATOM     53  H   UNL     1      -0.136   8.316  14.848  1.00  0.00     0.167 HD
ATOM     54  C   UNL     1      -1.792   6.559  16.349  1.00  0.00     0.074 A 
ATOM     55  C   UNL     1      -2.742   5.516  16.676  1.00  0.00     0.031 C 
ATOM     56  C   UNL     1      -1.179   7.349  17.268  1.00  0.00     0.034 A 
BRANCH  43  57
ATOM     57  C   UNL     1       2.719  11.515  14.819  1.00  0.00     0.023 A 
ATOM     58  C   UNL     1       2.544  12.818  14.320  1.00  0.00     0.031 A 
ATOM     59  C   UNL     1       3.905  11.236  15.521  1.00  0.00     0.131 A 
ATOM     60  C   UNL     1       3.569  13.767  14.458  1.00  0.00     0.055 A 
ATOM     61  C   UNL     1       4.885  12.210  15.729  1.00  0.00     0.041 A 
ATOM     62  F   UNL     1       4.141  10.007  16.006  1.00  0.00    -0.206 F 
ATOM     63  C   UNL     1       4.728  13.479  15.181  1.00  0.00     0.022 A 
BRANCH  60  64
ATOM     64  S   UNL     1       3.429  15.330  13.548  1.00  0.00     0.124 S 
ATOM     65  O   UNL     1       3.322  14.860  12.169  1.00  0.00    -0.237 OA
ATOM     66  O   UNL     1       2.224  15.920  14.118  1.00  0.00    -0.237 OA
ATOM     67  O   UNL     1       4.675  16.024  13.867  1.00  0.00    -0.744 OA
ENDBRANCH  60  64
ENDBRANCH  43  57
BRANCH  44  68
ATOM     68  C   UNL     1      -3.639   4.024  12.829  1.00  0.00     0.023 A 
ATOM     69  C   UNL     1      -5.003   4.063  13.157  1.00  0.00     0.031 A 
ATOM     70  C   UNL     1      -3.133   2.844  12.255  1.00  0.00     0.131 A 
ATOM     71  C   UNL     1      -5.806   2.930  12.952  1.00  0.00     0.055 A 
ATOM     72  C   UNL     1      -3.946   1.737  12.004  1.00  0.00     0.041 A 
ATOM     73  F   UNL     1      -1.837   2.755  11.915  1.00  0.00    -0.206 F 
ATOM     74  C   UNL     1      -5.289   1.772  12.366  1.00  0.00     0.022 A 
BRANCH  71  75
ATOM     75  S   UNL     1      -7.522   2.963  13.538  1.00  0.00     0.124 S 
ATOM     76  O   UNL     1      -7.346   3.236  14.960  1.00  0.00    -0.237 OA
ATOM     77  O   UNL     1      -8.093   4.045  12.742  1.00  0.00    -0.237 OA
ATOM     78  O   UNL     1      -8.017   1.627  13.216  1.00  0.00    -0.744 OA
ENDBRANCH  71  75
ENDBRANCH  44  68
BRANCH  56  79
ATOM     79  C   UNL     1      -1.558   7.134  18.714  1.00  0.00     0.023 A 
ATOM     80  C   UNL     1      -1.240   5.945  19.394  1.00  0.00     0.031 A 
ATOM     81  C   UNL     1      -2.266   8.127  19.413  1.00  0.00     0.131 A 
ATOM     82  C   UNL     1      -1.681   5.755  20.713  1.00  0.00     0.055 A 
ATOM     83  C   UNL     1      -2.648   7.958  20.745  1.00  0.00     0.041 A 
ATOM     84  F   UNL     1      -2.599   9.281  18.813  1.00  0.00    -0.206 F 
ATOM     85  C   UNL     1      -2.369   6.761  21.398  1.00  0.00     0.022 A 
BRANCH  82  86
ATOM     86  S   UNL     1      -1.433   4.135  21.490  1.00  0.00     0.124 S 
ATOM     87  O   UNL     1      -2.124   3.245  20.563  1.00  0.00    -0.237 OA
ATOM     88  O   UNL     1       0.022   4.022  21.517  1.00  0.00    -0.237 OA
ATOM     89  O   UNL     1      -2.067   4.281  22.799  1.00  0.00    -0.744 OA
ENDBRANCH  82  86
ENDBRANCH  56  79
ENDBRANCH  30  31
ENDBRANCH  22  25
ENDBRANCH  20  21
ENDBRANCH   1  20
TORSDOF 16
