REMARK SMILES CCSc1ccc(-c2cc(Cl)cc3c2O[C@H](C(F)(F)F)C(C(=O)NCCCNC(=O)c2ccc(-c4c5nc(c(-c6cc(S(=O)(=O)[O-])ccc6F)c6ccc([nH]6)c(-c6cc(S(=O)(=O)[O-])ccc6F)c6nc(c(-c7cc(S(=O)(=O)[O-])ccc7F)c7ccc4[nH]7)C=C6)C=C5)cc2)=C3)cc1
REMARK SMILES IDX 26 1 25 2 24 3 22 4 23 5 21 7 8 8 9 9 14 10 10 11 13 12
REMARK SMILES IDX 15 13 11 14 12 15 94 16 16 17 7 18 4 19 5 20 96 21 6 22
REMARK SMILES IDX 95 23 3 24 2 25 1 26 17 27 18 28 19 29 20 30 27 31 28 32
REMARK SMILES IDX 29 33 30 35 31 36 32 37 93 38 33 39 92 40 34 41 35 42 36 43
REMARK SMILES IDX 86 44 37 45 91 46 85 47 87 48 38 49 90 50 84 51 83 52 39 54
REMARK SMILES IDX 71 55 51 56 70 57 52 58 55 59 69 60 88 61 53 62 54 63 68 65
REMARK SMILES IDX 89 66 56 67 40 68 41 69 49 70 42 71 48 72 50 73 47 74 43 75
REMARK SMILES IDX 44 76 45 77 46 78 72 79 73 80 81 81 74 82 80 83 82 84 79 85
REMARK SMILES IDX 75 86 76 87 77 88 78 89 57 90 58 91 66 92 59 93 65 94 67 95
REMARK SMILES IDX 64 96 60 97 61 98 62 99 63 100
REMARK H PARENT 24 6 28 34 87 53 55 64
REMARK Flexibility Score: inf
ROOT
ATOM      1  C   UNL     1      15.042   1.103   1.407  1.00  0.00     0.042 C 
ENDROOT
BRANCH   1   2
ATOM      2  C   UNL     1      14.250   2.098   0.554  1.00  0.00     0.118 C 
BRANCH   2   3
ATOM      3  N   UNL     1      13.547   1.399  -0.503  1.00  0.00    -0.352 N 
ATOM      4  C   UNL     1      12.206   1.337  -0.676  1.00  0.00     0.251 C 
ATOM      5  O   UNL     1      11.684   0.281  -1.033  1.00  0.00    -0.270 OA
ATOM      6  H   UNL     1      14.101   0.922  -1.163  1.00  0.00     0.163 HD
BRANCH   4   7
ATOM      7  C   UNL     1      11.447   2.615  -0.566  1.00  0.00     0.067 C 
ATOM      8  C   UNL     1       7.800   1.276  -1.732  1.00  0.00     0.026 A 
ATOM      9  C   UNL     1       7.998   0.477  -2.890  1.00  0.00     0.033 A 
ATOM     10  C   UNL     1       8.882   2.076  -1.334  1.00  0.00     0.135 A 
ATOM     11  C   UNL     1       9.129   0.590  -3.695  1.00  0.00     0.042 A 
ATOM     12  C   UNL     1       9.968   2.263  -2.226  1.00  0.00     0.019 A 
ATOM     13  O   UNL     1       8.971   2.660  -0.078  1.00  0.00    -0.475 OA
ATOM     14  Cl  UNL     1       9.304  -0.430  -5.067  1.00  0.00    -0.084 Cl
ATOM     15  C   UNL     1      10.089   1.538  -3.408  1.00  0.00     0.032 A 
ATOM     16  C   UNL     1      11.093   3.107  -1.770  1.00  0.00     0.025 C 
ATOM     17  C   UNL     1      10.352   2.627   0.492  1.00  0.00     0.314 C 
BRANCH   8  18
ATOM     18  C   UNL     1       6.396   1.330  -1.246  1.00  0.00    -0.015 A 
ATOM     19  C   UNL     1       3.582   1.347  -1.599  1.00  0.00     0.007 A 
ATOM     20  C   UNL     1       4.254   0.150  -1.353  1.00  0.00     0.015 A 
ATOM     21  C   UNL     1       4.293   2.546  -1.539  1.00  0.00     0.015 A 
ATOM     22  C   UNL     1       5.639   0.145  -1.138  1.00  0.00     0.010 A 
ATOM     23  C   UNL     1       5.686   2.540  -1.351  1.00  0.00     0.010 A 
BRANCH  19  24
ATOM     24  S   UNL     1       1.903   1.323  -2.207  1.00  0.00    -0.126 SA
BRANCH  24  25
ATOM     25  C   UNL     1       0.962   1.302  -0.651  1.00  0.00     0.071 C 
ATOM     26  C   UNL     1       1.078  -0.020   0.084  1.00  0.00     0.016 C 
ENDBRANCH  24  25
ENDBRANCH  19  24
ENDBRANCH   8  18
BRANCH  17  27
ATOM     27  C   UNL     1      10.611   3.821   1.440  1.00  0.00     0.429 C 
ATOM     28  F   UNL     1       9.645   4.764   1.368  1.00  0.00    -0.167 F 
ATOM     29  F   UNL     1      10.693   3.416   2.730  1.00  0.00    -0.167 F 
ATOM     30  F   UNL     1      11.783   4.456   1.169  1.00  0.00    -0.167 F 
ENDBRANCH  17  27
ENDBRANCH   4   7
ENDBRANCH   2   3
ENDBRANCH   1   2
BRANCH   1  31
ATOM     31  C   UNL     1      16.098   0.301   0.645  1.00  0.00     0.118 C 
BRANCH  31  32
ATOM     32  N   UNL     1      17.086   1.141  -0.011  1.00  0.00    -0.352 N 
ATOM     33  C   UNL     1      18.453   1.060   0.015  1.00  0.00     0.251 C 
ATOM     34  H   UNL     1      16.719   1.876  -0.554  1.00  0.00     0.163 HD
ATOM     35  O   UNL     1      19.117   1.981  -0.476  1.00  0.00    -0.269 OA
BRANCH  33  36
ATOM     36  C   UNL     1      19.132  -0.090   0.649  1.00  0.00     0.039 A 
ATOM     37  C   UNL     1      20.256   0.151   1.441  1.00  0.00     0.014 A 
ATOM     38  C   UNL     1      18.675  -1.399   0.468  1.00  0.00     0.014 A 
ATOM     39  C   UNL     1      20.879  -0.910   2.101  1.00  0.00     0.010 A 
ATOM     40  C   UNL     1      19.246  -2.444   1.195  1.00  0.00     0.010 A 
ATOM     41  C   UNL     1      20.355  -2.212   2.021  1.00  0.00    -0.014 A 
BRANCH  41  42
ATOM     42  C   UNL     1      20.958  -3.318   2.815  1.00  0.00     0.031 A 
ATOM     43  C   UNL     1      21.576  -4.509   2.130  1.00  0.00     0.074 A 
ATOM     44  C   UNL     1      20.935  -3.249   4.162  1.00  0.00     0.049 A 
ATOM     45  N   UNL     1      22.156  -5.556   2.660  1.00  0.00    -0.248 NA
ATOM     46  C   UNL     1      21.513  -4.541   0.660  1.00  0.00     0.031 C 
ATOM     47  C   UNL     1      20.317  -2.173   4.941  1.00  0.00     0.029 A 
ATOM     48  N   UNL     1      21.449  -4.090   5.118  1.00  0.00    -0.354 N 
ATOM     49  C   UNL     1      22.536  -6.364   1.593  1.00  0.00     0.074 A 
ATOM     50  C   UNL     1      22.051  -5.722   0.390  1.00  0.00     0.031 C 
ATOM     51  C   UNL     1      20.527  -2.395   6.248  1.00  0.00     0.029 A 
ATOM     52  C   UNL     1      21.250  -3.652   6.409  1.00  0.00     0.049 A 
ATOM     53  H   UNL     1      21.916  -4.929   4.901  1.00  0.00     0.167 HD
ATOM     54  C   UNL     1      23.250  -7.517   1.610  1.00  0.00     0.034 A 
ATOM     55  C   UNL     1      21.606  -4.200   7.588  1.00  0.00     0.034 A 
ATOM     56  C   UNL     1      23.731  -8.147   2.817  1.00  0.00     0.049 A 
ATOM     57  C   UNL     1      22.379  -5.497   7.575  1.00  0.00     0.074 A 
ATOM     58  C   UNL     1      24.485  -9.301   2.945  1.00  0.00     0.029 A 
ATOM     59  N   UNL     1      23.504  -7.679   4.104  1.00  0.00    -0.354 N 
ATOM     60  N   UNL     1      22.776  -6.215   6.549  1.00  0.00    -0.248 NA
ATOM     61  C   UNL     1      22.768  -6.046   8.880  1.00  0.00     0.031 C 
ATOM     62  C   UNL     1      24.658  -9.565   4.307  1.00  0.00     0.029 A 
ATOM     63  C   UNL     1      24.083  -8.534   5.031  1.00  0.00     0.049 A 
ATOM     64  H   UNL     1      23.005  -6.860   4.327  1.00  0.00     0.167 HD
ATOM     65  C   UNL     1      23.489  -7.282   7.089  1.00  0.00     0.074 A 
ATOM     66  C   UNL     1      23.500  -7.088   8.523  1.00  0.00     0.031 C 
ATOM     67  C   UNL     1      24.075  -8.335   6.461  1.00  0.00     0.034 A 
BRANCH  54  68
ATOM     68  C   UNL     1      23.553  -8.173   0.284  1.00  0.00     0.023 A 
ATOM     69  C   UNL     1      24.363  -7.543  -0.678  1.00  0.00     0.031 A 
ATOM     70  C   UNL     1      23.043  -9.447  -0.020  1.00  0.00     0.131 A 
ATOM     71  C   UNL     1      24.594  -8.162  -1.916  1.00  0.00     0.055 A 
ATOM     72  C   UNL     1      23.338 -10.091  -1.223  1.00  0.00     0.041 A 
ATOM     73  F   UNL     1      22.246 -10.089   0.850  1.00  0.00    -0.206 F 
ATOM     74  C   UNL     1      24.110  -9.444  -2.184  1.00  0.00     0.022 A 
BRANCH  71  75
ATOM     75  S   UNL     1      25.442  -7.221  -3.212  1.00  0.00     0.124 S 
ATOM     76  O   UNL     1      24.534  -6.091  -3.398  1.00  0.00    -0.237 OA
ATOM     77  O   UNL     1      26.725  -6.913  -2.592  1.00  0.00    -0.237 OA
ATOM     78  O   UNL     1      25.500  -8.156  -4.334  1.00  0.00    -0.744 OA
ENDBRANCH  71  75
ENDBRANCH  54  68
BRANCH  55  79
ATOM     79  C   UNL     1      21.235  -3.553   8.882  1.00  0.00     0.023 A 
ATOM     80  C   UNL     1      22.218  -3.154   9.803  1.00  0.00     0.031 A 
ATOM     81  C   UNL     1      19.887  -3.406   9.259  1.00  0.00     0.131 A 
ATOM     82  C   UNL     1      21.843  -2.707  11.079  1.00  0.00     0.055 A 
ATOM     83  C   UNL     1      19.519  -2.890  10.503  1.00  0.00     0.041 A 
ATOM     84  F   UNL     1      18.903  -3.768   8.420  1.00  0.00    -0.206 F 
ATOM     85  C   UNL     1      20.500  -2.558  11.431  1.00  0.00     0.022 A 
BRANCH  82  86
ATOM     86  S   UNL     1      23.139  -2.460  12.326  1.00  0.00     0.124 S 
ATOM     87  O   UNL     1      23.812  -3.753  12.313  1.00  0.00    -0.237 OA
ATOM     88  O   UNL     1      23.888  -1.341  11.764  1.00  0.00    -0.237 OA
ATOM     89  O   UNL     1      22.387  -2.158  13.542  1.00  0.00    -0.744 OA
ENDBRANCH  82  86
ENDBRANCH  55  79
BRANCH  67  90
ATOM     90  C   UNL     1      24.804  -9.327   7.336  1.00  0.00     0.023 A 
ATOM     91  C   UNL     1      24.130 -10.084   8.310  1.00  0.00     0.031 A 
ATOM     92  C   UNL     1      26.199  -9.477   7.234  1.00  0.00     0.131 A 
ATOM     93  C   UNL     1      24.858 -10.882   9.204  1.00  0.00     0.055 A 
ATOM     94  C   UNL     1      26.909 -10.336   8.074  1.00  0.00     0.041 A 
ATOM     95  F   UNL     1      26.898  -8.780   6.324  1.00  0.00    -0.206 F 
ATOM     96  C   UNL     1      26.241 -11.028   9.081  1.00  0.00     0.022 A 
BRANCH  93  97
ATOM     97  S   UNL     1      23.988 -11.610  10.620  1.00  0.00     0.124 S 
ATOM     98  O   UNL     1      23.398 -10.433  11.250  1.00  0.00    -0.237 OA
ATOM     99  O   UNL     1      23.050 -12.523   9.973  1.00  0.00    -0.237 OA
ATOM    100  O   UNL     1      25.055 -12.255  11.383  1.00  0.00    -0.744 OA
ENDBRANCH  93  97
ENDBRANCH  67  90
ENDBRANCH  41  42
ENDBRANCH  33  36
ENDBRANCH  31  32
ENDBRANCH   1  31
TORSDOF 17
