REMARK SMILES COc1ccc([C@@H]2CC(c3ccc(Cl)cc3)=NN2C2=[NH+]C(=O)[C@@H](CC(=O)NCCCNC(=O)c3ccc(-c4c5nc(c(-c6cc(S(=O)(=O)[O-])ccc6F)c6ccc([nH]6)c(-c6cc(S(=O)(=O)[O-])ccc6F)c6nc(c(-c7cc(S(=O)(=O)[O-])ccc7F)c7ccc4[nH]7)C=C6)C=C5)cc3)S2)cc1OC
REMARK SMILES IDX 28 1 27 2 25 3 26 4 24 6 23 7 19 8 20 9 97 10 21 11 22 13
REMARK SMILES IDX 18 14 7 15 8 16 9 17 17 18 6 19 3 20 4 21 99 22 5 23 98 24
REMARK SMILES IDX 2 25 1 26 100 27 101 28 10 29 11 30 16 31 12 32 15 33 13 34
REMARK SMILES IDX 14 35 29 36 30 37 31 38 32 39 33 41 34 42 35 43 96 44 36 45
REMARK SMILES IDX 95 46 37 47 38 48 39 49 89 50 40 51 94 52 88 53 90 54 41 55
REMARK SMILES IDX 93 56 87 57 86 58 42 60 74 61 54 62 73 63 55 64 58 65 72 66
REMARK SMILES IDX 91 67 56 68 57 69 71 71 92 72 59 73 43 74 44 75 52 76 45 77
REMARK SMILES IDX 51 78 53 79 50 80 46 81 47 82 48 83 49 84 75 85 76 86 84 87
REMARK SMILES IDX 77 88 83 89 85 90 82 91 78 92 79 93 80 94 81 95 60 96 61 97
REMARK SMILES IDX 69 98 62 99 68 100 70 101 67 102 63 103 64 104 65 105 66 106
REMARK H PARENT 27 5 20 12 31 40 90 59 58 70
REMARK Flexibility Score: inf
ROOT
ATOM      1  C   UNL     1      -0.302   0.480   8.485  1.00  0.00     0.117 C 
ENDROOT
BRANCH   1   2
ATOM      2  N   UNL     1      -0.027   1.849   8.896  1.00  0.00    -0.356 N 
ATOM      3  C   UNL     1       1.016   2.659   8.563  1.00  0.00     0.221 C 
ATOM      4  O   UNL     1       1.206   3.686   9.214  1.00  0.00    -0.275 OA
ATOM      5  H   UNL     1      -0.692   2.247   9.503  1.00  0.00     0.163 HD
BRANCH   3   6
ATOM      6  C   UNL     1       1.864   2.335   7.364  1.00  0.00     0.127 C 
BRANCH   6   7
ATOM      7  C   UNL     1       3.275   1.854   7.684  1.00  0.00     0.183 C 
ATOM      8  C   UNL     1       3.498  -0.522   6.870  1.00  0.00     0.340 C 
ATOM      9  N   UNL     1       3.745   0.290   5.893  1.00  0.00    -0.202 N 
ATOM     10  S   UNL     1       3.389   0.212   8.459  1.00  0.00    -0.020 SA
ATOM     11  C   UNL     1       3.926   1.584   6.338  1.00  0.00     0.322 C 
ATOM     12  H   UNL     1       3.797   0.019   4.948  1.00  0.00     0.316 HD
ATOM     13  O   UNL     1       4.452   2.466   5.671  1.00  0.00    -0.246 OA
BRANCH   8  14
ATOM     14  N   UNL     1       3.278  -1.877   6.776  1.00  0.00    -0.120 N 
ATOM     15  C   UNL     1       2.354  -2.436   5.780  1.00  0.00     0.243 C 
ATOM     16  C   UNL     1       3.113  -3.647   5.238  1.00  0.00     0.118 C 
ATOM     17  C   UNL     1       4.188  -3.772   6.281  1.00  0.00     0.096 C 
ATOM     18  N   UNL     1       4.260  -2.789   7.125  1.00  0.00    -0.086 NA
BRANCH  15  19
ATOM     19  C   UNL     1       1.022  -2.823   6.420  1.00  0.00     0.003 A 
ATOM     20  C   UNL     1      -1.470  -3.647   7.534  1.00  0.00     0.160 A 
ATOM     21  C   UNL     1      -0.247  -3.998   8.124  1.00  0.00     0.051 A 
ATOM     22  C   UNL     1      -1.447  -2.850   6.386  1.00  0.00     0.161 A 
ATOM     23  C   UNL     1       0.976  -3.603   7.581  1.00  0.00     0.012 A 
ATOM     24  C   UNL     1      -0.206  -2.457   5.833  1.00  0.00     0.058 A 
BRANCH  20  25
ATOM     25  O   UNL     1      -2.512  -4.180   8.225  1.00  0.00    -0.493 OA
ATOM     26  C   UNL     1      -3.810  -4.272   7.675  1.00  0.00     0.278 C 
ENDBRANCH  20  25
BRANCH  22  27
ATOM     27  O   UNL     1      -2.544  -2.505   5.642  1.00  0.00    -0.493 OA
ATOM     28  C   UNL     1      -3.414  -1.567   6.273  1.00  0.00     0.278 C 
ENDBRANCH  22  27
ENDBRANCH  15  19
BRANCH  17  29
ATOM     29  C   UNL     1       5.122  -4.916   6.285  1.00  0.00     0.000 A 
ATOM     30  C   UNL     1       5.656  -5.368   7.496  1.00  0.00     0.011 A 
ATOM     31  C   UNL     1       5.511  -5.517   5.081  1.00  0.00     0.011 A 
ATOM     32  C   UNL     1       6.569  -6.428   7.505  1.00  0.00     0.021 A 
ATOM     33  C   UNL     1       6.436  -6.564   5.092  1.00  0.00     0.021 A 
ATOM     34  C   UNL     1       6.961  -7.016   6.303  1.00  0.00     0.041 A 
ATOM     35  Cl  UNL     1       8.111  -8.294   6.304  1.00  0.00    -0.084 Cl
ENDBRANCH  17  29
ENDBRANCH   8  14
ENDBRANCH   6   7
ENDBRANCH   3   6
ENDBRANCH   1   2
BRANCH   1  36
ATOM     36  C   UNL     1       0.093  -0.501   9.580  1.00  0.00     0.042 C 
BRANCH  36  37
ATOM     37  C   UNL     1      -0.820  -0.503  10.794  1.00  0.00     0.118 C 
BRANCH  37  38
ATOM     38  N   UNL     1      -2.159  -0.979  10.502  1.00  0.00    -0.352 N 
ATOM     39  C   UNL     1      -2.806  -2.135  10.864  1.00  0.00     0.251 C 
ATOM     40  H   UNL     1      -2.697  -0.367   9.950  1.00  0.00     0.163 HD
ATOM     41  O   UNL     1      -3.928  -2.343  10.403  1.00  0.00    -0.269 OA
BRANCH  39  42
ATOM     42  C   UNL     1      -2.184  -3.123  11.779  1.00  0.00     0.039 A 
ATOM     43  C   UNL     1      -2.379  -4.486  11.525  1.00  0.00     0.014 A 
ATOM     44  C   UNL     1      -1.492  -2.734  12.929  1.00  0.00     0.014 A 
ATOM     45  C   UNL     1      -1.860  -5.448  12.393  1.00  0.00     0.010 A 
ATOM     46  C   UNL     1      -0.911  -3.692  13.759  1.00  0.00     0.010 A 
ATOM     47  C   UNL     1      -1.123  -5.057  13.518  1.00  0.00    -0.014 A 
BRANCH  47  48
ATOM     48  C   UNL     1      -0.706  -6.054  14.534  1.00  0.00     0.031 A 
ATOM     49  C   UNL     1      -1.396  -6.059  15.871  1.00  0.00     0.074 A 
ATOM     50  C   UNL     1       0.275  -6.935  14.263  1.00  0.00     0.049 A 
ATOM     51  N   UNL     1      -1.169  -6.799  16.926  1.00  0.00    -0.248 NA
ATOM     52  C   UNL     1      -2.474  -5.075  16.050  1.00  0.00     0.031 C 
ATOM     53  C   UNL     1       1.011  -7.018  13.001  1.00  0.00     0.029 A 
ATOM     54  N   UNL     1       0.820  -7.929  15.034  1.00  0.00    -0.354 N 
ATOM     55  C   UNL     1      -2.065  -6.360  17.895  1.00  0.00     0.074 A 
ATOM     56  C   UNL     1      -2.790  -5.246  17.323  1.00  0.00     0.031 C 
ATOM     57  C   UNL     1       1.898  -8.025  13.078  1.00  0.00     0.029 A 
ATOM     58  C   UNL     1       1.817  -8.634  14.403  1.00  0.00     0.049 A 
ATOM     59  H   UNL     1       0.524  -8.120  15.954  1.00  0.00     0.167 HD
ATOM     60  C   UNL     1      -2.281  -6.855  19.140  1.00  0.00     0.034 A 
ATOM     61  C   UNL     1       2.577  -9.653  14.849  1.00  0.00     0.034 A 
ATOM     62  C   UNL     1      -1.546  -7.968  19.689  1.00  0.00     0.049 A 
ATOM     63  C   UNL     1       2.338 -10.175  16.244  1.00  0.00     0.074 A 
ATOM     64  C   UNL     1      -1.671  -8.563  20.931  1.00  0.00     0.029 A 
ATOM     65  N   UNL     1      -0.539  -8.658  19.020  1.00  0.00    -0.354 N 
ATOM     66  N   UNL     1       1.482  -9.757  17.149  1.00  0.00    -0.248 NA
ATOM     67  C   UNL     1       3.155 -11.317  16.667  1.00  0.00     0.031 C 
ATOM     68  C   UNL     1      -0.705  -9.572  21.035  1.00  0.00     0.029 A 
ATOM     69  C   UNL     1      -0.025  -9.659  19.830  1.00  0.00     0.049 A 
ATOM     70  H   UNL     1      -0.236  -8.463  18.104  1.00  0.00     0.167 HD
ATOM     71  C   UNL     1       1.639 -10.608  18.241  1.00  0.00     0.074 A 
ATOM     72  C   UNL     1       2.655 -11.572  17.867  1.00  0.00     0.031 C 
ATOM     73  C   UNL     1       1.002 -10.598  19.442  1.00  0.00     0.034 A 
BRANCH  60  74
ATOM     74  C   UNL     1      -3.323  -6.156  19.985  1.00  0.00     0.023 A 
ATOM     75  C   UNL     1      -4.672  -6.084  19.587  1.00  0.00     0.031 A 
ATOM     76  C   UNL     1      -2.954  -5.485  21.164  1.00  0.00     0.131 A 
ATOM     77  C   UNL     1      -5.574  -5.281  20.302  1.00  0.00     0.055 A 
ATOM     78  C   UNL     1      -3.878  -4.763  21.923  1.00  0.00     0.041 A 
ATOM     79  F   UNL     1      -1.679  -5.495  21.586  1.00  0.00    -0.206 F 
ATOM     80  C   UNL     1      -5.192  -4.640  21.482  1.00  0.00     0.022 A 
BRANCH  77  81
ATOM     81  S   UNL     1      -7.200  -4.942  19.571  1.00  0.00     0.124 S 
ATOM     82  O   UNL     1      -6.829  -4.324  18.300  1.00  0.00    -0.237 OA
ATOM     83  O   UNL     1      -7.792  -6.272  19.486  1.00  0.00    -0.237 OA
ATOM     84  O   UNL     1      -7.828  -4.039  20.533  1.00  0.00    -0.744 OA
ENDBRANCH  77  81
ENDBRANCH  60  74
BRANCH  61  85
ATOM     85  C   UNL     1       3.626 -10.254  13.975  1.00  0.00     0.023 A 
ATOM     86  C   UNL     1       3.521 -11.579  13.524  1.00  0.00     0.031 A 
ATOM     87  C   UNL     1       4.765  -9.519  13.602  1.00  0.00     0.131 A 
ATOM     88  C   UNL     1       4.554 -12.143  12.759  1.00  0.00     0.055 A 
ATOM     89  C   UNL     1       5.769 -10.069  12.803  1.00  0.00     0.041 A 
ATOM     90  F   UNL     1       4.912  -8.245  14.000  1.00  0.00    -0.206 F 
ATOM     91  C   UNL     1       5.672 -11.393  12.386  1.00  0.00     0.022 A 
BRANCH  88  92
ATOM     92  S   UNL     1       4.444 -13.896  12.307  1.00  0.00     0.124 S 
ATOM     93  O   UNL     1       4.373 -14.537  13.615  1.00  0.00    -0.237 OA
ATOM     94  O   UNL     1       3.223 -13.927  11.509  1.00  0.00    -0.237 OA
ATOM     95  O   UNL     1       5.678 -14.133  11.561  1.00  0.00    -0.744 OA
ENDBRANCH  88  92
ENDBRANCH  61  85
BRANCH  73  96
ATOM     96  C   UNL     1       1.371 -11.697  20.410  1.00  0.00     0.023 A 
ATOM     97  C   UNL     1       2.660 -11.793  20.963  1.00  0.00     0.031 A 
ATOM     98  C   UNL     1       0.431 -12.688  20.746  1.00  0.00     0.131 A 
ATOM     99  C   UNL     1       2.998 -12.898  21.758  1.00  0.00     0.055 A 
ATOM    100  C   UNL     1       0.754 -13.749  21.593  1.00  0.00     0.041 A 
ATOM    101  F   UNL     1      -0.814 -12.647  20.247  1.00  0.00    -0.206 F 
ATOM    102  C   UNL     1       2.050 -13.869  22.088  1.00  0.00     0.022 A 
BRANCH  99 103
ATOM    103  S   UNL     1       4.732 -13.120  22.242  1.00  0.00     0.124 S 
ATOM    104  O   UNL     1       5.415 -13.089  20.952  1.00  0.00    -0.237 OA
ATOM    105  O   UNL     1       4.962 -11.971  23.112  1.00  0.00    -0.237 OA
ATOM    106  O   UNL     1       4.737 -14.418  22.914  1.00  0.00    -0.744 OA
ENDBRANCH  99 103
ENDBRANCH  73  96
ENDBRANCH  47  48
ENDBRANCH  39  42
ENDBRANCH  37  38
ENDBRANCH  36  37
ENDBRANCH   1  36
TORSDOF 19
