REMARK SMILES C[C@]1(C(=O)NCCn2cc(C(=O)NCCCNC(=O)c3ccc(-c4c5nc(c(-c6cc(S(=O)(=O)[O-])ccc6F)c6ccc([nH]6)c(-c6cc(S(=O)(=O)[O-])ccc6F)c6nc(c(-c7cc(S(=O)(=O)[O-])ccc7F)c7ccc4[nH]7)C=C6)C=C5)cc3)nn2)CCCO1
REMARK SMILES IDX 14 1 13 2 11 3 12 4 10 6 8 7 9 8 84 9 83 10 7 11 6 12 5 13
REMARK SMILES IDX 3 14 4 15 2 17 1 18 85 19 88 20 86 21 87 22 15 23 16 24
REMARK SMILES IDX 17 25 18 26 19 28 20 29 21 30 82 31 22 32 81 33 23 34 24 35
REMARK SMILES IDX 25 36 75 37 26 38 80 39 74 40 76 41 27 42 79 43 73 44 72 45
REMARK SMILES IDX 28 47 60 48 40 49 59 50 41 51 44 52 58 53 77 54 42 55 43 56
REMARK SMILES IDX 57 58 78 59 45 60 29 61 30 62 38 63 31 64 37 65 39 66 36 67
REMARK SMILES IDX 32 68 33 69 34 70 35 71 61 72 62 73 70 74 63 75 69 76 71 77
REMARK SMILES IDX 68 78 64 79 65 80 66 81 67 82 46 83 47 84 55 85 48 86 54 87
REMARK SMILES IDX 56 88 53 89 49 90 50 91 51 92 52 93
REMARK H PARENT 13 5 5 16 17 27 76 46 44 57
REMARK Flexibility Score: inf
ROOT
ATOM      1  C   UNL     1       6.295   1.450   0.898  1.00  0.00     0.118 C 
ENDROOT
BRANCH   1   2
ATOM      2  N   UNL     1       6.569   1.840   2.272  1.00  0.00    -0.351 N 
ATOM      3  C   UNL     1       6.218   1.269   3.477  1.00  0.00     0.273 C 
ATOM      4  O   UNL     1       6.745   1.732   4.487  1.00  0.00    -0.267 OA
ATOM      5  H   UNL     1       7.102   2.663   2.357  1.00  0.00     0.163 HD
BRANCH   3   6
ATOM      6  C   UNL     1       5.257   0.171   3.556  1.00  0.00     0.170 A 
ATOM      7  N   UNL     1       3.692  -1.304   3.261  1.00  0.00    -0.250 N 
ATOM      8  C   UNL     1       4.415  -0.358   2.602  1.00  0.00     0.145 A 
ATOM      9  N   UNL     1       4.072  -1.417   4.536  1.00  0.00    -0.067 NA
ATOM     10  N   UNL     1       5.021  -0.511   4.739  1.00  0.00    -0.125 NA
BRANCH   7  11
ATOM     11  C   UNL     1       2.664  -2.153   2.701  1.00  0.00     0.167 C 
BRANCH  11  12
ATOM     12  C   UNL     1       1.361  -1.399   2.401  1.00  0.00     0.139 C 
BRANCH  12  13
ATOM     13  N   UNL     1       1.529  -0.334   1.421  1.00  0.00    -0.352 N 
ATOM     14  C   UNL     1       1.359  -0.282   0.070  1.00  0.00     0.252 C 
ATOM     15  O   UNL     1       1.808   0.729  -0.482  1.00  0.00    -0.272 OA
ATOM     16  H   UNL     1       1.826   0.519   1.813  1.00  0.00     0.163 HD
BRANCH  14  17
ATOM     17  C   UNL     1       0.653  -1.408  -0.735  1.00  0.00     0.143 C 
ATOM     18  C   UNL     1       0.529  -0.965  -2.204  1.00  0.00     0.053 C 
ATOM     19  C   UNL     1       1.333  -2.771  -0.669  1.00  0.00     0.048 C 
ATOM     20  O   UNL     1      -0.682  -1.610  -0.234  1.00  0.00    -0.365 OA
ATOM     21  C   UNL     1       0.188  -3.743  -0.823  1.00  0.00     0.032 C 
ATOM     22  C   UNL     1      -0.979  -3.009  -0.202  1.00  0.00     0.162 C 
ENDBRANCH  14  17
ENDBRANCH  12  13
ENDBRANCH  11  12
ENDBRANCH   7  11
ENDBRANCH   3   6
ENDBRANCH   1   2
BRANCH   1  23
ATOM     23  C   UNL     1       5.077   2.162   0.293  1.00  0.00     0.042 C 
BRANCH  23  24
ATOM     24  C   UNL     1       5.440   3.516  -0.297  1.00  0.00     0.118 C 
BRANCH  24  25
ATOM     25  N   UNL     1       6.295   3.398  -1.489  1.00  0.00    -0.352 N 
ATOM     26  C   UNL     1       6.934   4.396  -2.215  1.00  0.00     0.251 C 
ATOM     27  H   UNL     1       6.433   2.481  -1.820  1.00  0.00     0.163 HD
ATOM     28  O   UNL     1       7.310   4.188  -3.354  1.00  0.00    -0.269 OA
BRANCH  26  29
ATOM     29  C   UNL     1       7.139   5.705  -1.568  1.00  0.00     0.039 A 
ATOM     30  C   UNL     1       6.997   6.917  -2.251  1.00  0.00     0.014 A 
ATOM     31  C   UNL     1       7.421   5.688  -0.210  1.00  0.00     0.014 A 
ATOM     32  C   UNL     1       7.052   8.103  -1.518  1.00  0.00     0.010 A 
ATOM     33  C   UNL     1       7.219   6.815   0.528  1.00  0.00     0.010 A 
ATOM     34  C   UNL     1       7.141   8.037  -0.119  1.00  0.00    -0.014 A 
BRANCH  34  35
ATOM     35  C   UNL     1       7.071   9.216   0.732  1.00  0.00     0.031 A 
ATOM     36  C   UNL     1       5.863  10.051   0.527  1.00  0.00     0.074 A 
ATOM     37  C   UNL     1       7.890   9.393   1.794  1.00  0.00     0.049 A 
ATOM     38  N   UNL     1       5.802  11.207  -0.041  1.00  0.00    -0.248 NA
ATOM     39  C   UNL     1       4.544   9.471   0.826  1.00  0.00     0.031 C 
ATOM     40  C   UNL     1       8.934   8.496   2.311  1.00  0.00     0.029 A 
ATOM     41  N   UNL     1       7.875  10.382   2.723  1.00  0.00    -0.354 N 
ATOM     42  C   UNL     1       4.480  11.619   0.070  1.00  0.00     0.074 A 
ATOM     43  C   UNL     1       3.730  10.432   0.382  1.00  0.00     0.031 C 
ATOM     44  C   UNL     1       9.266   8.859   3.570  1.00  0.00     0.029 A 
ATOM     45  C   UNL     1       8.603  10.112   3.879  1.00  0.00     0.049 A 
ATOM     46  H   UNL     1       7.386  11.226   2.590  1.00  0.00     0.167 HD
ATOM     47  C   UNL     1       4.166  12.943   0.154  1.00  0.00     0.034 A 
ATOM     48  C   UNL     1       8.648  10.859   5.015  1.00  0.00     0.034 A 
ATOM     49  C   UNL     1       5.307  13.763  -0.205  1.00  0.00     0.049 A 
ATOM     50  C   UNL     1       8.259  12.236   4.612  1.00  0.00     0.074 A 
ATOM     51  C   UNL     1       6.111  13.860  -1.327  1.00  0.00     0.029 A 
ATOM     52  N   UNL     1       6.037  14.337   0.815  1.00  0.00    -0.354 N 
ATOM     53  N   UNL     1       8.967  12.956   3.780  1.00  0.00    -0.248 NA
ATOM     54  C   UNL     1       6.852  12.601   4.695  1.00  0.00     0.031 C 
ATOM     55  C   UNL     1       7.437  13.977  -0.811  1.00  0.00     0.029 A 
ATOM     56  C   UNL     1       7.362  14.050   0.582  1.00  0.00     0.049 A 
ATOM     57  H   UNL     1       5.676  14.857   1.570  1.00  0.00     0.167 HD
ATOM     58  C   UNL     1       8.040  13.536   2.926  1.00  0.00     0.074 A 
ATOM     59  C   UNL     1       6.751  13.363   3.599  1.00  0.00     0.031 C 
ATOM     60  C   UNL     1       8.350  13.834   1.627  1.00  0.00     0.034 A 
BRANCH  47  61
ATOM     61  C   UNL     1       2.983  13.517   0.902  1.00  0.00     0.023 A 
ATOM     62  C   UNL     1       2.826  14.916   0.867  1.00  0.00     0.031 A 
ATOM     63  C   UNL     1       2.188  12.837   1.852  1.00  0.00     0.131 A 
ATOM     64  C   UNL     1       2.020  15.579   1.808  1.00  0.00     0.055 A 
ATOM     65  C   UNL     1       1.333  13.496   2.740  1.00  0.00     0.041 A 
ATOM     66  F   UNL     1       2.256  11.516   2.047  1.00  0.00    -0.206 F 
ATOM     67  C   UNL     1       1.271  14.878   2.747  1.00  0.00     0.022 A 
BRANCH  64  68
ATOM     68  S   UNL     1       2.123  17.385   1.899  1.00  0.00     0.124 S 
ATOM     69  O   UNL     1       3.560  17.590   2.044  1.00  0.00    -0.237 OA
ATOM     70  O   UNL     1       1.540  17.783   0.622  1.00  0.00    -0.237 OA
ATOM     71  O   UNL     1       1.324  17.709   3.078  1.00  0.00    -0.744 OA
ENDBRANCH  64  68
ENDBRANCH  47  61
BRANCH  48  72
ATOM     72  C   UNL     1       8.661  10.354   6.420  1.00  0.00     0.023 A 
ATOM     73  C   UNL     1       9.046  11.141   7.529  1.00  0.00     0.031 A 
ATOM     74  C   UNL     1       8.054   9.111   6.715  1.00  0.00     0.131 A 
ATOM     75  C   UNL     1       8.823  10.674   8.851  1.00  0.00     0.055 A 
ATOM     76  C   UNL     1       7.837   8.656   8.018  1.00  0.00     0.041 A 
ATOM     77  F   UNL     1       7.570   8.326   5.739  1.00  0.00    -0.206 F 
ATOM     78  C   UNL     1       8.214   9.441   9.094  1.00  0.00     0.022 A 
BRANCH  75  79
ATOM     79  S   UNL     1       9.250  11.708  10.293  1.00  0.00     0.124 S 
ATOM     80  O   UNL     1      10.707  11.737  10.236  1.00  0.00    -0.237 OA
ATOM     81  O   UNL     1       8.565  12.961   9.996  1.00  0.00    -0.237 OA
ATOM     82  O   UNL     1       8.696  10.964  11.426  1.00  0.00    -0.744 OA
ENDBRANCH  75  79
ENDBRANCH  48  72
BRANCH  60  83
ATOM     83  C   UNL     1       9.800  13.732   1.182  1.00  0.00     0.023 A 
ATOM     84  C   UNL     1      10.586  12.555   1.235  1.00  0.00     0.031 A 
ATOM     85  C   UNL     1      10.358  14.851   0.540  1.00  0.00     0.131 A 
ATOM     86  C   UNL     1      11.877  12.536   0.664  1.00  0.00     0.055 A 
ATOM     87  C   UNL     1      11.625  14.823  -0.043  1.00  0.00     0.041 A 
ATOM     88  F   UNL     1       9.655  15.991   0.428  1.00  0.00    -0.206 F 
ATOM     89  C   UNL     1      12.392  13.665   0.021  1.00  0.00     0.022 A 
BRANCH  86  90
ATOM     90  S   UNL     1      12.918  11.040   0.752  1.00  0.00     0.124 S 
ATOM     91  O   UNL     1      12.884  10.685   2.166  1.00  0.00    -0.237 OA
ATOM     92  O   UNL     1      12.235  10.121  -0.155  1.00  0.00    -0.237 OA
ATOM     93  O   UNL     1      14.222  11.504   0.274  1.00  0.00    -0.744 OA
ENDBRANCH  86  90
ENDBRANCH  60  83
ENDBRANCH  34  35
ENDBRANCH  26  29
ENDBRANCH  24  25
ENDBRANCH  23  24
ENDBRANCH   1  23
TORSDOF 17
