REMARK SMILES CC[C@H](C(=O)NCCCNC(=O)c1ccc(-c2c3nc(c(-c4cc(S(=O)(=O)[O-])ccc4F)c4ccc([nH]4)c(-c4cc(S(=O)(=O)[O-])ccc4F)c4nc(c(-c5cc(S(=O)(=O)[O-])ccc5F)c5ccc2[nH]5)C=C4)C=C3)cc1)N1C(=O)c2ccc([N+](=O)[O-])cc2C1=O
REMARK SMILES IDX 8 1 7 2 6 3 4 4 5 5 3 7 2 8 1 9 76 10 77 11 88 12 78 13
REMARK SMILES IDX 79 14 87 15 89 16 80 17 86 18 81 19 82 20 83 21 84 22 85 23
REMARK SMILES IDX 9 24 10 25 11 26 12 28 13 29 14 30 75 31 15 32 74 33 16 34
REMARK SMILES IDX 17 35 18 36 68 37 19 38 73 39 67 40 69 41 20 42 72 43 66 44
REMARK SMILES IDX 65 45 21 47 53 48 33 49 52 50 34 51 37 52 51 53 70 54 35 55
REMARK SMILES IDX 36 56 50 58 71 59 38 60 22 61 23 62 31 63 24 64 30 65 32 66
REMARK SMILES IDX 29 67 25 68 26 69 27 70 28 71 54 72 55 73 63 74 56 75 62 76
REMARK SMILES IDX 64 77 61 78 57 79 58 80 59 81 60 82 39 83 40 84 48 85 41 86
REMARK SMILES IDX 47 87 49 88 46 89 42 90 43 91 44 92 45 93
REMARK H PARENT 6 6 10 27 69 46 37 57
REMARK Flexibility Score: inf
ROOT
ATOM      1  C   UNL     1      -2.174   0.422  -1.941  1.00  0.00     0.042 C 
ENDROOT
BRANCH   1   2
ATOM      2  C   UNL     1      -1.754   1.331  -0.806  1.00  0.00     0.117 C 
BRANCH   2   3
ATOM      3  N   UNL     1      -0.645   0.782  -0.045  1.00  0.00    -0.354 N 
ATOM      4  C   UNL     1       0.491   1.409   0.385  1.00  0.00     0.243 C 
ATOM      5  O   UNL     1       1.218   0.825   1.192  1.00  0.00    -0.273 OA
ATOM      6  H   UNL     1      -0.723  -0.170   0.194  1.00  0.00     0.163 HD
BRANCH   4   7
ATOM      7  C   UNL     1       0.865   2.808  -0.142  1.00  0.00     0.183 C 
BRANCH   7   8
ATOM      8  C   UNL     1       1.012   2.850  -1.687  1.00  0.00     0.032 C 
ATOM      9  C   UNL     1       1.685   1.624  -2.301  1.00  0.00     0.006 C 
ENDBRANCH   7   8
BRANCH   7  10
ATOM     10  N   UNL     1      -0.002   3.880   0.396  1.00  0.00    -0.262 N 
ATOM     11  C   UNL     1      -1.093   3.712   1.205  1.00  0.00     0.262 C 
ATOM     12  C   UNL     1       0.275   5.218   0.249  1.00  0.00     0.262 C 
ATOM     13  O   UNL     1      -1.557   2.731   1.757  1.00  0.00    -0.269 OA
ATOM     14  C   UNL     1      -1.685   5.018   1.416  1.00  0.00     0.053 A 
ATOM     15  C   UNL     1      -0.826   5.955   0.883  1.00  0.00     0.060 A 
ATOM     16  O   UNL     1       1.223   5.757  -0.277  1.00  0.00    -0.269 OA
ATOM     17  C   UNL     1      -2.875   5.349   2.037  1.00  0.00     0.022 A 
ATOM     18  C   UNL     1      -1.084   7.309   0.991  1.00  0.00     0.100 A 
ATOM     19  C   UNL     1      -3.181   6.705   2.142  1.00  0.00     0.086 A 
ATOM     20  C   UNL     1      -2.280   7.677   1.639  1.00  0.00     0.270 A 
BRANCH  20  21
ATOM     21  N   UNL     1      -2.605   9.100   1.810  1.00  0.00     0.062 N 
ATOM     22  O   UNL     1      -3.643   9.383   2.425  1.00  0.00    -0.258 OA
ATOM     23  O   UNL     1      -1.816   9.929   1.339  1.00  0.00    -0.258 OA
ENDBRANCH  20  21
ENDBRANCH   7  10
ENDBRANCH   4   7
ENDBRANCH   2   3
ENDBRANCH   1   2
BRANCH   1  24
ATOM     24  C   UNL     1      -3.036  -0.726  -1.442  1.00  0.00     0.118 C 
BRANCH  24  25
ATOM     25  N   UNL     1      -4.313  -0.254  -0.909  1.00  0.00    -0.352 N 
ATOM     26  C   UNL     1      -5.586  -0.456  -1.380  1.00  0.00     0.251 C 
ATOM     27  H   UNL     1      -4.250   0.291  -0.091  1.00  0.00     0.163 HD
ATOM     28  O   UNL     1      -6.507   0.244  -0.972  1.00  0.00    -0.269 OA
BRANCH  26  29
ATOM     29  C   UNL     1      -5.822  -1.511  -2.384  1.00  0.00     0.039 A 
ATOM     30  C   UNL     1      -6.695  -1.270  -3.446  1.00  0.00     0.014 A 
ATOM     31  C   UNL     1      -5.159  -2.735  -2.278  1.00  0.00     0.014 A 
ATOM     32  C   UNL     1      -6.844  -2.237  -4.441  1.00  0.00     0.010 A 
ATOM     33  C   UNL     1      -5.218  -3.643  -3.323  1.00  0.00     0.010 A 
ATOM     34  C   UNL     1      -6.075  -3.412  -4.408  1.00  0.00    -0.014 A 
BRANCH  34  35
ATOM     35  C   UNL     1      -6.167  -4.434  -5.479  1.00  0.00     0.031 A 
ATOM     36  C   UNL     1      -6.608  -5.831  -5.134  1.00  0.00     0.074 A 
ATOM     37  C   UNL     1      -5.784  -4.123  -6.733  1.00  0.00     0.049 A 
ATOM     38  N   UNL     1      -6.659  -6.894  -5.893  1.00  0.00    -0.248 NA
ATOM     39  C   UNL     1      -7.007  -6.073  -3.738  1.00  0.00     0.031 C 
ATOM     40  C   UNL     1      -5.293  -2.812  -7.168  1.00  0.00     0.029 A 
ATOM     41  N   UNL     1      -5.738  -4.886  -7.872  1.00  0.00    -0.354 N 
ATOM     42  C   UNL     1      -7.077  -7.930  -5.064  1.00  0.00     0.074 A 
ATOM     43  C   UNL     1      -7.191  -7.383  -3.731  1.00  0.00     0.031 C 
ATOM     44  C   UNL     1      -5.031  -2.855  -8.484  1.00  0.00     0.029 A 
ATOM     45  C   UNL     1      -5.279  -4.206  -8.976  1.00  0.00     0.049 A 
ATOM     46  H   UNL     1      -6.009  -5.832  -7.897  1.00  0.00     0.167 HD
ATOM     47  C   UNL     1      -7.370  -9.212  -5.393  1.00  0.00     0.034 A 
ATOM     48  C   UNL     1      -5.071  -4.629 -10.239  1.00  0.00     0.034 A 
ATOM     49  C   UNL     1      -7.268  -9.729  -6.734  1.00  0.00     0.049 A 
ATOM     50  C   UNL     1      -5.382  -6.066 -10.575  1.00  0.00     0.074 A 
ATOM     51  C   UNL     1      -7.588 -10.992  -7.197  1.00  0.00     0.029 A 
ATOM     52  N   UNL     1      -6.806  -9.009  -7.830  1.00  0.00    -0.354 N 
ATOM     53  N   UNL     1      -5.828  -7.021  -9.791  1.00  0.00    -0.248 NA
ATOM     54  C   UNL     1      -5.174  -6.479 -11.968  1.00  0.00     0.031 C 
ATOM     55  C   UNL     1      -7.251 -11.059  -8.553  1.00  0.00     0.029 A 
ATOM     56  C   UNL     1      -6.803  -9.812  -8.959  1.00  0.00     0.049 A 
ATOM     57  H   UNL     1      -6.522  -8.066  -7.807  1.00  0.00     0.167 HD
ATOM     58  C   UNL     1      -5.987  -8.138 -10.606  1.00  0.00     0.074 A 
ATOM     59  C   UNL     1      -5.606  -7.731 -11.943  1.00  0.00     0.031 C 
ATOM     60  C   UNL     1      -6.413  -9.387 -10.283  1.00  0.00     0.034 A 
BRANCH  47  61
ATOM     61  C   UNL     1      -7.807 -10.135  -4.280  1.00  0.00     0.023 A 
ATOM     62  C   UNL     1      -8.973  -9.892  -3.532  1.00  0.00     0.031 A 
ATOM     63  C   UNL     1      -7.035 -11.260  -3.943  1.00  0.00     0.131 A 
ATOM     64  C   UNL     1      -9.290 -10.712  -2.439  1.00  0.00     0.055 A 
ATOM     65  C   UNL     1      -7.404 -12.124  -2.909  1.00  0.00     0.041 A 
ATOM     66  F   UNL     1      -5.898 -11.533  -4.603  1.00  0.00    -0.206 F 
ATOM     67  C   UNL     1      -8.530 -11.844  -2.140  1.00  0.00     0.022 A 
BRANCH  64  68
ATOM     68  S   UNL     1     -10.625 -10.193  -1.326  1.00  0.00     0.124 S 
ATOM     69  O   UNL     1     -10.140  -8.890  -0.874  1.00  0.00    -0.237 OA
ATOM     70  O   UNL     1     -11.784 -10.171  -2.211  1.00  0.00    -0.237 OA
ATOM     71  O   UNL     1     -10.641 -11.234  -0.301  1.00  0.00    -0.744 OA
ENDBRANCH  64  68
ENDBRANCH  47  61
BRANCH  48  72
ATOM     72  C   UNL     1      -4.538  -3.698 -11.275  1.00  0.00     0.023 A 
ATOM     73  C   UNL     1      -5.295  -3.374 -12.413  1.00  0.00     0.031 A 
ATOM     74  C   UNL     1      -3.245  -3.156 -11.172  1.00  0.00     0.131 A 
ATOM     75  C   UNL     1      -4.735  -2.582 -13.426  1.00  0.00     0.055 A 
ATOM     76  C   UNL     1      -2.714  -2.317 -12.154  1.00  0.00     0.041 A 
ATOM     77  F   UNL     1      -2.477  -3.427 -10.104  1.00  0.00    -0.206 F 
ATOM     78  C   UNL     1      -3.454  -2.039 -13.298  1.00  0.00     0.022 A 
BRANCH  75  79
ATOM     79  S   UNL     1      -5.666  -2.357 -14.966  1.00  0.00     0.124 S 
ATOM     80  O   UNL     1      -5.874  -3.737 -15.391  1.00  0.00    -0.237 OA
ATOM     81  O   UNL     1      -6.851  -1.643 -14.501  1.00  0.00    -0.237 OA
ATOM     82  O   UNL     1      -4.757  -1.576 -15.802  1.00  0.00    -0.744 OA
ENDBRANCH  75  79
ENDBRANCH  48  72
BRANCH  60  83
ATOM     83  C   UNL     1      -6.535 -10.383 -11.411  1.00  0.00     0.023 A 
ATOM     84  C   UNL     1      -5.411 -10.848 -12.115  1.00  0.00     0.031 A 
ATOM     85  C   UNL     1      -7.800 -10.867 -11.788  1.00  0.00     0.131 A 
ATOM     86  C   UNL     1      -5.580 -11.722 -13.199  1.00  0.00     0.055 A 
ATOM     87  C   UNL     1      -7.955 -11.791 -12.822  1.00  0.00     0.041 A 
ATOM     88  F   UNL     1      -8.909 -10.455 -11.152  1.00  0.00    -0.206 F 
ATOM     89  C   UNL     1      -6.842 -12.212 -13.544  1.00  0.00     0.022 A 
BRANCH  86  90
ATOM     90  S   UNL     1      -4.136 -12.131 -14.217  1.00  0.00     0.124 S 
ATOM     91  O   UNL     1      -3.699 -10.813 -14.666  1.00  0.00    -0.237 OA
ATOM     92  O   UNL     1      -3.261 -12.802 -13.262  1.00  0.00    -0.237 OA
ATOM     93  O   UNL     1      -4.688 -12.991 -15.263  1.00  0.00    -0.744 OA
ENDBRANCH  86  90
ENDBRANCH  60  83
ENDBRANCH  34  35
ENDBRANCH  26  29
ENDBRANCH  24  25
ENDBRANCH   1  24
TORSDOF 16
