REMARK SMILES C[C@@H](C(=O)NCCCNC(=O)c1ccc(-c2c3nc(c(-c4cc(S(=O)(=O)[O-])ccc4F)c4ccc([nH]4)c(-c4cc(S(=O)(=O)[O-])ccc4F)c4nc(c(-c5cc(S(=O)(=O)[O-])ccc5F)c5ccc2[nH]5)C=C4)C=C3)cc1)c1ccccc1-c1ccn(C(F)F)c(=O)c1
REMARK SMILES IDX 7 1 6 2 5 3 3 4 4 5 2 7 1 8 75 9 76 10 80 11 77 12 79 13
REMARK SMILES IDX 78 14 81 15 82 16 90 17 83 18 88 19 84 20 89 21 85 22 86 23
REMARK SMILES IDX 87 24 8 25 9 26 10 27 11 29 12 30 13 31 74 32 14 33 73 34
REMARK SMILES IDX 15 35 16 36 17 37 67 38 18 39 72 40 66 41 68 42 19 43 71 44
REMARK SMILES IDX 65 45 64 46 20 48 52 49 32 50 51 51 33 52 36 53 50 54 69 55
REMARK SMILES IDX 34 56 35 57 49 59 70 60 37 61 21 62 22 63 30 64 23 65 29 66
REMARK SMILES IDX 31 67 28 68 24 69 25 70 26 71 27 72 53 73 54 74 62 75 55 76
REMARK SMILES IDX 61 77 63 78 60 79 56 80 57 81 58 82 59 83 38 84 39 85 47 86
REMARK SMILES IDX 40 87 46 88 48 89 45 90 41 91 42 92 43 93 44 94
REMARK H PARENT 5 6 9 28 68 47 36 58
REMARK Flexibility Score: inf
ROOT
ATOM      1  C   UNL     1       4.296  -0.673   1.152  1.00  0.00     0.042 C 
ENDROOT
BRANCH   1   2
ATOM      2  C   UNL     1       3.370  -1.875   0.977  1.00  0.00     0.117 C 
BRANCH   2   3
ATOM      3  N   UNL     1       2.312  -1.859   1.968  1.00  0.00    -0.356 N 
ATOM      4  C   UNL     1       1.010  -1.471   1.855  1.00  0.00     0.227 C 
ATOM      5  O   UNL     1       0.367  -1.382   2.904  1.00  0.00    -0.274 OA
ATOM      6  H   UNL     1       2.574  -2.179   2.861  1.00  0.00     0.163 HD
BRANCH   4   7
ATOM      7  C   UNL     1       0.393  -1.223   0.469  1.00  0.00     0.106 C 
ATOM      8  C   UNL     1       0.848   0.136  -0.077  1.00  0.00     0.023 C 
BRANCH   7   9
ATOM      9  C   UNL     1      -1.133  -1.397   0.520  1.00  0.00    -0.028 A 
ATOM     10  C   UNL     1      -1.970  -0.271   0.664  1.00  0.00     0.005 A 
ATOM     11  C   UNL     1      -1.736  -2.681   0.491  1.00  0.00    -0.014 A 
ATOM     12  C   UNL     1      -3.355  -0.401   0.757  1.00  0.00     0.000 A 
ATOM     13  C   UNL     1      -3.134  -2.793   0.606  1.00  0.00     0.009 A 
ATOM     14  C   UNL     1      -3.938  -1.661   0.732  1.00  0.00     0.001 A 
BRANCH  11  15
ATOM     15  C   UNL     1      -0.958  -3.932   0.333  1.00  0.00    -0.011 A 
ATOM     16  C   UNL     1      -0.102  -4.477   1.369  1.00  0.00     0.027 A 
ATOM     17  C   UNL     1      -1.046  -4.578  -0.843  1.00  0.00     0.080 A 
ATOM     18  C   UNL     1       0.679  -5.535   1.119  1.00  0.00     0.095 A 
ATOM     19  C   UNL     1      -0.242  -5.802  -1.108  1.00  0.00     0.255 A 
ATOM     20  N   UNL     1       0.639  -6.175  -0.106  1.00  0.00    -0.258 N 
ATOM     21  O   UNL     1      -0.391  -6.380  -2.181  1.00  0.00    -0.269 OA
BRANCH  20  22
ATOM     22  C   UNL     1       1.499  -7.298  -0.374  1.00  0.00     0.451 C 
ATOM     23  F   UNL     1       0.779  -8.434  -0.542  1.00  0.00    -0.185 F 
ATOM     24  F   UNL     1       2.229  -7.095  -1.498  1.00  0.00    -0.185 F 
ENDBRANCH  20  22
ENDBRANCH  11  15
ENDBRANCH   7   9
ENDBRANCH   4   7
ENDBRANCH   2   3
ENDBRANCH   1   2
BRANCH   1  25
ATOM     25  C   UNL     1       5.064  -0.675   2.471  1.00  0.00     0.118 C 
BRANCH  25  26
ATOM     26  N   UNL     1       6.015  -1.772   2.556  1.00  0.00    -0.352 N 
ATOM     27  C   UNL     1       7.368  -1.739   2.775  1.00  0.00     0.251 C 
ATOM     28  H   UNL     1       5.630  -2.671   2.439  1.00  0.00     0.163 HD
ATOM     29  O   UNL     1       8.026  -2.766   2.598  1.00  0.00    -0.269 OA
BRANCH  27  30
ATOM     30  C   UNL     1       8.035  -0.488   3.198  1.00  0.00     0.039 A 
ATOM     31  C   UNL     1       9.277  -0.164   2.646  1.00  0.00     0.014 A 
ATOM     32  C   UNL     1       7.458   0.350   4.156  1.00  0.00     0.014 A 
ATOM     33  C   UNL     1       9.916   1.021   3.020  1.00  0.00     0.010 A 
ATOM     34  C   UNL     1       8.057   1.569   4.466  1.00  0.00     0.010 A 
ATOM     35  C   UNL     1       9.300   1.912   3.914  1.00  0.00    -0.014 A 
BRANCH  35  36
ATOM     36  C   UNL     1       9.956   3.187   4.309  1.00  0.00     0.031 A 
ATOM     37  C   UNL     1      10.349   3.416   5.745  1.00  0.00     0.074 A 
ATOM     38  C   UNL     1      10.151   4.155   3.393  1.00  0.00     0.049 A 
ATOM     39  N   UNL     1      10.868   4.480   6.304  1.00  0.00    -0.248 NA
ATOM     40  C   UNL     1      10.094   2.311   6.681  1.00  0.00     0.031 C 
ATOM     41  C   UNL     1       9.786   4.064   1.978  1.00  0.00     0.029 A 
ATOM     42  N   UNL     1      10.700   5.407   3.513  1.00  0.00    -0.354 N 
ATOM     43  C   UNL     1      10.982   4.180   7.658  1.00  0.00     0.074 A 
ATOM     44  C   UNL     1      10.416   2.860   7.841  1.00  0.00     0.031 C 
ATOM     45  C   UNL     1      10.150   5.198   1.356  1.00  0.00     0.029 A 
ATOM     46  C   UNL     1      10.728   6.115   2.333  1.00  0.00     0.049 A 
ATOM     47  H   UNL     1      11.043   5.765   4.363  1.00  0.00     0.167 HD
ATOM     48  C   UNL     1      11.527   4.925   8.652  1.00  0.00     0.034 A 
ATOM     49  C   UNL     1      11.161   7.364   2.071  1.00  0.00     0.034 A 
ATOM     50  C   UNL     1      12.099   6.235   8.447  1.00  0.00     0.049 A 
ATOM     51  C   UNL     1      11.741   8.186   3.195  1.00  0.00     0.074 A 
ATOM     52  C   UNL     1      12.728   7.055   9.368  1.00  0.00     0.029 A 
ATOM     53  N   UNL     1      12.105   6.922   7.239  1.00  0.00    -0.354 N 
ATOM     54  N   UNL     1      11.886   7.870   4.462  1.00  0.00    -0.248 NA
ATOM     55  C   UNL     1      12.226   9.528   2.850  1.00  0.00     0.031 C 
ATOM     56  C   UNL     1      13.042   8.264   8.738  1.00  0.00     0.029 A 
ATOM     57  C   UNL     1      12.694   8.167   7.400  1.00  0.00     0.049 A 
ATOM     58  H   UNL     1      11.742   6.575   6.392  1.00  0.00     0.167 HD
ATOM     59  C   UNL     1      12.520   8.960   5.054  1.00  0.00     0.074 A 
ATOM     60  C   UNL     1      12.735   9.934   4.004  1.00  0.00     0.031 C 
ATOM     61  C   UNL     1      12.899   9.135   6.346  1.00  0.00     0.034 A 
BRANCH  48  62
ATOM     62  C   UNL     1      11.496   4.350  10.051  1.00  0.00     0.023 A 
ATOM     63  C   UNL     1      12.138   3.140  10.370  1.00  0.00     0.031 A 
ATOM     64  C   UNL     1      10.777   4.998  11.071  1.00  0.00     0.131 A 
ATOM     65  C   UNL     1      11.973   2.572  11.643  1.00  0.00     0.055 A 
ATOM     66  C   UNL     1      10.696   4.474  12.364  1.00  0.00     0.041 A 
ATOM     67  F   UNL     1      10.124   6.145  10.826  1.00  0.00    -0.206 F 
ATOM     68  C   UNL     1      11.279   3.244  12.651  1.00  0.00     0.022 A 
BRANCH  65  69
ATOM     69  S   UNL     1      12.529   0.865  11.906  1.00  0.00     0.124 S 
ATOM     70  O   UNL     1      11.779   0.149  10.876  1.00  0.00    -0.237 OA
ATOM     71  O   UNL     1      13.968   0.966  11.695  1.00  0.00    -0.237 OA
ATOM     72  O   UNL     1      12.116   0.578  13.278  1.00  0.00    -0.744 OA
ENDBRANCH  65  69
ENDBRANCH  48  62
BRANCH  49  73
ATOM     73  C   UNL     1      11.073   7.920   0.690  1.00  0.00     0.023 A 
ATOM     74  C   UNL     1      12.233   8.247  -0.032  1.00  0.00     0.031 A 
ATOM     75  C   UNL     1       9.829   8.171   0.085  1.00  0.00     0.131 A 
ATOM     76  C   UNL     1      12.126   8.850  -1.294  1.00  0.00     0.055 A 
ATOM     77  C   UNL     1       9.728   8.720  -1.195  1.00  0.00     0.041 A 
ATOM     78  F   UNL     1       8.689   7.873   0.727  1.00  0.00    -0.206 F 
ATOM     79  C   UNL     1      10.882   9.075  -1.887  1.00  0.00     0.022 A 
BRANCH  76  80
ATOM     80  S   UNL     1      13.640   9.415  -2.118  1.00  0.00     0.124 S 
ATOM     81  O   UNL     1      14.176  10.354  -1.139  1.00  0.00    -0.237 OA
ATOM     82  O   UNL     1      14.379   8.167  -2.282  1.00  0.00    -0.237 OA
ATOM     83  O   UNL     1      13.150  10.014  -3.357  1.00  0.00    -0.744 OA
ENDBRANCH  76  80
ENDBRANCH  49  73
BRANCH  61  84
ATOM     84  C   UNL     1      13.646  10.405   6.679  1.00  0.00     0.023 A 
ATOM     85  C   UNL     1      13.046  11.673   6.584  1.00  0.00     0.031 A 
ATOM     86  C   UNL     1      14.992  10.342   7.085  1.00  0.00     0.131 A 
ATOM     87  C   UNL     1      13.806  12.827   6.829  1.00  0.00     0.055 A 
ATOM     88  C   UNL     1      15.724  11.490   7.393  1.00  0.00     0.041 A 
ATOM     89  F   UNL     1      15.620   9.160   7.190  1.00  0.00    -0.206 F 
ATOM     90  C   UNL     1      15.135  12.743   7.251  1.00  0.00     0.022 A 
BRANCH  87  91
ATOM     91  S   UNL     1      13.067  14.447   6.482  1.00  0.00     0.124 S 
ATOM     92  O   UNL     1      12.700  14.319   5.075  1.00  0.00    -0.237 OA
ATOM     93  O   UNL     1      11.957  14.492   7.428  1.00  0.00    -0.237 OA
ATOM     94  O   UNL     1      14.153  15.386   6.757  1.00  0.00    -0.744 OA
ENDBRANCH  87  91
ENDBRANCH  61  84
ENDBRANCH  35  36
ENDBRANCH  27  30
ENDBRANCH  25  26
ENDBRANCH   1  25
TORSDOF 16
