REMARK SMILES COC(=O)c1c(NC(=O)[C@@H]2C[C@@H]2C(=O)NCCCNC(=O)c2ccc(-c3c4nc(c(-c5cc(S(=O)(=O)[O-])ccc5F)c5ccc([nH]5)c(-c5cc(S(=O)(=O)[O-])ccc5F)c5nc(c(-c6cc(S(=O)(=O)[O-])ccc6F)c6ccc3[nH]6)C=C5)C=C4)cc2)sc2c1CC[N@@H+](Cc1ccccc1)C2
REMARK SMILES IDX 16 1 15 2 13 3 14 4 12 6 10 7 11 8 8 9 7 10 9 12 6 13 5 14
REMARK SMILES IDX 87 15 85 16 86 17 88 18 98 19 89 20 90 21 3 23 4 24 2 25
REMARK SMILES IDX 1 26 91 27 92 28 93 29 97 30 94 31 96 32 95 33 17 34 18 35
REMARK SMILES IDX 19 36 20 37 21 39 22 40 23 41 84 42 24 43 83 44 25 45 26 46
REMARK SMILES IDX 27 47 77 48 28 49 82 50 76 51 78 52 29 53 81 54 75 55 74 56
REMARK SMILES IDX 30 58 62 59 42 60 61 61 43 62 46 63 60 64 79 65 44 66 45 67
REMARK SMILES IDX 59 69 80 70 47 71 31 72 32 73 40 74 33 75 39 76 41 77 38 78
REMARK SMILES IDX 34 79 35 80 36 81 37 82 63 83 64 84 72 85 65 86 71 87 73 88
REMARK SMILES IDX 70 89 66 90 67 91 68 92 69 93 48 94 49 95 57 96 50 97 56 98
REMARK SMILES IDX 58 99 55 100 51 101 52 102 53 103 54 104
REMARK H PARENT 15 5 7 11 90 22 19 38 78 57 46 68
REMARK Flexibility Score: inf
ROOT
ATOM      1  C   UNL     1      -3.130  -2.641  -3.315  1.00  0.00     0.117 C 
ENDROOT
BRANCH   1   2
ATOM      2  N   UNL     1      -2.737  -1.466  -4.046  1.00  0.00    -0.356 N 
ATOM      3  C   UNL     1      -1.728  -0.576  -3.818  1.00  0.00     0.223 C 
ATOM      4  O   UNL     1      -1.392   0.150  -4.752  1.00  0.00    -0.275 OA
ATOM      5  H   UNL     1      -3.286  -1.272  -4.841  1.00  0.00     0.163 HD
BRANCH   3   6
ATOM      6  C   UNL     1      -1.015  -0.368  -2.531  1.00  0.00     0.091 C 
ATOM      7  C   UNL     1      -1.133  -0.640  -1.058  1.00  0.00     0.092 C 
ATOM      8  C   UNL     1      -1.819   0.558  -1.621  1.00  0.00     0.028 C 
BRANCH   7   9
ATOM      9  C   UNL     1      -1.857  -1.694  -0.339  1.00  0.00     0.228 C 
ATOM     10  N   UNL     1      -1.528  -3.020  -0.439  1.00  0.00    -0.317 N 
ATOM     11  H   UNL     1      -2.069  -3.613   0.131  1.00  0.00     0.170 HD
ATOM     12  O   UNL     1      -2.779  -1.372   0.410  1.00  0.00    -0.274 OA
BRANCH  10  13
ATOM     13  C   UNL     1      -0.580  -3.671  -1.189  1.00  0.00     0.110 A 
ATOM     14  C   UNL     1       0.671  -3.411  -1.719  1.00  0.00     0.098 A 
ATOM     15  C   UNL     1       1.095  -4.521  -2.553  1.00  0.00    -0.006 A 
ATOM     16  S   UNL     1      -1.161  -5.240  -1.580  1.00  0.00    -0.116 S 
ATOM     17  C   UNL     1       0.215  -5.583  -2.496  1.00  0.00     0.065 A 
ATOM     18  C   UNL     1       2.433  -4.686  -3.224  1.00  0.00     0.099 C 
ATOM     19  C   UNL     1       0.515  -6.950  -3.027  1.00  0.00     0.310 C 
ATOM     20  C   UNL     1       2.732  -6.155  -3.626  1.00  0.00     0.267 C 
ATOM     21  N   UNL     1       1.963  -7.223  -2.960  1.00  0.00    -0.326 N 
ATOM     22  H   UNL     1       2.131  -8.069  -3.506  1.00  0.00     0.348 HD
BRANCH  14  23
ATOM     23  C   UNL     1       1.534  -2.278  -1.415  1.00  0.00     0.341 C 
ATOM     24  O   UNL     1       2.346  -1.816  -2.213  1.00  0.00    -0.246 OA
BRANCH  23  25
ATOM     25  O   UNL     1       1.400  -1.831  -0.133  1.00  0.00    -0.465 OA
ATOM     26  C   UNL     1       2.188  -0.680   0.176  1.00  0.00     0.282 C 
ENDBRANCH  23  25
ENDBRANCH  14  23
BRANCH  21  27
ATOM     27  C   UNL     1       2.463  -7.659  -1.643  1.00  0.00     0.299 C 
BRANCH  27  28
ATOM     28  C   UNL     1       2.400  -6.693  -0.475  1.00  0.00     0.006 A 
ATOM     29  C   UNL     1       3.448  -5.798  -0.219  1.00  0.00     0.009 A 
ATOM     30  C   UNL     1       1.265  -6.639   0.351  1.00  0.00     0.009 A 
ATOM     31  C   UNL     1       3.323  -4.814   0.766  1.00  0.00     0.001 A 
ATOM     32  C   UNL     1       1.133  -5.645   1.324  1.00  0.00     0.001 A 
ATOM     33  C   UNL     1       2.156  -4.723   1.520  1.00  0.00     0.000 A 
ENDBRANCH  27  28
ENDBRANCH  21  27
ENDBRANCH  10  13
ENDBRANCH   7   9
ENDBRANCH   3   6
ENDBRANCH   1   2
BRANCH   1  34
ATOM     34  C   UNL     1      -4.201  -2.416  -2.251  1.00  0.00     0.042 C 
BRANCH  34  35
ATOM     35  C   UNL     1      -5.594  -2.923  -2.590  1.00  0.00     0.118 C 
BRANCH  35  36
ATOM     36  N   UNL     1      -5.688  -4.390  -2.554  1.00  0.00    -0.352 N 
ATOM     37  C   UNL     1      -6.470  -5.212  -3.345  1.00  0.00     0.251 C 
ATOM     38  H   UNL     1      -5.124  -4.842  -1.885  1.00  0.00     0.163 HD
ATOM     39  O   UNL     1      -6.744  -6.354  -3.001  1.00  0.00    -0.269 OA
BRANCH  37  40
ATOM     40  C   UNL     1      -6.963  -4.647  -4.610  1.00  0.00     0.039 A 
ATOM     41  C   UNL     1      -8.326  -4.568  -4.888  1.00  0.00     0.014 A 
ATOM     42  C   UNL     1      -6.027  -3.975  -5.385  1.00  0.00     0.014 A 
ATOM     43  C   UNL     1      -8.749  -3.675  -5.872  1.00  0.00     0.010 A 
ATOM     44  C   UNL     1      -6.461  -2.976  -6.221  1.00  0.00     0.010 A 
ATOM     45  C   UNL     1      -7.818  -2.823  -6.496  1.00  0.00    -0.014 A 
BRANCH  45  46
ATOM     46  C   UNL     1      -8.267  -1.703  -7.331  1.00  0.00     0.031 A 
ATOM     47  C   UNL     1      -9.464  -0.951  -6.853  1.00  0.00     0.074 A 
ATOM     48  C   UNL     1      -7.593  -1.213  -8.395  1.00  0.00     0.049 A 
ATOM     49  N   UNL     1     -10.660  -1.006  -7.339  1.00  0.00    -0.248 NA
ATOM     50  C   UNL     1      -9.363  -0.127  -5.641  1.00  0.00     0.031 C 
ATOM     51  C   UNL     1      -6.277  -1.597  -8.920  1.00  0.00     0.029 A 
ATOM     52  N   UNL     1      -7.936  -0.167  -9.198  1.00  0.00    -0.354 N 
ATOM     53  C   UNL     1     -11.422  -0.068  -6.647  1.00  0.00     0.074 A 
ATOM     54  C   UNL     1     -10.620   0.312  -5.513  1.00  0.00     0.031 C 
ATOM     55  C   UNL     1      -5.832  -0.657  -9.779  1.00  0.00     0.029 A 
ATOM     56  C   UNL     1      -6.918   0.267 -10.034  1.00  0.00     0.049 A 
ATOM     57  H   UNL     1      -8.831   0.245  -9.186  1.00  0.00     0.167 HD
ATOM     58  C   UNL     1     -12.569   0.443  -7.184  1.00  0.00     0.034 A 
ATOM     59  C   UNL     1      -6.956   1.279 -10.932  1.00  0.00     0.034 A 
ATOM     60  C   UNL     1     -12.981  -0.326  -8.340  1.00  0.00     0.049 A 
ATOM     61  C   UNL     1      -8.375   1.442 -11.324  1.00  0.00     0.074 A 
ATOM     62  C   UNL     1     -13.316  -1.649  -8.558  1.00  0.00     0.029 A 
ATOM     63  N   UNL     1     -12.710   0.189  -9.589  1.00  0.00    -0.354 N 
ATOM     64  N   UNL     1      -9.048   0.515 -11.952  1.00  0.00    -0.248 NA
ATOM     65  C   UNL     1      -9.186   2.420 -10.619  1.00  0.00     0.031 C 
ATOM     66  C   UNL     1     -12.715  -1.974  -9.812  1.00  0.00     0.029 A 
ATOM     67  C   UNL     1     -12.124  -0.814 -10.322  1.00  0.00     0.049 A 
ATOM     68  H   UNL     1     -12.901   1.104  -9.899  1.00  0.00     0.167 HD
ATOM     69  C   UNL     1     -10.304   0.524 -11.366  1.00  0.00     0.074 A 
ATOM     70  C   UNL     1     -10.366   1.793 -10.642  1.00  0.00     0.031 C 
ATOM     71  C   UNL     1     -11.069  -0.607 -11.298  1.00  0.00     0.034 A 
BRANCH  58  72
ATOM     72  C   UNL     1     -13.172   1.806  -6.902  1.00  0.00     0.023 A 
ATOM     73  C   UNL     1     -14.363   2.141  -7.583  1.00  0.00     0.031 A 
ATOM     74  C   UNL     1     -12.531   2.874  -6.242  1.00  0.00     0.131 A 
ATOM     75  C   UNL     1     -14.798   3.474  -7.685  1.00  0.00     0.055 A 
ATOM     76  C   UNL     1     -13.005   4.191  -6.287  1.00  0.00     0.041 A 
ATOM     77  F   UNL     1     -11.370   2.730  -5.595  1.00  0.00    -0.206 F 
ATOM     78  C   UNL     1     -14.124   4.505  -7.040  1.00  0.00     0.022 A 
BRANCH  75  79
ATOM     79  S   UNL     1     -16.145   3.857  -8.837  1.00  0.00     0.124 S 
ATOM     80  O   UNL     1     -15.670   3.231 -10.066  1.00  0.00    -0.237 OA
ATOM     81  O   UNL     1     -17.286   3.220  -8.187  1.00  0.00    -0.237 OA
ATOM     82  O   UNL     1     -16.172   5.318  -8.852  1.00  0.00    -0.744 OA
ENDBRANCH  75  79
ENDBRANCH  58  72
BRANCH  59  83
ATOM     83  C   UNL     1      -5.865   2.237 -11.225  1.00  0.00     0.023 A 
ATOM     84  C   UNL     1      -5.816   2.995 -12.409  1.00  0.00     0.031 A 
ATOM     85  C   UNL     1      -4.952   2.585 -10.202  1.00  0.00     0.131 A 
ATOM     86  C   UNL     1      -4.888   4.054 -12.532  1.00  0.00     0.055 A 
ATOM     87  C   UNL     1      -4.034   3.629 -10.331  1.00  0.00     0.041 A 
ATOM     88  F   UNL     1      -4.981   1.972  -9.008  1.00  0.00    -0.206 F 
ATOM     89  C   UNL     1      -4.006   4.377 -11.496  1.00  0.00     0.022 A 
BRANCH  86  90
ATOM     90  S   UNL     1      -4.896   5.103 -14.019  1.00  0.00     0.124 S 
ATOM     91  O   UNL     1      -4.359   4.204 -15.034  1.00  0.00    -0.237 OA
ATOM     92  O   UNL     1      -6.306   5.456 -14.146  1.00  0.00    -0.237 OA
ATOM     93  O   UNL     1      -4.019   6.216 -13.656  1.00  0.00    -0.744 OA
ENDBRANCH  86  90
ENDBRANCH  59  83
BRANCH  71  94
ATOM     94  C   UNL     1     -10.664  -1.811 -12.130  1.00  0.00     0.023 A 
ATOM     95  C   UNL     1      -9.417  -2.472 -12.043  1.00  0.00     0.031 A 
ATOM     96  C   UNL     1     -11.649  -2.389 -12.952  1.00  0.00     0.131 A 
ATOM     97  C   UNL     1      -9.193  -3.659 -12.771  1.00  0.00     0.055 A 
ATOM     98  C   UNL     1     -11.431  -3.574 -13.654  1.00  0.00     0.041 A 
ATOM     99  F   UNL     1     -12.865  -1.827 -13.056  1.00  0.00    -0.206 F 
ATOM    100  C   UNL     1     -10.199  -4.212 -13.570  1.00  0.00     0.022 A 
BRANCH  97 101
ATOM    101  S   UNL     1      -7.580  -4.504 -12.699  1.00  0.00     0.124 S 
ATOM    102  O   UNL     1      -6.619  -3.432 -12.930  1.00  0.00    -0.237 OA
ATOM    103  O   UNL     1      -7.582  -5.082 -11.358  1.00  0.00    -0.237 OA
ATOM    104  O   UNL     1      -7.663  -5.488 -13.782  1.00  0.00    -0.744 OA
ENDBRANCH  97 101
ENDBRANCH  71  94
ENDBRANCH  45  46
ENDBRANCH  37  40
ENDBRANCH  35  36
ENDBRANCH  34  35
ENDBRANCH   1  34
TORSDOF 19
