REMARK SMILES C[N@@H+]1CC[N@@H+](C)[C@H](C[NH2+]Cc2ccc(C(=O)NCCCNC(=O)c3ccc(-c4c5nc(c(-c6cc(S(=O)(=O)[O-])ccc6F)c6ccc([nH]6)c(-c6cc(S(=O)(=O)[O-])ccc6F)c6nc(c(-c7cc(S(=O)(=O)[O-])ccc7F)c7ccc4[nH]7)C=C6)C=C5)cc3)cn2)C1
REMARK SMILES IDX 18 1 17 2 15 3 16 4 14 6 11 7 12 8 88 9 13 10 87 11 10 12
REMARK SMILES IDX 9 13 8 16 7 17 1 18 2 19 3 20 89 21 4 23 5 24 6 25 19 27
REMARK SMILES IDX 20 28 21 29 22 30 23 32 24 33 25 34 86 35 26 36 85 37 27 38
REMARK SMILES IDX 28 39 29 40 79 41 30 42 84 43 78 44 80 45 31 46 83 47 77 48
REMARK SMILES IDX 76 49 32 51 64 52 44 53 63 54 45 55 48 56 62 57 81 58 46 59
REMARK SMILES IDX 47 60 61 62 82 63 49 64 33 65 34 66 42 67 35 68 41 69 43 70
REMARK SMILES IDX 40 71 36 72 37 73 38 74 39 75 65 76 66 77 74 78 67 79 73 80
REMARK SMILES IDX 75 81 72 82 68 83 69 84 70 85 71 86 50 87 51 88 59 89 52 90
REMARK SMILES IDX 58 91 60 92 57 93 53 94 54 95 55 96 56 97
REMARK H PARENT 17 5 9 14 9 15 2 22 5 26 21 31 80 50 48 61
REMARK Flexibility Score: inf
ROOT
ATOM      1  C   UNL     1      -2.574   5.675  -7.184  1.00  0.00     0.118 C 
ENDROOT
BRANCH   1   2
ATOM      2  N   UNL     1      -2.010   6.654  -6.273  1.00  0.00    -0.352 N 
ATOM      3  C   UNL     1      -2.030   6.767  -4.907  1.00  0.00     0.252 C 
ATOM      4  O   UNL     1      -1.442   7.728  -4.410  1.00  0.00    -0.269 OA
ATOM      5  H   UNL     1      -1.519   7.378  -6.724  1.00  0.00     0.163 HD
BRANCH   3   6
ATOM      6  C   UNL     1      -2.651   5.764  -4.010  1.00  0.00     0.058 A 
ATOM      7  C   UNL     1      -3.381   3.799  -2.220  1.00  0.00     0.094 A 
ATOM      8  C   UNL     1      -3.998   3.843  -3.464  1.00  0.00     0.030 A 
ATOM      9  N   UNL     1      -2.522   4.761  -1.800  1.00  0.00    -0.255 NA
ATOM     10  C   UNL     1      -3.643   4.851  -4.353  1.00  0.00     0.017 A 
ATOM     11  C   UNL     1      -2.170   5.706  -2.705  1.00  0.00     0.125 A 
BRANCH   7  12
ATOM     12  C   UNL     1      -3.550   2.571  -1.357  1.00  0.00     0.318 C 
BRANCH  12  13
ATOM     13  N   UNL     1      -2.304   1.799  -1.297  1.00  0.00    -0.336 N 
ATOM     14  H   UNL     1      -2.530   0.805  -1.271  1.00  0.00     0.346 HD
ATOM     15  H   UNL     1      -1.747   2.021  -2.122  1.00  0.00     0.346 HD
BRANCH  13  16
ATOM     16  C   UNL     1      -1.518   2.145  -0.098  1.00  0.00     0.332 C 
BRANCH  16  17
ATOM     17  C   UNL     1      -0.730   0.911   0.445  1.00  0.00     0.295 C 
ATOM     18  C   UNL     1       2.893  -0.103  -0.193  1.00  0.00     0.333 C 
ATOM     19  N   UNL     1       1.529  -0.193   0.316  1.00  0.00    -0.328 N 
ATOM     20  C   UNL     1       0.863  -1.417  -0.154  1.00  0.00     0.324 C 
ATOM     21  C   UNL     1       0.721   0.963  -0.125  1.00  0.00     0.334 C 
ATOM     22  H   UNL     1       1.598  -0.204   1.334  1.00  0.00     0.348 HD
ATOM     23  C   UNL     1      -0.557  -1.532   0.439  1.00  0.00     0.324 C 
ATOM     24  N   UNL     1      -1.435  -0.381   0.143  1.00  0.00    -0.321 N 
ATOM     25  C   UNL     1      -2.681  -0.519   0.906  1.00  0.00     0.333 C 
ATOM     26  H   UNL     1      -1.666  -0.367  -0.851  1.00  0.00     0.348 HD
ENDBRANCH  16  17
ENDBRANCH  13  16
ENDBRANCH  12  13
ENDBRANCH   7  12
ENDBRANCH   3   6
ENDBRANCH   1   2
BRANCH   1  27
ATOM     27  C   UNL     1      -3.978   6.082  -7.629  1.00  0.00     0.042 C 
BRANCH  27  28
ATOM     28  C   UNL     1      -3.982   7.279  -8.572  1.00  0.00     0.118 C 
BRANCH  28  29
ATOM     29  N   UNL     1      -3.406   6.944  -9.864  1.00  0.00    -0.352 N 
ATOM     30  C   UNL     1      -3.976   6.969 -11.111  1.00  0.00     0.251 C 
ATOM     31  H   UNL     1      -2.465   6.655  -9.839  1.00  0.00     0.163 HD
ATOM     32  O   UNL     1      -3.415   6.386 -12.033  1.00  0.00    -0.269 OA
BRANCH  30  33
ATOM     33  C   UNL     1      -5.253   7.682 -11.342  1.00  0.00     0.039 A 
ATOM     34  C   UNL     1      -6.178   7.132 -12.233  1.00  0.00     0.014 A 
ATOM     35  C   UNL     1      -5.518   8.912 -10.733  1.00  0.00     0.014 A 
ATOM     36  C   UNL     1      -7.383   7.793 -12.481  1.00  0.00     0.010 A 
ATOM     37  C   UNL     1      -6.750   9.533 -10.921  1.00  0.00     0.010 A 
ATOM     38  C   UNL     1      -7.689   8.988 -11.809  1.00  0.00    -0.014 A 
BRANCH  38  39
ATOM     39  C   UNL     1      -8.975   9.694 -12.043  1.00  0.00     0.031 A 
ATOM     40  C   UNL     1      -8.977  11.065 -12.663  1.00  0.00     0.074 A 
ATOM     41  C   UNL     1     -10.129   9.124 -11.644  1.00  0.00     0.049 A 
ATOM     42  N   UNL     1      -9.981  11.877 -12.877  1.00  0.00    -0.248 NA
ATOM     43  C   UNL     1      -7.671  11.607 -13.067  1.00  0.00     0.031 C 
ATOM     44  C   UNL     1     -10.244   7.814 -10.998  1.00  0.00     0.029 A 
ATOM     45  N   UNL     1     -11.423   9.573 -11.715  1.00  0.00    -0.354 N 
ATOM     46  C   UNL     1      -9.427  13.030 -13.425  1.00  0.00     0.074 A 
ATOM     47  C   UNL     1      -7.993  12.832 -13.451  1.00  0.00     0.031 C 
ATOM     48  C   UNL     1     -11.538   7.558 -10.752  1.00  0.00     0.029 A 
ATOM     49  C   UNL     1     -12.341   8.700 -11.180  1.00  0.00     0.049 A 
ATOM     50  H   UNL     1     -11.671  10.440 -12.111  1.00  0.00     0.167 HD
ATOM     51  C   UNL     1     -10.058  14.140 -13.883  1.00  0.00     0.034 A 
ATOM     52  C   UNL     1     -13.676   8.812 -11.039  1.00  0.00     0.034 A 
ATOM     53  C   UNL     1     -11.491  14.310 -13.859  1.00  0.00     0.049 A 
ATOM     54  C   UNL     1     -14.355  10.060 -11.543  1.00  0.00     0.074 A 
ATOM     55  C   UNL     1     -12.243  15.368 -14.341  1.00  0.00     0.029 A 
ATOM     56  N   UNL     1     -12.391  13.400 -13.317  1.00  0.00    -0.354 N 
ATOM     57  N   UNL     1     -13.822  11.123 -12.101  1.00  0.00    -0.248 NA
ATOM     58  C   UNL     1     -15.816  10.117 -11.410  1.00  0.00     0.031 C 
ATOM     59  C   UNL     1     -13.587  15.127 -14.034  1.00  0.00     0.029 A 
ATOM     60  C   UNL     1     -13.686  13.884 -13.428  1.00  0.00     0.049 A 
ATOM     61  H   UNL     1     -12.145  12.537 -12.913  1.00  0.00     0.167 HD
ATOM     62  C   UNL     1     -14.888  11.961 -12.413  1.00  0.00     0.074 A 
ATOM     63  C   UNL     1     -16.092  11.273 -11.995  1.00  0.00     0.031 C 
ATOM     64  C   UNL     1     -14.875  13.188 -12.995  1.00  0.00     0.034 A 
BRANCH  51  65
ATOM     65  C   UNL     1      -9.195  15.258 -14.421  1.00  0.00     0.023 A 
ATOM     66  C   UNL     1      -8.368  15.078 -15.545  1.00  0.00     0.031 A 
ATOM     67  C   UNL     1      -9.173  16.512 -13.786  1.00  0.00     0.131 A 
ATOM     68  C   UNL     1      -7.496  16.102 -15.946  1.00  0.00     0.055 A 
ATOM     69  C   UNL     1      -8.365  17.556 -14.242  1.00  0.00     0.041 A 
ATOM     70  F   UNL     1      -9.925  16.740 -12.697  1.00  0.00    -0.206 F 
ATOM     71  C   UNL     1      -7.507  17.349 -15.318  1.00  0.00     0.022 A 
BRANCH  68  72
ATOM     72  S   UNL     1      -6.242  15.728 -17.202  1.00  0.00     0.124 S 
ATOM     73  O   UNL     1      -5.509  14.634 -16.570  1.00  0.00    -0.237 OA
ATOM     74  O   UNL     1      -7.053  15.368 -18.360  1.00  0.00    -0.237 OA
ATOM     75  O   UNL     1      -5.497  16.979 -17.326  1.00  0.00    -0.744 OA
ENDBRANCH  68  72
ENDBRANCH  51  65
BRANCH  52  76
ATOM     76  C   UNL     1     -14.461   7.722 -10.393  1.00  0.00     0.023 A 
ATOM     77  C   UNL     1     -15.414   6.990 -11.118  1.00  0.00     0.031 A 
ATOM     78  C   UNL     1     -14.295   7.419  -9.030  1.00  0.00     0.131 A 
ATOM     79  C   UNL     1     -16.197   6.024 -10.468  1.00  0.00     0.055 A 
ATOM     80  C   UNL     1     -15.040   6.421  -8.399  1.00  0.00     0.041 A 
ATOM     81  F   UNL     1     -13.391   8.084  -8.291  1.00  0.00    -0.206 F 
ATOM     82  C   UNL     1     -16.008   5.725  -9.117  1.00  0.00     0.022 A 
BRANCH  79  83
ATOM     83  S   UNL     1     -17.528   5.216 -11.399  1.00  0.00     0.124 S 
ATOM     84  O   UNL     1     -18.329   6.357 -11.824  1.00  0.00    -0.237 OA
ATOM     85  O   UNL     1     -16.786   4.525 -12.448  1.00  0.00    -0.237 OA
ATOM     86  O   UNL     1     -18.156   4.345 -10.407  1.00  0.00    -0.744 OA
ENDBRANCH  79  83
ENDBRANCH  52  76
BRANCH  64  87
ATOM     87  C   UNL     1     -16.214  13.835 -13.252  1.00  0.00     0.023 A 
ATOM     88  C   UNL     1     -17.047  14.253 -12.200  1.00  0.00     0.031 A 
ATOM     89  C   UNL     1     -16.669  14.017 -14.570  1.00  0.00     0.131 A 
ATOM     90  C   UNL     1     -18.318  14.778 -12.482  1.00  0.00     0.055 A 
ATOM     91  C   UNL     1     -17.907  14.597 -14.846  1.00  0.00     0.041 A 
ATOM     92  F   UNL     1     -15.914  13.634 -15.612  1.00  0.00    -0.206 F 
ATOM     93  C   UNL     1     -18.746  14.968 -13.798  1.00  0.00     0.022 A 
BRANCH  90  94
ATOM     94  S   UNL     1     -19.445  15.118 -11.102  1.00  0.00     0.124 S 
ATOM     95  O   UNL     1     -19.547  13.810 -10.464  1.00  0.00    -0.237 OA
ATOM     96  O   UNL     1     -18.721  16.139 -10.352  1.00  0.00    -0.237 OA
ATOM     97  O   UNL     1     -20.664  15.583 -11.762  1.00  0.00    -0.744 OA
ENDBRANCH  90  94
ENDBRANCH  64  87
ENDBRANCH  38  39
ENDBRANCH  30  33
ENDBRANCH  28  29
ENDBRANCH  27  28
ENDBRANCH   1  27
TORSDOF 17
