REMARK SMILES O=C(NCCCNC(=O)[C@@H]1CN(c2nc(-c3ccccc3)no2)CC[NH2+]1)c1ccc(-c2c3nc(c(-c4cc(S(=O)(=O)[O-])ccc4F)c4ccc([nH]4)c(-c4cc(S(=O)(=O)[O-])ccc4F)c4nc(c(-c5cc(S(=O)(=O)[O-])ccc5F)c5ccc2[nH]5)C=C4)C=C3)cc1
REMARK SMILES IDX 4 1 3 2 1 3 2 4 27 6 28 7 89 8 29 9 88 10 30 11 31 12 32 13
REMARK SMILES IDX 82 14 33 15 87 16 81 17 83 18 34 19 86 20 80 21 79 22 35 24
REMARK SMILES IDX 67 25 47 26 66 27 48 28 51 29 65 30 84 31 49 32 50 33 64 35
REMARK SMILES IDX 85 36 52 37 36 38 37 39 45 40 38 41 44 42 46 43 43 44 39 45
REMARK SMILES IDX 40 46 41 47 42 48 68 49 69 50 77 51 70 52 76 53 78 54 75 55
REMARK SMILES IDX 71 56 72 57 73 58 74 59 53 60 54 61 62 62 55 63 61 64 63 65
REMARK SMILES IDX 60 66 56 67 57 68 58 69 59 70 5 71 6 72 7 73 8 74 9 76 10 77
REMARK SMILES IDX 11 78 26 79 12 80 25 81 24 84 13 85 14 86 23 87 15 88 22 89
REMARK SMILES IDX 16 90 17 91 21 92 18 93 20 94 19 95
REMARK H PARENT 3 5 83 23 51 34 7 75 26 82 26 83
REMARK Flexibility Score: inf
ROOT
ATOM      1  C   UNL     1       4.287   1.201  -0.994  1.00  0.00     0.118 C 
ENDROOT
BRANCH   1   2
ATOM      2  N   UNL     1       2.901   1.077  -0.552  1.00  0.00    -0.352 N 
ATOM      3  O   UNL     1       1.067   0.049   0.243  1.00  0.00    -0.269 OA
ATOM      4  C   UNL     1       2.290   0.080   0.174  1.00  0.00     0.251 C 
ATOM      5  H   UNL     1       2.313   1.822  -0.814  1.00  0.00     0.163 HD
BRANCH   4   6
ATOM      6  C   UNL     1       3.103  -0.946   0.868  1.00  0.00     0.039 A 
ATOM      7  C   UNL     1       4.282  -0.588   1.521  1.00  0.00     0.014 A 
ATOM      8  C   UNL     1       2.657  -2.272   0.912  1.00  0.00     0.014 A 
ATOM      9  C   UNL     1       5.087  -1.570   2.083  1.00  0.00     0.010 A 
ATOM     10  C   UNL     1       3.419  -3.245   1.573  1.00  0.00     0.010 A 
ATOM     11  C   UNL     1       4.652  -2.905   2.147  1.00  0.00    -0.014 A 
BRANCH  11  12
ATOM     12  C   UNL     1       5.486  -3.879   2.900  1.00  0.00     0.031 A 
ATOM     13  C   UNL     1       6.145  -5.044   2.216  1.00  0.00     0.074 A 
ATOM     14  C   UNL     1       5.707  -3.641   4.209  1.00  0.00     0.049 A 
ATOM     15  N   UNL     1       6.970  -5.929   2.715  1.00  0.00    -0.248 NA
ATOM     16  C   UNL     1       5.832  -5.252   0.795  1.00  0.00     0.031 C 
ATOM     17  C   UNL     1       5.099  -2.546   4.974  1.00  0.00     0.029 A 
ATOM     18  N   UNL     1       6.526  -4.259   5.117  1.00  0.00    -0.354 N 
ATOM     19  C   UNL     1       7.274  -6.801   1.675  1.00  0.00     0.074 A 
ATOM     20  C   UNL     1       6.511  -6.359   0.526  1.00  0.00     0.031 C 
ATOM     21  C   UNL     1       5.622  -2.525   6.207  1.00  0.00     0.029 A 
ATOM     22  C   UNL     1       6.540  -3.647   6.351  1.00  0.00     0.049 A 
ATOM     23  H   UNL     1       7.053  -5.064   4.908  1.00  0.00     0.167 HD
ATOM     24  C   UNL     1       8.119  -7.863   1.680  1.00  0.00     0.034 A 
ATOM     25  C   UNL     1       7.205  -3.960   7.479  1.00  0.00     0.034 A 
ATOM     26  C   UNL     1       8.867  -8.289   2.842  1.00  0.00     0.049 A 
ATOM     27  C   UNL     1       8.125  -5.150   7.456  1.00  0.00     0.074 A 
ATOM     28  C   UNL     1       9.745  -9.353   2.962  1.00  0.00     0.029 A 
ATOM     29  N   UNL     1       8.825  -7.672   4.087  1.00  0.00    -0.354 N 
ATOM     30  N   UNL     1       8.399  -5.961   6.459  1.00  0.00    -0.248 NA
ATOM     31  C   UNL     1       8.828  -5.464   8.704  1.00  0.00     0.031 C 
ATOM     32  C   UNL     1      10.188  -9.414   4.289  1.00  0.00     0.029 A 
ATOM     33  C   UNL     1       9.644  -8.346   4.983  1.00  0.00     0.049 A 
ATOM     34  H   UNL     1       8.292  -6.873   4.302  1.00  0.00     0.167 HD
ATOM     35  C   UNL     1       9.309  -6.883   6.964  1.00  0.00     0.074 A 
ATOM     36  C   UNL     1       9.572  -6.495   8.336  1.00  0.00     0.031 C 
ATOM     37  C   UNL     1       9.868  -7.961   6.357  1.00  0.00     0.034 A 
BRANCH  24  38
ATOM     38  C   UNL     1       8.248  -8.660   0.403  1.00  0.00     0.023 A 
ATOM     39  C   UNL     1       8.810  -8.107  -0.762  1.00  0.00     0.031 A 
ATOM     40  C   UNL     1       7.802  -9.993   0.348  1.00  0.00     0.131 A 
ATOM     41  C   UNL     1       8.862  -8.864  -1.943  1.00  0.00     0.055 A 
ATOM     42  C   UNL     1       7.921 -10.764  -0.810  1.00  0.00     0.041 A 
ATOM     43  F   UNL     1       7.238 -10.569   1.422  1.00  0.00    -0.206 F 
ATOM     44  C   UNL     1       8.444 -10.197  -1.968  1.00  0.00     0.022 A 
BRANCH  41  45
ATOM     45  S   UNL     1       9.381  -8.049  -3.478  1.00  0.00     0.124 S 
ATOM     46  O   UNL     1       8.370  -7.002  -3.612  1.00  0.00    -0.237 OA
ATOM     47  O   UNL     1      10.729  -7.597  -3.157  1.00  0.00    -0.237 OA
ATOM     48  O   UNL     1       9.300  -9.113  -4.477  1.00  0.00    -0.744 OA
ENDBRANCH  41  45
ENDBRANCH  24  38
BRANCH  25  49
ATOM     49  C   UNL     1       6.993  -3.169   8.725  1.00  0.00     0.023 A 
ATOM     50  C   UNL     1       8.046  -2.480   9.345  1.00  0.00     0.031 A 
ATOM     51  C   UNL     1       5.727  -3.125   9.340  1.00  0.00     0.131 A 
ATOM     52  C   UNL     1       7.827  -1.817  10.563  1.00  0.00     0.055 A 
ATOM     53  C   UNL     1       5.499  -2.412  10.516  1.00  0.00     0.041 A 
ATOM     54  F   UNL     1       4.682  -3.766   8.790  1.00  0.00    -0.206 F 
ATOM     55  C   UNL     1       6.558  -1.765  11.144  1.00  0.00     0.022 A 
BRANCH  52  56
ATOM     56  S   UNL     1       9.251  -1.110  11.437  1.00  0.00     0.124 S 
ATOM     57  O   UNL     1      10.145  -2.259  11.531  1.00  0.00    -0.237 OA
ATOM     58  O   UNL     1       9.665  -0.047  10.527  1.00  0.00    -0.237 OA
ATOM     59  O   UNL     1       8.681  -0.657  12.704  1.00  0.00    -0.744 OA
ENDBRANCH  52  56
ENDBRANCH  25  49
BRANCH  37  60
ATOM     60  C   UNL     1      10.825  -8.775   7.192  1.00  0.00     0.023 A 
ATOM     61  C   UNL     1      10.385  -9.486   8.323  1.00  0.00     0.031 A 
ATOM     62  C   UNL     1      12.197  -8.793   6.890  1.00  0.00     0.131 A 
ATOM     63  C   UNL     1      11.317 -10.119   9.156  1.00  0.00     0.055 A 
ATOM     64  C   UNL     1      13.113  -9.481   7.687  1.00  0.00     0.041 A 
ATOM     65  F   UNL     1      12.672  -8.130   5.824  1.00  0.00    -0.206 F 
ATOM     66  C   UNL     1      12.678 -10.133   8.838  1.00  0.00     0.022 A 
BRANCH  63  67
ATOM     67  S   UNL     1      10.742 -10.816  10.729  1.00  0.00     0.124 S 
ATOM     68  O   UNL     1      10.131  -9.656  11.370  1.00  0.00    -0.237 OA
ATOM     69  O   UNL     1       9.822 -11.860  10.289  1.00  0.00    -0.237 OA
ATOM     70  O   UNL     1      11.970 -11.298  11.360  1.00  0.00    -0.744 OA
ENDBRANCH  63  67
ENDBRANCH  37  60
ENDBRANCH  11  12
ENDBRANCH   4   6
ENDBRANCH   1   2
BRANCH   1  71
ATOM     71  C   UNL     1       4.407   1.185  -2.517  1.00  0.00     0.042 C 
BRANCH  71  72
ATOM     72  C   UNL     1       3.897   2.471  -3.164  1.00  0.00     0.118 C 
BRANCH  72  73
ATOM     73  N   UNL     1       4.825   3.568  -2.956  1.00  0.00    -0.351 N 
ATOM     74  C   UNL     1       5.883   4.042  -3.673  1.00  0.00     0.280 C 
ATOM     75  H   UNL     1       4.657   4.071  -2.127  1.00  0.00     0.163 HD
ATOM     76  O   UNL     1       6.523   4.956  -3.138  1.00  0.00    -0.268 OA
BRANCH  74  77
ATOM     77  C   UNL     1       6.199   3.636  -5.126  1.00  0.00     0.292 C 
ATOM     78  C   UNL     1       5.298   4.497  -6.043  1.00  0.00     0.197 C 
ATOM     79  N   UNL     1       6.170   2.164  -5.364  1.00  0.00    -0.333 N 
ATOM     80  N   UNL     1       5.332   4.059  -7.440  1.00  0.00    -0.312 N 
ATOM     81  C   UNL     1       6.318   1.897  -6.810  1.00  0.00     0.283 C 
ATOM     82  H   UNL     1       5.282   1.784  -5.037  1.00  0.00     0.347 HD
ATOM     83  H   UNL     1       6.937   1.722  -4.856  1.00  0.00     0.347 HD
ATOM     84  C   UNL     1       5.249   2.618  -7.666  1.00  0.00     0.183 C 
BRANCH  80  85
ATOM     85  C   UNL     1       5.914   4.824  -8.387  1.00  0.00     0.324 A 
ATOM     86  N   UNL     1       6.932   5.646  -8.310  1.00  0.00    -0.171 NA
ATOM     87  O   UNL     1       5.388   4.748  -9.649  1.00  0.00    -0.315 OA
ATOM     88  C   UNL     1       7.071   6.071  -9.614  1.00  0.00     0.204 A 
ATOM     89  N   UNL     1       6.137   5.603 -10.454  1.00  0.00    -0.055 NA
BRANCH  88  90
ATOM     90  C   UNL     1       8.196   6.862 -10.076  1.00  0.00     0.023 A 
ATOM     91  C   UNL     1       7.993   8.090 -10.719  1.00  0.00     0.012 A 
ATOM     92  C   UNL     1       9.497   6.355  -9.957  1.00  0.00     0.012 A 
ATOM     93  C   UNL     1       9.079   8.799 -11.241  1.00  0.00     0.001 A 
ATOM     94  C   UNL     1      10.578   7.057 -10.494  1.00  0.00     0.001 A 
ATOM     95  C   UNL     1      10.368   8.277 -11.136  1.00  0.00     0.000 A 
ENDBRANCH  88  90
ENDBRANCH  80  85
ENDBRANCH  74  77
ENDBRANCH  72  73
ENDBRANCH  71  72
ENDBRANCH   1  71
TORSDOF 15
