REMARK SMILES CCc1cc(OC(F)(F)F)cc2c1O[C@@H](C(F)(F)F)C(C(=O)NCCCNC(=O)c1ccc(-c3c4nc(c(-c5cc(S(=O)(=O)[O-])ccc5F)c5ccc([nH]5)c(-c5cc(S(=O)(=O)[O-])ccc5F)c5nc(c(-c6cc(S(=O)(=O)[O-])ccc6F)c6ccc3[nH]6)C=C5)C=C4)cc1)=C2
REMARK SMILES IDX 25 1 24 2 23 3 21 4 22 5 20 7 3 8 4 9 13 10 5 11 12 12 14 13
REMARK SMILES IDX 11 14 93 15 15 16 2 17 1 18 6 19 7 20 8 21 9 22 10 23 16 24
REMARK SMILES IDX 17 25 18 26 19 27 26 28 27 29 28 30 29 32 30 33 31 34 92 35
REMARK SMILES IDX 32 36 91 37 33 38 34 39 35 40 85 41 36 42 90 43 84 44 86 45
REMARK SMILES IDX 37 46 89 47 83 48 82 49 38 51 70 52 50 53 69 54 51 55 54 56
REMARK SMILES IDX 68 57 87 58 52 59 53 60 67 62 88 63 55 64 39 65 40 66 48 67
REMARK SMILES IDX 41 68 47 69 49 70 46 71 42 72 43 73 44 74 45 75 71 76 72 77
REMARK SMILES IDX 80 78 73 79 79 80 81 81 78 82 74 83 75 84 76 85 77 86 56 87
REMARK SMILES IDX 57 88 65 89 58 90 64 91 66 92 63 93 59 94 60 95 61 96 62 97
REMARK H PARENT 23 6 27 31 86 50 54 61
REMARK Flexibility Score: inf
ROOT
ATOM      1  C   UNL     1       2.781   5.689  -7.268  1.00  0.00     0.042 C 
ENDROOT
BRANCH   1   2
ATOM      2  C   UNL     1       3.255   6.009  -5.847  1.00  0.00     0.118 C 
BRANCH   2   3
ATOM      3  N   UNL     1       2.248   6.773  -5.125  1.00  0.00    -0.352 N 
ATOM      4  C   UNL     1       1.245   6.419  -4.281  1.00  0.00     0.251 C 
ATOM      5  O   UNL     1       0.469   7.296  -3.908  1.00  0.00    -0.270 OA
ATOM      6  H   UNL     1       2.307   7.743  -5.280  1.00  0.00     0.163 HD
BRANCH   4   7
ATOM      7  C   UNL     1       1.092   5.046  -3.733  1.00  0.00     0.067 C 
ATOM      8  C   UNL     1       0.814   1.282  -1.856  1.00  0.00    -0.002 A 
ATOM      9  C   UNL     1       1.075   0.130  -2.624  1.00  0.00     0.054 A 
ATOM     10  C   UNL     1       0.874   2.539  -2.487  1.00  0.00     0.131 A 
ATOM     11  C   UNL     1       1.424   0.227  -3.974  1.00  0.00     0.130 A 
ATOM     12  C   UNL     1       1.207   2.641  -3.836  1.00  0.00     0.021 A 
ATOM     13  O   UNL     1       0.655   3.641  -1.711  1.00  0.00    -0.475 OA
ATOM     14  C   UNL     1       1.481   1.485  -4.573  1.00  0.00     0.058 A 
ATOM     15  C   UNL     1       1.346   3.948  -4.456  1.00  0.00     0.025 C 
ATOM     16  C   UNL     1       0.462   4.936  -2.349  1.00  0.00     0.314 C 
BRANCH   8  17
ATOM     17  C   UNL     1       0.415   1.195  -0.394  1.00  0.00     0.036 C 
ATOM     18  C   UNL     1       0.875  -0.045   0.364  1.00  0.00     0.009 C 
ENDBRANCH   8  17
BRANCH  11  19
ATOM     19  O   UNL     1       1.738  -0.805  -4.811  1.00  0.00    -0.406 OA
BRANCH  19  20
ATOM     20  C   UNL     1       1.756  -2.116  -4.277  1.00  0.00     0.573 C 
ATOM     21  F   UNL     1       2.640  -2.219  -3.261  1.00  0.00    -0.132 F 
ATOM     22  F   UNL     1       0.530  -2.480  -3.843  1.00  0.00    -0.132 F 
ATOM     23  F   UNL     1       2.133  -2.978  -5.247  1.00  0.00    -0.132 F 
ENDBRANCH  19  20
ENDBRANCH  11  19
BRANCH  16  24
ATOM     24  C   UNL     1       0.880   6.007  -1.315  1.00  0.00     0.429 C 
ATOM     25  F   UNL     1       0.161   7.147  -1.410  1.00  0.00    -0.167 F 
ATOM     26  F   UNL     1       0.674   5.560  -0.044  1.00  0.00    -0.167 F 
ATOM     27  F   UNL     1       2.192   6.326  -1.402  1.00  0.00    -0.167 F 
ENDBRANCH  16  24
ENDBRANCH   4   7
ENDBRANCH   2   3
ENDBRANCH   1   2
BRANCH   1  28
ATOM     28  C   UNL     1       2.818   6.894  -8.207  1.00  0.00     0.118 C 
BRANCH  28  29
ATOM     29  N   UNL     1       4.181   7.270  -8.545  1.00  0.00    -0.352 N 
ATOM     30  C   UNL     1       4.792   7.361  -9.772  1.00  0.00     0.251 C 
ATOM     31  H   UNL     1       4.755   7.494  -7.777  1.00  0.00     0.163 HD
ATOM     32  O   UNL     1       6.016   7.447  -9.819  1.00  0.00    -0.269 OA
BRANCH  30  33
ATOM     33  C   UNL     1       3.997   7.343 -11.023  1.00  0.00     0.039 A 
ATOM     34  C   UNL     1       4.505   6.657 -12.130  1.00  0.00     0.014 A 
ATOM     35  C   UNL     1       2.792   8.043 -11.131  1.00  0.00     0.014 A 
ATOM     36  C   UNL     1       3.784   6.633 -13.328  1.00  0.00     0.010 A 
ATOM     37  C   UNL     1       2.044   7.966 -12.306  1.00  0.00     0.010 A 
ATOM     38  C   UNL     1       2.534   7.266 -13.419  1.00  0.00    -0.014 A 
BRANCH  38  39
ATOM     39  C   UNL     1       1.734   7.215 -14.671  1.00  0.00     0.031 A 
ATOM     40  C   UNL     1       1.454   8.477 -15.442  1.00  0.00     0.074 A 
ATOM     41  C   UNL     1       1.211   6.042 -15.080  1.00  0.00     0.049 A 
ATOM     42  N   UNL     1       0.709   8.652 -16.504  1.00  0.00    -0.248 NA
ATOM     43  C   UNL     1       2.072   9.709 -14.932  1.00  0.00     0.031 C 
ATOM     44  C   UNL     1       1.386   4.757 -14.398  1.00  0.00     0.029 A 
ATOM     45  N   UNL     1       0.417   5.739 -16.158  1.00  0.00    -0.354 N 
ATOM     46  C   UNL     1       0.755  10.015 -16.781  1.00  0.00     0.074 A 
ATOM     47  C   UNL     1       1.557  10.624 -15.740  1.00  0.00     0.031 C 
ATOM     48  C   UNL     1       0.736   3.804 -15.083  1.00  0.00     0.029 A 
ATOM     49  C   UNL     1       0.059   4.412 -16.225  1.00  0.00     0.049 A 
ATOM     50  H   UNL     1       0.131   6.408 -16.821  1.00  0.00     0.167 HD
ATOM     51  C   UNL     1       0.198  10.691 -17.818  1.00  0.00     0.034 A 
ATOM     52  C   UNL     1      -0.736   3.761 -17.097  1.00  0.00     0.034 A 
ATOM     53  C   UNL     1      -0.588  10.063 -18.854  1.00  0.00     0.049 A 
ATOM     54  C   UNL     1      -1.362   4.536 -18.229  1.00  0.00     0.074 A 
ATOM     55  C   UNL     1      -1.154  10.642 -19.977  1.00  0.00     0.029 A 
ATOM     56  N   UNL     1      -0.926   8.716 -18.891  1.00  0.00    -0.354 N 
ATOM     57  N   UNL     1      -1.272   5.817 -18.502  1.00  0.00    -0.248 NA
ATOM     58  C   UNL     1      -2.187   3.775 -19.175  1.00  0.00     0.031 C 
ATOM     59  C   UNL     1      -1.887   9.661 -20.655  1.00  0.00     0.029 A 
ATOM     60  C   UNL     1      -1.717   8.452 -20.000  1.00  0.00     0.049 A 
ATOM     61  H   UNL     1      -0.645   8.046 -18.227  1.00  0.00     0.167 HD
ATOM     62  C   UNL     1      -2.004   6.008 -19.670  1.00  0.00     0.074 A 
ATOM     63  C   UNL     1      -2.516   4.709 -20.055  1.00  0.00     0.031 C 
ATOM     64  C   UNL     1      -2.230   7.152 -20.365  1.00  0.00     0.034 A 
BRANCH  51  65
ATOM     65  C   UNL     1       0.398  12.188 -17.859  1.00  0.00     0.023 A 
ATOM     66  C   UNL     1       1.676  12.760 -17.985  1.00  0.00     0.031 A 
ATOM     67  C   UNL     1      -0.702  13.058 -17.744  1.00  0.00     0.131 A 
ATOM     68  C   UNL     1       1.832  14.153 -17.913  1.00  0.00     0.055 A 
ATOM     69  C   UNL     1      -0.548  14.446 -17.758  1.00  0.00     0.041 A 
ATOM     70  F   UNL     1      -1.945  12.573 -17.602  1.00  0.00    -0.206 F 
ATOM     71  C   UNL     1       0.726  15.001 -17.825  1.00  0.00     0.022 A 
BRANCH  68  72
ATOM     72  S   UNL     1       3.510  14.831 -17.785  1.00  0.00     0.124 S 
ATOM     73  O   UNL     1       3.997  14.183 -16.570  1.00  0.00    -0.237 OA
ATOM     74  O   UNL     1       4.123  14.392 -19.033  1.00  0.00    -0.237 OA
ATOM     75  O   UNL     1       3.290  16.271 -17.669  1.00  0.00    -0.744 OA
ENDBRANCH  68  72
ENDBRANCH  51  65
BRANCH  52  76
ATOM     76  C   UNL     1      -0.999   2.303 -16.935  1.00  0.00     0.023 A 
ATOM     77  C   UNL     1      -0.559   1.378 -17.895  1.00  0.00     0.031 A 
ATOM     78  C   UNL     1      -1.728   1.816 -15.835  1.00  0.00     0.131 A 
ATOM     79  C   UNL     1      -0.889   0.021 -17.761  1.00  0.00     0.055 A 
ATOM     80  C   UNL     1      -2.009   0.457 -15.680  1.00  0.00     0.041 A 
ATOM     81  F   UNL     1      -2.166   2.657 -14.885  1.00  0.00    -0.206 F 
ATOM     82  C   UNL     1      -1.600  -0.448 -16.654  1.00  0.00     0.022 A 
BRANCH  79  83
ATOM     83  S   UNL     1      -0.443  -1.117 -19.102  1.00  0.00     0.124 S 
ATOM     84  O   UNL     1      -1.123  -0.513 -20.242  1.00  0.00    -0.237 OA
ATOM     85  O   UNL     1       1.013  -1.028 -19.101  1.00  0.00    -0.237 OA
ATOM     86  O   UNL     1      -0.987  -2.398 -18.656  1.00  0.00    -0.744 OA
ENDBRANCH  79  83
ENDBRANCH  52  76
BRANCH  64  87
ATOM     87  C   UNL     1      -3.031   7.032 -21.638  1.00  0.00     0.023 A 
ATOM     88  C   UNL     1      -4.393   6.685 -21.627  1.00  0.00     0.031 A 
ATOM     89  C   UNL     1      -2.414   7.255 -22.883  1.00  0.00     0.131 A 
ATOM     90  C   UNL     1      -5.080   6.516 -22.838  1.00  0.00     0.055 A 
ATOM     91  C   UNL     1      -3.119   7.143 -24.082  1.00  0.00     0.041 A 
ATOM     92  F   UNL     1      -1.115   7.586 -22.952  1.00  0.00    -0.206 F 
ATOM     93  C   UNL     1      -4.456   6.759 -24.065  1.00  0.00     0.022 A 
BRANCH  90  94
ATOM     94  S   UNL     1      -6.780   5.883 -22.794  1.00  0.00     0.124 S 
ATOM     95  O   UNL     1      -6.610   4.603 -22.116  1.00  0.00    -0.237 OA
ATOM     96  O   UNL     1      -7.479   6.918 -22.039  1.00  0.00    -0.237 OA
ATOM     97  O   UNL     1      -7.149   5.793 -24.206  1.00  0.00    -0.744 OA
ENDBRANCH  90  94
ENDBRANCH  64  87
ENDBRANCH  38  39
ENDBRANCH  30  33
ENDBRANCH  28  29
ENDBRANCH   1  28
TORSDOF 17
