REMARK SMILES O=C(N/N=C/c1ccccc1O)C(=O)Nc1cccc(C(=O)NCCCNC(=O)c2ccc(-c3c4nc(c(-c5cc(S(=O)(=O)[O-])ccc5F)c5ccc([nH]5)c(-c5cc(S(=O)(=O)[O-])ccc5F)c5nc(c(-c6cc(S(=O)(=O)[O-])ccc6F)c6ccc3[nH]6)C=C5)C=C4)cc2)c1
REMARK SMILES IDX 24 1 23 2 21 3 22 4 20 6 16 7 17 8 93 9 18 10 19 11 15 12
REMARK SMILES IDX 13 13 14 14 2 16 1 17 3 18 4 20 5 21 6 22 7 23 11 24 8 25
REMARK SMILES IDX 10 26 9 27 12 28 25 30 26 31 27 32 28 33 29 35 30 36 31 37
REMARK SMILES IDX 92 38 32 39 91 40 33 41 34 42 35 43 85 44 36 45 90 46 84 47
REMARK SMILES IDX 86 48 37 49 89 50 83 51 82 52 38 54 70 55 50 56 69 57 51 58
REMARK SMILES IDX 54 59 68 60 87 61 52 62 53 63 67 65 88 66 55 67 39 68 40 69
REMARK SMILES IDX 48 70 41 71 47 72 49 73 46 74 42 75 43 76 44 77 45 78 71 79
REMARK SMILES IDX 72 80 80 81 73 82 79 83 81 84 78 85 74 86 75 87 76 88 77 89
REMARK SMILES IDX 56 90 57 91 65 92 58 93 64 94 66 95 63 96 59 97 60 98 61 99
REMARK SMILES IDX 62 100
REMARK H PARENT 23 5 15 15 3 19 12 29 27 34 86 53 54 64
REMARK Flexibility Score: inf
ROOT
ATOM      1  C   UNL     1       2.905   1.190   3.320  1.00  0.00     0.118 C 
ENDROOT
BRANCH   1   2
ATOM      2  N   UNL     1       4.136   1.879   3.664  1.00  0.00    -0.352 N 
ATOM      3  C   UNL     1       5.234   2.173   2.896  1.00  0.00     0.251 C 
ATOM      4  O   UNL     1       6.064   2.987   3.307  1.00  0.00    -0.269 OA
ATOM      5  H   UNL     1       4.192   2.185   4.598  1.00  0.00     0.163 HD
BRANCH   3   6
ATOM      6  C   UNL     1       5.533   1.521   1.598  1.00  0.00     0.041 A 
ATOM      7  C   UNL     1       5.246  -0.811  -0.516  1.00  0.00     0.042 A 
ATOM      8  C   UNL     1       6.016   0.237  -1.804  1.00  0.00     0.026 A 
ATOM      9  C   UNL     1       5.071  -0.214   1.196  1.00  0.00     0.040 A 
ATOM     10  C   UNL     1       6.668   1.891  -1.337  1.00  0.00     0.003 A 
ATOM     11  C   UNL     1       6.381   2.532   0.339  1.00  0.00     0.014 A 
BRANCH   7  12
ATOM     12  N   UNL     1       4.294  -1.702  -0.992  1.00  0.00    -0.318 N 
ATOM     13  C   UNL     1       2.952  -1.428  -1.238  1.00  0.00     0.315 C 
ATOM     14  O   UNL     1       2.344  -2.260  -1.921  1.00  0.00    -0.263 OA
ATOM     15  H   UNL     1       4.599  -2.620  -1.174  1.00  0.00     0.170 HD
BRANCH  13  16
ATOM     16  C   UNL     1       2.159  -0.164  -0.807  1.00  0.00     0.329 C 
ATOM     17  O   UNL     1       0.935  -0.256  -0.691  1.00  0.00    -0.262 OA
ATOM     18  N   UNL     1       2.737   1.104  -0.689  1.00  0.00    -0.239 N 
ATOM     19  H   UNL     1       2.416   1.862  -1.229  1.00  0.00     0.194 HD
BRANCH  18  20
ATOM     20  N   UNL     1       3.760   1.255   0.197  1.00  0.00    -0.180 NA
ATOM     21  C   UNL     1       5.028   1.169  -0.334  1.00  0.00     0.145 C 
BRANCH  21  22
ATOM     22  C   UNL     1       6.920   0.410   0.256  1.00  0.00     0.036 A 
ATOM     23  C   UNL     1       7.951  -0.336  -0.602  1.00  0.00     0.013 A 
ATOM     24  C   UNL     1       7.741   0.453   1.550  1.00  0.00     0.124 A 
ATOM     25  C   UNL     1       9.340  -0.594  -0.410  1.00  0.00     0.001 A 
ATOM     26  C   UNL     1       9.155   0.259   1.739  1.00  0.00     0.047 A 
ATOM     27  C   UNL     1       9.965  -0.208   0.739  1.00  0.00     0.004 A 
BRANCH  24  28
ATOM     28  O   UNL     1       7.214   0.475   2.845  1.00  0.00    -0.507 OA
ATOM     29  H   UNL     1       6.293   0.593   2.974  1.00  0.00     0.293 HD
ENDBRANCH  24  28
ENDBRANCH  21  22
ENDBRANCH  18  20
ENDBRANCH  13  16
ENDBRANCH   7  12
ENDBRANCH   3   6
ENDBRANCH   1   2
BRANCH   1  30
ATOM     30  C   UNL     1       2.748  -0.159   4.013  1.00  0.00     0.042 C 
BRANCH  30  31
ATOM     31  C   UNL     1       2.213  -0.064   5.436  1.00  0.00     0.118 C 
BRANCH  31  32
ATOM     32  N   UNL     1       0.835   0.405   5.484  1.00  0.00    -0.352 N 
ATOM     33  C   UNL     1      -0.268  -0.122   6.108  1.00  0.00     0.251 C 
ATOM     34  H   UNL     1       0.667   1.238   4.987  1.00  0.00     0.163 HD
ATOM     35  O   UNL     1      -1.370   0.369   5.873  1.00  0.00    -0.269 OA
BRANCH  33  36
ATOM     36  C   UNL     1      -0.153  -1.271   7.037  1.00  0.00     0.039 A 
ATOM     37  C   UNL     1      -1.177  -2.225   7.049  1.00  0.00     0.014 A 
ATOM     38  C   UNL     1       0.912  -1.389   7.933  1.00  0.00     0.014 A 
ATOM     39  C   UNL     1      -1.112  -3.312   7.926  1.00  0.00     0.010 A 
ATOM     40  C   UNL     1       1.014  -2.510   8.755  1.00  0.00     0.010 A 
ATOM     41  C   UNL     1      -0.007  -3.472   8.774  1.00  0.00    -0.014 A 
BRANCH  41  42
ATOM     42  C   UNL     1       0.074  -4.609   9.726  1.00  0.00     0.031 A 
ATOM     43  C   UNL     1       0.037  -4.346  11.208  1.00  0.00     0.074 A 
ATOM     44  C   UNL     1       0.244  -5.862   9.263  1.00  0.00     0.049 A 
ATOM     45  N   UNL     1       0.169  -5.184  12.204  1.00  0.00    -0.248 NA
ATOM     46  C   UNL     1      -0.131  -2.945  11.620  1.00  0.00     0.031 C 
ATOM     47  C   UNL     1       0.348  -6.236   7.851  1.00  0.00     0.029 A 
ATOM     48  N   UNL     1       0.369  -7.052   9.933  1.00  0.00    -0.354 N 
ATOM     49  C   UNL     1       0.138  -4.409  13.359  1.00  0.00     0.074 A 
ATOM     50  C   UNL     1       0.022  -3.030  12.933  1.00  0.00     0.031 C 
ATOM     51  C   UNL     1       0.498  -7.568   7.761  1.00  0.00     0.029 A 
ATOM     52  C   UNL     1       0.528  -8.137   9.104  1.00  0.00     0.049 A 
ATOM     53  H   UNL     1       0.346  -7.122  10.915  1.00  0.00     0.167 HD
ATOM     54  C   UNL     1       0.182  -4.810  14.654  1.00  0.00     0.034 A 
ATOM     55  C   UNL     1       0.680  -9.443   9.397  1.00  0.00     0.034 A 
ATOM     56  C   UNL     1       0.249  -6.192  15.062  1.00  0.00     0.049 A 
ATOM     57  C   UNL     1       0.674  -9.873  10.839  1.00  0.00     0.074 A 
ATOM     58  C   UNL     1       0.209  -6.721  16.341  1.00  0.00     0.029 A 
ATOM     59  N   UNL     1       0.368  -7.268  14.192  1.00  0.00    -0.354 N 
ATOM     60  N   UNL     1       0.590  -9.134  11.921  1.00  0.00    -0.248 NA
ATOM     61  C   UNL     1       0.770 -11.316  11.097  1.00  0.00     0.031 C 
ATOM     62  C   UNL     1       0.345  -8.112  16.246  1.00  0.00     0.029 A 
ATOM     63  C   UNL     1       0.422  -8.455  14.905  1.00  0.00     0.049 A 
ATOM     64  H   UNL     1       0.409  -7.198  13.211  1.00  0.00     0.167 HD
ATOM     65  C   UNL     1       0.596 -10.025  12.988  1.00  0.00     0.074 A 
ATOM     66  C   UNL     1       0.689 -11.356  12.420  1.00  0.00     0.031 C 
ATOM     67  C   UNL     1       0.524  -9.769  14.319  1.00  0.00     0.034 A 
BRANCH  54  68
ATOM     68  C   UNL     1       0.189  -3.731  15.710  1.00  0.00     0.023 A 
ATOM     69  C   UNL     1      -0.897  -2.854  15.877  1.00  0.00     0.031 A 
ATOM     70  C   UNL     1       1.323  -3.537  16.518  1.00  0.00     0.131 A 
ATOM     71  C   UNL     1      -0.790  -1.768  16.760  1.00  0.00     0.055 A 
ATOM     72  C   UNL     1       1.390  -2.504  17.455  1.00  0.00     0.041 A 
ATOM     73  F   UNL     1       2.397  -4.332  16.391  1.00  0.00    -0.206 F 
ATOM     74  C   UNL     1       0.337  -1.600  17.567  1.00  0.00     0.022 A 
BRANCH  71  75
ATOM     75  S   UNL     1      -2.078  -0.491  16.719  1.00  0.00     0.124 S 
ATOM     76  O   UNL     1      -2.002  -0.042  15.331  1.00  0.00    -0.237 OA
ATOM     77  O   UNL     1      -3.275  -1.239  17.085  1.00  0.00    -0.237 OA
ATOM     78  O   UNL     1      -1.625   0.485  17.708  1.00  0.00    -0.744 OA
ENDBRANCH  71  75
ENDBRANCH  54  68
BRANCH  55  79
ATOM     79  C   UNL     1       0.834 -10.441   8.306  1.00  0.00     0.023 A 
ATOM     80  C   UNL     1      -0.199 -11.342   8.008  1.00  0.00     0.031 A 
ATOM     81  C   UNL     1       2.021 -10.516   7.558  1.00  0.00     0.131 A 
ATOM     82  C   UNL     1      -0.015 -12.306   7.005  1.00  0.00     0.055 A 
ATOM     83  C   UNL     1       2.187 -11.455   6.539  1.00  0.00     0.041 A 
ATOM     84  F   UNL     1       3.031  -9.666   7.800  1.00  0.00    -0.206 F 
ATOM     85  C   UNL     1       1.168 -12.364   6.264  1.00  0.00     0.022 A 
BRANCH  82  86
ATOM     86  S   UNL     1      -1.331 -13.519   6.715  1.00  0.00     0.124 S 
ATOM     87  O   UNL     1      -1.431 -14.169   8.017  1.00  0.00    -0.237 OA
ATOM     88  O   UNL     1      -2.452 -12.664   6.336  1.00  0.00    -0.237 OA
ATOM     89  O   UNL     1      -0.796 -14.352   5.640  1.00  0.00    -0.744 OA
ENDBRANCH  82  86
ENDBRANCH  55  79
BRANCH  67  90
ATOM     90  C   UNL     1       0.500 -10.963  15.235  1.00  0.00     0.023 A 
ATOM     91  C   UNL     1       1.647 -11.744  15.454  1.00  0.00     0.031 A 
ATOM     92  C   UNL     1      -0.694 -11.332  15.877  1.00  0.00     0.131 A 
ATOM     93  C   UNL     1       1.564 -12.887  16.263  1.00  0.00     0.055 A 
ATOM     94  C   UNL     1      -0.760 -12.446  16.714  1.00  0.00     0.041 A 
ATOM     95  F   UNL     1      -1.816 -10.616  15.697  1.00  0.00    -0.206 F 
ATOM     96  C   UNL     1       0.371 -13.237  16.902  1.00  0.00     0.022 A 
BRANCH  93  97
ATOM     97  S   UNL     1       3.023 -13.953  16.416  1.00  0.00     0.124 S 
ATOM     98  O   UNL     1       3.254 -14.355  15.031  1.00  0.00    -0.237 OA
ATOM     99  O   UNL     1       4.014 -13.048  16.990  1.00  0.00    -0.237 OA
ATOM    100  O   UNL     1       2.575 -15.024  17.305  1.00  0.00    -0.744 OA
ENDBRANCH  93  97
ENDBRANCH  67  90
ENDBRANCH  41  42
ENDBRANCH  33  36
ENDBRANCH  31  32
ENDBRANCH  30  31
ENDBRANCH   1  30
TORSDOF 18
