REMARK SMILES CC[C@@]1(C(=O)NCCCNC(=O)c2ccc(-c3c4nc(c(-c5cc(S(=O)(=O)[O-])ccc5F)c5ccc([nH]5)c(-c5cc(S(=O)(=O)[O-])ccc5F)c5nc(c(-c6cc(S(=O)(=O)[O-])ccc6F)c6ccc3[nH]6)C=C5)C=C4)cc2)CCC[N@@H+](Cc2ccc(C3CC3)cc2)C1
REMARK SMILES IDX 8 1 7 2 6 3 4 4 5 5 3 7 76 8 90 9 77 10 79 11 78 12 2 14
REMARK SMILES IDX 1 15 80 16 81 17 82 18 89 19 83 20 88 21 84 22 85 23 86 24
REMARK SMILES IDX 87 25 9 26 10 27 11 28 12 30 13 31 14 32 75 33 15 34 74 35
REMARK SMILES IDX 16 36 17 37 18 38 68 39 19 40 73 41 67 42 69 43 20 44 72 45
REMARK SMILES IDX 66 46 65 47 21 49 53 50 33 51 52 52 34 53 37 54 51 55 70 56
REMARK SMILES IDX 35 57 36 58 50 60 71 61 38 62 22 63 23 64 31 65 24 66 30 67
REMARK SMILES IDX 32 68 29 69 25 70 26 71 27 72 28 73 54 74 55 75 63 76 56 77
REMARK SMILES IDX 62 78 64 79 61 80 57 81 58 82 59 83 60 84 39 85 40 86 48 87
REMARK SMILES IDX 41 88 47 89 49 90 46 91 42 92 43 93 44 94 45 95
REMARK H PARENT 6 6 79 13 10 29 69 48 37 59
REMARK Flexibility Score: inf
ROOT
ATOM      1  C   UNL     1       1.709  -0.277   1.683  1.00  0.00     0.042 C 
ENDROOT
BRANCH   1   2
ATOM      2  C   UNL     1       0.416  -0.625   0.962  1.00  0.00     0.117 C 
BRANCH   2   3
ATOM      3  N   UNL     1       0.117   0.291  -0.105  1.00  0.00    -0.355 N 
ATOM      4  C   UNL     1       0.239   0.209  -1.447  1.00  0.00     0.231 C 
ATOM      5  O   UNL     1      -0.092   1.244  -2.047  1.00  0.00    -0.274 OA
ATOM      6  H   UNL     1      -0.249   1.151   0.205  1.00  0.00     0.163 HD
BRANCH   4   7
ATOM      7  C   UNL     1       0.806  -0.995  -2.246  1.00  0.00     0.098 C 
ATOM      8  C   UNL     1       0.767  -2.435  -1.675  1.00  0.00     0.028 C 
ATOM      9  C   UNL     1       2.260  -0.624  -2.591  1.00  0.00     0.279 C 
ATOM     10  C   UNL     1       1.997  -2.933  -0.887  1.00  0.00     0.063 C 
ATOM     11  N   UNL     1       3.133  -0.756  -1.425  1.00  0.00    -0.330 N 
ATOM     12  C   UNL     1       3.307  -2.167  -1.074  1.00  0.00     0.262 C 
ATOM     13  H   UNL     1       2.675  -0.302  -0.634  1.00  0.00     0.348 HD
BRANCH   7  14
ATOM     14  C   UNL     1       0.005  -1.013  -3.603  1.00  0.00     0.019 C 
ATOM     15  C   UNL     1      -1.514  -1.080  -3.447  1.00  0.00     0.005 C 
ENDBRANCH   7  14
BRANCH  11  16
ATOM     16  C   UNL     1       4.417  -0.031  -1.590  1.00  0.00     0.299 C 
BRANCH  16  17
ATOM     17  C   UNL     1       5.428  -0.732  -2.474  1.00  0.00     0.006 A 
ATOM     18  C   UNL     1       6.487  -1.435  -1.896  1.00  0.00     0.010 A 
ATOM     19  C   UNL     1       5.228  -0.837  -3.853  1.00  0.00     0.010 A 
ATOM     20  C   UNL     1       7.223  -2.346  -2.657  1.00  0.00     0.004 A 
ATOM     21  C   UNL     1       5.951  -1.768  -4.600  1.00  0.00     0.004 A 
ATOM     22  C   UNL     1       6.925  -2.589  -4.009  1.00  0.00    -0.045 A 
BRANCH  22  23
ATOM     23  C   UNL     1       7.612  -3.729  -4.732  1.00  0.00     0.019 C 
ATOM     24  C   UNL     1       6.965  -4.422  -5.909  1.00  0.00     0.009 C 
ATOM     25  C   UNL     1       8.169  -3.548  -6.118  1.00  0.00     0.009 C 
ENDBRANCH  22  23
ENDBRANCH  16  17
ENDBRANCH  11  16
ENDBRANCH   4   7
ENDBRANCH   2   3
ENDBRANCH   1   2
BRANCH   1  26
ATOM     26  C   UNL     1       1.463   0.630   2.877  1.00  0.00     0.118 C 
BRANCH  26  27
ATOM     27  N   UNL     1       0.633  -0.019   3.889  1.00  0.00    -0.352 N 
ATOM     28  C   UNL     1       0.887  -0.296   5.207  1.00  0.00     0.251 C 
ATOM     29  H   UNL     1      -0.254  -0.305   3.571  1.00  0.00     0.163 HD
ATOM     30  O   UNL     1       0.147  -1.064   5.811  1.00  0.00    -0.269 OA
BRANCH  28  31
ATOM     31  C   UNL     1       2.049   0.318   5.879  1.00  0.00     0.039 A 
ATOM     32  C   UNL     1       2.749  -0.421   6.835  1.00  0.00     0.014 A 
ATOM     33  C   UNL     1       2.437   1.625   5.580  1.00  0.00     0.014 A 
ATOM     34  C   UNL     1       3.868   0.137   7.451  1.00  0.00     0.010 A 
ATOM     35  C   UNL     1       3.619   2.131   6.100  1.00  0.00     0.010 A 
ATOM     36  C   UNL     1       4.331   1.405   7.064  1.00  0.00    -0.014 A 
BRANCH  36  37
ATOM     37  C   UNL     1       5.523   2.024   7.693  1.00  0.00     0.031 A 
ATOM     38  C   UNL     1       5.378   3.332   8.425  1.00  0.00     0.074 A 
ATOM     39  C   UNL     1       6.731   1.444   7.553  1.00  0.00     0.049 A 
ATOM     40  N   UNL     1       6.300   4.088   8.960  1.00  0.00    -0.248 NA
ATOM     41  C   UNL     1       4.017   3.883   8.532  1.00  0.00     0.031 C 
ATOM     42  C   UNL     1       6.993   0.198   6.828  1.00  0.00     0.029 A 
ATOM     43  N   UNL     1       7.965   1.825   8.011  1.00  0.00    -0.354 N 
ATOM     44  C   UNL     1       5.634   5.209   9.445  1.00  0.00     0.074 A 
ATOM     45  C   UNL     1       4.245   5.071   9.068  1.00  0.00     0.031 C 
ATOM     46  C   UNL     1       8.298  -0.100   6.923  1.00  0.00     0.029 A 
ATOM     47  C   UNL     1       8.976   0.959   7.664  1.00  0.00     0.049 A 
ATOM     48  H   UNL     1       8.115   2.643   8.538  1.00  0.00     0.167 HD
ATOM     49  C   UNL     1       6.130   6.242  10.169  1.00  0.00     0.034 A 
ATOM     50  C   UNL     1      10.300   1.020   7.907  1.00  0.00     0.034 A 
ATOM     51  C   UNL     1       7.515   6.346  10.554  1.00  0.00     0.049 A 
ATOM     52  C   UNL     1      10.833   2.191   8.695  1.00  0.00     0.074 A 
ATOM     53  C   UNL     1       8.123   7.316  11.329  1.00  0.00     0.029 A 
ATOM     54  N   UNL     1       8.509   5.447  10.188  1.00  0.00    -0.354 N 
ATOM     55  N   UNL     1      10.182   3.221   9.189  1.00  0.00    -0.248 NA
ATOM     56  C   UNL     1      12.275   2.203   8.968  1.00  0.00     0.031 C 
ATOM     57  C   UNL     1       9.495   7.047  11.368  1.00  0.00     0.029 A 
ATOM     58  C   UNL     1       9.732   5.858  10.695  1.00  0.00     0.049 A 
ATOM     59  H   UNL     1       8.367   4.637   9.647  1.00  0.00     0.167 HD
ATOM     60  C   UNL     1      11.134   3.982   9.864  1.00  0.00     0.074 A 
ATOM     61  C   UNL     1      12.395   3.284   9.724  1.00  0.00     0.031 C 
ATOM     62  C   UNL     1      10.980   5.148  10.541  1.00  0.00     0.034 A 
BRANCH  49  63
ATOM     63  C   UNL     1       5.171   7.341  10.565  1.00  0.00     0.023 A 
ATOM     64  C   UNL     1       4.051   7.089  11.378  1.00  0.00     0.031 A 
ATOM     65  C   UNL     1       5.358   8.653  10.097  1.00  0.00     0.131 A 
ATOM     66  C   UNL     1       3.121   8.109  11.629  1.00  0.00     0.055 A 
ATOM     67  C   UNL     1       4.477   9.686  10.427  1.00  0.00     0.041 A 
ATOM     68  F   UNL     1       6.393   8.953   9.296  1.00  0.00    -0.206 F 
ATOM     69  C   UNL     1       3.342   9.413  11.184  1.00  0.00     0.022 A 
BRANCH  66  70
ATOM     70  S   UNL     1       1.545   7.669  12.411  1.00  0.00     0.124 S 
ATOM     71  O   UNL     1       1.010   6.692  11.465  1.00  0.00    -0.237 OA
ATOM     72  O   UNL     1       1.968   7.142  13.703  1.00  0.00    -0.237 OA
ATOM     73  O   UNL     1       0.821   8.938  12.460  1.00  0.00    -0.744 OA
ENDBRANCH  66  70
ENDBRANCH  49  63
BRANCH  50  74
ATOM     74  C   UNL     1      11.215  -0.045   7.404  1.00  0.00     0.023 A 
ATOM     75  C   UNL     1      11.949  -0.847   8.293  1.00  0.00     0.031 A 
ATOM     76  C   UNL     1      11.406  -0.248   6.025  1.00  0.00     0.131 A 
ATOM     77  C   UNL     1      12.880  -1.772   7.796  1.00  0.00     0.055 A 
ATOM     78  C   UNL     1      12.288  -1.213   5.536  1.00  0.00     0.041 A 
ATOM     79  F   UNL     1      10.727   0.486   5.130  1.00  0.00    -0.206 F 
ATOM     80  C   UNL     1      13.044  -1.971   6.424  1.00  0.00     0.022 A 
BRANCH  77  81
ATOM     81  S   UNL     1      13.953  -2.640   8.974  1.00  0.00     0.124 S 
ATOM     82  O   UNL     1      14.598  -1.527   9.662  1.00  0.00    -0.237 OA
ATOM     83  O   UNL     1      12.988  -3.406   9.755  1.00  0.00    -0.237 OA
ATOM     84  O   UNL     1      14.828  -3.434   8.114  1.00  0.00    -0.744 OA
ENDBRANCH  77  81
ENDBRANCH  50  74
BRANCH  62  85
ATOM     85  C   UNL     1      12.201   5.708  11.230  1.00  0.00     0.023 A 
ATOM     86  C   UNL     1      13.318   6.164  10.510  1.00  0.00     0.031 A 
ATOM     87  C   UNL     1      12.244   5.783  12.635  1.00  0.00     0.131 A 
ATOM     88  C   UNL     1      14.454   6.616  11.197  1.00  0.00     0.055 A 
ATOM     89  C   UNL     1      13.349   6.300  13.310  1.00  0.00     0.041 A 
ATOM     90  F   UNL     1      11.206   5.359  13.374  1.00  0.00    -0.206 F 
ATOM     91  C   UNL     1      14.469   6.707  12.591  1.00  0.00     0.022 A 
BRANCH  88  92
ATOM     92  S   UNL     1      15.954   6.985  10.247  1.00  0.00     0.124 S 
ATOM     93  O   UNL     1      16.207   5.715   9.574  1.00  0.00    -0.237 OA
ATOM     94  O   UNL     1      15.520   8.084   9.392  1.00  0.00    -0.237 OA
ATOM     95  O   UNL     1      16.930   7.347  11.274  1.00  0.00    -0.744 OA
ENDBRANCH  88  92
ENDBRANCH  62  85
ENDBRANCH  36  37
ENDBRANCH  28  31
ENDBRANCH  26  27
ENDBRANCH   1  26
TORSDOF 17
