REMARK SMILES Cc1ccc(N2C(=O)[NH+]=C(NCCCNC(=O)c3ccc(-c4c5nc(c(-c6cc(S(=O)(=O)[O-])ccc6F)c6ccc([nH]6)c(-c6cc(S(=O)(=O)[O-])ccc6F)c6nc(c(-c7cc(S(=O)(=O)[O-])ccc7F)c7ccc4[nH]7)C=C6)C=C5)cc3)/C(=C\c3ccccc3OCc3cccc(C(=O)[O-])c3)C2=O)cc1
REMARK SMILES IDX 12 1 11 2 6 3 7 4 100 5 8 6 9 7 81 8 101 9 10 10 82 12 5 14
REMARK SMILES IDX 1 15 2 16 3 17 103 18 4 19 102 20 83 21 84 22 88 23 85 24
REMARK SMILES IDX 87 25 86 26 89 27 90 28 91 29 92 30 99 31 93 32 95 33 94 34
REMARK SMILES IDX 96 35 97 36 98 37 13 38 14 39 15 40 16 41 17 43 18 44 19 45
REMARK SMILES IDX 80 46 20 47 79 48 21 49 22 50 23 51 73 52 24 53 78 54 72 55
REMARK SMILES IDX 74 56 25 57 77 58 71 59 70 60 26 62 58 63 38 64 57 65 39 66
REMARK SMILES IDX 42 67 56 68 75 69 40 70 41 71 55 73 76 74 43 75 27 76 28 77
REMARK SMILES IDX 36 78 29 79 35 80 37 81 34 82 30 83 31 84 32 85 33 86 59 87
REMARK SMILES IDX 60 88 68 89 61 90 67 91 69 92 66 93 62 94 63 95 64 96 65 97
REMARK SMILES IDX 44 98 45 99 53 100 46 101 52 102 54 103 51 104 47 105 48 106
REMARK SMILES IDX 49 107 50 108
REMARK H PARENT 9 11 11 13 15 42 74 61 42 72
REMARK Flexibility Score: inf
ROOT
ATOM      1  C   UNL     1      -7.777  -0.264   1.667  1.00  0.00     0.195 C 
ENDROOT
BRANCH   1   2
ATOM      2  N   UNL     1      -7.069   0.884   1.075  1.00  0.00    -0.305 N 
ATOM      3  N   UNL     1      -2.925   0.724   0.572  1.00  0.00    -0.155 N 
ATOM      4  C   UNL     1      -3.626   0.022   1.564  1.00  0.00     0.448 C 
ATOM      5  C   UNL     1      -3.551   1.604  -0.297  1.00  0.00     0.328 C 
ATOM      6  O   UNL     1      -3.057  -0.725   2.361  1.00  0.00    -0.212 OA
ATOM      7  N   UNL     1      -4.971   0.211   1.715  1.00  0.00    -0.209 N 
ATOM      8  C   UNL     1      -5.016   1.433  -0.354  1.00  0.00     0.129 C 
ATOM      9  O   UNL     1      -2.994   2.388  -1.067  1.00  0.00    -0.249 OA
ATOM     10  C   UNL     1      -5.698   0.832   0.836  1.00  0.00     0.236 C 
ATOM     11  H   UNL     1      -5.407  -0.139   2.525  1.00  0.00     0.270 HD
ATOM     12  C   UNL     1      -5.511   1.652  -1.587  1.00  0.00     0.034 C 
ATOM     13  H   UNL     1      -7.571   1.699   0.846  1.00  0.00     0.256 HD
BRANCH   3  14
ATOM     14  C   UNL     1      -1.512   0.523   0.432  1.00  0.00     0.111 A 
ATOM     15  C   UNL     1       2.731  -0.110  -0.076  1.00  0.00     0.044 C 
ATOM     16  C   UNL     1       1.260   0.113   0.091  1.00  0.00    -0.051 A 
ATOM     17  C   UNL     1       0.407  -0.970   0.324  1.00  0.00     0.007 A 
ATOM     18  C   UNL     1       0.720   1.397   0.005  1.00  0.00     0.007 A 
ATOM     19  C   UNL     1      -0.962  -0.765   0.500  1.00  0.00     0.044 A 
ATOM     20  C   UNL     1      -0.650   1.597   0.172  1.00  0.00     0.044 A 
ENDBRANCH   3  14
BRANCH  12  21
ATOM     21  C   UNL     1      -6.869   1.356  -1.995  1.00  0.00     0.018 A 
ATOM     22  C   UNL     1      -7.622   2.465  -2.376  1.00  0.00     0.012 A 
ATOM     23  C   UNL     1      -7.474   0.103  -1.816  1.00  0.00     0.127 A 
ATOM     24  C   UNL     1      -8.996   2.369  -2.351  1.00  0.00     0.001 A 
ATOM     25  C   UNL     1      -8.854   0.011  -1.837  1.00  0.00     0.047 A 
ATOM     26  C   UNL     1      -9.604   1.155  -2.041  1.00  0.00     0.004 A 
BRANCH  23  27
ATOM     27  O   UNL     1      -6.852  -0.988  -1.288  1.00  0.00    -0.488 OA
BRANCH  27  28
ATOM     28  C   UNL     1      -5.724  -1.492  -1.985  1.00  0.00     0.265 C 
BRANCH  28  29
ATOM     29  C   UNL     1      -5.323  -2.758  -1.265  1.00  0.00    -0.010 A 
ATOM     30  C   UNL     1      -3.978  -3.058  -1.016  1.00  0.00     0.007 A 
ATOM     31  C   UNL     1      -6.311  -3.674  -0.868  1.00  0.00     0.017 A 
ATOM     32  C   UNL     1      -3.626  -4.257  -0.391  1.00  0.00     0.001 A 
ATOM     33  C   UNL     1      -5.963  -4.880  -0.254  1.00  0.00    -0.002 A 
ATOM     34  C   UNL     1      -4.614  -5.172  -0.021  1.00  0.00     0.010 A 
BRANCH  33  35
ATOM     35  C   UNL     1      -6.994  -5.880   0.091  1.00  0.00     0.071 C 
ATOM     36  O   UNL     1      -6.786  -7.071   0.318  1.00  0.00    -0.545 OA
ATOM     37  O   UNL     1      -8.221  -5.350   0.128  1.00  0.00    -0.545 OA
ENDBRANCH  33  35
ENDBRANCH  28  29
ENDBRANCH  27  28
ENDBRANCH  23  27
ENDBRANCH  12  21
ENDBRANCH   1   2
BRANCH   1  38
ATOM     38  C   UNL     1      -8.959   0.142   2.541  1.00  0.00     0.059 C 
BRANCH  38  39
ATOM     39  C   UNL     1     -10.170   0.658   1.776  1.00  0.00     0.119 C 
BRANCH  39  40
ATOM     40  N   UNL     1     -11.276  -0.279   1.615  1.00  0.00    -0.352 N 
ATOM     41  C   UNL     1     -12.577  -0.059   1.188  1.00  0.00     0.251 C 
ATOM     42  H   UNL     1     -11.066  -1.213   1.845  1.00  0.00     0.163 HD
ATOM     43  O   UNL     1     -13.431  -0.924   1.376  1.00  0.00    -0.269 OA
BRANCH  41  44
ATOM     44  C   UNL     1     -12.930   1.136   0.373  1.00  0.00     0.039 A 
ATOM     45  C   UNL     1     -13.912   0.985  -0.627  1.00  0.00     0.014 A 
ATOM     46  C   UNL     1     -12.170   2.294   0.400  1.00  0.00     0.014 A 
ATOM     47  C   UNL     1     -13.930   1.840  -1.727  1.00  0.00     0.010 A 
ATOM     48  C   UNL     1     -12.096   3.058  -0.733  1.00  0.00     0.010 A 
ATOM     49  C   UNL     1     -12.926   2.785  -1.824  1.00  0.00    -0.014 A 
BRANCH  49  50
ATOM     50  C   UNL     1     -12.597   3.566  -3.001  1.00  0.00     0.031 A 
ATOM     51  C   UNL     1     -12.837   5.014  -2.932  1.00  0.00     0.074 A 
ATOM     52  C   UNL     1     -11.806   3.019  -3.951  1.00  0.00     0.049 A 
ATOM     53  N   UNL     1     -12.651   5.810  -3.915  1.00  0.00    -0.248 NA
ATOM     54  C   UNL     1     -13.320   5.695  -1.731  1.00  0.00     0.031 C 
ATOM     55  C   UNL     1     -10.878   3.695  -4.861  1.00  0.00     0.029 A 
ATOM     56  N   UNL     1     -11.657   1.700  -4.310  1.00  0.00    -0.354 N 
ATOM     57  C   UNL     1     -12.690   7.093  -3.430  1.00  0.00     0.074 A 
ATOM     58  C   UNL     1     -13.183   6.976  -2.083  1.00  0.00     0.031 C 
ATOM     59  C   UNL     1     -10.432   2.819  -5.783  1.00  0.00     0.029 A 
ATOM     60  C   UNL     1     -11.203   1.600  -5.625  1.00  0.00     0.049 A 
ATOM     61  H   UNL     1     -11.844   0.933  -3.721  1.00  0.00     0.167 HD
ATOM     62  C   UNL     1     -12.176   8.078  -4.212  1.00  0.00     0.034 A 
ATOM     63  C   UNL     1     -12.059   1.067  -6.554  1.00  0.00     0.034 A 
ATOM     64  C   UNL     1     -11.704   7.526  -5.486  1.00  0.00     0.049 A 
ATOM     65  C   UNL     1     -12.623   2.157  -7.461  1.00  0.00     0.074 A 
ATOM     66  C   UNL     1     -10.470   7.154  -5.992  1.00  0.00     0.029 A 
ATOM     67  N   UNL     1     -12.642   6.968  -6.329  1.00  0.00    -0.354 N 
ATOM     68  N   UNL     1     -12.389   3.432  -7.290  1.00  0.00    -0.248 NA
ATOM     69  C   UNL     1     -13.499   1.921  -8.603  1.00  0.00     0.031 C 
ATOM     70  C   UNL     1     -10.702   6.316  -7.130  1.00  0.00     0.029 A 
ATOM     71  C   UNL     1     -12.069   6.210  -7.324  1.00  0.00     0.049 A 
ATOM     72  H   UNL     1     -13.613   7.097  -6.229  1.00  0.00     0.167 HD
ATOM     73  C   UNL     1     -13.043   4.175  -8.224  1.00  0.00     0.074 A 
ATOM     74  C   UNL     1     -13.759   3.179  -9.010  1.00  0.00     0.031 C 
ATOM     75  C   UNL     1     -12.951   5.540  -8.269  1.00  0.00     0.034 A 
BRANCH  62  76
ATOM     76  C   UNL     1     -11.921   9.499  -3.800  1.00  0.00     0.023 A 
ATOM     77  C   UNL     1     -10.999  10.235  -4.566  1.00  0.00     0.031 A 
ATOM     78  C   UNL     1     -12.515  10.197  -2.731  1.00  0.00     0.131 A 
ATOM     79  C   UNL     1     -10.662  11.557  -4.248  1.00  0.00     0.055 A 
ATOM     80  C   UNL     1     -12.156  11.509  -2.390  1.00  0.00     0.041 A 
ATOM     81  F   UNL     1     -13.502   9.672  -1.996  1.00  0.00    -0.206 F 
ATOM     82  C   UNL     1     -11.223  12.198  -3.150  1.00  0.00     0.022 A 
BRANCH  79  83
ATOM     83  S   UNL     1      -9.481  12.412  -5.317  1.00  0.00     0.124 S 
ATOM     84  O   UNL     1      -8.283  11.592  -5.162  1.00  0.00    -0.237 OA
ATOM     85  O   UNL     1     -10.142  12.351  -6.616  1.00  0.00    -0.237 OA
ATOM     86  O   UNL     1      -9.398  13.747  -4.727  1.00  0.00    -0.744 OA
ENDBRANCH  79  83
ENDBRANCH  62  76
BRANCH  63  87
ATOM     87  C   UNL     1     -12.804  -0.101  -5.950  1.00  0.00     0.023 A 
ATOM     88  C   UNL     1     -12.002  -1.181  -5.491  1.00  0.00     0.031 A 
ATOM     89  C   UNL     1     -14.043   0.100  -5.318  1.00  0.00     0.131 A 
ATOM     90  C   UNL     1     -12.333  -1.854  -4.301  1.00  0.00     0.055 A 
ATOM     91  C   UNL     1     -14.390  -0.615  -4.162  1.00  0.00     0.041 A 
ATOM     92  F   UNL     1     -14.843   1.111  -5.689  1.00  0.00    -0.206 F 
ATOM     93  C   UNL     1     -13.506  -1.544  -3.612  1.00  0.00     0.022 A 
BRANCH  90  94
ATOM     94  S   UNL     1     -11.096  -2.926  -3.494  1.00  0.00     0.124 S 
ATOM     95  O   UNL     1     -11.480  -4.249  -3.974  1.00  0.00    -0.237 OA
ATOM     96  O   UNL     1      -9.827  -2.412  -4.000  1.00  0.00    -0.237 OA
ATOM     97  O   UNL     1     -11.321  -2.678  -2.072  1.00  0.00    -0.744 OA
ENDBRANCH  90  94
ENDBRANCH  63  87
BRANCH  75  98
ATOM     98  C   UNL     1     -13.739   6.372  -9.239  1.00  0.00     0.023 A 
ATOM     99  C   UNL     1     -13.914   5.949 -10.556  1.00  0.00     0.031 A 
ATOM    100  C   UNL     1     -14.319   7.615  -8.891  1.00  0.00     0.131 A 
ATOM    101  C   UNL     1     -14.758   6.659 -11.418  1.00  0.00     0.055 A 
ATOM    102  C   UNL     1     -15.040   8.390  -9.797  1.00  0.00     0.041 A 
ATOM    103  F   UNL     1     -14.274   8.104  -7.644  1.00  0.00    -0.206 F 
ATOM    104  C   UNL     1     -15.295   7.895 -11.064  1.00  0.00     0.022 A 
BRANCH 101 105
ATOM    105  S   UNL     1     -15.275   5.834 -12.937  1.00  0.00     0.124 S 
ATOM    106  O   UNL     1     -14.003   5.488 -13.562  1.00  0.00    -0.237 OA
ATOM    107  O   UNL     1     -16.045   4.710 -12.406  1.00  0.00    -0.237 OA
ATOM    108  O   UNL     1     -16.059   6.852 -13.630  1.00  0.00    -0.744 OA
ENDBRANCH 101 105
ENDBRANCH  75  98
ENDBRANCH  49  50
ENDBRANCH  41  44
ENDBRANCH  39  40
ENDBRANCH  38  39
ENDBRANCH   1  38
TORSDOF 18
