REMARK SMILES Cc1ccc(F)c(NC(=O)NC(=O)CCCCC(=O)NCCCNC(=O)c2ccc(-c3c4nc(c(-c5cc(S(=O)(=O)[O-])ccc5F)c5ccc([nH]5)c(-c5cc(S(=O)(=O)[O-])ccc5F)c5nc(c(-c6cc(S(=O)(=O)[O-])ccc6F)c6ccc3[nH]6)C=C5)C=C4)cc2)c1
REMARK SMILES IDX 21 1 20 2 18 3 19 4 17 6 16 7 15 8 14 9 12 10 8 11 9 12
REMARK SMILES IDX 10 14 11 15 13 17 7 18 1 19 2 20 3 21 90 22 4 23 5 24 6 25
REMARK SMILES IDX 22 26 23 27 24 28 25 29 26 31 27 32 28 33 89 34 29 35 88 36
REMARK SMILES IDX 30 37 31 38 32 39 82 40 33 41 87 42 81 43 83 44 34 45 86 46
REMARK SMILES IDX 80 47 79 48 35 50 67 51 47 52 66 53 48 54 51 55 65 56 84 57
REMARK SMILES IDX 49 58 50 59 64 61 85 62 52 63 36 64 37 65 45 66 38 67 44 68
REMARK SMILES IDX 46 69 43 70 39 71 40 72 41 73 42 74 68 75 69 76 77 77 70 78
REMARK SMILES IDX 76 79 78 80 75 81 71 82 72 83 73 84 74 85 53 86 54 87 62 88
REMARK SMILES IDX 55 89 61 90 63 91 60 92 56 93 57 94 58 95 59 96
REMARK H PARENT 20 5 8 13 11 16 24 30 83 49 51 60
REMARK Flexibility Score: inf
ROOT
ATOM      1  C   UNL     1       1.379  -0.753   1.198  1.00  0.00     0.117 C 
ENDROOT
BRANCH   1   2
ATOM      2  N   UNL     1       1.530  -1.965   1.971  1.00  0.00    -0.356 N 
ATOM      3  C   UNL     1       0.688  -3.030   2.069  1.00  0.00     0.219 C 
ATOM      4  O   UNL     1       1.074  -4.032   2.672  1.00  0.00    -0.275 OA
ATOM      5  H   UNL     1       2.357  -2.028   2.501  1.00  0.00     0.163 HD
BRANCH   3   6
ATOM      6  C   UNL     1      -0.681  -2.987   1.421  1.00  0.00     0.100 C 
BRANCH   6   7
ATOM      7  C   UNL     1      -1.797  -2.455   2.320  1.00  0.00     0.010 C 
BRANCH   7   8
ATOM      8  C   UNL     1      -1.998  -0.936   2.375  1.00  0.00     0.010 C 
BRANCH   8   9
ATOM      9  C   UNL     1      -2.261  -0.231   1.045  1.00  0.00     0.100 C 
BRANCH   9  10
ATOM     10  C   UNL     1      -3.583  -0.563   0.397  1.00  0.00     0.227 C 
ATOM     11  N   UNL     1      -1.633  -2.006  -1.798  1.00  0.00    -0.305 N 
ATOM     12  C   UNL     1      -2.911  -2.108  -1.368  1.00  0.00     0.325 C 
ATOM     13  H   UNL     1      -1.219  -2.885  -1.959  1.00  0.00     0.171 HD
ATOM     14  O   UNL     1      -3.450  -3.216  -1.435  1.00  0.00    -0.248 OA
ATOM     15  N   UNL     1      -3.614  -1.056  -0.888  1.00  0.00    -0.278 N 
ATOM     16  H   UNL     1      -4.209  -0.596  -1.523  1.00  0.00     0.174 HD
ATOM     17  O   UNL     1      -4.648  -0.386   0.993  1.00  0.00    -0.275 OA
BRANCH  11  18
ATOM     18  C   UNL     1      -0.752  -0.939  -2.069  1.00  0.00     0.079 A 
ATOM     19  C   UNL     1       3.057  -0.683  -2.393  1.00  0.00     0.044 C 
ATOM     20  C   UNL     1       1.601  -0.307  -2.367  1.00  0.00    -0.049 A 
ATOM     21  C   UNL     1       1.223   1.037  -2.426  1.00  0.00     0.006 A 
ATOM     22  C   UNL     1       0.607  -1.286  -2.203  1.00  0.00     0.032 A 
ATOM     23  C   UNL     1      -0.124   1.390  -2.344  1.00  0.00     0.042 A 
ATOM     24  C   UNL     1      -1.101   0.408  -2.178  1.00  0.00     0.146 A 
ATOM     25  F   UNL     1      -2.378   0.807  -2.128  1.00  0.00    -0.205 F 
ENDBRANCH  11  18
ENDBRANCH   9  10
ENDBRANCH   8   9
ENDBRANCH   7   8
ENDBRANCH   6   7
ENDBRANCH   3   6
ENDBRANCH   1   2
BRANCH   1  26
ATOM     26  C   UNL     1       1.329   0.501   2.055  1.00  0.00     0.042 C 
BRANCH  26  27
ATOM     27  C   UNL     1       2.651   1.240   2.035  1.00  0.00     0.118 C 
BRANCH  27  28
ATOM     28  N   UNL     1       2.964   1.807   0.727  1.00  0.00    -0.352 N 
ATOM     29  C   UNL     1       3.741   2.907   0.441  1.00  0.00     0.251 C 
ATOM     30  H   UNL     1       2.569   1.346  -0.048  1.00  0.00     0.163 HD
ATOM     31  O   UNL     1       3.838   3.308  -0.715  1.00  0.00    -0.269 OA
BRANCH  29  32
ATOM     32  C   UNL     1       4.382   3.623   1.564  1.00  0.00     0.039 A 
ATOM     33  C   UNL     1       4.224   5.005   1.669  1.00  0.00     0.014 A 
ATOM     34  C   UNL     1       5.012   2.902   2.580  1.00  0.00     0.014 A 
ATOM     35  C   UNL     1       4.617   5.649   2.842  1.00  0.00     0.010 A 
ATOM     36  C   UNL     1       5.281   3.522   3.790  1.00  0.00     0.010 A 
ATOM     37  C   UNL     1       5.098   4.904   3.932  1.00  0.00    -0.014 A 
BRANCH  37  38
ATOM     38  C   UNL     1       5.446   5.550   5.223  1.00  0.00     0.031 A 
ATOM     39  C   UNL     1       6.851   5.435   5.751  1.00  0.00     0.074 A 
ATOM     40  C   UNL     1       4.486   6.163   5.945  1.00  0.00     0.049 A 
ATOM     41  N   UNL     1       7.348   5.847   6.888  1.00  0.00    -0.248 NA
ATOM     42  C   UNL     1       7.812   4.705   4.909  1.00  0.00     0.031 C 
ATOM     43  C   UNL     1       3.072   6.260   5.569  1.00  0.00     0.029 A 
ATOM     44  N   UNL     1       4.552   6.822   7.145  1.00  0.00    -0.354 N 
ATOM     45  C   UNL     1       8.665   5.399   6.907  1.00  0.00     0.074 A 
ATOM     46  C   UNL     1       8.856   4.606   5.714  1.00  0.00     0.031 C 
ATOM     47  C   UNL     1       2.417   6.979   6.496  1.00  0.00     0.029 A 
ATOM     48  C   UNL     1       3.352   7.364   7.546  1.00  0.00     0.049 A 
ATOM     49  H   UNL     1       5.380   6.901   7.671  1.00  0.00     0.167 HD
ATOM     50  C   UNL     1       9.638   5.659   7.815  1.00  0.00     0.034 A 
ATOM     51  C   UNL     1       3.050   8.099   8.635  1.00  0.00     0.034 A 
ATOM     52  C   UNL     1       9.428   6.487   8.976  1.00  0.00     0.049 A 
ATOM     53  C   UNL     1       4.160   8.432   9.599  1.00  0.00     0.074 A 
ATOM     54  C   UNL     1      10.337   6.867   9.948  1.00  0.00     0.029 A 
ATOM     55  N   UNL     1       8.215   7.077   9.316  1.00  0.00    -0.354 N 
ATOM     56  N   UNL     1       5.417   8.050   9.576  1.00  0.00    -0.248 NA
ATOM     57  C   UNL     1       3.818   9.318  10.717  1.00  0.00     0.031 C 
ATOM     58  C   UNL     1       9.664   7.647  10.896  1.00  0.00     0.029 A 
ATOM     59  C   UNL     1       8.351   7.811  10.482  1.00  0.00     0.049 A 
ATOM     60  H   UNL     1       7.381   6.985   8.801  1.00  0.00     0.167 HD
ATOM     61  C   UNL     1       6.023   8.677  10.661  1.00  0.00     0.074 A 
ATOM     62  C   UNL     1       4.997   9.479  11.298  1.00  0.00     0.031 C 
ATOM     63  C   UNL     1       7.308   8.600  11.096  1.00  0.00     0.034 A 
BRANCH  50  64
ATOM     64  C   UNL     1      10.992   5.030   7.575  1.00  0.00     0.023 A 
ATOM     65  C   UNL     1      11.732   5.300   6.409  1.00  0.00     0.031 A 
ATOM     66  C   UNL     1      11.519   4.094   8.482  1.00  0.00     0.131 A 
ATOM     67  C   UNL     1      12.894   4.565   6.128  1.00  0.00     0.055 A 
ATOM     68  C   UNL     1      12.729   3.438   8.242  1.00  0.00     0.041 A 
ATOM     69  F   UNL     1      10.853   3.777   9.603  1.00  0.00    -0.206 F 
ATOM     70  C   UNL     1      13.414   3.656   7.050  1.00  0.00     0.022 A 
BRANCH  67  71
ATOM     71  S   UNL     1      13.612   4.689   4.466  1.00  0.00     0.124 S 
ATOM     72  O   UNL     1      12.508   4.211   3.635  1.00  0.00    -0.237 OA
ATOM     73  O   UNL     1      13.923   6.109   4.359  1.00  0.00    -0.237 OA
ATOM     74  O   UNL     1      14.769   3.798   4.525  1.00  0.00    -0.744 OA
ENDBRANCH  67  71
ENDBRANCH  50  64
BRANCH  51  75
ATOM     75  C   UNL     1       1.662   8.600   8.855  1.00  0.00     0.023 A 
ATOM     76  C   UNL     1       1.379   9.976   8.826  1.00  0.00     0.031 A 
ATOM     77  C   UNL     1       0.604   7.717   9.132  1.00  0.00     0.131 A 
ATOM     78  C   UNL     1       0.084  10.433   9.118  1.00  0.00     0.055 A 
ATOM     79  C   UNL     1      -0.694   8.173   9.374  1.00  0.00     0.041 A 
ATOM     80  F   UNL     1       0.816   6.392   9.159  1.00  0.00    -0.206 F 
ATOM     81  C   UNL     1      -0.957   9.540   9.383  1.00  0.00     0.022 A 
BRANCH  78  82
ATOM     82  S   UNL     1      -0.203  12.221   9.228  1.00  0.00     0.124 S 
ATOM     83  O   UNL     1       0.762  12.616  10.248  1.00  0.00    -0.237 OA
ATOM     84  O   UNL     1       0.089  12.657   7.866  1.00  0.00    -0.237 OA
ATOM     85  O   UNL     1      -1.606  12.317   9.623  1.00  0.00    -0.744 OA
ENDBRANCH  78  82
ENDBRANCH  51  75
BRANCH  63  86
ATOM     86  C   UNL     1       7.669   9.450  12.287  1.00  0.00     0.023 A 
ATOM     87  C   UNL     1       7.117   9.213  13.557  1.00  0.00     0.031 A 
ATOM     88  C   UNL     1       8.553  10.533  12.139  1.00  0.00     0.131 A 
ATOM     89  C   UNL     1       7.393  10.094  14.612  1.00  0.00     0.055 A 
ATOM     90  C   UNL     1       8.878  11.366  13.209  1.00  0.00     0.041 A 
ATOM     91  F   UNL     1       9.110  10.803  10.947  1.00  0.00    -0.206 F 
ATOM     92  C   UNL     1       8.282  11.160  14.450  1.00  0.00     0.022 A 
BRANCH  89  93
ATOM     93  S   UNL     1       6.478   9.899  16.165  1.00  0.00     0.124 S 
ATOM     94  O   UNL     1       5.092   9.955  15.710  1.00  0.00    -0.237 OA
ATOM     95  O   UNL     1       6.941   8.599  16.638  1.00  0.00    -0.237 OA
ATOM     96  O   UNL     1       6.915  11.042  16.966  1.00  0.00    -0.744 OA
ENDBRANCH  89  93
ENDBRANCH  63  86
ENDBRANCH  37  38
ENDBRANCH  29  32
ENDBRANCH  27  28
ENDBRANCH  26  27
ENDBRANCH   1  26
TORSDOF 18
