REMARK SMILES CCC(CC)(CC(=O)Nc1cccc(Br)c1)C(=O)NCCCNC(=O)c1ccc(-c2c3nc(c(-c4cc(S(=O)(=O)[O-])ccc4F)c4ccc([nH]4)c(-c4cc(S(=O)(=O)[O-])ccc4F)c4nc(c(-c5cc(S(=O)(=O)[O-])ccc5F)c5ccc2[nH]5)C=C4)C=C3)cc1
REMARK SMILES IDX 21 1 20 2 19 3 17 4 18 5 3 7 2 8 1 9 4 10 5 11 6 12 7 13
REMARK SMILES IDX 8 14 9 15 10 17 11 18 16 19 12 20 14 21 13 22 15 23 22 24
REMARK SMILES IDX 23 25 24 26 25 28 26 29 27 30 88 31 28 32 87 33 29 34 30 35
REMARK SMILES IDX 31 36 81 37 32 38 86 39 80 40 82 41 33 42 85 43 79 44 78 45
REMARK SMILES IDX 34 47 66 48 46 49 65 50 47 51 50 52 64 53 83 54 48 55 49 56
REMARK SMILES IDX 63 58 84 59 51 60 35 61 36 62 44 63 37 64 43 65 45 66 42 67
REMARK SMILES IDX 38 68 39 69 40 70 41 71 67 72 68 73 76 74 69 75 75 76 77 77
REMARK SMILES IDX 74 78 70 79 71 80 72 81 73 82 52 83 53 84 61 85 54 86 60 87
REMARK SMILES IDX 62 88 59 89 55 90 56 91 57 92 58 93
REMARK H PARENT 19 6 9 16 23 27 82 46 50 57
REMARK Flexibility Score: inf
ROOT
ATOM      1  C   UNL     1       2.937  -2.245   6.005  1.00  0.00     0.042 C 
ENDROOT
BRANCH   1   2
ATOM      2  C   UNL     1       2.407  -1.052   5.231  1.00  0.00     0.117 C 
BRANCH   2   3
ATOM      3  N   UNL     1       3.039  -0.915   3.934  1.00  0.00    -0.356 N 
ATOM      4  C   UNL     1       2.559  -0.819   2.675  1.00  0.00     0.226 C 
ATOM      5  O   UNL     1       3.415  -0.828   1.783  1.00  0.00    -0.274 OA
ATOM      6  H   UNL     1       4.022  -0.885   3.981  1.00  0.00     0.163 HD
BRANCH   4   7
ATOM      7  C   UNL     1       1.053  -0.702   2.346  1.00  0.00     0.057 C 
BRANCH   7   8
ATOM      8  C   UNL     1       0.942  -0.321   0.844  1.00  0.00     0.014 C 
ATOM      9  C   UNL     1       1.419   1.055   0.397  1.00  0.00     0.005 C 
ENDBRANCH   7   8
BRANCH   7  10
ATOM     10  C   UNL     1       0.370   0.424   3.186  1.00  0.00     0.014 C 
ATOM     11  C   UNL     1      -1.153   0.461   3.120  1.00  0.00     0.005 C 
ENDBRANCH   7  10
BRANCH   7  12
ATOM     12  C   UNL     1       0.348  -2.083   2.529  1.00  0.00     0.117 C 
BRANCH  12  13
ATOM     13  C   UNL     1       0.997  -3.319   1.895  1.00  0.00     0.225 C 
ATOM     14  O   UNL     1       1.955  -3.869   2.442  1.00  0.00    -0.275 OA
ATOM     15  N   UNL     1       0.436  -3.921   0.790  1.00  0.00    -0.326 N 
ATOM     16  H   UNL     1       0.757  -4.830   0.589  1.00  0.00     0.169 HD
BRANCH  15  17
ATOM     17  C   UNL     1      -0.531  -3.410  -0.084  1.00  0.00     0.042 A 
ATOM     18  C   UNL     1      -0.169  -2.478  -1.057  1.00  0.00     0.026 A 
ATOM     19  C   UNL     1      -1.838  -3.887  -0.049  1.00  0.00     0.041 A 
ATOM     20  C   UNL     1      -1.139  -1.848  -1.836  1.00  0.00     0.003 A 
ATOM     21  C   UNL     1      -2.801  -3.296  -0.873  1.00  0.00     0.020 A 
ATOM     22  C   UNL     1      -2.467  -2.244  -1.728  1.00  0.00     0.016 A 
ATOM     23  Br  UNL     1      -4.585  -3.921  -0.834  1.00  0.00    -0.051 Br
ENDBRANCH  15  17
ENDBRANCH  12  13
ENDBRANCH   7  12
ENDBRANCH   4   7
ENDBRANCH   2   3
ENDBRANCH   1   2
BRANCH   1  24
ATOM     24  C   UNL     1       4.449  -2.275   6.159  1.00  0.00     0.118 C 
BRANCH  24  25
ATOM     25  N   UNL     1       4.979  -1.083   6.806  1.00  0.00    -0.352 N 
ATOM     26  C   UNL     1       5.645  -0.951   8.001  1.00  0.00     0.251 C 
ATOM     27  H   UNL     1       4.838  -0.243   6.312  1.00  0.00     0.163 HD
ATOM     28  O   UNL     1       5.831   0.166   8.470  1.00  0.00    -0.269 OA
BRANCH  26  29
ATOM     29  C   UNL     1       6.102  -2.157   8.727  1.00  0.00     0.039 A 
ATOM     30  C   UNL     1       5.960  -2.206  10.114  1.00  0.00     0.014 A 
ATOM     31  C   UNL     1       6.656  -3.241   8.042  1.00  0.00     0.014 A 
ATOM     32  C   UNL     1       6.306  -3.371  10.800  1.00  0.00     0.010 A 
ATOM     33  C   UNL     1       6.889  -4.438   8.709  1.00  0.00     0.010 A 
ATOM     34  C   UNL     1       6.731  -4.513  10.099  1.00  0.00    -0.014 A 
BRANCH  34  35
ATOM     35  C   UNL     1       7.015  -5.784  10.814  1.00  0.00     0.031 A 
ATOM     36  C   UNL     1       8.394  -6.389  10.771  1.00  0.00     0.074 A 
ATOM     37  C   UNL     1       6.019  -6.406  11.475  1.00  0.00     0.049 A 
ATOM     38  N   UNL     1       8.835  -7.480  11.343  1.00  0.00    -0.248 NA
ATOM     39  C   UNL     1       9.399  -5.697   9.951  1.00  0.00     0.031 C 
ATOM     40  C   UNL     1       4.627  -5.950  11.527  1.00  0.00     0.029 A 
ATOM     41  N   UNL     1       6.019  -7.547  12.237  1.00  0.00    -0.354 N 
ATOM     42  C   UNL     1      10.164  -7.605  10.949  1.00  0.00     0.074 A 
ATOM     43  C   UNL     1      10.429  -6.524  10.025  1.00  0.00     0.031 C 
ATOM     44  C   UNL     1       3.923  -6.770  12.323  1.00  0.00     0.029 A 
ATOM     45  C   UNL     1       4.797  -7.835  12.800  1.00  0.00     0.049 A 
ATOM     46  H   UNL     1       6.818  -8.106  12.368  1.00  0.00     0.167 HD
ATOM     47  C   UNL     1      11.085  -8.518  11.345  1.00  0.00     0.034 A 
ATOM     48  C   UNL     1       4.424  -8.843  13.613  1.00  0.00     0.034 A 
ATOM     49  C   UNL     1      10.800  -9.586  12.272  1.00  0.00     0.049 A 
ATOM     50  C   UNL     1       5.466  -9.845  14.040  1.00  0.00     0.074 A 
ATOM     51  C   UNL     1      11.664 -10.540  12.781  1.00  0.00     0.029 A 
ATOM     52  N   UNL     1       9.551  -9.849  12.824  1.00  0.00    -0.354 N 
ATOM     53  N   UNL     1       6.736  -9.911  13.710  1.00  0.00    -0.248 NA
ATOM     54  C   UNL     1       5.027 -10.896  14.965  1.00  0.00     0.031 C 
ATOM     55  C   UNL     1      10.924 -11.421  13.579  1.00  0.00     0.029 A 
ATOM     56  C   UNL     1       9.617 -10.966  13.644  1.00  0.00     0.049 A 
ATOM     57  H   UNL     1       8.739  -9.319  12.657  1.00  0.00     0.167 HD
ATOM     58  C   UNL     1       7.255 -10.993  14.416  1.00  0.00     0.074 A 
ATOM     59  C   UNL     1       6.165 -11.527  15.208  1.00  0.00     0.031 C 
ATOM     60  C   UNL     1       8.515 -11.501  14.412  1.00  0.00     0.034 A 
BRANCH  47  61
ATOM     61  C   UNL     1      12.474  -8.406  10.756  1.00  0.00     0.023 A 
ATOM     62  C   UNL     1      13.273  -7.264  10.955  1.00  0.00     0.031 A 
ATOM     63  C   UNL     1      12.999  -9.441   9.962  1.00  0.00     0.131 A 
ATOM     64  C   UNL     1      14.513  -7.152  10.306  1.00  0.00     0.055 A 
ATOM     65  C   UNL     1      14.271  -9.360   9.391  1.00  0.00     0.041 A 
ATOM     66  F   UNL     1      12.278 -10.545   9.714  1.00  0.00    -0.206 F 
ATOM     67  C   UNL     1      15.030  -8.204   9.548  1.00  0.00     0.022 A 
BRANCH  64  68
ATOM     68  S   UNL     1      15.370  -5.553  10.345  1.00  0.00     0.124 S 
ATOM     69  O   UNL     1      14.374  -4.670   9.742  1.00  0.00    -0.237 OA
ATOM     70  O   UNL     1      15.617  -5.361  11.769  1.00  0.00    -0.237 OA
ATOM     71  O   UNL     1      16.561  -5.783   9.530  1.00  0.00    -0.744 OA
ENDBRANCH  64  68
ENDBRANCH  47  61
BRANCH  48  72
ATOM     72  C   UNL     1       3.013  -8.954  14.088  1.00  0.00     0.023 A 
ATOM     73  C   UNL     1       2.696  -8.854  15.452  1.00  0.00     0.031 A 
ATOM     74  C   UNL     1       1.964  -9.204  13.185  1.00  0.00     0.131 A 
ATOM     75  C   UNL     1       1.374  -9.057  15.880  1.00  0.00     0.055 A 
ATOM     76  C   UNL     1       0.642  -9.345  13.610  1.00  0.00     0.041 A 
ATOM     77  F   UNL     1       2.209  -9.303  11.869  1.00  0.00    -0.206 F 
ATOM     78  C   UNL     1       0.343  -9.287  14.967  1.00  0.00     0.022 A 
BRANCH  75  79
ATOM     79  S   UNL     1       1.036  -9.110  17.662  1.00  0.00     0.124 S 
ATOM     80  O   UNL     1       1.919 -10.184  18.101  1.00  0.00    -0.237 OA
ATOM     81  O   UNL     1       1.407  -7.762  18.081  1.00  0.00    -0.237 OA
ATOM     82  O   UNL     1      -0.393  -9.409  17.728  1.00  0.00    -0.744 OA
ENDBRANCH  75  79
ENDBRANCH  48  72
BRANCH  60  83
ATOM     83  C   UNL     1       8.778 -12.671  15.332  1.00  0.00     0.023 A 
ATOM     84  C   UNL     1       8.117 -13.902  15.172  1.00  0.00     0.031 A 
ATOM     85  C   UNL     1       9.664 -12.535  16.416  1.00  0.00     0.131 A 
ATOM     86  C   UNL     1       8.279 -14.912  16.131  1.00  0.00     0.055 A 
ATOM     87  C   UNL     1       9.884 -13.575  17.321  1.00  0.00     0.041 A 
ATOM     88  F   UNL     1      10.323 -11.384  16.623  1.00  0.00    -0.206 F 
ATOM     89  C   UNL     1       9.172 -14.764  17.194  1.00  0.00     0.022 A 
BRANCH  86  90
ATOM     90  S   UNL     1       7.190 -16.361  16.054  1.00  0.00     0.124 S 
ATOM     91  O   UNL     1       5.867 -15.746  16.061  1.00  0.00    -0.237 OA
ATOM     92  O   UNL     1       7.595 -16.988  14.800  1.00  0.00    -0.237 OA
ATOM     93  O   UNL     1       7.532 -17.111  17.261  1.00  0.00    -0.744 OA
ENDBRANCH  86  90
ENDBRANCH  60  83
ENDBRANCH  34  35
ENDBRANCH  26  29
ENDBRANCH  24  25
ENDBRANCH   1  24
TORSDOF 18
