REMARK SMILES O=C(CC1CC1)NCc1ccc(C(=O)NCCCNC(=O)c2ccc(-c3c4nc(c(-c5cc(S(=O)(=O)[O-])ccc5F)c5ccc([nH]5)c(-c5cc(S(=O)(=O)[O-])ccc5F)c5nc(c(-c6cc(S(=O)(=O)[O-])ccc6F)c6ccc3[nH]6)C=C5)C=C4)cc2)o1
REMARK SMILES IDX 16 1 15 2 13 3 14 4 12 6 9 7 10 8 85 9 11 10 8 11 7 12 1 13
REMARK SMILES IDX 2 14 3 16 4 17 5 18 6 19 17 20 18 21 19 22 20 23 21 25 22 26
REMARK SMILES IDX 23 27 84 28 24 29 83 30 25 31 26 32 27 33 77 34 28 35 82 36
REMARK SMILES IDX 76 37 78 38 29 39 81 40 75 41 74 42 30 44 62 45 42 46 61 47
REMARK SMILES IDX 43 48 46 49 60 50 79 51 44 52 45 53 59 55 80 56 47 57 31 58
REMARK SMILES IDX 32 59 40 60 33 61 39 62 41 63 38 64 34 65 35 66 36 67 37 68
REMARK SMILES IDX 63 69 64 70 72 71 65 72 71 73 73 74 70 75 66 76 67 77 68 78
REMARK SMILES IDX 69 79 48 80 49 81 57 82 50 83 56 84 58 85 55 86 51 87 52 88
REMARK SMILES IDX 53 89 54 90
REMARK H PARENT 15 5 7 15 19 24 78 43 46 54
REMARK Flexibility Score: inf
ROOT
ATOM      1  C   UNL     1       3.674   7.419   3.006  1.00  0.00     0.118 C 
ENDROOT
BRANCH   1   2
ATOM      2  N   UNL     1       3.817   6.080   3.543  1.00  0.00    -0.349 N 
ATOM      3  C   UNL     1       3.607   4.843   2.975  1.00  0.00     0.286 C 
ATOM      4  O   UNL     1       3.975   3.880   3.652  1.00  0.00    -0.266 OA
ATOM      5  H   UNL     1       4.117   6.049   4.480  1.00  0.00     0.163 HD
BRANCH   3   6
ATOM      6  C   UNL     1       3.001   4.693   1.662  1.00  0.00     0.191 A 
ATOM      7  C   UNL     1       2.390   3.472  -0.090  1.00  0.00     0.124 A 
ATOM      8  C   UNL     1       1.954   4.753  -0.338  1.00  0.00     0.048 A 
ATOM      9  O   UNL     1       3.050   3.433   1.101  1.00  0.00    -0.454 OA
ATOM     10  C   UNL     1       2.313   5.523   0.793  1.00  0.00     0.056 A 
BRANCH   7  11
ATOM     11  C   UNL     1       2.219   2.215  -0.863  1.00  0.00     0.191 C 
BRANCH  11  12
ATOM     12  N   UNL     1       2.846   1.089  -0.218  1.00  0.00    -0.349 N 
ATOM     13  O   UNL     1       1.055  -0.319  -0.495  1.00  0.00    -0.275 OA
ATOM     14  C   UNL     1       2.219  -0.131  -0.150  1.00  0.00     0.220 C 
ATOM     15  H   UNL     1       3.740   1.196   0.180  1.00  0.00     0.163 HD
BRANCH  14  16
ATOM     16  C   UNL     1       3.118  -1.272   0.284  1.00  0.00     0.103 C 
BRANCH  16  17
ATOM     17  C   UNL     1       4.010  -1.761  -0.830  1.00  0.00    -0.002 C 
ATOM     18  C   UNL     1       3.722  -3.078  -1.512  1.00  0.00     0.004 C 
ATOM     19  C   UNL     1       3.537  -1.797  -2.268  1.00  0.00     0.004 C 
ENDBRANCH  16  17
ENDBRANCH  14  16
ENDBRANCH  11  12
ENDBRANCH   7  11
ENDBRANCH   3   6
ENDBRANCH   1   2
BRANCH   1  20
ATOM     20  C   UNL     1       2.378   8.092   3.455  1.00  0.00     0.042 C 
BRANCH  20  21
ATOM     21  C   UNL     1       2.439   8.650   4.878  1.00  0.00     0.118 C 
BRANCH  21  22
ATOM     22  N   UNL     1       3.390   9.749   4.993  1.00  0.00    -0.352 N 
ATOM     23  C   UNL     1       3.210  11.058   5.364  1.00  0.00     0.251 C 
ATOM     24  H   UNL     1       4.318   9.513   4.765  1.00  0.00     0.163 HD
ATOM     25  O   UNL     1       4.116  11.860   5.148  1.00  0.00    -0.269 OA
BRANCH  23  26
ATOM     26  C   UNL     1       1.955  11.513   6.005  1.00  0.00     0.039 A 
ATOM     27  C   UNL     1       1.462  12.784   5.689  1.00  0.00     0.014 A 
ATOM     28  C   UNL     1       1.298  10.734   6.961  1.00  0.00     0.014 A 
ATOM     29  C   UNL     1       0.287  13.248   6.286  1.00  0.00     0.010 A 
ATOM     30  C   UNL     1       0.090  11.170   7.507  1.00  0.00     0.010 A 
ATOM     31  C   UNL     1      -0.427  12.432   7.178  1.00  0.00    -0.014 A 
BRANCH  31  32
ATOM     32  C   UNL     1      -1.714  12.883   7.771  1.00  0.00     0.031 A 
ATOM     33  C   UNL     1      -1.835  13.092   9.257  1.00  0.00     0.074 A 
ATOM     34  C   UNL     1      -2.791  13.045   6.976  1.00  0.00     0.049 A 
ATOM     35  N   UNL     1      -2.888  13.405   9.967  1.00  0.00    -0.248 NA
ATOM     36  C   UNL     1      -0.612  12.896  10.050  1.00  0.00     0.031 C 
ATOM     37  C   UNL     1      -2.807  12.837   5.526  1.00  0.00     0.029 A 
ATOM     38  N   UNL     1      -4.080  13.411   7.272  1.00  0.00    -0.354 N 
ATOM     39  C   UNL     1      -2.462  13.429  11.292  1.00  0.00     0.074 A 
ATOM     40  C   UNL     1      -1.066  13.042  11.286  1.00  0.00     0.031 C 
ATOM     41  C   UNL     1      -4.038  13.098   5.058  1.00  0.00     0.029 A 
ATOM     42  C   UNL     1      -4.910  13.446   6.175  1.00  0.00     0.049 A 
ATOM     43  H   UNL     1      -4.382  13.629   8.183  1.00  0.00     0.167 HD
ATOM     44  C   UNL     1      -3.163  13.762  12.405  1.00  0.00     0.034 A 
ATOM     45  C   UNL     1      -6.228  13.713   6.080  1.00  0.00     0.034 A 
ATOM     46  C   UNL     1      -4.553  14.155  12.390  1.00  0.00     0.049 A 
ATOM     47  C   UNL     1      -6.991  14.060   7.333  1.00  0.00     0.074 A 
ATOM     48  C   UNL     1      -5.346  14.563  13.449  1.00  0.00     0.029 A 
ATOM     49  N   UNL     1      -5.361  14.182  11.259  1.00  0.00    -0.354 N 
ATOM     50  N   UNL     1      -6.561  14.124   8.572  1.00  0.00    -0.248 NA
ATOM     51  C   UNL     1      -8.415  14.382   7.171  1.00  0.00     0.031 C 
ATOM     52  C   UNL     1      -6.645  14.772  12.972  1.00  0.00     0.029 A 
ATOM     53  C   UNL     1      -6.648  14.569  11.601  1.00  0.00     0.049 A 
ATOM     54  H   UNL     1      -5.062  13.958  10.348  1.00  0.00     0.167 HD
ATOM     55  C   UNL     1      -7.657  14.523   9.332  1.00  0.00     0.074 A 
ATOM     56  C   UNL     1      -8.759  14.700   8.410  1.00  0.00     0.031 C 
ATOM     57  C   UNL     1      -7.743  14.728  10.672  1.00  0.00     0.034 A 
BRANCH  44  58
ATOM     58  C   UNL     1      -2.441  13.686  13.731  1.00  0.00     0.023 A 
ATOM     59  C   UNL     1      -1.326  14.495  14.012  1.00  0.00     0.031 A 
ATOM     60  C   UNL     1      -2.856  12.774  14.718  1.00  0.00     0.131 A 
ATOM     61  C   UNL     1      -0.617  14.321  15.211  1.00  0.00     0.055 A 
ATOM     62  C   UNL     1      -2.196  12.666  15.945  1.00  0.00     0.041 A 
ATOM     63  F   UNL     1      -3.902  11.961  14.502  1.00  0.00    -0.206 F 
ATOM     64  C   UNL     1      -1.060  13.430  16.191  1.00  0.00     0.022 A 
BRANCH  61  65
ATOM     65  S   UNL     1       0.974  15.169  15.406  1.00  0.00     0.124 S 
ATOM     66  O   UNL     1       1.727  14.648  14.268  1.00  0.00    -0.237 OA
ATOM     67  O   UNL     1       0.594  16.575  15.331  1.00  0.00    -0.237 OA
ATOM     68  O   UNL     1       1.445  14.719  16.714  1.00  0.00    -0.744 OA
ENDBRANCH  61  65
ENDBRANCH  44  58
BRANCH  45  69
ATOM     69  C   UNL     1      -6.916  13.655   4.759  1.00  0.00     0.023 A 
ATOM     70  C   UNL     1      -7.470  14.809   4.181  1.00  0.00     0.031 A 
ATOM     71  C   UNL     1      -7.064  12.437   4.072  1.00  0.00     0.131 A 
ATOM     72  C   UNL     1      -8.185  14.714   2.978  1.00  0.00     0.055 A 
ATOM     73  C   UNL     1      -7.732  12.357   2.848  1.00  0.00     0.041 A 
ATOM     74  F   UNL     1      -6.548  11.306   4.576  1.00  0.00    -0.206 F 
ATOM     75  C   UNL     1      -8.309  13.499   2.301  1.00  0.00     0.022 A 
BRANCH  72  76
ATOM     76  S   UNL     1      -9.024  16.194   2.349  1.00  0.00     0.124 S 
ATOM     77  O   UNL     1      -9.901  16.535   3.463  1.00  0.00    -0.237 OA
ATOM     78  O   UNL     1      -7.905  17.099   2.112  1.00  0.00    -0.237 OA
ATOM     79  O   UNL     1      -9.701  15.715   1.145  1.00  0.00    -0.744 OA
ENDBRANCH  72  76
ENDBRANCH  45  69
BRANCH  57  80
ATOM     80  C   UNL     1      -9.071  15.210  11.204  1.00  0.00     0.023 A 
ATOM     81  C   UNL     1     -10.220  14.402  11.169  1.00  0.00     0.031 A 
ATOM     82  C   UNL     1      -9.190  16.506  11.737  1.00  0.00     0.131 A 
ATOM     83  C   UNL     1     -11.452  14.918  11.600  1.00  0.00     0.055 A 
ATOM     84  C   UNL     1     -10.405  16.993  12.222  1.00  0.00     0.041 A 
ATOM     85  F   UNL     1      -8.126  17.323  11.793  1.00  0.00    -0.206 F 
ATOM     86  C   UNL     1     -11.547  16.202  12.142  1.00  0.00     0.022 A 
BRANCH  83  87
ATOM     87  S   UNL     1     -12.948  13.923  11.353  1.00  0.00     0.124 S 
ATOM     88  O   UNL     1     -12.942  13.720   9.908  1.00  0.00    -0.237 OA
ATOM     89  O   UNL     1     -12.675  12.741  12.164  1.00  0.00    -0.237 OA
ATOM     90  O   UNL     1     -14.019  14.784  11.853  1.00  0.00    -0.744 OA
ENDBRANCH  83  87
ENDBRANCH  57  80
ENDBRANCH  31  32
ENDBRANCH  23  26
ENDBRANCH  21  22
ENDBRANCH  20  21
ENDBRANCH   1  20
TORSDOF 17
