REMARK SMILES CC(=O)[C@@H]1CCCC[N@H+]1CC(C)(C)C(=O)NCCCNC(=O)c1ccc(-c2c3nc(c(-c4cc(S(=O)(=O)[O-])ccc4F)c4ccc([nH]4)c(-c4cc(S(=O)(=O)[O-])ccc4F)c4nc(c(-c5cc(S(=O)(=O)[O-])ccc5F)c5ccc2[nH]5)C=C4)C=C3)cc1
REMARK SMILES IDX 18 1 17 2 16 3 14 4 15 5 11 7 12 8 13 9 10 10 9 11 4 12 5 13
REMARK SMILES IDX 6 14 8 15 7 17 2 18 1 19 3 20 19 21 20 22 21 23 22 25 23 26
REMARK SMILES IDX 24 27 85 28 25 29 84 30 26 31 27 32 28 33 78 34 29 35 83 36
REMARK SMILES IDX 77 37 79 38 30 39 82 40 76 41 75 42 31 44 63 45 43 46 62 47
REMARK SMILES IDX 44 48 47 49 61 50 80 51 45 52 46 53 60 55 81 56 48 57 32 58
REMARK SMILES IDX 33 59 41 60 34 61 40 62 42 63 39 64 35 65 36 66 37 67 38 68
REMARK SMILES IDX 64 69 65 70 73 71 66 72 72 73 74 74 71 75 67 76 68 77 69 78
REMARK SMILES IDX 70 79 49 80 50 81 58 82 51 83 57 84 59 85 56 86 52 87 53 88
REMARK SMILES IDX 54 89 55 90
REMARK H PARENT 16 6 9 16 20 24 79 43 47 54
REMARK Flexibility Score: inf
ROOT
ATOM      1  C   UNL     1       6.082   4.597   4.062  1.00  0.00     0.042 C 
ENDROOT
BRANCH   1   2
ATOM      2  C   UNL     1       5.350   3.311   3.710  1.00  0.00     0.117 C 
BRANCH   2   3
ATOM      3  N   UNL     1       4.150   3.169   4.509  1.00  0.00    -0.355 N 
ATOM      4  C   UNL     1       2.854   3.446   4.224  1.00  0.00     0.231 C 
ATOM      5  O   UNL     1       2.169   3.792   5.192  1.00  0.00    -0.274 OA
ATOM      6  H   UNL     1       4.301   2.810   5.413  1.00  0.00     0.163 HD
BRANCH   4   7
ATOM      7  C   UNL     1       2.276   3.395   2.800  1.00  0.00     0.092 C 
ATOM      8  C   UNL     1       2.995   2.458   1.822  1.00  0.00     0.027 C 
ATOM      9  C   UNL     1       2.391   4.834   2.250  1.00  0.00     0.027 C 
BRANCH   7  10
ATOM     10  C   UNL     1       0.744   3.018   2.882  1.00  0.00     0.279 C 
BRANCH  10  11
ATOM     11  N   UNL     1       0.250   1.690   3.342  1.00  0.00    -0.325 N 
ATOM     12  C   UNL     1       0.599   0.508   2.527  1.00  0.00     0.251 C 
ATOM     13  C   UNL     1      -0.042  -0.784   3.066  1.00  0.00     0.074 C 
ATOM     14  C   UNL     1       0.265  -0.994   4.540  1.00  0.00     0.012 C 
ATOM     15  C   UNL     1       0.477   1.482   4.779  1.00  0.00     0.262 C 
ATOM     16  H   UNL     1      -0.755   1.758   3.180  1.00  0.00     0.348 HD
ATOM     17  C   UNL     1      -0.194   0.223   5.322  1.00  0.00     0.062 C 
BRANCH  12  18
ATOM     18  C   UNL     1       0.141   0.641   1.058  1.00  0.00     0.186 C 
ATOM     19  C   UNL     1       0.896  -0.198   0.052  1.00  0.00     0.094 C 
ATOM     20  O   UNL     1      -0.819   1.320   0.689  1.00  0.00    -0.293 OA
ENDBRANCH  12  18
ENDBRANCH  10  11
ENDBRANCH   7  10
ENDBRANCH   4   7
ENDBRANCH   2   3
ENDBRANCH   1   2
BRANCH   1  21
ATOM     21  C   UNL     1       6.588   4.622   5.497  1.00  0.00     0.118 C 
BRANCH  21  22
ATOM     22  N   UNL     1       7.559   3.565   5.751  1.00  0.00    -0.352 N 
ATOM     23  C   UNL     1       8.910   3.659   5.981  1.00  0.00     0.251 C 
ATOM     24  H   UNL     1       7.193   2.651   5.760  1.00  0.00     0.163 HD
ATOM     25  O   UNL     1       9.609   2.655   5.901  1.00  0.00    -0.269 OA
BRANCH  23  26
ATOM     26  C   UNL     1       9.505   4.973   6.302  1.00  0.00     0.039 A 
ATOM     27  C   UNL     1      10.734   5.324   5.742  1.00  0.00     0.014 A 
ATOM     28  C   UNL     1       8.845   5.857   7.158  1.00  0.00     0.014 A 
ATOM     29  C   UNL     1      11.268   6.590   5.994  1.00  0.00     0.010 A 
ATOM     30  C   UNL     1       9.320   7.152   7.316  1.00  0.00     0.010 A 
ATOM     31  C   UNL     1      10.548   7.527   6.755  1.00  0.00    -0.014 A 
BRANCH  31  32
ATOM     32  C   UNL     1      11.078   8.889   7.016  1.00  0.00     0.031 A 
ATOM     33  C   UNL     1      11.340   9.326   8.434  1.00  0.00     0.074 A 
ATOM     34  C   UNL     1      11.264   9.745   5.992  1.00  0.00     0.049 A 
ATOM     35  N   UNL     1      11.720  10.493   8.884  1.00  0.00    -0.248 NA
ATOM     36  C   UNL     1      11.106   8.325   9.487  1.00  0.00     0.031 C 
ATOM     37  C   UNL     1      11.005   9.447   4.582  1.00  0.00     0.029 A 
ATOM     38  N   UNL     1      11.709  11.043   5.979  1.00  0.00    -0.354 N 
ATOM     39  C   UNL     1      11.753  10.372  10.270  1.00  0.00     0.074 A 
ATOM     40  C   UNL     1      11.280   9.042  10.586  1.00  0.00     0.031 C 
ATOM     41  C   UNL     1      11.329  10.518   3.839  1.00  0.00     0.029 A 
ATOM     42  C   UNL     1      11.765  11.596   4.720  1.00  0.00     0.049 A 
ATOM     43  H   UNL     1      11.965  11.533   6.794  1.00  0.00     0.167 HD
ATOM     44  C   UNL     1      12.166  11.276  11.192  1.00  0.00     0.034 A 
ATOM     45  C   UNL     1      12.118  12.836   4.324  1.00  0.00     0.034 A 
ATOM     46  C   UNL     1      12.649  12.592  10.854  1.00  0.00     0.049 A 
ATOM     47  C   UNL     1      12.550  13.834   5.370  1.00  0.00     0.074 A 
ATOM     48  C   UNL     1      13.142  13.571  11.697  1.00  0.00     0.029 A 
ATOM     49  N   UNL     1      12.693  13.117   9.567  1.00  0.00    -0.354 N 
ATOM     50  N   UNL     1      12.623  13.688   6.673  1.00  0.00    -0.248 NA
ATOM     51  C   UNL     1      12.959  15.159   4.889  1.00  0.00     0.031 C 
ATOM     52  C   UNL     1      13.410  14.712  10.934  1.00  0.00     0.029 A 
ATOM     53  C   UNL     1      13.175  14.416   9.600  1.00  0.00     0.049 A 
ATOM     54  H   UNL     1      12.422  12.636   8.752  1.00  0.00     0.167 HD
ATOM     55  C   UNL     1      13.126  14.891   7.162  1.00  0.00     0.074 A 
ATOM     56  C   UNL     1      13.349  15.743   6.012  1.00  0.00     0.031 C 
ATOM     57  C   UNL     1      13.388  15.256   8.444  1.00  0.00     0.034 A 
BRANCH  44  58
ATOM     58  C   UNL     1      12.084  10.875  12.647  1.00  0.00     0.023 A 
ATOM     59  C   UNL     1      12.803   9.778  13.155  1.00  0.00     0.031 A 
ATOM     60  C   UNL     1      11.250  11.579  13.534  1.00  0.00     0.131 A 
ATOM     61  C   UNL     1      12.612   9.367  14.483  1.00  0.00     0.055 A 
ATOM     62  C   UNL     1      11.135  11.220  14.878  1.00  0.00     0.041 A 
ATOM     63  F   UNL     1      10.519  12.619  13.105  1.00  0.00    -0.206 F 
ATOM     64  C   UNL     1      11.805  10.098  15.356  1.00  0.00     0.022 A 
BRANCH  61  65
ATOM     65  S   UNL     1      13.306   7.775  15.004  1.00  0.00     0.124 S 
ATOM     66  O   UNL     1      12.673   6.855  14.062  1.00  0.00    -0.237 OA
ATOM     67  O   UNL     1      14.739   7.982  14.829  1.00  0.00    -0.237 OA
ATOM     68  O   UNL     1      12.858   7.642  16.389  1.00  0.00    -0.744 OA
ENDBRANCH  61  65
ENDBRANCH  44  58
BRANCH  45  69
ATOM     69  C   UNL     1      12.076  13.211   2.881  1.00  0.00     0.023 A 
ATOM     70  C   UNL     1      13.246  13.573   2.193  1.00  0.00     0.031 A 
ATOM     71  C   UNL     1      10.859  13.261   2.177  1.00  0.00     0.131 A 
ATOM     72  C   UNL     1      13.168  14.021   0.865  1.00  0.00     0.055 A 
ATOM     73  C   UNL     1      10.795  13.648   0.838  1.00  0.00     0.041 A 
ATOM     74  F   UNL     1       9.710  12.921   2.783  1.00  0.00    -0.206 F 
ATOM     75  C   UNL     1      11.953  14.046   0.178  1.00  0.00     0.022 A 
BRANCH  72  76
ATOM     76  S   UNL     1      14.670  14.665   0.078  1.00  0.00     0.124 S 
ATOM     77  O   UNL     1      15.044  15.741   0.989  1.00  0.00    -0.237 OA
ATOM     78  O   UNL     1      15.538  13.493   0.076  1.00  0.00    -0.237 OA
ATOM     79  O   UNL     1      14.205  15.096  -1.239  1.00  0.00    -0.744 OA
ENDBRANCH  72  76
ENDBRANCH  45  69
BRANCH  57  80
ATOM     80  C   UNL     1      14.004  16.618   8.660  1.00  0.00     0.023 A 
ATOM     81  C   UNL     1      13.316  17.805   8.357  1.00  0.00     0.031 A 
ATOM     82  C   UNL     1      15.311  16.724   9.170  1.00  0.00     0.131 A 
ATOM     83  C   UNL     1      13.959  19.043   8.507  1.00  0.00     0.055 A 
ATOM     84  C   UNL     1      15.919  17.961   9.384  1.00  0.00     0.041 A 
ATOM     85  F   UNL     1      16.019  15.624   9.473  1.00  0.00    -0.206 F 
ATOM     86  C   UNL     1      15.248  19.130   9.038  1.00  0.00     0.022 A 
BRANCH  83  87
ATOM     87  S   UNL     1      13.129  20.535   7.894  1.00  0.00     0.124 S 
ATOM     88  O   UNL     1      12.906  20.203   6.491  1.00  0.00    -0.237 OA
ATOM     89  O   UNL     1      11.935  20.594   8.732  1.00  0.00    -0.237 OA
ATOM     90  O   UNL     1      14.107  21.595   8.134  1.00  0.00    -0.744 OA
ENDBRANCH  83  87
ENDBRANCH  57  80
ENDBRANCH  31  32
ENDBRANCH  23  26
ENDBRANCH  21  22
ENDBRANCH   1  21
TORSDOF 16
