REMARK SMILES CC(=O)Cn1c(C(=O)NCCCNC(=O)c2ccc(-c3c4nc(c(-c5cc(S(=O)(=O)[O-])ccc5F)c5ccc([nH]5)c(-c5cc(S(=O)(=O)[O-])ccc5F)c5nc(c(-c6cc(S(=O)(=O)[O-])ccc6F)c6ccc3[nH]6)C=C5)C=C4)cc2)nc2cccnc21
REMARK SMILES IDX 11 1 10 2 9 3 7 4 8 5 6 7 5 8 85 9 79 10 80 11 84 12 81 13
REMARK SMILES IDX 83 14 82 15 4 16 2 17 1 18 3 19 12 20 13 21 14 22 15 24
REMARK SMILES IDX 16 25 17 26 78 27 18 28 77 29 19 30 20 31 21 32 71 33 22 34
REMARK SMILES IDX 76 35 70 36 72 37 23 38 75 39 69 40 68 41 24 43 56 44 36 45
REMARK SMILES IDX 55 46 37 47 40 48 54 49 73 50 38 51 39 52 53 54 74 55 41 56
REMARK SMILES IDX 25 57 26 58 34 59 27 60 33 61 35 62 32 63 28 64 29 65 30 66
REMARK SMILES IDX 31 67 57 68 58 69 66 70 59 71 65 72 67 73 64 74 60 75 61 76
REMARK SMILES IDX 62 77 63 78 42 79 43 80 51 81 44 82 50 83 52 84 49 85 45 86
REMARK SMILES IDX 46 87 47 88 48 89
REMARK H PARENT 9 6 13 23 72 42 40 53
REMARK Flexibility Score: inf
ROOT
ATOM      1  C   UNL     1       0.307   0.033  -2.129  1.00  0.00     0.042 C 
ENDROOT
BRANCH   1   2
ATOM      2  C   UNL     1      -0.930   0.547  -1.401  1.00  0.00     0.118 C 
BRANCH   2   3
ATOM      3  N   UNL     1      -0.801   0.362   0.029  1.00  0.00    -0.349 N 
ATOM      4  C   UNL     1      -0.611   1.222   1.079  1.00  0.00     0.287 C 
ATOM      5  O   UNL     1      -0.764   0.700   2.187  1.00  0.00    -0.266 OA
ATOM      6  H   UNL     1      -0.864  -0.581   0.305  1.00  0.00     0.163 HD
BRANCH   4   7
ATOM      7  C   UNL     1      -0.278   2.640   0.944  1.00  0.00     0.201 A 
ATOM      8  N   UNL     1       0.527   3.348   0.063  1.00  0.00    -0.297 N 
ATOM      9  C   UNL     1       0.474   4.677   0.425  1.00  0.00     0.160 A 
ATOM     10  N   UNL     1      -0.671   3.459   1.922  1.00  0.00    -0.222 NA
ATOM     11  C   UNL     1      -0.197   4.698   1.629  1.00  0.00     0.109 A 
ATOM     12  N   UNL     1       1.029   5.721  -0.223  1.00  0.00    -0.237 NA
ATOM     13  C   UNL     1      -0.267   5.909   2.322  1.00  0.00     0.034 A 
ATOM     14  C   UNL     1       0.901   6.881   0.460  1.00  0.00     0.113 A 
ATOM     15  C   UNL     1       0.305   7.025   1.709  1.00  0.00     0.022 A 
BRANCH   8  16
ATOM     16  C   UNL     1       1.374   2.929  -1.034  1.00  0.00     0.201 C 
BRANCH  16  17
ATOM     17  C   UNL     1       2.565   2.056  -0.727  1.00  0.00     0.149 C 
ATOM     18  C   UNL     1       2.706   1.353   0.595  1.00  0.00     0.089 C 
ATOM     19  O   UNL     1       3.382   1.830  -1.629  1.00  0.00    -0.298 OA
ENDBRANCH  16  17
ENDBRANCH   8  16
ENDBRANCH   4   7
ENDBRANCH   2   3
ENDBRANCH   1   2
BRANCH   1  20
ATOM     20  C   UNL     1       0.319  -1.465  -2.272  1.00  0.00     0.118 C 
BRANCH  20  21
ATOM     21  N   UNL     1      -0.213  -1.895  -3.558  1.00  0.00    -0.352 N 
ATOM     22  C   UNL     1       0.230  -2.919  -4.365  1.00  0.00     0.251 C 
ATOM     23  H   UNL     1      -0.988  -1.389  -3.893  1.00  0.00     0.163 HD
ATOM     24  O   UNL     1      -0.099  -2.939  -5.559  1.00  0.00    -0.269 OA
BRANCH  22  25
ATOM     25  C   UNL     1       1.033  -4.018  -3.804  1.00  0.00     0.039 A 
ATOM     26  C   UNL     1       1.694  -4.959  -4.606  1.00  0.00     0.014 A 
ATOM     27  C   UNL     1       1.047  -4.185  -2.433  1.00  0.00     0.014 A 
ATOM     28  C   UNL     1       2.151  -6.134  -4.008  1.00  0.00     0.010 A 
ATOM     29  C   UNL     1       1.927  -5.055  -1.909  1.00  0.00     0.010 A 
ATOM     30  C   UNL     1       2.137  -6.199  -2.624  1.00  0.00    -0.014 A 
BRANCH  30  31
ATOM     31  C   UNL     1       2.264  -7.379  -1.797  1.00  0.00     0.031 A 
ATOM     32  C   UNL     1       3.650  -7.602  -1.339  1.00  0.00     0.074 A 
ATOM     33  C   UNL     1       1.199  -7.916  -1.157  1.00  0.00     0.049 A 
ATOM     34  N   UNL     1       4.547  -8.323  -1.926  1.00  0.00    -0.248 NA
ATOM     35  C   UNL     1       4.195  -6.679  -0.323  1.00  0.00     0.031 C 
ATOM     36  C   UNL     1      -0.201  -7.465  -1.100  1.00  0.00     0.029 A 
ATOM     37  N   UNL     1       1.188  -8.985  -0.321  1.00  0.00    -0.354 N 
ATOM     38  C   UNL     1       5.697  -8.124  -1.174  1.00  0.00     0.074 A 
ATOM     39  C   UNL     1       5.503  -6.871  -0.499  1.00  0.00     0.031 C 
ATOM     40  C   UNL     1      -0.861  -8.143  -0.126  1.00  0.00     0.029 A 
ATOM     41  C   UNL     1       0.018  -9.169   0.406  1.00  0.00     0.049 A 
ATOM     42  H   UNL     1       1.959  -9.592  -0.236  1.00  0.00     0.167 HD
ATOM     43  C   UNL     1       6.545  -9.147  -0.869  1.00  0.00     0.034 A 
ATOM     44  C   UNL     1      -0.142 -10.070   1.410  1.00  0.00     0.034 A 
ATOM     45  C   UNL     1       6.146 -10.350  -1.557  1.00  0.00     0.049 A 
ATOM     46  C   UNL     1       0.992 -11.033   1.319  1.00  0.00     0.074 A 
ATOM     47  C   UNL     1       6.029 -10.718  -2.881  1.00  0.00     0.029 A 
ATOM     48  N   UNL     1       5.366 -11.230  -0.838  1.00  0.00    -0.354 N 
ATOM     49  N   UNL     1       1.167 -11.860   0.323  1.00  0.00    -0.248 NA
ATOM     50  C   UNL     1       2.189 -10.722   2.089  1.00  0.00     0.031 C 
ATOM     51  C   UNL     1       4.850 -11.514  -2.938  1.00  0.00     0.029 A 
ATOM     52  C   UNL     1       4.345 -11.662  -1.643  1.00  0.00     0.049 A 
ATOM     53  H   UNL     1       5.517 -11.502   0.096  1.00  0.00     0.167 HD
ATOM     54  C   UNL     1       2.536 -11.841   0.082  1.00  0.00     0.074 A 
ATOM     55  C   UNL     1       3.121 -11.186   1.251  1.00  0.00     0.031 C 
ATOM     56  C   UNL     1       3.035 -12.072  -1.168  1.00  0.00     0.034 A 
BRANCH  43  57
ATOM     57  C   UNL     1       7.458  -9.180   0.333  1.00  0.00     0.023 A 
ATOM     58  C   UNL     1       7.372  -8.278   1.409  1.00  0.00     0.031 A 
ATOM     59  C   UNL     1       8.339 -10.263   0.516  1.00  0.00     0.131 A 
ATOM     60  C   UNL     1       8.122  -8.441   2.579  1.00  0.00     0.055 A 
ATOM     61  C   UNL     1       9.043 -10.465   1.710  1.00  0.00     0.041 A 
ATOM     62  F   UNL     1       8.504 -11.187  -0.443  1.00  0.00    -0.206 F 
ATOM     63  C   UNL     1       8.937  -9.551   2.751  1.00  0.00     0.022 A 
BRANCH  60  64
ATOM     64  S   UNL     1       8.013  -7.209   3.908  1.00  0.00     0.124 S 
ATOM     65  O   UNL     1       7.561  -8.021   5.032  1.00  0.00    -0.237 OA
ATOM     66  O   UNL     1       9.392  -6.732   3.981  1.00  0.00    -0.237 OA
ATOM     67  O   UNL     1       7.050  -6.238   3.397  1.00  0.00    -0.744 OA
ENDBRANCH  60  64
ENDBRANCH  43  57
BRANCH  44  68
ATOM     68  C   UNL     1      -0.907  -9.900   2.671  1.00  0.00     0.023 A 
ATOM     69  C   UNL     1      -1.058  -8.617   3.229  1.00  0.00     0.031 A 
ATOM     70  C   UNL     1      -1.208 -10.999   3.497  1.00  0.00     0.131 A 
ATOM     71  C   UNL     1      -1.435  -8.462   4.572  1.00  0.00     0.055 A 
ATOM     72  C   UNL     1      -1.600 -10.842   4.833  1.00  0.00     0.041 A 
ATOM     73  F   UNL     1      -1.059 -12.253   3.041  1.00  0.00    -0.206 F 
ATOM     74  C   UNL     1      -1.700  -9.567   5.382  1.00  0.00     0.022 A 
BRANCH  71  75
ATOM     75  S   UNL     1      -1.516  -6.808   5.312  1.00  0.00     0.124 S 
ATOM     76  O   UNL     1      -2.762  -6.867   6.072  1.00  0.00    -0.237 OA
ATOM     77  O   UNL     1      -0.294  -6.779   6.108  1.00  0.00    -0.237 OA
ATOM     78  O   UNL     1      -1.543  -5.921   4.152  1.00  0.00    -0.744 OA
ENDBRANCH  71  75
ENDBRANCH  44  68
BRANCH  56  79
ATOM     79  C   UNL     1       2.104 -12.593  -2.240  1.00  0.00     0.023 A 
ATOM     80  C   UNL     1       2.508 -13.764  -2.897  1.00  0.00     0.031 A 
ATOM     81  C   UNL     1       1.054 -11.850  -2.813  1.00  0.00     0.131 A 
ATOM     82  C   UNL     1       1.938 -14.114  -4.124  1.00  0.00     0.055 A 
ATOM     83  C   UNL     1       0.437 -12.242  -4.007  1.00  0.00     0.041 A 
ATOM     84  F   UNL     1       0.663 -10.681  -2.297  1.00  0.00    -0.206 F 
ATOM     85  C   UNL     1       0.896 -13.367  -4.682  1.00  0.00     0.022 A 
BRANCH  82  86
ATOM     86  S   UNL     1       2.658 -15.456  -5.100  1.00  0.00     0.124 S 
ATOM     87  O   UNL     1       1.513 -16.337  -5.309  1.00  0.00    -0.237 OA
ATOM     88  O   UNL     1       3.131 -14.749  -6.288  1.00  0.00    -0.237 OA
ATOM     89  O   UNL     1       3.708 -15.995  -4.239  1.00  0.00    -0.744 OA
ENDBRANCH  82  86
ENDBRANCH  56  79
ENDBRANCH  30  31
ENDBRANCH  22  25
ENDBRANCH  20  21
ENDBRANCH   1  20
TORSDOF 15
