REMARK SMILES CC1(C)NC(=O)N(CCC(=O)N2CCC[C@H]2C(=O)NCCCNC(=O)c2ccc(-c3c4nc(c(-c5cc(S(=O)(=O)[O-])ccc5F)c5ccc([nH]5)c(-c5cc(S(=O)(=O)[O-])ccc5F)c5nc(c(-c6cc(S(=O)(=O)[O-])ccc6F)c6ccc3[nH]6)C=C5)C=C4)cc2)C1=O
REMARK SMILES IDX 20 1 19 2 17 3 18 4 16 6 12 7 13 8 14 9 15 10 10 11 11 12
REMARK SMILES IDX 9 13 8 14 7 15 1 16 2 17 3 18 4 19 89 20 5 21 90 23 6 24
REMARK SMILES IDX 21 25 22 26 23 27 24 28 25 30 26 31 27 32 88 33 28 34 87 35
REMARK SMILES IDX 29 36 30 37 31 38 81 39 32 40 86 41 80 42 82 43 33 44 85 45
REMARK SMILES IDX 79 46 78 47 34 49 66 50 46 51 65 52 47 53 50 54 64 55 83 56
REMARK SMILES IDX 48 57 49 58 63 60 84 61 51 62 35 63 36 64 44 65 37 66 43 67
REMARK SMILES IDX 45 68 42 69 38 70 39 71 40 72 41 73 67 74 68 75 76 76 69 77
REMARK SMILES IDX 75 78 77 79 74 80 70 81 71 82 72 83 73 84 52 85 53 86 61 87
REMARK SMILES IDX 54 88 60 89 62 90 59 91 55 92 56 93 57 94 58 95
REMARK H PARENT 19 5 4 22 23 29 82 48 50 59
REMARK Flexibility Score: inf
ROOT
ATOM      1  C   UNL     1       1.795  -1.894  -5.781  1.00  0.00     0.117 C 
ENDROOT
BRANCH   1   2
ATOM      2  N   UNL     1       1.616  -1.286  -4.481  1.00  0.00    -0.354 N 
ATOM      3  C   UNL     1       0.458  -0.671  -4.129  1.00  0.00     0.242 C 
ATOM      4  O   UNL     1       0.530   0.531  -3.874  1.00  0.00    -0.273 OA
ATOM      5  H   UNL     1       2.356  -1.319  -3.832  1.00  0.00     0.163 HD
BRANCH   3   6
ATOM      6  C   UNL     1      -0.861  -1.437  -4.065  1.00  0.00     0.174 C 
ATOM      7  N   UNL     1      -1.867  -1.055  -5.026  1.00  0.00    -0.331 N 
ATOM      8  C   UNL     1      -2.059  -2.130  -5.981  1.00  0.00     0.120 C 
ATOM      9  C   UNL     1      -1.615  -3.404  -5.272  1.00  0.00     0.024 C 
ATOM     10  C   UNL     1      -0.806  -2.960  -4.060  1.00  0.00     0.037 C 
BRANCH   7  11
ATOM     11  C   UNL     1      -2.753   0.001  -4.915  1.00  0.00     0.225 C 
ATOM     12  O   UNL     1      -3.835  -0.026  -5.513  1.00  0.00    -0.275 OA
BRANCH  11  13
ATOM     13  C   UNL     1      -2.363   1.280  -4.159  1.00  0.00     0.122 C 
BRANCH  13  14
ATOM     14  C   UNL     1      -2.676   1.421  -2.660  1.00  0.00     0.140 C 
BRANCH  14  15
ATOM     15  N   UNL     1      -1.703   0.855  -1.728  1.00  0.00    -0.262 N 
ATOM     16  C   UNL     1       0.334   0.870   1.073  1.00  0.00     0.045 C 
ATOM     17  C   UNL     1       0.230   0.436  -0.385  1.00  0.00     0.115 C 
ATOM     18  C   UNL     1       1.608   0.094  -0.955  1.00  0.00     0.045 C 
ATOM     19  N   UNL     1      -0.697  -0.673  -0.467  1.00  0.00    -0.324 N 
ATOM     20  C   UNL     1      -0.553   1.456  -1.265  1.00  0.00     0.255 C 
ATOM     21  C   UNL     1      -1.864  -0.354  -1.120  1.00  0.00     0.325 C 
ATOM     22  H   UNL     1      -0.511  -1.565  -0.093  1.00  0.00     0.166 HD
ATOM     23  O   UNL     1      -0.212   2.616  -1.457  1.00  0.00    -0.272 OA
ATOM     24  O   UNL     1      -2.821  -1.097  -1.176  1.00  0.00    -0.248 OA
ENDBRANCH  14  15
ENDBRANCH  13  14
ENDBRANCH  11  13
ENDBRANCH   7  11
ENDBRANCH   3   6
ENDBRANCH   1   2
BRANCH   1  25
ATOM     25  C   UNL     1       1.807  -0.833  -6.879  1.00  0.00     0.042 C 
BRANCH  25  26
ATOM     26  C   UNL     1       2.784   0.309  -6.604  1.00  0.00     0.118 C 
BRANCH  26  27
ATOM     27  N   UNL     1       4.128  -0.191  -6.335  1.00  0.00    -0.352 N 
ATOM     28  C   UNL     1       5.197  -0.263  -7.190  1.00  0.00     0.251 C 
ATOM     29  H   UNL     1       4.288  -0.518  -5.421  1.00  0.00     0.163 HD
ATOM     30  O   UNL     1       6.132  -1.017  -6.945  1.00  0.00    -0.269 OA
BRANCH  28  31
ATOM     31  C   UNL     1       5.184   0.571  -8.404  1.00  0.00     0.039 A 
ATOM     32  C   UNL     1       5.506   0.003  -9.636  1.00  0.00     0.014 A 
ATOM     33  C   UNL     1       4.815   1.915  -8.308  1.00  0.00     0.014 A 
ATOM     34  C   UNL     1       5.393   0.778 -10.791  1.00  0.00     0.010 A 
ATOM     35  C   UNL     1       4.618   2.655  -9.463  1.00  0.00     0.010 A 
ATOM     36  C   UNL     1       4.913   2.096 -10.715  1.00  0.00    -0.014 A 
BRANCH  36  37
ATOM     37  C   UNL     1       4.724   2.925 -11.930  1.00  0.00     0.031 A 
ATOM     38  C   UNL     1       5.519   4.190 -12.094  1.00  0.00     0.074 A 
ATOM     39  C   UNL     1       3.780   2.583 -12.828  1.00  0.00     0.049 A 
ATOM     40  N   UNL     1       5.426   5.112 -13.015  1.00  0.00    -0.248 NA
ATOM     41  C   UNL     1       6.527   4.473 -11.059  1.00  0.00     0.031 C 
ATOM     42  C   UNL     1       2.919   1.401 -12.741  1.00  0.00     0.029 A 
ATOM     43  N   UNL     1       3.373   3.204 -13.981  1.00  0.00    -0.354 N 
ATOM     44  C   UNL     1       6.347   6.093 -12.661  1.00  0.00     0.074 A 
ATOM     45  C   UNL     1       6.940   5.681 -11.408  1.00  0.00     0.031 C 
ATOM     46  C   UNL     1       2.100   1.373 -13.804  1.00  0.00     0.029 A 
ATOM     47  C   UNL     1       2.337   2.560 -14.619  1.00  0.00     0.049 A 
ATOM     48  H   UNL     1       3.782   4.032 -14.320  1.00  0.00     0.167 HD
ATOM     49  C   UNL     1       6.681   7.220 -13.335  1.00  0.00     0.034 A 
ATOM     50  C   UNL     1       1.643   2.903 -15.722  1.00  0.00     0.034 A 
ATOM     51  C   UNL     1       6.083   7.599 -14.591  1.00  0.00     0.049 A 
ATOM     52  C   UNL     1       2.010   4.177 -16.439  1.00  0.00     0.074 A 
ATOM     53  C   UNL     1       6.396   8.673 -15.404  1.00  0.00     0.029 A 
ATOM     54  N   UNL     1       5.037   6.924 -15.209  1.00  0.00    -0.354 N 
ATOM     55  N   UNL     1       2.936   5.058 -16.133  1.00  0.00    -0.248 NA
ATOM     56  C   UNL     1       1.244   4.503 -17.648  1.00  0.00     0.031 C 
ATOM     57  C   UNL     1       5.489   8.694 -16.468  1.00  0.00     0.029 A 
ATOM     58  C   UNL     1       4.662   7.586 -16.367  1.00  0.00     0.049 A 
ATOM     59  H   UNL     1       4.623   6.097 -14.872  1.00  0.00     0.167 HD
ATOM     60  C   UNL     1       2.875   6.032 -17.125  1.00  0.00     0.074 A 
ATOM     61  C   UNL     1       1.837   5.618 -18.048  1.00  0.00     0.031 C 
ATOM     62  C   UNL     1       3.609   7.166 -17.263  1.00  0.00     0.034 A 
BRANCH  49  63
ATOM     63  C   UNL     1       7.713   8.128 -12.709  1.00  0.00     0.023 A 
ATOM     64  C   UNL     1       9.028   7.695 -12.460  1.00  0.00     0.031 A 
ATOM     65  C   UNL     1       7.370   9.436 -12.324  1.00  0.00     0.131 A 
ATOM     66  C   UNL     1       9.924   8.529 -11.774  1.00  0.00     0.055 A 
ATOM     67  C   UNL     1       8.292  10.293 -11.720  1.00  0.00     0.041 A 
ATOM     68  F   UNL     1       6.124   9.900 -12.513  1.00  0.00    -0.206 F 
ATOM     69  C   UNL     1       9.573   9.835 -11.426  1.00  0.00     0.022 A 
BRANCH  66  70
ATOM     70  S   UNL     1      11.498   7.828 -11.207  1.00  0.00     0.124 S 
ATOM     71  O   UNL     1      11.043   6.719 -10.372  1.00  0.00    -0.237 OA
ATOM     72  O   UNL     1      12.148   7.460 -12.459  1.00  0.00    -0.237 OA
ATOM     73  O   UNL     1      12.122   8.931 -10.479  1.00  0.00    -0.744 OA
ENDBRANCH  66  70
ENDBRANCH  49  63
BRANCH  50  74
ATOM     74  C   UNL     1       0.518   2.049 -16.200  1.00  0.00     0.023 A 
ATOM     75  C   UNL     1       0.576   1.402 -17.444  1.00  0.00     0.031 A 
ATOM     76  C   UNL     1      -0.649   1.889 -15.429  1.00  0.00     0.131 A 
ATOM     77  C   UNL     1      -0.525   0.660 -17.900  1.00  0.00     0.055 A 
ATOM     78  C   UNL     1      -1.719   1.105 -15.863  1.00  0.00     0.041 A 
ATOM     79  F   UNL     1      -0.756   2.481 -14.229  1.00  0.00    -0.206 F 
ATOM     80  C   UNL     1      -1.666   0.495 -17.112  1.00  0.00     0.022 A 
BRANCH  77  81
ATOM     81  S   UNL     1      -0.476  -0.024 -19.579  1.00  0.00     0.124 S 
ATOM     82  O   UNL     1      -0.279   1.177 -20.384  1.00  0.00    -0.237 OA
ATOM     83  O   UNL     1       0.659  -0.938 -19.501  1.00  0.00    -0.237 OA
ATOM     84  O   UNL     1      -1.781  -0.666 -19.724  1.00  0.00    -0.744 OA
ENDBRANCH  77  81
ENDBRANCH  50  74
BRANCH  62  85
ATOM     85  C   UNL     1       3.326   8.023 -18.472  1.00  0.00     0.023 A 
ATOM     86  C   UNL     1       2.108   8.709 -18.620  1.00  0.00     0.031 A 
ATOM     87  C   UNL     1       4.293   8.163 -19.484  1.00  0.00     0.131 A 
ATOM     88  C   UNL     1       1.870   9.467 -19.775  1.00  0.00     0.055 A 
ATOM     89  C   UNL     1       4.075   8.969 -20.601  1.00  0.00     0.041 A 
ATOM     90  F   UNL     1       5.472   7.527 -19.395  1.00  0.00    -0.206 F 
ATOM     91  C   UNL     1       2.853   9.619 -20.757  1.00  0.00     0.022 A 
BRANCH  88  92
ATOM     92  S   UNL     1       0.226  10.192 -20.018  1.00  0.00     0.124 S 
ATOM     93  O   UNL     1      -0.627   9.008 -20.032  1.00  0.00    -0.237 OA
ATOM     94  O   UNL     1       0.091  11.062 -18.855  1.00  0.00    -0.237 OA
ATOM     95  O   UNL     1       0.343  10.886 -21.300  1.00  0.00    -0.744 OA
ENDBRANCH  88  92
ENDBRANCH  62  85
ENDBRANCH  36  37
ENDBRANCH  28  31
ENDBRANCH  26  27
ENDBRANCH  25  26
ENDBRANCH   1  25
TORSDOF 17
