REMARK SMILES CC(C)C(=O)Nc1ccc2c([C@H](C(=O)NCCCNC(=O)c3ccc(-c4c5nc(c(-c6cc(S(=O)(=O)[O-])ccc6F)c6ccc([nH]6)c(-c6cc(S(=O)(=O)[O-])ccc6F)c6nc(c(-c7cc(S(=O)(=O)[O-])ccc7F)c7ccc4[nH]7)C=C6)C=C5)cc3)[NH+]3CC[NH+](CC(=O)N(C)C)CC3)c[nH]c2c1
REMARK SMILES IDX 17 1 16 2 15 3 13 4 14 5 12 7 11 8 7 9 8 10 100 11 9 12
REMARK SMILES IDX 99 13 10 14 98 15 97 16 6 18 4 19 5 20 2 22 1 23 3 24 85 25
REMARK SMILES IDX 86 26 96 27 87 29 95 30 88 31 89 33 90 34 91 35 92 36 93 37
REMARK SMILES IDX 94 38 18 39 19 40 20 41 21 43 22 44 23 45 84 46 24 47 83 48
REMARK SMILES IDX 25 49 26 50 27 51 77 52 28 53 82 54 76 55 78 56 29 57 81 58
REMARK SMILES IDX 75 59 74 60 30 62 62 63 42 64 61 65 43 66 46 67 60 68 79 69
REMARK SMILES IDX 44 70 45 71 59 73 80 74 47 75 31 76 32 77 40 78 33 79 39 80
REMARK SMILES IDX 41 81 38 82 34 83 35 84 36 85 37 86 63 87 64 88 72 89 65 90
REMARK SMILES IDX 71 91 73 92 70 93 66 94 67 95 68 96 69 97 48 98 49 99 57 100
REMARK SMILES IDX 50 101 56 102 58 103 55 104 51 105 52 106 53 107 54 108
REMARK H PARENT 15 6 98 17 6 21 85 28 88 32 19 42 78 61 46 72
REMARK Flexibility Score: inf
ROOT
ATOM      1  C   UNL     1       2.083  -0.143  -2.617  1.00  0.00     0.042 C 
ENDROOT
BRANCH   1   2
ATOM      2  C   UNL     1       1.433  -1.544  -2.509  1.00  0.00     0.118 C 
BRANCH   2   3
ATOM      3  N   UNL     1       0.512  -1.907  -3.584  1.00  0.00    -0.351 N 
ATOM      4  C   UNL     1       0.531  -2.818  -4.620  1.00  0.00     0.283 C 
ATOM      5  O   UNL     1      -0.487  -2.821  -5.324  1.00  0.00    -0.268 OA
ATOM      6  H   UNL     1      -0.317  -1.376  -3.565  1.00  0.00     0.163 HD
BRANCH   4   7
ATOM      7  C   UNL     1       1.754  -3.743  -4.894  1.00  0.00     0.308 C 
BRANCH   7   8
ATOM      8  C   UNL     1       1.424  -5.151  -5.390  1.00  0.00     0.044 A 
ATOM      9  C   UNL     1       3.686  -8.671  -5.920  1.00  0.00     0.043 A 
ATOM     10  C   UNL     1       4.407  -7.551  -5.523  1.00  0.00     0.027 A 
ATOM     11  C   UNL     1       2.349  -8.556  -6.313  1.00  0.00     0.052 A 
ATOM     12  C   UNL     1       3.770  -6.323  -5.328  1.00  0.00     0.013 A 
ATOM     13  C   UNL     1       1.717  -7.327  -6.075  1.00  0.00     0.048 A 
ATOM     14  C   UNL     1       2.382  -6.219  -5.550  1.00  0.00     0.009 A 
ATOM     15  N   UNL     1       0.412  -6.948  -6.272  1.00  0.00    -0.361 N 
ATOM     16  C   UNL     1       0.218  -5.665  -5.837  1.00  0.00     0.094 A 
ATOM     17  H   UNL     1      -0.285  -7.519  -6.670  1.00  0.00     0.166 HD
BRANCH   9  18
ATOM     18  N   UNL     1       4.269  -9.940  -5.945  1.00  0.00    -0.326 N 
ATOM     19  C   UNL     1       4.962 -10.595  -4.967  1.00  0.00     0.226 C 
ATOM     20  O   UNL     1       5.479 -11.680  -5.266  1.00  0.00    -0.274 OA
ATOM     21  H   UNL     1       4.166 -10.434  -6.790  1.00  0.00     0.169 HD
BRANCH  19  22
ATOM     22  C   UNL     1       5.034 -10.107  -3.511  1.00  0.00     0.072 C 
ATOM     23  C   UNL     1       6.106  -9.060  -3.239  1.00  0.00     0.018 C 
ATOM     24  C   UNL     1       3.683  -9.744  -2.897  1.00  0.00     0.018 C 
ENDBRANCH  19  22
ENDBRANCH   9  18
ENDBRANCH   7   8
BRANCH   7  25
ATOM     25  N   UNL     1       2.756  -3.158  -5.810  1.00  0.00    -0.312 N 
ATOM     26  C   UNL     1       2.525  -3.164  -7.263  1.00  0.00     0.325 C 
ATOM     27  C   UNL     1       3.309  -1.890  -5.378  1.00  0.00     0.325 C 
ATOM     28  H   UNL     1       3.457  -3.892  -5.702  1.00  0.00     0.349 HD
ATOM     29  C   UNL     1       1.970  -1.870  -7.913  1.00  0.00     0.325 C 
ATOM     30  C   UNL     1       2.561  -0.650  -5.920  1.00  0.00     0.325 C 
ATOM     31  N   UNL     1       2.434  -0.585  -7.369  1.00  0.00    -0.318 N 
ATOM     32  H   UNL     1       1.693   0.083  -7.580  1.00  0.00     0.348 HD
BRANCH  31  33
ATOM     33  C   UNL     1       3.574   0.045  -8.061  1.00  0.00     0.364 C 
BRANCH  33  34
ATOM     34  C   UNL     1       4.907  -0.701  -7.929  1.00  0.00     0.277 C 
ATOM     35  O   UNL     1       5.169  -1.607  -8.729  1.00  0.00    -0.268 OA
ATOM     36  N   UNL     1       5.777  -0.385  -6.883  1.00  0.00    -0.344 N 
ATOM     37  C   UNL     1       5.639   0.711  -5.930  1.00  0.00     0.146 C 
ATOM     38  C   UNL     1       6.926  -1.250  -6.668  1.00  0.00     0.146 C 
ENDBRANCH  33  34
ENDBRANCH  31  33
ENDBRANCH   7  25
ENDBRANCH   4   7
ENDBRANCH   2   3
ENDBRANCH   1   2
BRANCH   1  39
ATOM     39  C   UNL     1       1.199   1.019  -3.085  1.00  0.00     0.118 C 
BRANCH  39  40
ATOM     40  N   UNL     1       0.564   1.689  -1.970  1.00  0.00    -0.352 N 
ATOM     41  C   UNL     1       0.716   2.974  -1.505  1.00  0.00     0.251 C 
ATOM     42  H   UNL     1      -0.077   1.138  -1.465  1.00  0.00     0.163 HD
ATOM     43  O   UNL     1       0.323   3.224  -0.366  1.00  0.00    -0.269 OA
BRANCH  41  44
ATOM     44  C   UNL     1       1.333   4.058  -2.320  1.00  0.00     0.039 A 
ATOM     45  C   UNL     1       2.113   5.017  -1.659  1.00  0.00     0.014 A 
ATOM     46  C   UNL     1       1.056   4.232  -3.680  1.00  0.00     0.014 A 
ATOM     47  C   UNL     1       2.620   6.127  -2.350  1.00  0.00     0.010 A 
ATOM     48  C   UNL     1       1.597   5.325  -4.380  1.00  0.00     0.010 A 
ATOM     49  C   UNL     1       2.375   6.293  -3.722  1.00  0.00    -0.014 A 
BRANCH  49  50
ATOM     50  C   UNL     1       2.914   7.480  -4.455  1.00  0.00     0.031 A 
ATOM     51  C   UNL     1       1.988   8.540  -5.000  1.00  0.00     0.074 A 
ATOM     52  C   UNL     1       4.243   7.609  -4.646  1.00  0.00     0.049 A 
ATOM     53  N   UNL     1       2.274   9.620  -5.686  1.00  0.00    -0.248 NA
ATOM     54  C   UNL     1       0.552   8.353  -4.750  1.00  0.00     0.031 C 
ATOM     55  C   UNL     1       5.256   6.661  -4.178  1.00  0.00     0.029 A 
ATOM     56  N   UNL     1       4.974   8.583  -5.285  1.00  0.00    -0.354 N 
ATOM     57  C   UNL     1       1.056  10.236  -5.962  1.00  0.00     0.074 A 
ATOM     58  C   UNL     1       0.028   9.380  -5.403  1.00  0.00     0.031 C 
ATOM     59  C   UNL     1       6.472   7.107  -4.531  1.00  0.00     0.029 A 
ATOM     60  C   UNL     1       6.330   8.348  -5.288  1.00  0.00     0.049 A 
ATOM     61  H   UNL     1       4.564   9.375  -5.702  1.00  0.00     0.167 HD
ATOM     62  C   UNL     1       0.815  11.408  -6.605  1.00  0.00     0.034 A 
ATOM     63  C   UNL     1       7.346   9.040  -5.846  1.00  0.00     0.034 A 
ATOM     64  C   UNL     1       1.845  12.262  -7.151  1.00  0.00     0.049 A 
ATOM     65  C   UNL     1       7.050  10.314  -6.597  1.00  0.00     0.074 A 
ATOM     66  C   UNL     1       1.704  13.495  -7.770  1.00  0.00     0.029 A 
ATOM     67  N   UNL     1       3.203  11.974  -7.160  1.00  0.00    -0.354 N 
ATOM     68  N   UNL     1       5.895  10.899  -6.810  1.00  0.00    -0.248 NA
ATOM     69  C   UNL     1       8.199  11.025  -7.175  1.00  0.00     0.031 C 
ATOM     70  C   UNL     1       2.962  13.914  -8.216  1.00  0.00     0.029 A 
ATOM     71  C   UNL     1       3.903  12.984  -7.806  1.00  0.00     0.049 A 
ATOM     72  H   UNL     1       3.611  11.170  -6.764  1.00  0.00     0.167 HD
ATOM     73  C   UNL     1       6.185  12.064  -7.518  1.00  0.00     0.074 A 
ATOM     74  C   UNL     1       7.622  12.104  -7.684  1.00  0.00     0.031 C 
ATOM     75  C   UNL     1       5.336  13.017  -7.982  1.00  0.00     0.034 A 
BRANCH  62  76
ATOM     76  C   UNL     1      -0.628  11.822  -6.787  1.00  0.00     0.023 A 
ATOM     77  C   UNL     1      -1.461  12.114  -5.692  1.00  0.00     0.031 A 
ATOM     78  C   UNL     1      -1.182  11.922  -8.077  1.00  0.00     0.131 A 
ATOM     79  C   UNL     1      -2.814  12.419  -5.902  1.00  0.00     0.055 A 
ATOM     80  C   UNL     1      -2.510  12.304  -8.283  1.00  0.00     0.041 A 
ATOM     81  F   UNL     1      -0.443  11.641  -9.162  1.00  0.00    -0.206 F 
ATOM     82  C   UNL     1      -3.339  12.541  -7.191  1.00  0.00     0.022 A 
BRANCH  79  83
ATOM     83  S   UNL     1      -3.916  12.517  -4.464  1.00  0.00     0.124 S 
ATOM     84  O   UNL     1      -3.742  11.193  -3.869  1.00  0.00    -0.237 OA
ATOM     85  O   UNL     1      -3.350  13.634  -3.711  1.00  0.00    -0.237 OA
ATOM     86  O   UNL     1      -5.228  12.762  -5.051  1.00  0.00    -0.744 OA
ENDBRANCH  79  83
ENDBRANCH  62  76
BRANCH  63  87
ATOM     87  C   UNL     1       8.747   8.537  -5.741  1.00  0.00     0.023 A 
ATOM     88  C   UNL     1       9.729   9.267  -5.053  1.00  0.00     0.031 A 
ATOM     89  C   UNL     1       9.136   7.343  -6.375  1.00  0.00     0.131 A 
ATOM     90  C   UNL     1      11.061   8.822  -5.053  1.00  0.00     0.055 A 
ATOM     91  C   UNL     1      10.451   6.877  -6.327  1.00  0.00     0.041 A 
ATOM     92  F   UNL     1       8.236   6.605  -7.043  1.00  0.00    -0.206 F 
ATOM     93  C   UNL     1      11.425   7.626  -5.675  1.00  0.00     0.022 A 
BRANCH  90  94
ATOM     94  S   UNL     1      12.330   9.877  -4.300  1.00  0.00     0.124 S 
ATOM     95  O   UNL     1      12.189  11.107  -5.070  1.00  0.00    -0.237 OA
ATOM     96  O   UNL     1      11.889   9.934  -2.910  1.00  0.00    -0.237 OA
ATOM     97  O   UNL     1      13.568   9.134  -4.529  1.00  0.00    -0.744 OA
ENDBRANCH  90  94
ENDBRANCH  63  87
BRANCH  75  98
ATOM     98  C   UNL     1       5.952  14.211  -8.675  1.00  0.00     0.023 A 
ATOM     99  C   UNL     1       6.618  14.094  -9.907  1.00  0.00     0.031 A 
ATOM    100  C   UNL     1       5.883  15.485  -8.081  1.00  0.00     0.131 A 
ATOM    101  C   UNL     1       7.236  15.218 -10.479  1.00  0.00     0.055 A 
ATOM    102  C   UNL     1       6.447  16.610  -8.684  1.00  0.00     0.041 A 
ATOM    103  F   UNL     1       5.263  15.657  -6.903  1.00  0.00    -0.206 F 
ATOM    104  C   UNL     1       7.140  16.478  -9.884  1.00  0.00     0.022 A 
BRANCH 101 105
ATOM    105  S   UNL     1       8.248  14.995 -11.969  1.00  0.00     0.124 S 
ATOM    106  O   UNL     1       9.246  14.031 -11.517  1.00  0.00    -0.237 OA
ATOM    107  O   UNL     1       7.274  14.498 -12.936  1.00  0.00    -0.237 OA
ATOM    108  O   UNL     1       8.760  16.337 -12.240  1.00  0.00    -0.744 OA
ENDBRANCH 101 105
ENDBRANCH  75  98
ENDBRANCH  49  50
ENDBRANCH  41  44
ENDBRANCH  39  40
ENDBRANCH   1  39
TORSDOF 19
