REMARK SMILES CC[C@@H]1CCCC[N@H+]1Cc1c(C(=O)NCCCNC(=O)c2ccc(-c3c4nc(c(-c5cc(S(=O)(=O)[O-])ccc5F)c5ccc([nH]5)c(-c5cc(S(=O)(=O)[O-])ccc5F)c5nc(c(-c6cc(S(=O)(=O)[O-])ccc6F)c6ccc3[nH]6)C=C5)C=C4)cc2)oc2ccccc12
REMARK SMILES IDX 16 1 15 2 14 3 12 4 13 5 11 7 10 8 90 9 84 10 85 11 89 12
REMARK SMILES IDX 86 13 88 14 87 15 9 16 8 17 3 18 4 19 5 20 7 21 6 23 2 24
REMARK SMILES IDX 1 25 17 26 18 27 19 28 20 30 21 31 22 32 83 33 23 34 82 35
REMARK SMILES IDX 24 36 25 37 26 38 76 39 27 40 81 41 75 42 77 43 28 44 80 45
REMARK SMILES IDX 74 46 73 47 29 49 61 50 41 51 60 52 42 53 45 54 59 55 78 56
REMARK SMILES IDX 43 57 44 58 58 60 79 61 46 62 30 63 31 64 39 65 32 66 38 67
REMARK SMILES IDX 40 68 37 69 33 70 34 71 35 72 36 73 62 74 63 75 71 76 64 77
REMARK SMILES IDX 70 78 72 79 69 80 65 81 66 82 67 83 68 84 47 85 48 86 56 87
REMARK SMILES IDX 49 88 55 89 57 90 54 91 50 92 51 93 52 94 53 95
REMARK H PARENT 14 6 8 22 18 29 77 48 45 59
REMARK Flexibility Score: inf
ROOT
ATOM      1  C   UNL     1       4.873   2.571   6.245  1.00  0.00     0.042 C 
ENDROOT
BRANCH   1   2
ATOM      2  C   UNL     1       4.334   1.146   6.300  1.00  0.00     0.118 C 
BRANCH   2   3
ATOM      3  N   UNL     1       2.901   1.126   6.068  1.00  0.00    -0.349 N 
ATOM      4  C   UNL     1       2.160   0.848   4.945  1.00  0.00     0.287 C 
ATOM      5  O   UNL     1       0.948   1.026   5.063  1.00  0.00    -0.266 OA
ATOM      6  H   UNL     1       2.362   1.352   6.860  1.00  0.00     0.163 HD
BRANCH   4   7
ATOM      7  C   UNL     1       2.786   0.353   3.727  1.00  0.00     0.201 A 
ATOM      8  C   UNL     1       2.235  -0.218   2.570  1.00  0.00     0.066 A 
ATOM      9  C   UNL     1       3.371  -0.482   1.700  1.00  0.00     0.030 A 
ATOM     10  O   UNL     1       4.137   0.433   3.602  1.00  0.00    -0.450 OA
ATOM     11  C   UNL     1       4.495  -0.101   2.420  1.00  0.00     0.135 A 
ATOM     12  C   UNL     1       3.624  -0.992   0.406  1.00  0.00     0.012 A 
ATOM     13  C   UNL     1       5.816  -0.238   1.994  1.00  0.00     0.048 A 
ATOM     14  C   UNL     1       4.939  -1.176  -0.049  1.00  0.00     0.001 A 
ATOM     15  C   UNL     1       6.022  -0.811   0.740  1.00  0.00     0.004 A 
BRANCH   8  16
ATOM     16  C   UNL     1       0.749  -0.409   2.364  1.00  0.00     0.304 C 
BRANCH  16  17
ATOM     17  N   UNL     1       0.262  -1.785   2.136  1.00  0.00    -0.329 N 
ATOM     18  C   UNL     1       0.536  -2.374   0.820  1.00  0.00     0.184 C 
ATOM     19  C   UNL     1       0.066  -3.852   0.730  1.00  0.00     0.065 C 
ATOM     20  C   UNL     1       0.563  -4.696   1.891  1.00  0.00     0.012 C 
ATOM     21  C   UNL     1       0.600  -2.637   3.292  1.00  0.00     0.262 C 
ATOM     22  H   UNL     1      -0.754  -1.720   2.080  1.00  0.00     0.348 HD
ATOM     23  C   UNL     1       0.082  -4.068   3.183  1.00  0.00     0.062 C 
BRANCH  18  24
ATOM     24  C   UNL     1      -0.109  -1.665  -0.414  1.00  0.00     0.061 C 
ATOM     25  C   UNL     1       0.205  -0.212  -0.750  1.00  0.00     0.010 C 
ENDBRANCH  18  24
ENDBRANCH  16  17
ENDBRANCH   8  16
ENDBRANCH   4   7
ENDBRANCH   2   3
ENDBRANCH   1   2
BRANCH   1  26
ATOM     26  C   UNL     1       4.343   3.444   7.381  1.00  0.00     0.118 C 
BRANCH  26  27
ATOM     27  N   UNL     1       4.690   2.903   8.691  1.00  0.00    -0.352 N 
ATOM     28  C   UNL     1       5.507   3.412   9.667  1.00  0.00     0.251 C 
ATOM     29  H   UNL     1       4.272   2.038   8.907  1.00  0.00     0.163 HD
ATOM     30  O   UNL     1       5.896   2.677  10.570  1.00  0.00    -0.269 OA
BRANCH  28  31
ATOM     31  C   UNL     1       5.917   4.829   9.623  1.00  0.00     0.039 A 
ATOM     32  C   UNL     1       7.227   5.169   9.965  1.00  0.00     0.014 A 
ATOM     33  C   UNL     1       5.001   5.823   9.270  1.00  0.00     0.014 A 
ATOM     34  C   UNL     1       7.633   6.502   9.894  1.00  0.00     0.010 A 
ATOM     35  C   UNL     1       5.429   7.136   9.117  1.00  0.00     0.010 A 
ATOM     36  C   UNL     1       6.748   7.492   9.435  1.00  0.00    -0.014 A 
BRANCH  36  37
ATOM     37  C   UNL     1       7.178   8.906   9.293  1.00  0.00     0.031 A 
ATOM     38  C   UNL     1       6.515   9.980  10.110  1.00  0.00     0.074 A 
ATOM     39  C   UNL     1       8.121   9.226   8.385  1.00  0.00     0.049 A 
ATOM     40  N   UNL     1       6.690  11.276  10.074  1.00  0.00    -0.248 NA
ATOM     41  C   UNL     1       5.496   9.539  11.075  1.00  0.00     0.031 C 
ATOM     42  C   UNL     1       8.810   8.274   7.511  1.00  0.00     0.029 A 
ATOM     43  N   UNL     1       8.659  10.440   8.040  1.00  0.00    -0.354 N 
ATOM     44  C   UNL     1       5.798  11.805  11.000  1.00  0.00     0.074 A 
ATOM     45  C   UNL     1       5.035  10.694  11.528  1.00  0.00     0.031 C 
ATOM     46  C   UNL     1       9.700   8.935   6.756  1.00  0.00     0.029 A 
ATOM     47  C   UNL     1       9.607  10.362   7.047  1.00  0.00     0.049 A 
ATOM     48  H   UNL     1       8.391  11.288   8.463  1.00  0.00     0.167 HD
ATOM     49  C   UNL     1       5.647  13.095  11.393  1.00  0.00     0.034 A 
ATOM     50  C   UNL     1      10.311  11.332   6.429  1.00  0.00     0.034 A 
ATOM     51  C   UNL     1       6.421  14.188  10.855  1.00  0.00     0.049 A 
ATOM     52  C   UNL     1      10.092  12.764   6.847  1.00  0.00     0.074 A 
ATOM     53  C   UNL     1       6.386  15.525  11.210  1.00  0.00     0.029 A 
ATOM     54  N   UNL     1       7.361  14.074   9.837  1.00  0.00    -0.354 N 
ATOM     55  N   UNL     1       9.278  13.245   7.759  1.00  0.00    -0.248 NA
ATOM     56  C   UNL     1      10.893  13.782   6.157  1.00  0.00     0.031 C 
ATOM     57  C   UNL     1       7.242  16.229  10.356  1.00  0.00     0.029 A 
ATOM     58  C   UNL     1       7.883  15.321   9.527  1.00  0.00     0.049 A 
ATOM     59  H   UNL     1       7.619  13.231   9.400  1.00  0.00     0.167 HD
ATOM     60  C   UNL     1       9.496  14.620   7.774  1.00  0.00     0.074 A 
ATOM     61  C   UNL     1      10.527  14.886   6.792  1.00  0.00     0.031 C 
ATOM     62  C   UNL     1       8.902  15.576   8.534  1.00  0.00     0.034 A 
BRANCH  49  63
ATOM     63  C   UNL     1       4.586  13.386  12.429  1.00  0.00     0.023 A 
ATOM     64  C   UNL     1       4.633  12.817  13.715  1.00  0.00     0.031 A 
ATOM     65  C   UNL     1       3.492  14.213  12.119  1.00  0.00     0.131 A 
ATOM     66  C   UNL     1       3.567  13.008  14.607  1.00  0.00     0.055 A 
ATOM     67  C   UNL     1       2.480  14.475  13.045  1.00  0.00     0.041 A 
ATOM     68  F   UNL     1       3.377  14.768  10.902  1.00  0.00    -0.206 F 
ATOM     69  C   UNL     1       2.504  13.857  14.292  1.00  0.00     0.022 A 
BRANCH  66  70
ATOM     70  S   UNL     1       3.510  12.000  16.113  1.00  0.00     0.124 S 
ATOM     71  O   UNL     1       3.532  10.646  15.563  1.00  0.00    -0.237 OA
ATOM     72  O   UNL     1       4.713  12.422  16.822  1.00  0.00    -0.237 OA
ATOM     73  O   UNL     1       2.247  12.389  16.738  1.00  0.00    -0.744 OA
ENDBRANCH  66  70
ENDBRANCH  49  63
BRANCH  50  74
ATOM     74  C   UNL     1      11.278  10.990   5.347  1.00  0.00     0.023 A 
ATOM     75  C   UNL     1      12.651  11.244   5.498  1.00  0.00     0.031 A 
ATOM     76  C   UNL     1      10.841  10.438   4.130  1.00  0.00     0.131 A 
ATOM     77  C   UNL     1      13.530  10.992   4.434  1.00  0.00     0.055 A 
ATOM     78  C   UNL     1      11.728  10.133   3.096  1.00  0.00     0.041 A 
ATOM     79  F   UNL     1       9.540  10.171   3.933  1.00  0.00    -0.206 F 
ATOM     80  C   UNL     1      13.081  10.423   3.240  1.00  0.00     0.022 A 
BRANCH  77  81
ATOM     81  S   UNL     1      15.263  11.501   4.601  1.00  0.00     0.124 S 
ATOM     82  O   UNL     1      15.129  12.934   4.840  1.00  0.00    -0.237 OA
ATOM     83  O   UNL     1      15.707  10.699   5.736  1.00  0.00    -0.237 OA
ATOM     84  O   UNL     1      15.850  11.135   3.314  1.00  0.00    -0.744 OA
ENDBRANCH  77  81
ENDBRANCH  50  74
BRANCH  62  85
ATOM     85  C   UNL     1       9.391  16.994   8.361  1.00  0.00     0.023 A 
ATOM     86  C   UNL     1       9.215  17.700   7.158  1.00  0.00     0.031 A 
ATOM     87  C   UNL     1      10.054  17.646   9.418  1.00  0.00     0.131 A 
ATOM     88  C   UNL     1       9.749  18.991   7.020  1.00  0.00     0.055 A 
ATOM     89  C   UNL     1      10.520  18.955   9.298  1.00  0.00     0.041 A 
ATOM     90  F   UNL     1      10.255  17.020  10.588  1.00  0.00    -0.206 F 
ATOM     91  C   UNL     1      10.382  19.630   8.089  1.00  0.00     0.022 A 
BRANCH  88  92
ATOM     92  S   UNL     1       9.698  19.785   5.390  1.00  0.00     0.124 S 
ATOM     93  O   UNL     1      10.418  18.823   4.562  1.00  0.00    -0.237 OA
ATOM     94  O   UNL     1       8.264  19.893   5.140  1.00  0.00    -0.237 OA
ATOM     95  O   UNL     1      10.387  21.056   5.606  1.00  0.00    -0.744 OA
ENDBRANCH  88  92
ENDBRANCH  62  85
ENDBRANCH  36  37
ENDBRANCH  28  31
ENDBRANCH  26  27
ENDBRANCH   1  26
TORSDOF 16
