REMARK SMILES CCC[C@@H]1SC[C@H](C(=O)NCCCNC(=O)c2ccc(-c3c4nc(c(-c5cc(S(=O)(=O)[O-])ccc5F)c5ccc([nH]5)c(-c5cc(S(=O)(=O)[O-])ccc5F)c5nc(c(-c6cc(S(=O)(=O)[O-])ccc6F)c6ccc3[nH]6)C=C5)C=C4)cc2)N1C(=O)C[NH+]1CCC([NH3+])CC1
REMARK SMILES IDX 11 1 10 2 8 3 9 4 7 6 4 7 5 8 80 9 6 10 3 11 2 12 1 13 81 14
REMARK SMILES IDX 82 15 83 16 84 17 85 18 90 19 86 21 89 22 87 23 88 24 12 28
REMARK SMILES IDX 13 29 14 30 15 31 16 33 17 34 18 35 79 36 19 37 78 38 20 39
REMARK SMILES IDX 21 40 22 41 72 42 23 43 77 44 71 45 73 46 24 47 76 48 70 49
REMARK SMILES IDX 69 50 25 52 57 53 37 54 56 55 38 56 41 57 55 58 74 59 39 60
REMARK SMILES IDX 40 61 54 63 75 64 42 65 26 66 27 67 35 68 28 69 34 70 36 71
REMARK SMILES IDX 33 72 29 73 30 74 31 75 32 76 58 77 59 78 67 79 60 80 66 81
REMARK SMILES IDX 68 82 65 83 61 84 62 85 63 86 64 87 43 88 44 89 52 90 45 91
REMARK SMILES IDX 51 92 53 93 50 94 46 95 47 96 48 97 49 98
REMARK H PARENT 10 5 84 20 88 25 88 26 88 27 14 32 73 51 41 62
REMARK Flexibility Score: inf
ROOT
ATOM      1  C   UNL     1      -4.107   0.962  -2.126  1.00  0.00     0.117 C 
ENDROOT
BRANCH   1   2
ATOM      2  N   UNL     1      -3.770  -0.411  -1.793  1.00  0.00    -0.354 N 
ATOM      3  C   UNL     1      -2.523  -0.972  -1.714  1.00  0.00     0.243 C 
ATOM      4  O   UNL     1      -2.434  -2.190  -1.871  1.00  0.00    -0.273 OA
ATOM      5  H   UNL     1      -4.528  -1.010  -1.602  1.00  0.00     0.163 HD
BRANCH   3   6
ATOM      6  C   UNL     1      -1.311  -0.074  -1.393  1.00  0.00     0.185 C 
ATOM      7  C   UNL     1       0.993  -0.243  -2.200  1.00  0.00     0.144 C 
ATOM      8  S   UNL     1       0.875  -1.478  -0.879  1.00  0.00    -0.134 SA
ATOM      9  N   UNL     1      -0.377   0.217  -2.520  1.00  0.00    -0.313 N 
ATOM     10  C   UNL     1      -0.585  -0.712  -0.200  1.00  0.00     0.107 C 
BRANCH   7  11
ATOM     11  C   UNL     1       1.813  -0.873  -3.341  1.00  0.00     0.036 C 
BRANCH  11  12
ATOM     12  C   UNL     1       3.156  -0.141  -3.561  1.00  0.00    -0.000 C 
ATOM     13  C   UNL     1       4.285  -0.678  -2.700  1.00  0.00     0.004 C 
ENDBRANCH  11  12
ENDBRANCH   7  11
BRANCH   9  14
ATOM     14  C   UNL     1      -0.474   1.544  -3.006  1.00  0.00     0.279 C 
ATOM     15  O   UNL     1      -0.213   2.484  -2.248  1.00  0.00    -0.268 OA
BRANCH  14  16
ATOM     16  C   UNL     1      -1.017   1.789  -4.454  1.00  0.00     0.363 C 
BRANCH  16  17
ATOM     17  N   UNL     1       0.001   2.394  -5.348  1.00  0.00    -0.327 N 
ATOM     18  C   UNL     1       1.092   1.477  -5.637  1.00  0.00     0.268 C 
ATOM     19  C   UNL     1      -0.502   2.938  -6.621  1.00  0.00     0.268 C 
ATOM     20  H   UNL     1       0.332   3.188  -4.800  1.00  0.00     0.348 HD
ATOM     21  C   UNL     1       0.673   0.297  -6.511  1.00  0.00     0.126 C 
ATOM     22  C   UNL     1      -0.801   1.918  -7.735  1.00  0.00     0.126 C 
ATOM     23  C   UNL     1       0.280   0.836  -7.877  1.00  0.00     0.192 C 
BRANCH  23  24
ATOM     24  N   UNL     1      -0.166  -0.242  -8.755  1.00  0.00    -0.355 N 
ATOM     25  H   UNL     1      -0.990  -0.689  -8.353  1.00  0.00     0.344 HD
ATOM     26  H   UNL     1       0.581  -0.931  -8.853  1.00  0.00     0.344 HD
ATOM     27  H   UNL     1      -0.399   0.140  -9.671  1.00  0.00     0.344 HD
ENDBRANCH  23  24
ENDBRANCH  16  17
ENDBRANCH  14  16
ENDBRANCH   9  14
ENDBRANCH   3   6
ENDBRANCH   1   2
BRANCH   1  28
ATOM     28  C   UNL     1      -4.249   1.089  -3.635  1.00  0.00     0.042 C 
BRANCH  28  29
ATOM     29  C   UNL     1      -5.598   0.605  -4.139  1.00  0.00     0.118 C 
BRANCH  29  30
ATOM     30  N   UNL     1      -6.630   1.599  -3.899  1.00  0.00    -0.352 N 
ATOM     31  C   UNL     1      -7.345   2.345  -4.806  1.00  0.00     0.251 C 
ATOM     32  H   UNL     1      -6.848   1.761  -2.953  1.00  0.00     0.163 HD
ATOM     33  O   UNL     1      -7.944   3.341  -4.417  1.00  0.00    -0.269 OA
BRANCH  31  34
ATOM     34  C   UNL     1      -7.376   1.956  -6.236  1.00  0.00     0.039 A 
ATOM     35  C   UNL     1      -7.400   2.956  -7.212  1.00  0.00     0.014 A 
ATOM     36  C   UNL     1      -7.419   0.613  -6.618  1.00  0.00     0.014 A 
ATOM     37  C   UNL     1      -7.424   2.606  -8.565  1.00  0.00     0.010 A 
ATOM     38  C   UNL     1      -7.339   0.266  -7.962  1.00  0.00     0.010 A 
ATOM     39  C   UNL     1      -7.367   1.258  -8.952  1.00  0.00    -0.014 A 
BRANCH  39  40
ATOM     40  C   UNL     1      -7.382   0.854 -10.382  1.00  0.00     0.031 A 
ATOM     41  C   UNL     1      -8.507   0.000 -10.907  1.00  0.00     0.074 A 
ATOM     42  C   UNL     1      -6.357   1.191 -11.187  1.00  0.00     0.049 A 
ATOM     43  N   UNL     1      -8.661  -0.539 -12.090  1.00  0.00    -0.248 NA
ATOM     44  C   UNL     1      -9.581  -0.323  -9.957  1.00  0.00     0.031 C 
ATOM     45  C   UNL     1      -5.195   1.986 -10.787  1.00  0.00     0.029 A 
ATOM     46  N   UNL     1      -6.125   0.905 -12.508  1.00  0.00    -0.354 N 
ATOM     47  C   UNL     1      -9.833  -1.286 -12.015  1.00  0.00     0.074 A 
ATOM     48  C   UNL     1     -10.301  -1.190 -10.649  1.00  0.00     0.031 C 
ATOM     49  C   UNL     1      -4.394   2.159 -11.851  1.00  0.00     0.029 A 
ATOM     50  C   UNL     1      -4.957   1.444 -12.993  1.00  0.00     0.049 A 
ATOM     51  H   UNL     1      -6.738   0.364 -13.057  1.00  0.00     0.167 HD
ATOM     52  C   UNL     1     -10.474  -1.966 -13.000  1.00  0.00     0.034 A 
ATOM     53  C   UNL     1      -4.400   1.366 -14.217  1.00  0.00     0.034 A 
ATOM     54  C   UNL     1      -9.995  -2.035 -14.360  1.00  0.00     0.049 A 
ATOM     55  C   UNL     1      -5.104   0.575 -15.288  1.00  0.00     0.074 A 
ATOM     56  C   UNL     1     -10.588  -2.637 -15.456  1.00  0.00     0.029 A 
ATOM     57  N   UNL     1      -8.795  -1.493 -14.809  1.00  0.00    -0.354 N 
ATOM     58  N   UNL     1      -6.237  -0.087 -15.220  1.00  0.00    -0.248 NA
ATOM     59  C   UNL     1      -4.455   0.526 -16.604  1.00  0.00     0.031 C 
ATOM     60  C   UNL     1      -9.714  -2.528 -16.544  1.00  0.00     0.029 A 
ATOM     61  C   UNL     1      -8.613  -1.782 -16.154  1.00  0.00     0.049 A 
ATOM     62  H   UNL     1      -8.166  -0.979 -14.253  1.00  0.00     0.167 HD
ATOM     63  C   UNL     1      -6.453  -0.602 -16.495  1.00  0.00     0.074 A 
ATOM     64  C   UNL     1      -5.336  -0.167 -17.311  1.00  0.00     0.031 C 
ATOM     65  C   UNL     1      -7.485  -1.357 -16.953  1.00  0.00     0.034 A 
BRANCH  52  66
ATOM     66  C   UNL     1     -11.735  -2.711 -12.618  1.00  0.00     0.023 A 
ATOM     67  C   UNL     1     -12.846  -2.050 -12.061  1.00  0.00     0.031 A 
ATOM     68  C   UNL     1     -11.804  -4.110 -12.740  1.00  0.00     0.131 A 
ATOM     69  C   UNL     1     -13.917  -2.792 -11.540  1.00  0.00     0.055 A 
ATOM     70  C   UNL     1     -12.922  -4.834 -12.317  1.00  0.00     0.041 A 
ATOM     71  F   UNL     1     -10.773  -4.805 -13.246  1.00  0.00    -0.206 F 
ATOM     72  C   UNL     1     -13.976  -4.178 -11.689  1.00  0.00     0.022 A 
BRANCH  69  73
ATOM     73  S   UNL     1     -15.121  -1.939 -10.483  1.00  0.00     0.124 S 
ATOM     74  O   UNL     1     -14.255  -1.356  -9.461  1.00  0.00    -0.237 OA
ATOM     75  O   UNL     1     -15.742  -0.998 -11.408  1.00  0.00    -0.237 OA
ATOM     76  O   UNL     1     -15.987  -3.017 -10.011  1.00  0.00    -0.744 OA
ENDBRANCH  69  73
ENDBRANCH  52  66
BRANCH  53  77
ATOM     77  C   UNL     1      -3.118   2.069 -14.502  1.00  0.00     0.023 A 
ATOM     78  C   UNL     1      -3.079   3.149 -15.397  1.00  0.00     0.031 A 
ATOM     79  C   UNL     1      -1.916   1.671 -13.891  1.00  0.00     0.131 A 
ATOM     80  C   UNL     1      -1.857   3.776 -15.682  1.00  0.00     0.055 A 
ATOM     81  C   UNL     1      -0.711   2.330 -14.141  1.00  0.00     0.041 A 
ATOM     82  F   UNL     1      -1.903   0.647 -13.024  1.00  0.00    -0.206 F 
ATOM     83  C   UNL     1      -0.675   3.384 -15.049  1.00  0.00     0.022 A 
BRANCH  80  84
ATOM     84  S   UNL     1      -1.826   5.085 -16.938  1.00  0.00     0.124 S 
ATOM     85  O   UNL     1      -2.282   4.369 -18.124  1.00  0.00    -0.237 OA
ATOM     86  O   UNL     1      -2.755   6.062 -16.381  1.00  0.00    -0.237 OA
ATOM     87  O   UNL     1      -0.426   5.502 -16.959  1.00  0.00    -0.744 OA
ENDBRANCH  80  84
ENDBRANCH  53  77
BRANCH  65  88
ATOM     88  C   UNL     1      -7.473  -1.718 -18.419  1.00  0.00     0.023 A 
ATOM     89  C   UNL     1      -6.497  -2.568 -18.968  1.00  0.00     0.031 A 
ATOM     90  C   UNL     1      -8.451  -1.191 -19.282  1.00  0.00     0.131 A 
ATOM     91  C   UNL     1      -6.487  -2.820 -20.349  1.00  0.00     0.055 A 
ATOM     92  C   UNL     1      -8.475  -1.498 -20.643  1.00  0.00     0.041 A 
ATOM     93  F   UNL     1      -9.405  -0.370 -18.814  1.00  0.00    -0.206 F 
ATOM     94  C   UNL     1      -7.480  -2.306 -21.186  1.00  0.00     0.022 A 
BRANCH  91  95
ATOM     95  S   UNL     1      -5.099  -3.750 -21.055  1.00  0.00     0.124 S 
ATOM     96  O   UNL     1      -3.956  -2.931 -20.666  1.00  0.00    -0.237 OA
ATOM     97  O   UNL     1      -5.215  -5.041 -20.385  1.00  0.00    -0.237 OA
ATOM     98  O   UNL     1      -5.391  -3.768 -22.487  1.00  0.00    -0.744 OA
ENDBRANCH  91  95
ENDBRANCH  65  88
ENDBRANCH  39  40
ENDBRANCH  31  34
ENDBRANCH  29  30
ENDBRANCH  28  29
ENDBRANCH   1  28
TORSDOF 19
