REMARK SMILES COc1ccc([C@@H]2C(C#N)=C(N)N3C(=O)[C@H](CC(=O)NCCCNC(=O)c4ccc(-c5c6nc(c(-c7cc(S(=O)(=O)[O-])ccc7F)c7ccc([nH]7)c(-c7cc(S(=O)(=O)[O-])ccc7F)c7nc(c(-c8cc(S(=O)(=O)[O-])ccc8F)c8ccc5[nH]8)C=C7)C=C6)cc4)SC3=C2C#N)cc1
REMARK SMILES IDX 22 1 21 2 20 3 18 4 19 5 17 7 16 8 7 9 8 10 92 11 11 12
REMARK SMILES IDX 91 13 13 14 90 15 14 16 15 17 6 18 3 19 4 20 96 21 5 22
REMARK SMILES IDX 95 23 2 24 1 25 9 26 10 27 93 28 94 29 12 30 23 33 24 34
REMARK SMILES IDX 25 35 26 37 27 38 28 39 89 40 29 41 88 42 30 43 31 44 32 45
REMARK SMILES IDX 82 46 33 47 87 48 81 49 83 50 34 51 86 52 80 53 79 54 35 56
REMARK SMILES IDX 67 57 47 58 66 59 48 60 51 61 65 62 84 63 49 64 50 65 64 67
REMARK SMILES IDX 85 68 52 69 36 70 37 71 45 72 38 73 44 74 46 75 43 76 39 77
REMARK SMILES IDX 40 78 41 79 42 80 68 81 69 82 77 83 70 84 76 85 78 86 75 87
REMARK SMILES IDX 71 88 72 89 73 90 74 91 53 92 54 93 62 94 55 95 61 96 63 97
REMARK SMILES IDX 60 98 56 99 57 100 58 101 59 102
REMARK H PARENT 20 6 12 31 12 32 24 36 83 55 51 66
REMARK Flexibility Score: inf
ROOT
ATOM      1  C   UNL     1       7.061   9.716   4.370  1.00  0.00     0.042 C 
ENDROOT
BRANCH   1   2
ATOM      2  C   UNL     1       7.622   8.595   5.244  1.00  0.00     0.117 C 
BRANCH   2   3
ATOM      3  N   UNL     1       7.365   8.815   6.660  1.00  0.00    -0.356 N 
ATOM      4  C   UNL     1       6.609   8.114   7.550  1.00  0.00     0.221 C 
ATOM      5  O   UNL     1       6.465   8.571   8.685  1.00  0.00    -0.275 OA
ATOM      6  H   UNL     1       7.813   9.605   7.039  1.00  0.00     0.163 HD
BRANCH   4   7
ATOM      7  C   UNL     1       5.982   6.786   7.173  1.00  0.00     0.125 C 
BRANCH   7   8
ATOM      8  C   UNL     1       4.513   6.952   6.806  1.00  0.00     0.152 C 
ATOM      9  C   UNL     1       1.908   5.518   2.908  1.00  0.00     0.107 C 
ATOM     10  C   UNL     1       3.020   6.359   2.315  1.00  0.00     0.083 C 
ATOM     11  C   UNL     1       2.231   5.032   4.314  1.00  0.00     0.073 C 
ATOM     12  C   UNL     1       3.990   6.887   3.099  1.00  0.00     0.126 C 
ATOM     13  C   UNL     1       3.230   5.618   4.988  1.00  0.00     0.099 C 
ATOM     14  N   UNL     1       3.943   6.671   4.476  1.00  0.00    -0.258 N 
ATOM     15  S   UNL     1       3.660   5.332   6.645  1.00  0.00    -0.093 SA
ATOM     16  C   UNL     1       4.356   7.582   5.439  1.00  0.00     0.247 C 
ATOM     17  O   UNL     1       4.478   8.786   5.266  1.00  0.00    -0.273 OA
BRANCH   9  18
ATOM     18  C   UNL     1       1.524   4.352   2.011  1.00  0.00    -0.034 A 
ATOM     19  C   UNL     1       0.729   2.138   0.493  1.00  0.00     0.118 A 
ATOM     20  C   UNL     1      -0.165   3.180   0.735  1.00  0.00     0.047 A 
ATOM     21  C   UNL     1       2.039   2.226   0.966  1.00  0.00     0.047 A 
ATOM     22  C   UNL     1       0.224   4.281   1.493  1.00  0.00     0.008 A 
ATOM     23  C   UNL     1       2.437   3.328   1.720  1.00  0.00     0.008 A 
BRANCH  19  24
ATOM     24  O   UNL     1       0.231   1.100  -0.244  1.00  0.00    -0.497 OA
ATOM     25  C   UNL     1       0.842  -0.161  -0.008  1.00  0.00     0.278 C 
ENDBRANCH  19  24
ENDBRANCH   9  18
BRANCH  10  26
ATOM     26  C   UNL     1       3.018   6.610   0.907  1.00  0.00     0.100 C 
ATOM     27  N   UNL     1       3.075   6.820  -0.232  1.00  0.00    -0.193 NA
ENDBRANCH  10  26
BRANCH  11  28
ATOM     28  C   UNL     1       1.382   4.071   4.935  1.00  0.00     0.098 C 
ATOM     29  N   UNL     1       0.681   3.302   5.452  1.00  0.00    -0.193 NA
ENDBRANCH  11  28
BRANCH  12  30
ATOM     30  N   UNL     1       5.044   7.574   2.552  1.00  0.00    -0.384 N 
ATOM     31  H   UNL     1       5.080   7.728   1.580  1.00  0.00     0.158 HD
ATOM     32  H   UNL     1       5.764   7.913   3.131  1.00  0.00     0.158 HD
ENDBRANCH  12  30
ENDBRANCH   7   8
ENDBRANCH   4   7
ENDBRANCH   2   3
ENDBRANCH   1   2
BRANCH   1  33
ATOM     33  C   UNL     1       7.795  11.035   4.461  1.00  0.00     0.118 C 
BRANCH  33  34
ATOM     34  N   UNL     1       8.977  11.032   3.625  1.00  0.00    -0.352 N 
ATOM     35  C   UNL     1       9.142  11.435   2.321  1.00  0.00     0.251 C 
ATOM     36  H   UNL     1       9.791  10.686   4.059  1.00  0.00     0.163 HD
ATOM     37  O   UNL     1      10.134  11.034   1.715  1.00  0.00    -0.269 OA
BRANCH  35  38
ATOM     38  C   UNL     1       8.146  12.296   1.629  1.00  0.00     0.039 A 
ATOM     39  C   UNL     1       7.980  12.144   0.248  1.00  0.00     0.014 A 
ATOM     40  C   UNL     1       7.415  13.284   2.291  1.00  0.00     0.014 A 
ATOM     41  C   UNL     1       7.053  12.933  -0.442  1.00  0.00     0.010 A 
ATOM     42  C   UNL     1       6.407  13.986   1.627  1.00  0.00     0.010 A 
ATOM     43  C   UNL     1       6.221  13.829   0.248  1.00  0.00    -0.014 A 
BRANCH  43  44
ATOM     44  C   UNL     1       5.161  14.600  -0.460  1.00  0.00     0.031 A 
ATOM     45  C   UNL     1       5.174  16.107  -0.457  1.00  0.00     0.074 A 
ATOM     46  C   UNL     1       4.158  13.938  -1.073  1.00  0.00     0.049 A 
ATOM     47  N   UNL     1       4.311  16.943  -0.977  1.00  0.00    -0.248 NA
ATOM     48  C   UNL     1       6.290  16.761   0.243  1.00  0.00     0.031 C 
ATOM     49  C   UNL     1       4.014  12.481  -1.114  1.00  0.00     0.029 A 
ATOM     50  N   UNL     1       3.069  14.395  -1.773  1.00  0.00    -0.354 N 
ATOM     51  C   UNL     1       4.771  18.216  -0.657  1.00  0.00     0.074 A 
ATOM     52  C   UNL     1       5.956  18.039   0.154  1.00  0.00     0.031 C 
ATOM     53  C   UNL     1       2.926  12.165  -1.831  1.00  0.00     0.029 A 
ATOM     54  C   UNL     1       2.252  13.392  -2.243  1.00  0.00     0.049 A 
ATOM     55  H   UNL     1       2.889  15.351  -1.925  1.00  0.00     0.167 HD
ATOM     56  C   UNL     1       4.261  19.420  -1.020  1.00  0.00     0.034 A 
ATOM     57  C   UNL     1       1.078  13.447  -2.904  1.00  0.00     0.034 A 
ATOM     58  C   UNL     1       3.076  19.576  -1.830  1.00  0.00     0.049 A 
ATOM     59  C   UNL     1       0.503  14.796  -3.252  1.00  0.00     0.074 A 
ATOM     60  C   UNL     1       2.510  20.745  -2.308  1.00  0.00     0.029 A 
ATOM     61  N   UNL     1       2.261  18.537  -2.262  1.00  0.00    -0.354 N 
ATOM     62  N   UNL     1       0.988  15.990  -2.996  1.00  0.00    -0.248 NA
ATOM     63  C   UNL     1      -0.772  14.807  -3.979  1.00  0.00     0.031 C 
ATOM     64  C   UNL     1       1.304  20.423  -2.937  1.00  0.00     0.029 A 
ATOM     65  C   UNL     1       1.168  19.044  -2.950  1.00  0.00     0.049 A 
ATOM     66  H   UNL     1       2.434  17.581  -2.104  1.00  0.00     0.167 HD
ATOM     67  C   UNL     1       0.086  16.893  -3.553  1.00  0.00     0.074 A 
ATOM     68  C   UNL     1      -0.957  16.104  -4.177  1.00  0.00     0.031 C 
ATOM     69  C   UNL     1       0.120  18.250  -3.551  1.00  0.00     0.034 A 
BRANCH  56  70
ATOM     70  C   UNL     1       4.957  20.662  -0.509  1.00  0.00     0.023 A 
ATOM     71  C   UNL     1       6.293  20.954  -0.834  1.00  0.00     0.031 A 
ATOM     72  C   UNL     1       4.275  21.563   0.329  1.00  0.00     0.131 A 
ATOM     73  C   UNL     1       6.926  22.069  -0.262  1.00  0.00     0.055 A 
ATOM     74  C   UNL     1       4.883  22.720   0.819  1.00  0.00     0.041 A 
ATOM     75  F   UNL     1       3.005  21.328   0.696  1.00  0.00    -0.206 F 
ATOM     76  C   UNL     1       6.222  22.971   0.538  1.00  0.00     0.022 A 
BRANCH  73  77
ATOM     77  S   UNL     1       8.724  22.229  -0.442  1.00  0.00     0.124 S 
ATOM     78  O   UNL     1       9.191  20.961   0.113  1.00  0.00    -0.237 OA
ATOM     79  O   UNL     1       8.884  22.395  -1.882  1.00  0.00    -0.237 OA
ATOM     80  O   UNL     1       9.046  23.407   0.362  1.00  0.00    -0.744 OA
ENDBRANCH  73  77
ENDBRANCH  56  70
BRANCH  57  81
ATOM     81  C   UNL     1       0.348  12.190  -3.245  1.00  0.00     0.023 A 
ATOM     82  C   UNL     1       0.089  11.832  -4.577  1.00  0.00     0.031 A 
ATOM     83  C   UNL     1      -0.136  11.341  -2.231  1.00  0.00     0.131 A 
ATOM     84  C   UNL     1      -0.669  10.684  -4.859  1.00  0.00     0.055 A 
ATOM     85  C   UNL     1      -0.828  10.165  -2.518  1.00  0.00     0.041 A 
ATOM     86  F   UNL     1       0.074  11.638  -0.938  1.00  0.00    -0.206 F 
ATOM     87  C   UNL     1      -1.111   9.837  -3.840  1.00  0.00     0.022 A 
BRANCH  84  88
ATOM     88  S   UNL     1      -1.167  10.370  -6.575  1.00  0.00     0.124 S 
ATOM     89  O   UNL     1      -1.890  11.594  -6.902  1.00  0.00    -0.237 OA
ATOM     90  O   UNL     1       0.121  10.189  -7.238  1.00  0.00    -0.237 OA
ATOM     91  O   UNL     1      -1.990   9.167  -6.476  1.00  0.00    -0.744 OA
ENDBRANCH  84  88
ENDBRANCH  57  81
BRANCH  69  92
ATOM     92  C   UNL     1      -0.993  18.971  -4.276  1.00  0.00     0.023 A 
ATOM     93  C   UNL     1      -2.329  18.891  -3.849  1.00  0.00     0.031 A 
ATOM     94  C   UNL     1      -0.710  19.748  -5.414  1.00  0.00     0.131 A 
ATOM     95  C   UNL     1      -3.339  19.528  -4.586  1.00  0.00     0.055 A 
ATOM     96  C   UNL     1      -1.709  20.442  -6.099  1.00  0.00     0.041 A 
ATOM     97  F   UNL     1       0.546  19.854  -5.876  1.00  0.00    -0.206 F 
ATOM     98  C   UNL     1      -3.034  20.323  -5.694  1.00  0.00     0.022 A 
BRANCH  95  99
ATOM     99  S   UNL     1      -5.070  19.212  -4.145  1.00  0.00     0.124 S 
ATOM    100  O   UNL     1      -5.155  17.761  -4.277  1.00  0.00    -0.237 OA
ATOM    101  O   UNL     1      -5.146  19.734  -2.784  1.00  0.00    -0.237 OA
ATOM    102  O   UNL     1      -5.822  19.971  -5.143  1.00  0.00    -0.744 OA
ENDBRANCH  95  99
ENDBRANCH  69  92
ENDBRANCH  43  44
ENDBRANCH  35  38
ENDBRANCH  33  34
ENDBRANCH   1  33
TORSDOF 19
