REMARK SMILES C[C@@H](Oc1ccc2c(c1)OCO2)C(=O)N1CCn2nc(C(=O)NCCCNC(=O)c3ccc(-c4c5nc(c(-c6cc(S(=O)(=O)[O-])ccc6F)c6ccc([nH]6)c(-c6cc(S(=O)(=O)[O-])ccc6F)c6nc(c(-c7cc(S(=O)(=O)[O-])ccc7F)c7ccc4[nH]7)C=C6)C=C5)cc3)cc2C1
REMARK SMILES IDX 24 1 23 2 21 3 22 4 20 6 15 7 16 8 95 9 17 10 94 11 18 12
REMARK SMILES IDX 93 13 19 14 13 15 14 16 2 17 1 18 3 19 4 20 5 21 9 22 6 23
REMARK SMILES IDX 8 24 7 25 10 26 12 27 11 28 25 29 26 30 27 31 28 32 29 34
REMARK SMILES IDX 30 35 31 36 92 37 32 38 91 39 33 40 34 41 35 42 85 43 36 44
REMARK SMILES IDX 90 45 84 46 86 47 37 48 89 49 83 50 82 51 38 53 70 54 50 55
REMARK SMILES IDX 69 56 51 57 54 58 68 59 87 60 52 61 53 62 67 64 88 65 55 66
REMARK SMILES IDX 39 67 40 68 48 69 41 70 47 71 49 72 46 73 42 74 43 75 44 76
REMARK SMILES IDX 45 77 71 78 72 79 80 80 73 81 79 82 81 83 78 84 74 85 75 86
REMARK SMILES IDX 76 87 77 88 56 89 57 90 65 91 58 92 64 93 66 94 63 95 59 96
REMARK SMILES IDX 60 97 61 98 62 99
REMARK H PARENT 23 5 27 33 86 52 54 63
REMARK Flexibility Score: inf
ROOT
ATOM      1  C   UNL     1      -7.384  -3.066   3.454  1.00  0.00     0.118 C 
ENDROOT
BRANCH   1   2
ATOM      2  N   UNL     1      -7.075  -2.269   4.630  1.00  0.00    -0.351 N 
ATOM      3  C   UNL     1      -6.023  -1.413   4.898  1.00  0.00     0.271 C 
ATOM      4  O   UNL     1      -6.094  -0.759   5.937  1.00  0.00    -0.267 OA
ATOM      5  H   UNL     1      -7.727  -2.354   5.362  1.00  0.00     0.163 HD
BRANCH   3   6
ATOM      6  C   UNL     1      -4.896  -1.282   3.949  1.00  0.00     0.150 A 
ATOM      7  N   UNL     1      -1.626  -1.013   0.723  1.00  0.00    -0.332 N 
ATOM      8  C   UNL     1      -1.169  -0.007   1.697  1.00  0.00     0.143 C 
ATOM      9  C   UNL     1      -2.878  -1.722   0.909  1.00  0.00     0.175 C 
ATOM     10  C   UNL     1      -2.171   0.542   2.709  1.00  0.00     0.166 C 
ATOM     11  C   UNL     1      -3.515  -1.460   2.203  1.00  0.00     0.059 A 
ATOM     12  N   UNL     1      -3.227  -0.391   2.975  1.00  0.00    -0.265 N 
ATOM     13  C   UNL     1      -4.489  -2.137   2.889  1.00  0.00     0.061 A 
ATOM     14  N   UNL     1      -4.066  -0.215   4.001  1.00  0.00    -0.167 NA
BRANCH   7  15
ATOM     15  C   UNL     1      -0.876  -1.468  -0.365  1.00  0.00     0.263 C 
ATOM     16  O   UNL     1      -1.413  -2.090  -1.289  1.00  0.00    -0.271 OA
BRANCH  15  17
ATOM     17  C   UNL     1       0.646  -1.262  -0.382  1.00  0.00     0.259 C 
ATOM     18  C   UNL     1       1.027   0.202  -0.567  1.00  0.00     0.064 C 
BRANCH  17  19
ATOM     19  O   UNL     1       1.123  -1.840   0.843  1.00  0.00    -0.481 OA
BRANCH  19  20
ATOM     20  C   UNL     1       2.444  -2.181   0.828  1.00  0.00     0.124 A 
ATOM     21  C   UNL     1       3.408  -1.189   1.071  1.00  0.00     0.050 A 
ATOM     22  C   UNL     1       2.803  -3.529   0.746  1.00  0.00     0.097 A 
ATOM     23  C   UNL     1       4.756  -1.523   1.183  1.00  0.00     0.054 A 
ATOM     24  C   UNL     1       4.143  -3.832   0.881  1.00  0.00     0.169 A 
ATOM     25  C   UNL     1       5.091  -2.854   1.088  1.00  0.00     0.166 A 
ATOM     26  O   UNL     1       4.690  -5.078   0.859  1.00  0.00    -0.453 OA
ATOM     27  O   UNL     1       6.346  -3.360   1.214  1.00  0.00    -0.454 OA
ATOM     28  C   UNL     1       6.079  -4.772   1.108  1.00  0.00     0.468 C 
ENDBRANCH  19  20
ENDBRANCH  17  19
ENDBRANCH  15  17
ENDBRANCH   7  15
ENDBRANCH   3   6
ENDBRANCH   1   2
BRANCH   1  29
ATOM     29  C   UNL     1      -6.823  -4.493   3.542  1.00  0.00     0.042 C 
BRANCH  29  30
ATOM     30  C   UNL     1      -7.727  -5.415   4.337  1.00  0.00     0.118 C 
BRANCH  30  31
ATOM     31  N   UNL     1      -8.996  -5.682   3.650  1.00  0.00    -0.352 N 
ATOM     32  C   UNL     1     -10.113  -6.376   4.098  1.00  0.00     0.251 C 
ATOM     33  H   UNL     1      -9.066  -5.316   2.739  1.00  0.00     0.163 HD
ATOM     34  O   UNL     1     -10.912  -6.828   3.296  1.00  0.00    -0.269 OA
BRANCH  32  35
ATOM     35  C   UNL     1     -10.302  -6.556   5.553  1.00  0.00     0.039 A 
ATOM     36  C   UNL     1     -10.904  -7.689   6.107  1.00  0.00     0.014 A 
ATOM     37  C   UNL     1      -9.813  -5.554   6.379  1.00  0.00     0.014 A 
ATOM     38  C   UNL     1     -10.947  -7.802   7.499  1.00  0.00     0.010 A 
ATOM     39  C   UNL     1      -9.582  -5.813   7.696  1.00  0.00     0.010 A 
ATOM     40  C   UNL     1     -10.267  -6.855   8.286  1.00  0.00    -0.014 A 
BRANCH  40  41
ATOM     41  C   UNL     1     -10.106  -6.975   9.729  1.00  0.00     0.031 A 
ATOM     42  C   UNL     1      -9.459  -8.249  10.108  1.00  0.00     0.074 A 
ATOM     43  C   UNL     1     -10.278  -5.946  10.594  1.00  0.00     0.049 A 
ATOM     44  N   UNL     1     -10.047  -9.314  10.536  1.00  0.00    -0.248 NA
ATOM     45  C   UNL     1      -8.053  -8.465   9.724  1.00  0.00     0.031 C 
ATOM     46  C   UNL     1     -10.626  -4.549  10.296  1.00  0.00     0.029 A 
ATOM     47  N   UNL     1     -10.091  -5.909  11.943  1.00  0.00    -0.354 N 
ATOM     48  C   UNL     1      -9.025 -10.216  10.789  1.00  0.00     0.074 A 
ATOM     49  C   UNL     1      -7.914  -9.765   9.999  1.00  0.00     0.031 C 
ATOM     50  C   UNL     1     -10.420  -3.776  11.389  1.00  0.00     0.029 A 
ATOM     51  C   UNL     1     -10.081  -4.632  12.513  1.00  0.00     0.049 A 
ATOM     52  H   UNL     1      -9.973  -6.726  12.479  1.00  0.00     0.167 HD
ATOM     53  C   UNL     1      -9.088 -11.032  11.879  1.00  0.00     0.034 A 
ATOM     54  C   UNL     1      -9.823  -4.303  13.814  1.00  0.00     0.034 A 
ATOM     55  C   UNL     1     -10.428 -11.014  12.441  1.00  0.00     0.049 A 
ATOM     56  C   UNL     1     -10.081  -5.531  14.606  1.00  0.00     0.074 A 
ATOM     57  C   UNL     1     -11.690 -11.298  11.955  1.00  0.00     0.029 A 
ATOM     58  N   UNL     1     -10.631 -10.240  13.565  1.00  0.00    -0.354 N 
ATOM     59  N   UNL     1     -11.267  -6.062  14.722  1.00  0.00    -0.248 NA
ATOM     60  C   UNL     1      -8.971  -6.446  14.824  1.00  0.00     0.031 C 
ATOM     61  C   UNL     1     -12.537 -10.292  12.511  1.00  0.00     0.029 A 
ATOM     62  C   UNL     1     -11.784  -9.513  13.393  1.00  0.00     0.049 A 
ATOM     63  H   UNL     1     -10.048 -10.213  14.358  1.00  0.00     0.167 HD
ATOM     64  C   UNL     1     -11.063  -7.424  14.558  1.00  0.00     0.074 A 
ATOM     65  C   UNL     1      -9.621  -7.611  14.732  1.00  0.00     0.031 C 
ATOM     66  C   UNL     1     -12.029  -8.216  14.001  1.00  0.00     0.034 A 
BRANCH  53  67
ATOM     67  C   UNL     1      -7.892 -11.482  12.696  1.00  0.00     0.023 A 
ATOM     68  C   UNL     1      -8.174 -12.258  13.836  1.00  0.00     0.031 A 
ATOM     69  C   UNL     1      -6.571 -10.985  12.611  1.00  0.00     0.131 A 
ATOM     70  C   UNL     1      -7.240 -12.386  14.876  1.00  0.00     0.055 A 
ATOM     71  C   UNL     1      -5.622 -11.169  13.622  1.00  0.00     0.041 A 
ATOM     72  F   UNL     1      -6.132 -10.230  11.600  1.00  0.00    -0.206 F 
ATOM     73  C   UNL     1      -5.965 -11.839  14.781  1.00  0.00     0.022 A 
BRANCH  70  74
ATOM     74  S   UNL     1      -7.797 -13.120  16.431  1.00  0.00     0.124 S 
ATOM     75  O   UNL     1      -8.944 -12.279  16.753  1.00  0.00    -0.237 OA
ATOM     76  O   UNL     1      -8.093 -14.490  16.025  1.00  0.00    -0.237 OA
ATOM     77  O   UNL     1      -6.640 -12.965  17.310  1.00  0.00    -0.744 OA
ENDBRANCH  70  74
ENDBRANCH  53  67
BRANCH  54  78
ATOM     78  C   UNL     1      -9.079  -3.126  14.366  1.00  0.00     0.023 A 
ATOM     79  C   UNL     1      -9.152  -2.710  15.721  1.00  0.00     0.031 A 
ATOM     80  C   UNL     1      -8.046  -2.553  13.593  1.00  0.00     0.131 A 
ATOM     81  C   UNL     1      -8.215  -1.776  16.240  1.00  0.00     0.055 A 
ATOM     82  C   UNL     1      -7.122  -1.641  14.112  1.00  0.00     0.041 A 
ATOM     83  F   UNL     1      -7.843  -2.934  12.322  1.00  0.00    -0.206 F 
ATOM     84  C   UNL     1      -7.195  -1.256  15.441  1.00  0.00     0.022 A 
BRANCH  81  85
ATOM     85  S   UNL     1      -8.249  -1.270  17.998  1.00  0.00     0.124 S 
ATOM     86  O   UNL     1      -9.497  -0.522  18.087  1.00  0.00    -0.237 OA
ATOM     87  O   UNL     1      -8.206  -2.549  18.697  1.00  0.00    -0.237 OA
ATOM     88  O   UNL     1      -7.039  -0.457  18.146  1.00  0.00    -0.744 OA
ENDBRANCH  81  85
ENDBRANCH  54  78
BRANCH  66  89
ATOM     89  C   UNL     1     -13.428  -7.639  13.860  1.00  0.00     0.023 A 
ATOM     90  C   UNL     1     -13.773  -6.479  13.125  1.00  0.00     0.031 A 
ATOM     91  C   UNL     1     -14.477  -8.378  14.435  1.00  0.00     0.131 A 
ATOM     92  C   UNL     1     -15.127  -6.097  13.003  1.00  0.00     0.055 A 
ATOM     93  C   UNL     1     -15.813  -8.011  14.291  1.00  0.00     0.041 A 
ATOM     94  F   UNL     1     -14.219  -9.500  15.127  1.00  0.00    -0.206 F 
ATOM     95  C   UNL     1     -16.143  -6.864  13.580  1.00  0.00     0.022 A 
BRANCH  92  96
ATOM     96  S   UNL     1     -15.598  -4.574  12.114  1.00  0.00     0.124 S 
ATOM     97  O   UNL     1     -14.698  -3.566  12.660  1.00  0.00    -0.237 OA
ATOM     98  O   UNL     1     -15.377  -4.940  10.717  1.00  0.00    -0.237 OA
ATOM     99  O   UNL     1     -17.006  -4.391  12.475  1.00  0.00    -0.744 OA
ENDBRANCH  92  96
ENDBRANCH  66  89
ENDBRANCH  40  41
ENDBRANCH  32  35
ENDBRANCH  30  31
ENDBRANCH  29  30
ENDBRANCH   1  29
TORSDOF 17
