REMARK SMILES O=C(NCCCNC(=O)c1cccc([C@@H]2CCC[N@@H+](Cc3cccc(OCCO)c3)C2)c1)c1ccc(-c2c3nc(c(-c4cc(S(=O)(=O)[O-])ccc4F)c4ccc([nH]4)c(-c4cc(S(=O)(=O)[O-])ccc4F)c4nc(c(-c5cc(S(=O)(=O)[O-])ccc5F)c5ccc2[nH]5)C=C4)C=C3)cc1
REMARK SMILES IDX 7 1 8 2 9 3 6 5 5 6 4 7 3 8 1 9 2 10 33 12 34 13 95 14 35 15
REMARK SMILES IDX 94 16 36 17 37 18 38 19 88 20 39 21 93 22 87 23 89 24 40 25
REMARK SMILES IDX 92 26 86 27 85 28 41 30 73 31 53 32 72 33 54 34 57 35 71 36
REMARK SMILES IDX 90 37 55 38 56 39 70 41 91 42 58 43 42 44 43 45 51 46 44 47
REMARK SMILES IDX 50 48 52 49 49 50 45 51 46 52 47 53 48 54 74 55 75 56 83 57
REMARK SMILES IDX 76 58 82 59 84 60 81 61 77 62 78 63 79 64 80 65 59 66 60 67
REMARK SMILES IDX 68 68 61 69 67 70 69 71 66 72 62 73 63 74 64 75 65 76 10 77
REMARK SMILES IDX 11 78 32 79 12 80 14 81 13 82 15 83 16 84 31 85 17 86 19 87
REMARK SMILES IDX 18 88 20 90 21 91 22 92 30 93 23 94 25 95 24 96 26 97 27 98
REMARK SMILES IDX 28 99 29 100
REMARK H PARENT 7 4 3 11 89 29 57 40 19 89 29 101
REMARK Flexibility Score: inf
ROOT
ATOM      1  N   UNL     1       5.368  -4.018  -1.340  1.00  0.00    -0.352 N 
ATOM      2  C   UNL     1       6.138  -5.089  -1.733  1.00  0.00     0.251 C 
ATOM      3  O   UNL     1       6.678  -5.089  -2.836  1.00  0.00    -0.269 OA
ATOM      4  H   UNL     1       5.213  -3.336  -2.033  1.00  0.00     0.163 HD
ENDROOT
BRANCH   1   5
ATOM      5  C   UNL     1       4.746  -3.744  -0.047  1.00  0.00     0.118 C 
BRANCH   5   6
ATOM      6  C   UNL     1       5.077  -2.370   0.504  1.00  0.00     0.042 C 
BRANCH   6   7
ATOM      7  C   UNL     1       4.608  -1.214  -0.359  1.00  0.00     0.118 C 
BRANCH   7   8
ATOM      8  N   UNL     1       3.159  -1.061  -0.393  1.00  0.00    -0.352 N 
ATOM      9  O   UNL     1       1.154  -0.109  -0.005  1.00  0.00    -0.269 OA
ATOM     10  C   UNL     1       2.373   0.005  -0.008  1.00  0.00     0.251 C 
ATOM     11  H   UNL     1       2.665  -1.837  -0.744  1.00  0.00     0.163 HD
BRANCH  10  12
ATOM     12  C   UNL     1       3.005   1.270   0.439  1.00  0.00     0.039 A 
ATOM     13  C   UNL     1       4.112   1.796  -0.228  1.00  0.00     0.014 A 
ATOM     14  C   UNL     1       2.493   1.929   1.561  1.00  0.00     0.014 A 
ATOM     15  C   UNL     1       4.826   2.844   0.340  1.00  0.00     0.010 A 
ATOM     16  C   UNL     1       3.148   3.059   2.064  1.00  0.00     0.010 A 
ATOM     17  C   UNL     1       4.352   3.495   1.489  1.00  0.00    -0.014 A 
BRANCH  17  18
ATOM     18  C   UNL     1       5.127   4.636   2.050  1.00  0.00     0.031 A 
ATOM     19  C   UNL     1       5.711   4.573   3.438  1.00  0.00     0.074 A 
ATOM     20  C   UNL     1       5.343   5.719   1.278  1.00  0.00     0.049 A 
ATOM     21  N   UNL     1       6.429   5.465   4.074  1.00  0.00    -0.248 NA
ATOM     22  C   UNL     1       5.441   3.357   4.217  1.00  0.00     0.031 C 
ATOM     23  C   UNL     1       4.828   5.897  -0.083  1.00  0.00     0.029 A 
ATOM     24  N   UNL     1       6.068   6.859   1.508  1.00  0.00    -0.354 N 
ATOM     25  C   UNL     1       6.674   4.932   5.337  1.00  0.00     0.074 A 
ATOM     26  C   UNL     1       5.994   3.654   5.384  1.00  0.00     0.031 C 
ATOM     27  C   UNL     1       5.307   7.042  -0.588  1.00  0.00     0.029 A 
ATOM     28  C   UNL     1       6.097   7.718   0.434  1.00  0.00     0.049 A 
ATOM     29  H   UNL     1       6.525   7.046   2.360  1.00  0.00     0.167 HD
ATOM     30  C   UNL     1       7.403   5.457   6.355  1.00  0.00     0.034 A 
ATOM     31  C   UNL     1       6.680   8.922   0.287  1.00  0.00     0.034 A 
ATOM     32  C   UNL     1       8.086   6.729   6.284  1.00  0.00     0.049 A 
ATOM     33  C   UNL     1       7.457   9.496   1.438  1.00  0.00     0.074 A 
ATOM     34  C   UNL     1       8.880   7.339   7.240  1.00  0.00     0.029 A 
ATOM     35  N   UNL     1       8.050   7.594   5.195  1.00  0.00    -0.354 N 
ATOM     36  N   UNL     1       7.684   8.976   2.622  1.00  0.00    -0.248 NA
ATOM     37  C   UNL     1       8.057  10.818   1.231  1.00  0.00     0.031 C 
ATOM     38  C   UNL     1       9.267   8.595   6.759  1.00  0.00     0.029 A 
ATOM     39  C   UNL     1       8.781   8.742   5.470  1.00  0.00     0.049 A 
ATOM     40  H   UNL     1       7.576   7.417   4.351  1.00  0.00     0.167 HD
ATOM     41  C   UNL     1       8.476   9.901   3.295  1.00  0.00     0.074 A 
ATOM     42  C   UNL     1       8.697  11.001   2.377  1.00  0.00     0.031 C 
ATOM     43  C   UNL     1       8.978   9.843   4.555  1.00  0.00     0.034 A 
BRANCH  30  44
ATOM     44  C   UNL     1       7.450   4.675   7.650  1.00  0.00     0.023 A 
ATOM     45  C   UNL     1       8.013   3.388   7.725  1.00  0.00     0.031 A 
ATOM     46  C   UNL     1       6.881   5.209   8.821  1.00  0.00     0.131 A 
ATOM     47  C   UNL     1       7.917   2.648   8.915  1.00  0.00     0.055 A 
ATOM     48  C   UNL     1       6.866   4.501  10.025  1.00  0.00     0.041 A 
ATOM     49  F   UNL     1       6.311   6.425   8.811  1.00  0.00    -0.206 F 
ATOM     50  C   UNL     1       7.369   3.205  10.072  1.00  0.00     0.022 A 
BRANCH  47  51
ATOM     51  S   UNL     1       8.367   0.890   8.880  1.00  0.00     0.124 S 
ATOM     52  O   UNL     1       7.518   0.387   7.802  1.00  0.00    -0.237 OA
ATOM     53  O   UNL     1       9.797   0.936   8.598  1.00  0.00    -0.237 OA
ATOM     54  O   UNL     1       8.008   0.417  10.216  1.00  0.00    -0.744 OA
ENDBRANCH  47  51
ENDBRANCH  30  44
BRANCH  31  55
ATOM     55  C   UNL     1       6.533   9.669  -0.992  1.00  0.00     0.023 A 
ATOM     56  C   UNL     1       7.641   9.917  -1.816  1.00  0.00     0.031 A 
ATOM     57  C   UNL     1       5.278  10.151  -1.406  1.00  0.00     0.131 A 
ATOM     58  C   UNL     1       7.478  10.653  -3.000  1.00  0.00     0.055 A 
ATOM     59  C   UNL     1       5.113  10.839  -2.608  1.00  0.00     0.041 A 
ATOM     60  F   UNL     1       4.186   9.933  -0.656  1.00  0.00    -0.206 F 
ATOM     61  C   UNL     1       6.220  11.102  -3.409  1.00  0.00     0.022 A 
BRANCH  58  62
ATOM     62  S   UNL     1       8.950  11.063  -3.976  1.00  0.00     0.124 S 
ATOM     63  O   UNL     1       9.734  11.838  -3.021  1.00  0.00    -0.237 OA
ATOM     64  O   UNL     1       9.470   9.742  -4.311  1.00  0.00    -0.237 OA
ATOM     65  O   UNL     1       8.410  11.822  -5.102  1.00  0.00    -0.744 OA
ENDBRANCH  58  62
ENDBRANCH  31  55
BRANCH  43  66
ATOM     66  C   UNL     1       9.856  10.992   4.987  1.00  0.00     0.023 A 
ATOM     67  C   UNL     1       9.344  12.289   5.164  1.00  0.00     0.031 A 
ATOM     68  C   UNL     1      11.233  10.790   5.187  1.00  0.00     0.131 A 
ATOM     69  C   UNL     1      10.214  13.347   5.470  1.00  0.00     0.055 A 
ATOM     70  C   UNL     1      12.083  11.835   5.550  1.00  0.00     0.041 A 
ATOM     71  F   UNL     1      11.775   9.572   5.027  1.00  0.00    -0.206 F 
ATOM     72  C   UNL     1      11.578  13.126   5.678  1.00  0.00     0.022 A 
BRANCH  69  73
ATOM     73  S   UNL     1       9.557  15.038   5.489  1.00  0.00     0.124 S 
ATOM     74  O   UNL     1       9.005  15.165   4.144  1.00  0.00    -0.237 OA
ATOM     75  O   UNL     1       8.584  14.982   6.575  1.00  0.00    -0.237 OA
ATOM     76  O   UNL     1      10.735  15.861   5.755  1.00  0.00    -0.744 OA
ENDBRANCH  69  73
ENDBRANCH  43  66
ENDBRANCH  17  18
ENDBRANCH  10  12
ENDBRANCH   7   8
ENDBRANCH   6   7
ENDBRANCH   5   6
ENDBRANCH   1   5
BRANCH   2  77
ATOM     77  C   UNL     1       6.320  -6.244  -0.827  1.00  0.00     0.040 A 
ATOM     78  C   UNL     1       7.586  -6.800  -0.658  1.00  0.00     0.014 A 
ATOM     79  C   UNL     1       5.230  -6.756  -0.122  1.00  0.00     0.018 A 
ATOM     80  C   UNL     1       7.765  -7.819   0.277  1.00  0.00     0.001 A 
ATOM     81  C   UNL     1       5.401  -7.720   0.870  1.00  0.00    -0.039 A 
ATOM     82  C   UNL     1       6.685  -8.258   1.051  1.00  0.00     0.004 A 
BRANCH  81  83
ATOM     83  C   UNL     1       4.274  -8.069   1.828  1.00  0.00     0.074 C 
ATOM     84  C   UNL     1       2.956  -8.521   1.178  1.00  0.00     0.020 C 
ATOM     85  C   UNL     1       4.032  -6.929   2.846  1.00  0.00     0.270 C 
ATOM     86  C   UNL     1       1.998  -7.384   0.816  1.00  0.00     0.062 C 
ATOM     87  N   UNL     1       3.166  -5.835   2.370  1.00  0.00    -0.331 N 
ATOM     88  C   UNL     1       1.864  -6.342   1.926  1.00  0.00     0.262 C 
ATOM     89  H   UNL     1       3.625  -5.424   1.557  1.00  0.00     0.348 HD
BRANCH  87  90
ATOM     90  C   UNL     1       3.038  -4.733   3.361  1.00  0.00     0.299 C 
BRANCH  90  91
ATOM     91  C   UNL     1       2.175  -5.031   4.576  1.00  0.00     0.010 A 
ATOM     92  C   UNL     1       0.881  -4.508   4.687  1.00  0.00     0.010 A 
ATOM     93  C   UNL     1       2.635  -5.910   5.569  1.00  0.00     0.056 A 
ATOM     94  C   UNL     1       0.051  -4.909   5.735  1.00  0.00     0.004 A 
ATOM     95  C   UNL     1       1.777  -6.402   6.549  1.00  0.00     0.119 A 
ATOM     96  C   UNL     1       0.491  -5.871   6.646  1.00  0.00     0.046 A 
BRANCH  95  97
ATOM     97  O   UNL     1       2.060  -7.419   7.418  1.00  0.00    -0.491 OA
BRANCH  97  98
ATOM     98  C   UNL     1       3.160  -8.292   7.124  1.00  0.00     0.257 C 
BRANCH  98  99
ATOM     99  C   UNL     1       2.737  -9.483   6.256  1.00  0.00     0.197 C 
BRANCH  99 100
ATOM    100  O   UNL     1       2.306  -9.107   4.952  1.00  0.00    -0.393 OA
ATOM    101  H   UNL     1       1.524  -8.538   5.022  1.00  0.00     0.210 HD
ENDBRANCH  99 100
ENDBRANCH  98  99
ENDBRANCH  97  98
ENDBRANCH  95  97
ENDBRANCH  90  91
ENDBRANCH  87  90
ENDBRANCH  81  83
ENDBRANCH   2  77
TORSDOF 20
