REMARK SMILES CCOC(=O)[C@H]1CCCN(c2cc(C(=O)NCCCNC(=O)c3ccc(-c4c5nc(c(-c6cc(S(=O)(=O)[O-])ccc6F)c6ccc([nH]6)c(-c6cc(S(=O)(=O)[O-])ccc6F)c6nc(c(-c7cc(S(=O)(=O)[O-])ccc7F)c7ccc4[nH]7)C=C6)C=C5)cc3)c3cc(NC(=O)c4ccc(Cl)cc4)ccc3n2)C1
REMARK SMILES IDX 17 1 16 2 14 3 15 4 13 6 11 7 12 8 102 9 101 10 86 11 100 12
REMARK SMILES IDX 87 13 99 14 88 15 10 16 6 17 7 18 103 19 8 20 9 21 4 22 5 23
REMARK SMILES IDX 3 24 2 25 1 26 89 27 90 28 91 30 92 31 93 32 98 33 94 34
REMARK SMILES IDX 97 35 95 36 96 37 18 38 19 39 20 40 21 41 22 43 23 44 24 45
REMARK SMILES IDX 85 46 25 47 84 48 26 49 27 50 28 51 78 52 29 53 83 54 77 55
REMARK SMILES IDX 79 56 30 57 82 58 76 59 75 60 31 62 63 63 43 64 62 65 44 66
REMARK SMILES IDX 47 67 61 68 80 69 45 70 46 71 60 73 81 74 48 75 32 76 33 77
REMARK SMILES IDX 41 78 34 79 40 80 42 81 39 82 35 83 36 84 37 85 38 86 64 87
REMARK SMILES IDX 65 88 73 89 66 90 72 91 74 92 71 93 67 94 68 95 69 96 70 97
REMARK SMILES IDX 49 98 50 99 58 100 51 101 57 102 59 103 56 104 52 105 53 106
REMARK SMILES IDX 54 107 55 108
REMARK H PARENT 16 5 89 29 20 42 79 61 47 72
REMARK Flexibility Score: inf
ROOT
ATOM      1  C   UNL     1       5.514   4.956  -2.260  1.00  0.00     0.118 C 
ENDROOT
BRANCH   1   2
ATOM      2  N   UNL     1       4.262   4.213  -2.215  1.00  0.00    -0.352 N 
ATOM      3  C   UNL     1       3.948   2.912  -1.894  1.00  0.00     0.252 C 
ATOM      4  O   UNL     1       2.748   2.623  -1.884  1.00  0.00    -0.269 OA
ATOM      5  H   UNL     1       3.478   4.753  -2.467  1.00  0.00     0.163 HD
BRANCH   3   6
ATOM      6  C   UNL     1       4.927   1.816  -1.607  1.00  0.00     0.052 A 
ATOM      7  C   UNL     1       5.265  -0.580  -1.704  1.00  0.00     0.130 A 
ATOM      8  C   UNL     1       4.521   0.545  -2.035  1.00  0.00     0.061 A 
ATOM      9  N   UNL     1       6.460  -0.458  -1.097  1.00  0.00    -0.231 NA
ATOM     10  C   UNL     1       6.874   0.745  -0.680  1.00  0.00     0.074 A 
ATOM     11  C   UNL     1       6.091   1.901  -0.820  1.00  0.00     0.015 A 
ATOM     12  C   UNL     1       8.092   0.837  -0.015  1.00  0.00     0.031 A 
ATOM     13  C   UNL     1       6.471   3.029  -0.076  1.00  0.00     0.037 A 
ATOM     14  C   UNL     1       8.495   2.006   0.640  1.00  0.00     0.028 A 
ATOM     15  C   UNL     1       7.627   3.085   0.694  1.00  0.00     0.042 A 
BRANCH   7  16
ATOM     16  N   UNL     1       4.737  -1.841  -1.873  1.00  0.00    -0.356 N 
ATOM     17  C   UNL     1       2.813  -2.979  -2.847  1.00  0.00     0.118 C 
ATOM     18  C   UNL     1       3.022  -4.109  -1.822  1.00  0.00     0.019 C 
ATOM     19  C   UNL     1       4.133  -2.257  -3.131  1.00  0.00     0.133 C 
ATOM     20  C   UNL     1       3.729  -3.606  -0.561  1.00  0.00     0.022 C 
ATOM     21  C   UNL     1       5.035  -2.877  -0.895  1.00  0.00     0.118 C 
BRANCH  17  22
ATOM     22  C   UNL     1       2.255  -3.436  -4.180  1.00  0.00     0.310 C 
ATOM     23  O   UNL     1       2.165  -2.702  -5.157  1.00  0.00    -0.252 OA
BRANCH  22  24
ATOM     24  O   UNL     1       1.858  -4.736  -4.159  1.00  0.00    -0.466 OA
BRANCH  24  25
ATOM     25  C   UNL     1       1.341  -5.248  -5.396  1.00  0.00     0.229 C 
ATOM     26  C   UNL     1      -0.137  -4.930  -5.516  1.00  0.00     0.049 C 
ENDBRANCH  24  25
ENDBRANCH  22  24
ENDBRANCH  17  22
ENDBRANCH   7  16
BRANCH  15  27
ATOM     27  N   UNL     1       7.941   4.173   1.526  1.00  0.00    -0.322 N 
ATOM     28  C   UNL     1       7.155   5.179   2.061  1.00  0.00     0.255 C 
ATOM     29  H   UNL     1       8.892   4.229   1.774  1.00  0.00     0.170 HD
ATOM     30  O   UNL     1       7.700   6.147   2.590  1.00  0.00    -0.269 OA
BRANCH  28  31
ATOM     31  C   UNL     1       5.668   5.110   2.063  1.00  0.00     0.040 A 
ATOM     32  C   UNL     1       4.952   6.260   1.722  1.00  0.00     0.015 A 
ATOM     33  C   UNL     1       4.972   3.925   2.340  1.00  0.00     0.015 A 
ATOM     34  C   UNL     1       3.566   6.200   1.536  1.00  0.00     0.021 A 
ATOM     35  C   UNL     1       3.594   3.853   2.106  1.00  0.00     0.021 A 
ATOM     36  C   UNL     1       2.901   4.986   1.685  1.00  0.00     0.041 A 
ATOM     37  Cl  UNL     1       1.222   4.881   1.330  1.00  0.00    -0.084 Cl
ENDBRANCH  28  31
ENDBRANCH  15  27
ENDBRANCH   3   6
ENDBRANCH   1   2
BRANCH   1  38
ATOM     38  C   UNL     1       5.525   6.163  -3.187  1.00  0.00     0.042 C 
BRANCH  38  39
ATOM     39  C   UNL     1       4.498   7.246  -2.858  1.00  0.00     0.118 C 
BRANCH  39  40
ATOM     40  N   UNL     1       4.561   7.774  -1.494  1.00  0.00    -0.352 N 
ATOM     41  C   UNL     1       5.132   8.912  -0.965  1.00  0.00     0.251 C 
ATOM     42  H   UNL     1       4.110   7.208  -0.827  1.00  0.00     0.163 HD
ATOM     43  O   UNL     1       5.063   9.140   0.240  1.00  0.00    -0.269 OA
BRANCH  41  44
ATOM     44  C   UNL     1       5.849   9.849  -1.837  1.00  0.00     0.039 A 
ATOM     45  C   UNL     1       7.136  10.289  -1.504  1.00  0.00     0.014 A 
ATOM     46  C   UNL     1       5.240  10.266  -3.012  1.00  0.00     0.014 A 
ATOM     47  C   UNL     1       7.866  11.042  -2.429  1.00  0.00     0.010 A 
ATOM     48  C   UNL     1       6.004  10.897  -3.972  1.00  0.00     0.010 A 
ATOM     49  C   UNL     1       7.327  11.286  -3.698  1.00  0.00    -0.014 A 
BRANCH  49  50
ATOM     50  C   UNL     1       8.055  11.951  -4.809  1.00  0.00     0.031 A 
ATOM     51  C   UNL     1       7.377  13.112  -5.481  1.00  0.00     0.074 A 
ATOM     52  C   UNL     1       9.140  11.367  -5.350  1.00  0.00     0.049 A 
ATOM     53  N   UNL     1       7.481  13.540  -6.709  1.00  0.00    -0.248 NA
ATOM     54  C   UNL     1       6.348  13.797  -4.682  1.00  0.00     0.031 C 
ATOM     55  C   UNL     1       9.857  10.213  -4.800  1.00  0.00     0.029 A 
ATOM     56  N   UNL     1       9.797  11.633  -6.525  1.00  0.00    -0.354 N 
ATOM     57  C   UNL     1       6.460  14.476  -6.861  1.00  0.00     0.074 A 
ATOM     58  C   UNL     1       5.728  14.505  -5.613  1.00  0.00     0.031 C 
ATOM     59  C   UNL     1      10.850   9.870  -5.636  1.00  0.00     0.029 A 
ATOM     60  C   UNL     1      10.798  10.731  -6.811  1.00  0.00     0.049 A 
ATOM     61  H   UNL     1       9.575  12.395  -7.107  1.00  0.00     0.167 HD
ATOM     62  C   UNL     1       6.174  15.234  -7.948  1.00  0.00     0.034 A 
ATOM     63  C   UNL     1      11.555  10.595  -7.917  1.00  0.00     0.034 A 
ATOM     64  C   UNL     1       6.994  15.225  -9.135  1.00  0.00     0.049 A 
ATOM     65  C   UNL     1      11.300  11.531  -9.071  1.00  0.00     0.074 A 
ATOM     66  C   UNL     1       6.892  16.012 -10.267  1.00  0.00     0.029 A 
ATOM     67  N   UNL     1       8.093  14.393  -9.324  1.00  0.00    -0.354 N 
ATOM     68  N   UNL     1      10.344  12.421  -9.212  1.00  0.00    -0.248 NA
ATOM     69  C   UNL     1      12.225  11.452 -10.208  1.00  0.00     0.031 C 
ATOM     70  C   UNL     1       7.909  15.636 -11.152  1.00  0.00     0.029 A 
ATOM     71  C   UNL     1       8.682  14.654 -10.549  1.00  0.00     0.049 A 
ATOM     72  H   UNL     1       8.407  13.718  -8.680  1.00  0.00     0.167 HD
ATOM     73  C   UNL     1      10.575  13.034 -10.439  1.00  0.00     0.074 A 
ATOM     74  C   UNL     1      11.761  12.413 -10.995  1.00  0.00     0.031 C 
ATOM     75  C   UNL     1       9.876  14.022 -11.055  1.00  0.00     0.034 A 
BRANCH  62  76
ATOM     76  C   UNL     1       4.939  16.106  -7.895  1.00  0.00     0.023 A 
ATOM     77  C   UNL     1       4.763  17.083  -6.900  1.00  0.00     0.031 A 
ATOM     78  C   UNL     1       3.890  15.920  -8.814  1.00  0.00     0.131 A 
ATOM     79  C   UNL     1       3.534  17.747  -6.772  1.00  0.00     0.055 A 
ATOM     80  C   UNL     1       2.707  16.662  -8.747  1.00  0.00     0.041 A 
ATOM     81  F   UNL     1       3.982  14.993  -9.781  1.00  0.00    -0.206 F 
ATOM     82  C   UNL     1       2.514  17.566  -7.706  1.00  0.00     0.022 A 
BRANCH  79  83
ATOM     83  S   UNL     1       3.233  18.714  -5.268  1.00  0.00     0.124 S 
ATOM     84  O   UNL     1       3.326  17.683  -4.236  1.00  0.00    -0.237 OA
ATOM     85  O   UNL     1       4.319  19.688  -5.295  1.00  0.00    -0.237 OA
ATOM     86  O   UNL     1       1.895  19.263  -5.475  1.00  0.00    -0.744 OA
ENDBRANCH  79  83
ENDBRANCH  62  76
BRANCH  63  87
ATOM     87  C   UNL     1      12.621   9.556  -7.982  1.00  0.00     0.023 A 
ATOM     88  C   UNL     1      13.974   9.929  -8.003  1.00  0.00     0.031 A 
ATOM     89  C   UNL     1      12.317   8.184  -8.021  1.00  0.00     0.131 A 
ATOM     90  C   UNL     1      14.973   8.948  -8.100  1.00  0.00     0.055 A 
ATOM     91  C   UNL     1      13.316   7.208  -8.072  1.00  0.00     0.041 A 
ATOM     92  F   UNL     1      11.040   7.770  -7.985  1.00  0.00    -0.206 F 
ATOM     93  C   UNL     1      14.654   7.589  -8.123  1.00  0.00     0.022 A 
BRANCH  90  94
ATOM     94  S   UNL     1      16.698   9.483  -8.261  1.00  0.00     0.124 S 
ATOM     95  O   UNL     1      16.640  10.325  -9.451  1.00  0.00    -0.237 OA
ATOM     96  O   UNL     1      16.919  10.175  -6.995  1.00  0.00    -0.237 OA
ATOM     97  O   UNL     1      17.430   8.228  -8.419  1.00  0.00    -0.744 OA
ENDBRANCH  90  94
ENDBRANCH  63  87
BRANCH  75  98
ATOM     98  C   UNL     1      10.428  14.534 -12.357  1.00  0.00     0.023 A 
ATOM     99  C   UNL     1      10.367  13.774 -13.535  1.00  0.00     0.031 A 
ATOM    100  C   UNL     1      10.999  15.818 -12.415  1.00  0.00     0.131 A 
ATOM    101  C   UNL     1      10.904  14.291 -14.721  1.00  0.00     0.055 A 
ATOM    102  C   UNL     1      11.487  16.347 -13.609  1.00  0.00     0.041 A 
ATOM    103  F   UNL     1      11.077  16.581 -11.313  1.00  0.00    -0.206 F 
ATOM    104  C   UNL     1      11.448  15.579 -14.769  1.00  0.00     0.022 A 
BRANCH 101 105
ATOM    105  S   UNL     1      10.930  13.238 -16.196  1.00  0.00     0.124 S 
ATOM    106  O   UNL     1      11.783  12.135 -15.764  1.00  0.00    -0.237 OA
ATOM    107  O   UNL     1       9.518  12.918 -16.378  1.00  0.00    -0.237 OA
ATOM    108  O   UNL     1      11.505  14.102 -17.225  1.00  0.00    -0.744 OA
ENDBRANCH 101 105
ENDBRANCH  75  98
ENDBRANCH  49  50
ENDBRANCH  41  44
ENDBRANCH  39  40
ENDBRANCH  38  39
ENDBRANCH   1  38
TORSDOF 19
