REMARK SMILES C[C@H](C(=O)NCCCNC(=O)c1ccc(-c2c3nc(c(-c4cc(S(=O)(=O)[O-])ccc4F)c4ccc([nH]4)c(-c4cc(S(=O)(=O)[O-])ccc4F)c4nc(c(-c5cc(S(=O)(=O)[O-])ccc5F)c5ccc2[nH]5)C=C4)C=C3)cc1)[C@H](C)[N@@H+]1CC[C@H]([NH+](C)C)C1
REMARK SMILES IDX 7 1 6 2 5 3 3 4 4 5 2 7 1 8 75 9 76 10 77 11 78 12 84 13
REMARK SMILES IDX 79 15 80 16 81 17 82 18 83 19 8 21 9 22 10 23 11 25 12 26
REMARK SMILES IDX 13 27 74 28 14 29 73 30 15 31 16 32 17 33 67 34 18 35 72 36
REMARK SMILES IDX 66 37 68 38 19 39 71 40 65 41 64 42 20 44 52 45 32 46 51 47
REMARK SMILES IDX 33 48 36 49 50 50 69 51 34 52 35 53 49 55 70 56 37 57 21 58
REMARK SMILES IDX 22 59 30 60 23 61 29 62 31 63 28 64 24 65 25 66 26 67 27 68
REMARK SMILES IDX 53 69 54 70 62 71 55 72 61 73 63 74 60 75 56 76 57 77 58 78
REMARK SMILES IDX 59 79 38 80 39 81 47 82 40 83 46 84 48 85 45 86 41 87 42 88
REMARK SMILES IDX 43 89 44 90
REMARK H PARENT 5 6 77 14 81 20 9 24 68 43 36 54
REMARK Flexibility Score: inf
ROOT
ATOM      1  C   UNL     1      -3.404   2.747   2.145  1.00  0.00     0.042 C 
ENDROOT
BRANCH   1   2
ATOM      2  C   UNL     1      -2.345   3.130   1.116  1.00  0.00     0.117 C 
BRANCH   2   3
ATOM      3  N   UNL     1      -1.152   2.318   1.269  1.00  0.00    -0.356 N 
ATOM      4  C   UNL     1      -0.609   1.396   0.424  1.00  0.00     0.228 C 
ATOM      5  O   UNL     1       0.308   0.701   0.857  1.00  0.00    -0.275 OA
ATOM      6  H   UNL     1      -0.660   2.453   2.111  1.00  0.00     0.163 HD
BRANCH   4   7
ATOM      7  C   UNL     1      -1.095   1.345  -1.022  1.00  0.00     0.133 C 
ATOM      8  C   UNL     1      -0.437   2.505  -1.778  1.00  0.00     0.024 C 
BRANCH   7   9
ATOM      9  C   UNL     1      -0.914  -0.061  -1.661  1.00  0.00     0.193 C 
ATOM     10  C   UNL     1       0.565  -0.441  -1.868  1.00  0.00     0.076 C 
BRANCH   9  11
ATOM     11  N   UNL     1      -1.574  -0.308  -2.979  1.00  0.00    -0.327 N 
ATOM     12  C   UNL     1      -2.593   0.638  -3.449  1.00  0.00     0.269 C 
ATOM     13  C   UNL     1      -2.268  -1.625  -2.984  1.00  0.00     0.328 C 
ATOM     14  H   UNL     1      -0.772  -0.225  -3.603  1.00  0.00     0.348 HD
ATOM     15  C   UNL     1      -3.900   0.173  -2.843  1.00  0.00     0.132 C 
ATOM     16  C   UNL     1      -3.794  -1.345  -2.968  1.00  0.00     0.245 C 
BRANCH  16  17
ATOM     17  N   UNL     1      -4.668  -2.072  -2.033  1.00  0.00    -0.333 N 
ATOM     18  C   UNL     1      -4.782  -3.483  -2.400  1.00  0.00     0.332 C 
ATOM     19  C   UNL     1      -4.286  -1.951  -0.625  1.00  0.00     0.332 C 
ATOM     20  H   UNL     1      -5.576  -1.617  -2.122  1.00  0.00     0.348 HD
ENDBRANCH  16  17
ENDBRANCH   9  11
ENDBRANCH   7   9
ENDBRANCH   4   7
ENDBRANCH   2   3
ENDBRANCH   1   2
BRANCH   1  21
ATOM     21  C   UNL     1      -2.983   3.007   3.589  1.00  0.00     0.118 C 
BRANCH  21  22
ATOM     22  N   UNL     1      -2.655   4.404   3.829  1.00  0.00    -0.352 N 
ATOM     23  C   UNL     1      -3.134   5.276   4.774  1.00  0.00     0.251 C 
ATOM     24  H   UNL     1      -1.984   4.783   3.217  1.00  0.00     0.163 HD
ATOM     25  O   UNL     1      -2.878   6.471   4.662  1.00  0.00    -0.269 OA
BRANCH  23  26
ATOM     26  C   UNL     1      -3.964   4.789   5.897  1.00  0.00     0.039 A 
ATOM     27  C   UNL     1      -5.038   5.575   6.321  1.00  0.00     0.014 A 
ATOM     28  C   UNL     1      -3.675   3.590   6.555  1.00  0.00     0.014 A 
ATOM     29  C   UNL     1      -5.850   5.131   7.365  1.00  0.00     0.010 A 
ATOM     30  C   UNL     1      -4.536   3.108   7.539  1.00  0.00     0.010 A 
ATOM     31  C   UNL     1      -5.629   3.878   7.960  1.00  0.00    -0.014 A 
BRANCH  31  32
ATOM     32  C   UNL     1      -6.545   3.374   9.018  1.00  0.00     0.031 A 
ATOM     33  C   UNL     1      -6.041   3.124  10.414  1.00  0.00     0.074 A 
ATOM     34  C   UNL     1      -7.832   3.122   8.708  1.00  0.00     0.049 A 
ATOM     35  N   UNL     1      -6.695   2.699  11.465  1.00  0.00    -0.248 NA
ATOM     36  C   UNL     1      -4.609   3.356  10.653  1.00  0.00     0.031 C 
ATOM     37  C   UNL     1      -8.423   3.274   7.375  1.00  0.00     0.029 A 
ATOM     38  N   UNL     1      -8.878   2.693   9.485  1.00  0.00    -0.354 N 
ATOM     39  C   UNL     1      -5.758   2.615  12.489  1.00  0.00     0.074 A 
ATOM     40  C   UNL     1      -4.477   2.960  11.910  1.00  0.00     0.031 C 
ATOM     41  C   UNL     1      -9.732   2.986   7.439  1.00  0.00     0.029 A 
ATOM     42  C   UNL     1     -10.067   2.583   8.800  1.00  0.00     0.049 A 
ATOM     43  H   UNL     1      -8.787   2.483  10.442  1.00  0.00     0.167 HD
ATOM     44  C   UNL     1      -5.952   2.308  13.796  1.00  0.00     0.034 A 
ATOM     45  C   UNL     1     -11.289   2.199   9.220  1.00  0.00     0.034 A 
ATOM     46  C   UNL     1      -7.238   1.964  14.356  1.00  0.00     0.049 A 
ATOM     47  C   UNL     1     -11.475   1.840  10.672  1.00  0.00     0.074 A 
ATOM     48  C   UNL     1      -7.557   1.676  15.671  1.00  0.00     0.029 A 
ATOM     49  N   UNL     1      -8.419   1.850  13.630  1.00  0.00    -0.354 N 
ATOM     50  N   UNL     1     -10.589   1.825  11.641  1.00  0.00    -0.248 NA
ATOM     51  C   UNL     1     -12.831   1.464  11.088  1.00  0.00     0.031 C 
ATOM     52  C   UNL     1      -8.908   1.316  15.729  1.00  0.00     0.029 A 
ATOM     53  C   UNL     1      -9.458   1.465  14.465  1.00  0.00     0.049 A 
ATOM     54  H   UNL     1      -8.505   2.019  12.664  1.00  0.00     0.167 HD
ATOM     55  C   UNL     1     -11.289   1.463  12.789  1.00  0.00     0.074 A 
ATOM     56  C   UNL     1     -12.673   1.300  12.393  1.00  0.00     0.031 C 
ATOM     57  C   UNL     1     -10.832   1.283  14.055  1.00  0.00     0.034 A 
BRANCH  44  58
ATOM     58  C   UNL     1      -4.739   2.311  14.699  1.00  0.00     0.023 A 
ATOM     59  C   UNL     1      -3.984   3.477  14.918  1.00  0.00     0.031 A 
ATOM     60  C   UNL     1      -4.316   1.129  15.334  1.00  0.00     0.131 A 
ATOM     61  C   UNL     1      -2.808   3.421  15.681  1.00  0.00     0.055 A 
ATOM     62  C   UNL     1      -3.193   1.099  16.164  1.00  0.00     0.041 A 
ATOM     63  F   UNL     1      -4.980  -0.023  15.148  1.00  0.00    -0.206 F 
ATOM     64  C   UNL     1      -2.422   2.246  16.329  1.00  0.00     0.022 A 
BRANCH  61  65
ATOM     65  S   UNL     1      -1.712   4.866  15.691  1.00  0.00     0.124 S 
ATOM     66  O   UNL     1      -1.419   5.023  14.268  1.00  0.00    -0.237 OA
ATOM     67  O   UNL     1      -2.553   5.897  16.288  1.00  0.00    -0.237 OA
ATOM     68  O   UNL     1      -0.580   4.433  16.508  1.00  0.00    -0.744 OA
ENDBRANCH  61  65
ENDBRANCH  44  58
BRANCH  45  69
ATOM     69  C   UNL     1     -12.429   2.127   8.260  1.00  0.00     0.023 A 
ATOM     70  C   UNL     1     -13.561   2.943   8.413  1.00  0.00     0.031 A 
ATOM     71  C   UNL     1     -12.421   1.205   7.198  1.00  0.00     0.131 A 
ATOM     72  C   UNL     1     -14.658   2.787   7.552  1.00  0.00     0.055 A 
ATOM     73  C   UNL     1     -13.490   1.095   6.307  1.00  0.00     0.041 A 
ATOM     74  F   UNL     1     -11.363   0.402   7.002  1.00  0.00    -0.206 F 
ATOM     75  C   UNL     1     -14.624   1.879   6.491  1.00  0.00     0.022 A 
BRANCH  72  76
ATOM     76  S   UNL     1     -16.174   3.722   7.896  1.00  0.00     0.124 S 
ATOM     77  O   UNL     1     -16.486   3.292   9.254  1.00  0.00    -0.237 OA
ATOM     78  O   UNL     1     -15.719   5.101   7.747  1.00  0.00    -0.237 OA
ATOM     79  O   UNL     1     -17.101   3.259   6.865  1.00  0.00    -0.744 OA
ENDBRANCH  72  76
ENDBRANCH  45  69
BRANCH  57  80
ATOM     80  C   UNL     1     -11.857   0.921  15.105  1.00  0.00     0.023 A 
ATOM     81  C   UNL     1     -12.579  -0.284  15.049  1.00  0.00     0.031 A 
ATOM     82  C   UNL     1     -12.143   1.812  16.155  1.00  0.00     0.131 A 
ATOM     83  C   UNL     1     -13.604  -0.529  15.975  1.00  0.00     0.055 A 
ATOM     84  C   UNL     1     -13.112   1.528  17.118  1.00  0.00     0.041 A 
ATOM     85  F   UNL     1     -11.489   2.980  16.259  1.00  0.00    -0.206 F 
ATOM     86  C   UNL     1     -13.863   0.360  17.020  1.00  0.00     0.022 A 
BRANCH  83  87
ATOM     87  S   UNL     1     -14.684  -1.964  15.715  1.00  0.00     0.124 S 
ATOM     88  O   UNL     1     -15.189  -1.723  14.367  1.00  0.00    -0.237 OA
ATOM     89  O   UNL     1     -13.756  -3.082  15.857  1.00  0.00    -0.237 OA
ATOM     90  O   UNL     1     -15.677  -1.844  16.780  1.00  0.00    -0.744 OA
ENDBRANCH  83  87
ENDBRANCH  57  80
ENDBRANCH  31  32
ENDBRANCH  23  26
ENDBRANCH  21  22
ENDBRANCH   1  21
TORSDOF 16
