REMARK SMILES CCc1ccc(Oc2ncnc(N3CCC(C(=O)NCCCNC(=O)c4ccc(-c5c6nc(c(-c7cc(S(=O)(=O)[O-])ccc7F)c7ccc([nH]7)c(-c7cc(S(=O)(=O)[O-])ccc7F)c7nc(c(-c8cc(S(=O)(=O)[O-])ccc8F)c8ccc5[nH]8)C=C7)C=C6)cc4)CC3)c2[N+](=O)[O-])cc1
REMARK SMILES IDX 20 1 19 2 17 3 18 4 16 6 13 7 14 8 90 9 15 10 89 11 12 12
REMARK SMILES IDX 8 13 9 14 91 15 10 16 11 17 7 18 6 19 3 20 4 21 96 22 5 23
REMARK SMILES IDX 95 24 2 25 1 26 92 27 93 28 94 29 21 30 22 31 23 32 24 33
REMARK SMILES IDX 25 35 26 36 27 37 88 38 28 39 87 40 29 41 30 42 31 43 81 44
REMARK SMILES IDX 32 45 86 46 80 47 82 48 33 49 85 50 79 51 78 52 34 54 66 55
REMARK SMILES IDX 46 56 65 57 47 58 50 59 64 60 83 61 48 62 49 63 63 65 84 66
REMARK SMILES IDX 51 67 35 68 36 69 44 70 37 71 43 72 45 73 42 74 38 75 39 76
REMARK SMILES IDX 40 77 41 78 67 79 68 80 76 81 69 82 75 83 77 84 74 85 70 86
REMARK SMILES IDX 71 87 72 88 73 89 52 90 53 91 61 92 54 93 60 94 62 95 59 96
REMARK SMILES IDX 55 97 56 98 57 99 58 100
REMARK H PARENT 19 5 23 34 82 53 50 64
REMARK Flexibility Score: inf
ROOT
ATOM      1  C   UNL     1      -0.460  10.439   6.325  1.00  0.00     0.117 C 
ENDROOT
BRANCH   1   2
ATOM      2  N   UNL     1      -1.704  11.013   5.826  1.00  0.00    -0.356 N 
ATOM      3  C   UNL     1      -2.652  10.502   4.992  1.00  0.00     0.223 C 
ATOM      4  O   UNL     1      -3.624  11.207   4.716  1.00  0.00    -0.275 OA
ATOM      5  H   UNL     1      -1.891  11.925   6.146  1.00  0.00     0.163 HD
BRANCH   3   6
ATOM      6  C   UNL     1      -2.542   9.090   4.438  1.00  0.00     0.082 C 
ATOM      7  N   UNL     1      -0.922   6.776   4.519  1.00  0.00    -0.351 N 
ATOM      8  C   UNL     1      -0.911   7.514   3.264  1.00  0.00     0.119 C 
ATOM      9  C   UNL     1      -2.198   6.673   5.202  1.00  0.00     0.119 C 
ATOM     10  C   UNL     1      -1.324   8.953   3.511  1.00  0.00     0.035 C 
ATOM     11  C   UNL     1      -2.667   8.069   5.582  1.00  0.00     0.035 C 
BRANCH   7  12
ATOM     12  C   UNL     1       0.218   6.108   4.889  1.00  0.00     0.215 A 
ATOM     13  C   UNL     1       1.548   4.213   5.395  1.00  0.00     0.305 A 
ATOM     14  N   UNL     1       2.663   4.963   5.491  1.00  0.00    -0.195 NA
ATOM     15  C   UNL     1       0.301   4.756   5.161  1.00  0.00     0.373 A 
ATOM     16  C   UNL     1       2.499   6.268   5.265  1.00  0.00     0.228 A 
ATOM     17  N   UNL     1       1.340   6.864   4.940  1.00  0.00    -0.212 NA
BRANCH  13  18
ATOM     18  O   UNL     1       1.771   2.861   5.521  1.00  0.00    -0.434 OA
BRANCH  18  19
ATOM     19  C   UNL     1       1.603   2.077   4.396  1.00  0.00     0.129 A 
ATOM     20  C   UNL     1       1.056   0.306   2.271  1.00  0.00    -0.048 A 
ATOM     21  C   UNL     1       1.242  -0.172   3.577  1.00  0.00     0.007 A 
ATOM     22  C   UNL     1       1.181   1.682   2.044  1.00  0.00     0.007 A 
ATOM     23  C   UNL     1       1.514   0.705   4.630  1.00  0.00     0.047 A 
ATOM     24  C   UNL     1       1.485   2.557   3.090  1.00  0.00     0.047 A 
BRANCH  20  25
ATOM     25  C   UNL     1       0.649  -0.658   1.182  1.00  0.00     0.032 C 
ATOM     26  C   UNL     1       1.113  -0.297  -0.224  1.00  0.00     0.009 C 
ENDBRANCH  20  25
ENDBRANCH  18  19
ENDBRANCH  13  18
BRANCH  15  27
ATOM     27  N   UNL     1      -0.843   3.904   5.093  1.00  0.00     0.072 N 
ATOM     28  O   UNL     1      -1.424   3.798   4.003  1.00  0.00    -0.258 OA
ATOM     29  O   UNL     1      -1.190   3.345   6.143  1.00  0.00    -0.258 OA
ENDBRANCH  15  27
ENDBRANCH   7  12
ENDBRANCH   3   6
ENDBRANCH   1   2
BRANCH   1  30
ATOM     30  C   UNL     1       0.764  11.177   5.804  1.00  0.00     0.042 C 
BRANCH  30  31
ATOM     31  C   UNL     1       0.866  12.610   6.301  1.00  0.00     0.118 C 
BRANCH  31  32
ATOM     32  N   UNL     1       1.067  12.686   7.742  1.00  0.00    -0.352 N 
ATOM     33  C   UNL     1       2.136  13.176   8.452  1.00  0.00     0.251 C 
ATOM     34  H   UNL     1       0.326  12.335   8.288  1.00  0.00     0.163 HD
ATOM     35  O   UNL     1       2.216  12.954   9.658  1.00  0.00    -0.269 OA
BRANCH  33  36
ATOM     36  C   UNL     1       3.193  13.940   7.757  1.00  0.00     0.039 A 
ATOM     37  C   UNL     1       4.533  13.692   8.066  1.00  0.00     0.014 A 
ATOM     38  C   UNL     1       2.862  14.893   6.792  1.00  0.00     0.014 A 
ATOM     39  C   UNL     1       5.540  14.346   7.351  1.00  0.00     0.010 A 
ATOM     40  C   UNL     1       3.861  15.467   6.016  1.00  0.00     0.010 A 
ATOM     41  C   UNL     1       5.212  15.208   6.291  1.00  0.00    -0.014 A 
BRANCH  41  42
ATOM     42  C   UNL     1       6.254  15.879   5.471  1.00  0.00     0.031 A 
ATOM     43  C   UNL     1       6.322  17.383   5.445  1.00  0.00     0.074 A 
ATOM     44  C   UNL     1       7.077  15.150   4.693  1.00  0.00     0.049 A 
ATOM     45  N   UNL     1       7.055  18.169   4.700  1.00  0.00    -0.248 NA
ATOM     46  C   UNL     1       5.412  18.093   6.356  1.00  0.00     0.031 C 
ATOM     47  C   UNL     1       7.095  13.688   4.616  1.00  0.00     0.029 A 
ATOM     48  N   UNL     1       8.052  15.540   3.809  1.00  0.00    -0.354 N 
ATOM     49  C   UNL     1       6.681  19.465   5.038  1.00  0.00     0.074 A 
ATOM     50  C   UNL     1       5.602  19.352   5.996  1.00  0.00     0.031 C 
ATOM     51  C   UNL     1       8.055  13.305   3.758  1.00  0.00     0.029 A 
ATOM     52  C   UNL     1       8.680  14.490   3.180  1.00  0.00     0.049 A 
ATOM     53  H   UNL     1       8.280  16.483   3.641  1.00  0.00     0.167 HD
ATOM     54  C   UNL     1       7.208  20.641   4.613  1.00  0.00     0.034 A 
ATOM     55  C   UNL     1       9.640  14.485   2.233  1.00  0.00     0.034 A 
ATOM     56  C   UNL     1       8.289  20.732   3.662  1.00  0.00     0.049 A 
ATOM     57  C   UNL     1      10.167  15.804   1.723  1.00  0.00     0.074 A 
ATOM     58  C   UNL     1       8.928  21.863   3.187  1.00  0.00     0.029 A 
ATOM     59  N   UNL     1       8.887  19.646   3.033  1.00  0.00    -0.354 N 
ATOM     60  N   UNL     1       9.826  17.023   2.074  1.00  0.00    -0.248 NA
ATOM     61  C   UNL     1      11.213  15.745   0.693  1.00  0.00     0.031 C 
ATOM     62  C   UNL     1       9.857  21.469   2.219  1.00  0.00     0.029 A 
ATOM     63  C   UNL     1       9.863  20.085   2.151  1.00  0.00     0.049 A 
ATOM     64  H   UNL     1       8.651  18.703   3.190  1.00  0.00     0.167 HD
ATOM     65  C   UNL     1      10.649  17.873   1.339  1.00  0.00     0.074 A 
ATOM     66  C   UNL     1      11.500  17.028   0.527  1.00  0.00     0.031 C 
ATOM     67  C   UNL     1      10.705  19.230   1.347  1.00  0.00     0.034 A 
BRANCH  54  68
ATOM     68  C   UNL     1       6.593  21.910   5.158  1.00  0.00     0.023 A 
ATOM     69  C   UNL     1       6.578  22.187   6.537  1.00  0.00     0.031 A 
ATOM     70  C   UNL     1       5.959  22.826   4.300  1.00  0.00     0.131 A 
ATOM     71  C   UNL     1       5.854  23.285   7.025  1.00  0.00     0.055 A 
ATOM     72  C   UNL     1       5.326  23.973   4.785  1.00  0.00     0.041 A 
ATOM     73  F   UNL     1       5.919  22.609   2.976  1.00  0.00    -0.206 F 
ATOM     74  C   UNL     1       5.252  24.196   6.157  1.00  0.00     0.022 A 
BRANCH  71  75
ATOM     75  S   UNL     1       5.551  23.391   8.811  1.00  0.00     0.124 S 
ATOM     76  O   UNL     1       4.888  22.115   9.072  1.00  0.00    -0.237 OA
ATOM     77  O   UNL     1       6.898  23.533   9.351  1.00  0.00    -0.237 OA
ATOM     78  O   UNL     1       4.695  24.567   8.944  1.00  0.00    -0.744 OA
ENDBRANCH  71  75
ENDBRANCH  54  68
BRANCH  55  79
ATOM     79  C   UNL     1      10.172  13.197   1.702  1.00  0.00     0.023 A 
ATOM     80  C   UNL     1      11.515  12.842   1.905  1.00  0.00     0.031 A 
ATOM     81  C   UNL     1       9.364  12.322   0.956  1.00  0.00     0.131 A 
ATOM     82  C   UNL     1      12.023  11.668   1.328  1.00  0.00     0.055 A 
ATOM     83  C   UNL     1       9.860  11.127   0.432  1.00  0.00     0.041 A 
ATOM     84  F   UNL     1       8.071  12.611   0.736  1.00  0.00    -0.206 F 
ATOM     85  C   UNL     1      11.201  10.800   0.606  1.00  0.00     0.022 A 
BRANCH  82  86
ATOM     86  S   UNL     1      13.800  11.334   1.466  1.00  0.00     0.124 S 
ATOM     87  O   UNL     1      14.373  12.513   0.826  1.00  0.00    -0.237 OA
ATOM     88  O   UNL     1      13.979  11.236   2.911  1.00  0.00    -0.237 OA
ATOM     89  O   UNL     1      13.968  10.081   0.733  1.00  0.00    -0.744 OA
ENDBRANCH  82  86
ENDBRANCH  55  79
BRANCH  67  90
ATOM     90  C   UNL     1      11.770  19.883   0.500  1.00  0.00     0.023 A 
ATOM     91  C   UNL     1      11.738  19.844  -0.904  1.00  0.00     0.031 A 
ATOM     92  C   UNL     1      12.829  20.573   1.119  1.00  0.00     0.131 A 
ATOM     93  C   UNL     1      12.769  20.446  -1.643  1.00  0.00     0.055 A 
ATOM     94  C   UNL     1      13.818  21.220   0.380  1.00  0.00     0.041 A 
ATOM     95  F   UNL     1      12.911  20.639   2.458  1.00  0.00    -0.206 F 
ATOM     96  C   UNL     1      13.798  21.150  -1.010  1.00  0.00     0.022 A 
BRANCH  93  97
ATOM     97  S   UNL     1      12.792  20.235  -3.444  1.00  0.00     0.124 S 
ATOM     98  O   UNL     1      12.872  18.784  -3.579  1.00  0.00    -0.237 OA
ATOM     99  O   UNL     1      11.528  20.843  -3.846  1.00  0.00    -0.237 OA
ATOM    100  O   UNL     1      13.989  20.963  -3.860  1.00  0.00    -0.744 OA
ENDBRANCH  93  97
ENDBRANCH  67  90
ENDBRANCH  41  42
ENDBRANCH  33  36
ENDBRANCH  31  32
ENDBRANCH  30  31
ENDBRANCH   1  30
TORSDOF 18
