REMARK SMILES C[N@@H+]1CCC[C@@H](C(=O)N[C@H](C(=O)NCCCNC(=O)c2ccc(-c3c4nc(c(-c5cc(S(=O)(=O)[O-])ccc5F)c5ccc([nH]5)c(-c5cc(S(=O)(=O)[O-])ccc5F)c5nc(c(-c6cc(S(=O)(=O)[O-])ccc6F)c6ccc3[nH]6)C=C5)C=C4)cc2)c2ccccc2)C1
REMARK SMILES IDX 15 1 14 2 13 3 11 4 12 5 10 7 9 8 7 9 8 10 6 12 1 13 2 14
REMARK SMILES IDX 3 15 89 16 4 18 5 19 83 20 84 21 88 22 85 23 87 24 86 25
REMARK SMILES IDX 16 26 17 27 18 28 19 30 20 31 21 32 82 33 22 34 81 35 23 36
REMARK SMILES IDX 24 37 25 38 75 39 26 40 80 41 74 42 76 43 27 44 79 45 73 46
REMARK SMILES IDX 72 47 28 49 60 50 40 51 59 52 41 53 44 54 58 55 77 56 42 57
REMARK SMILES IDX 43 58 57 60 78 61 45 62 29 63 30 64 38 65 31 66 37 67 39 68
REMARK SMILES IDX 36 69 32 70 33 71 34 72 35 73 61 74 62 75 70 76 63 77 69 78
REMARK SMILES IDX 71 79 68 80 64 81 65 82 66 83 67 84 46 85 47 86 55 87 48 88
REMARK SMILES IDX 54 89 56 90 53 91 49 92 50 93 51 94 52 95
REMARK H PARENT 13 6 9 11 2 17 17 29 76 48 44 59
REMARK Flexibility Score: inf
ROOT
ATOM      1  C   UNL     1       4.003   1.042   2.829  1.00  0.00     0.042 C 
ENDROOT
BRANCH   1   2
ATOM      2  C   UNL     1       2.865   0.411   2.030  1.00  0.00     0.117 C 
BRANCH   2   3
ATOM      3  N   UNL     1       1.879  -0.268   2.868  1.00  0.00    -0.354 N 
ATOM      4  C   UNL     1       0.577   0.071   3.151  1.00  0.00     0.247 C 
ATOM      5  O   UNL     1      -0.044  -0.647   3.940  1.00  0.00    -0.272 OA
ATOM      6  H   UNL     1       2.197  -1.095   3.297  1.00  0.00     0.163 HD
BRANCH   4   7
ATOM      7  C   UNL     1      -0.058   1.321   2.491  1.00  0.00     0.202 C 
BRANCH   7   8
ATOM      8  N   UNL     1      -1.508   1.177   2.407  1.00  0.00    -0.340 N 
ATOM      9  C   UNL     1      -2.365   1.070   1.365  1.00  0.00     0.229 C 
ATOM     10  O   UNL     1      -3.560   0.924   1.660  1.00  0.00    -0.275 OA
ATOM     11  H   UNL     1      -1.953   1.154   3.285  1.00  0.00     0.164 HD
BRANCH   9  12
ATOM     12  C   UNL     1      -1.987   1.072  -0.129  1.00  0.00     0.133 C 
ATOM     13  C   UNL     1       0.993   3.269  -1.011  1.00  0.00     0.332 C 
ATOM     14  N   UNL     1       0.254   2.088  -0.581  1.00  0.00    -0.337 N 
ATOM     15  C   UNL     1       0.720   0.872  -1.252  1.00  0.00     0.262 C 
ATOM     16  C   UNL     1      -1.195   2.260  -0.683  1.00  0.00     0.275 C 
ATOM     17  H   UNL     1       0.455   1.969   0.412  1.00  0.00     0.347 HD
ATOM     18  C   UNL     1       0.048  -0.378  -0.675  1.00  0.00     0.062 C 
ATOM     19  C   UNL     1      -1.471  -0.273  -0.646  1.00  0.00     0.025 C 
ENDBRANCH   9  12
ENDBRANCH   7   8
BRANCH   7  20
ATOM     20  C   UNL     1       0.351   2.658   3.100  1.00  0.00    -0.016 A 
ATOM     21  C   UNL     1       1.259   2.772   4.160  1.00  0.00     0.006 A 
ATOM     22  C   UNL     1      -0.076   3.846   2.483  1.00  0.00     0.006 A 
ATOM     23  C   UNL     1       1.836   4.007   4.479  1.00  0.00     0.000 A 
ATOM     24  C   UNL     1       0.485   5.080   2.808  1.00  0.00     0.000 A 
ATOM     25  C   UNL     1       1.470   5.155   3.784  1.00  0.00     0.000 A 
ENDBRANCH   7  20
ENDBRANCH   4   7
ENDBRANCH   2   3
ENDBRANCH   1   2
BRANCH   1  26
ATOM     26  C   UNL     1       4.827   0.058   3.649  1.00  0.00     0.118 C 
BRANCH  26  27
ATOM     27  N   UNL     1       5.852  -0.600   2.858  1.00  0.00    -0.352 N 
ATOM     28  C   UNL     1       7.222  -0.549   2.983  1.00  0.00     0.251 C 
ATOM     29  H   UNL     1       5.518  -1.165   2.124  1.00  0.00     0.163 HD
ATOM     30  O   UNL     1       7.918  -1.009   2.082  1.00  0.00    -0.269 OA
BRANCH  28  31
ATOM     31  C   UNL     1       7.858   0.080   4.169  1.00  0.00     0.039 A 
ATOM     32  C   UNL     1       9.004   0.860   3.985  1.00  0.00     0.014 A 
ATOM     33  C   UNL     1       7.357  -0.112   5.460  1.00  0.00     0.014 A 
ATOM     34  C   UNL     1       9.605   1.492   5.079  1.00  0.00     0.010 A 
ATOM     35  C   UNL     1       7.906   0.588   6.536  1.00  0.00     0.010 A 
ATOM     36  C   UNL     1       9.042   1.392   6.362  1.00  0.00    -0.014 A 
BRANCH  36  37
ATOM     37  C   UNL     1       9.641   2.100   7.529  1.00  0.00     0.031 A 
ATOM     38  C   UNL     1      10.174   1.316   8.701  1.00  0.00     0.074 A 
ATOM     39  C   UNL     1       9.664   3.448   7.561  1.00  0.00     0.049 A 
ATOM     40  N   UNL     1      10.668   1.748   9.834  1.00  0.00    -0.248 NA
ATOM     41  C   UNL     1      10.114  -0.149   8.595  1.00  0.00     0.031 C 
ATOM     42  C   UNL     1       9.149   4.327   6.508  1.00  0.00     0.029 A 
ATOM     43  N   UNL     1      10.133   4.318   8.515  1.00  0.00    -0.354 N 
ATOM     44  C   UNL     1      10.964   0.611  10.580  1.00  0.00     0.074 A 
ATOM     45  C   UNL     1      10.531  -0.525   9.794  1.00  0.00     0.031 C 
ATOM     46  C   UNL     1       9.357   5.606   6.862  1.00  0.00     0.029 A 
ATOM     47  C   UNL     1       9.972   5.645   8.185  1.00  0.00     0.049 A 
ATOM     48  H   UNL     1      10.545   4.020   9.358  1.00  0.00     0.167 HD
ATOM     49  C   UNL     1      11.564   0.519  11.793  1.00  0.00     0.034 A 
ATOM     50  C   UNL     1      10.274   6.766   8.871  1.00  0.00     0.034 A 
ATOM     51  C   UNL     1      12.005   1.659  12.561  1.00  0.00     0.049 A 
ATOM     52  C   UNL     1      10.913   6.641  10.232  1.00  0.00     0.074 A 
ATOM     53  C   UNL     1      12.671   1.677  13.775  1.00  0.00     0.029 A 
ATOM     54  N   UNL     1      11.818   2.987  12.195  1.00  0.00    -0.354 N 
ATOM     55  N   UNL     1      11.229   5.556  10.901  1.00  0.00    -0.248 NA
ATOM     56  C   UNL     1      11.245   7.892  10.925  1.00  0.00     0.031 C 
ATOM     57  C   UNL     1      12.823   3.009  14.175  1.00  0.00     0.029 A 
ATOM     58  C   UNL     1      12.326   3.828  13.174  1.00  0.00     0.049 A 
ATOM     59  H   UNL     1      11.388   3.287  11.362  1.00  0.00     0.167 HD
ATOM     60  C   UNL     1      11.827   5.997  12.079  1.00  0.00     0.074 A 
ATOM     61  C   UNL     1      11.840   7.444  12.021  1.00  0.00     0.031 C 
ATOM     62  C   UNL     1      12.325   5.271  13.112  1.00  0.00     0.034 A 
BRANCH  49  63
ATOM     63  C   UNL     1      11.755  -0.865  12.372  1.00  0.00     0.023 A 
ATOM     64  C   UNL     1      12.551  -1.830  11.731  1.00  0.00     0.031 A 
ATOM     65  C   UNL     1      11.110  -1.235  13.565  1.00  0.00     0.131 A 
ATOM     66  C   UNL     1      12.615  -3.137  12.238  1.00  0.00     0.055 A 
ATOM     67  C   UNL     1      11.248  -2.513  14.113  1.00  0.00     0.041 A 
ATOM     68  F   UNL     1      10.320  -0.365  14.215  1.00  0.00    -0.206 F 
ATOM     69  C   UNL     1      11.990  -3.478  13.439  1.00  0.00     0.022 A 
BRANCH  66  70
ATOM     70  S   UNL     1      13.396  -4.421  11.222  1.00  0.00     0.124 S 
ATOM     71  O   UNL     1      12.596  -4.357  10.001  1.00  0.00    -0.237 OA
ATOM     72  O   UNL     1      14.769  -3.944  11.112  1.00  0.00    -0.237 OA
ATOM     73  O   UNL     1      13.218  -5.638  12.012  1.00  0.00    -0.744 OA
ENDBRANCH  66  70
ENDBRANCH  49  63
BRANCH  50  74
ATOM     74  C   UNL     1       9.971   8.109   8.297  1.00  0.00     0.023 A 
ATOM     75  C   UNL     1      11.000   9.012   7.986  1.00  0.00     0.031 A 
ATOM     76  C   UNL     1       8.644   8.527   8.092  1.00  0.00     0.131 A 
ATOM     77  C   UNL     1      10.685  10.303   7.533  1.00  0.00     0.055 A 
ATOM     78  C   UNL     1       8.338   9.793   7.590  1.00  0.00     0.041 A 
ATOM     79  F   UNL     1       7.621   7.702   8.369  1.00  0.00    -0.206 F 
ATOM     80  C   UNL     1       9.362  10.695   7.321  1.00  0.00     0.022 A 
BRANCH  77  81
ATOM     81  S   UNL     1      12.032  11.497   7.308  1.00  0.00     0.124 S 
ATOM     82  O   UNL     1      12.621  11.536   8.642  1.00  0.00    -0.237 OA
ATOM     83  O   UNL     1      12.834  10.857   6.271  1.00  0.00    -0.237 OA
ATOM     84  O   UNL     1      11.340  12.716   6.894  1.00  0.00    -0.744 OA
ENDBRANCH  77  81
ENDBRANCH  50  74
BRANCH  62  85
ATOM     85  C   UNL     1      12.970   6.037  14.243  1.00  0.00     0.023 A 
ATOM     86  C   UNL     1      12.228   6.881  15.087  1.00  0.00     0.031 A 
ATOM     87  C   UNL     1      14.354   5.925  14.471  1.00  0.00     0.131 A 
ATOM     88  C   UNL     1      12.882   7.625  16.082  1.00  0.00     0.055 A 
ATOM     89  C   UNL     1      14.988   6.619  15.502  1.00  0.00     0.041 A 
ATOM     90  F   UNL     1      15.113   5.136  13.694  1.00  0.00    -0.206 F 
ATOM     91  C   UNL     1      14.254   7.486  16.306  1.00  0.00     0.022 A 
BRANCH  88  92
ATOM     92  S   UNL     1      11.930   8.851  17.020  1.00  0.00     0.124 S 
ATOM     93  O   UNL     1      11.431   9.723  15.961  1.00  0.00    -0.237 OA
ATOM     94  O   UNL     1      10.930   8.025  17.690  1.00  0.00    -0.237 OA
ATOM     95  O   UNL     1      12.925   9.456  17.903  1.00  0.00    -0.744 OA
ENDBRANCH  88  92
ENDBRANCH  62  85
ENDBRANCH  36  37
ENDBRANCH  28  31
ENDBRANCH  26  27
ENDBRANCH   1  26
TORSDOF 16
