REMARK SMILES Cn1cc(C[C@H](C(=O)NCCCNC(=O)c2ccc(-c3c4nc(c(-c5cc(S(=O)(=O)[O-])ccc5F)c5ccc([nH]5)c(-c5cc(S(=O)(=O)[O-])ccc5F)c5nc(c(-c6cc(S(=O)(=O)[O-])ccc6F)c6ccc3[nH]6)C=C5)C=C4)cc2)c2ccc(F)cc2)cn1
REMARK SMILES IDX 11 1 10 2 9 3 7 4 8 5 6 7 5 8 4 9 1 10 2 11 3 12 87 13 86 14
REMARK SMILES IDX 79 15 80 16 85 17 81 18 84 19 82 20 83 21 12 22 13 23 14 24
REMARK SMILES IDX 15 26 16 27 17 28 78 29 18 30 77 31 19 32 20 33 21 34 71 35
REMARK SMILES IDX 22 36 76 37 70 38 72 39 23 40 75 41 69 42 68 43 24 45 56 46
REMARK SMILES IDX 36 47 55 48 37 49 40 50 54 51 73 52 38 53 39 54 53 56 74 57
REMARK SMILES IDX 41 58 25 59 26 60 34 61 27 62 33 63 35 64 32 65 28 66 29 67
REMARK SMILES IDX 30 68 31 69 57 70 58 71 66 72 59 73 65 74 67 75 64 76 60 77
REMARK SMILES IDX 61 78 62 79 63 80 42 81 43 82 51 83 44 84 50 85 52 86 49 87
REMARK SMILES IDX 45 88 46 89 47 90 48 91
REMARK H PARENT 9 6 13 25 72 44 40 55
REMARK Flexibility Score: inf
ROOT
ATOM      1  C   UNL     1       3.761  -4.715   0.263  1.00  0.00     0.042 C 
ENDROOT
BRANCH   1   2
ATOM      2  C   UNL     1       2.586  -3.872  -0.231  1.00  0.00     0.117 C 
BRANCH   2   3
ATOM      3  N   UNL     1       2.545  -2.586   0.437  1.00  0.00    -0.355 N 
ATOM      4  C   UNL     1       3.087  -1.390   0.073  1.00  0.00     0.227 C 
ATOM      5  O   UNL     1       3.053  -0.491   0.919  1.00  0.00    -0.274 OA
ATOM      6  H   UNL     1       2.048  -2.575   1.287  1.00  0.00     0.163 HD
BRANCH   4   7
ATOM      7  C   UNL     1       3.662  -1.162  -1.342  1.00  0.00     0.113 C 
BRANCH   7   8
ATOM      8  C   UNL     1       3.690   0.370  -1.557  1.00  0.00     0.057 C 
BRANCH   8   9
ATOM      9  C   UNL     1       3.954   0.899  -2.928  1.00  0.00    -0.009 A 
ATOM     10  C   UNL     1       4.354   3.505  -5.390  1.00  0.00     0.173 C 
ATOM     11  N   UNL     1       4.242   2.308  -4.594  1.00  0.00    -0.276 N 
ATOM     12  C   UNL     1       4.033   2.241  -3.252  1.00  0.00     0.112 A 
ATOM     13  N   UNL     1       4.311   1.101  -5.181  1.00  0.00    -0.182 NA
ATOM     14  C   UNL     1       4.151   0.246  -4.165  1.00  0.00     0.138 A 
ENDBRANCH   8   9
ENDBRANCH   7   8
BRANCH   7  15
ATOM     15  C   UNL     1       5.020  -1.839  -1.520  1.00  0.00    -0.035 A 
ATOM     16  C   UNL     1       5.135  -2.986  -2.330  1.00  0.00     0.007 A 
ATOM     17  C   UNL     1       6.166  -1.381  -0.849  1.00  0.00     0.007 A 
ATOM     18  C   UNL     1       6.340  -3.686  -2.417  1.00  0.00     0.039 A 
ATOM     19  C   UNL     1       7.380  -2.065  -0.963  1.00  0.00     0.039 A 
ATOM     20  C   UNL     1       7.452  -3.219  -1.732  1.00  0.00     0.123 A 
ATOM     21  F   UNL     1       8.606  -3.892  -1.810  1.00  0.00    -0.207 F 
ENDBRANCH   7  15
ENDBRANCH   4   7
ENDBRANCH   2   3
ENDBRANCH   1   2
BRANCH   1  22
ATOM     22  C   UNL     1       3.545  -5.314   1.650  1.00  0.00     0.118 C 
BRANCH  22  23
ATOM     23  N   UNL     1       2.569  -6.390   1.629  1.00  0.00    -0.352 N 
ATOM     24  C   UNL     1       2.677  -7.692   2.050  1.00  0.00     0.251 C 
ATOM     25  H   UNL     1       1.692  -6.147   1.253  1.00  0.00     0.163 HD
ATOM     26  O   UNL     1       1.804  -8.490   1.716  1.00  0.00    -0.269 OA
BRANCH  24  27
ATOM     27  C   UNL     1       3.821  -8.146   2.880  1.00  0.00     0.039 A 
ATOM     28  C   UNL     1       4.307  -9.443   2.688  1.00  0.00     0.014 A 
ATOM     29  C   UNL     1       4.371  -7.346   3.887  1.00  0.00     0.014 A 
ATOM     30  C   UNL     1       5.358  -9.922   3.475  1.00  0.00     0.010 A 
ATOM     31  C   UNL     1       5.467  -7.799   4.624  1.00  0.00     0.010 A 
ATOM     32  C   UNL     1       5.962  -9.098   4.438  1.00  0.00    -0.014 A 
BRANCH  32  33
ATOM     33  C   UNL     1       7.092  -9.599   5.266  1.00  0.00     0.031 A 
ATOM     34  C   UNL     1       6.930  -9.765   6.755  1.00  0.00     0.074 A 
ATOM     35  C   UNL     1       8.272  -9.880   4.681  1.00  0.00     0.049 A 
ATOM     36  N   UNL     1       7.800 -10.175   7.644  1.00  0.00    -0.248 NA
ATOM     37  C   UNL     1       5.626  -9.392   7.322  1.00  0.00     0.031 C 
ATOM     38  C   UNL     1       8.566  -9.715   3.255  1.00  0.00     0.029 A 
ATOM     39  N   UNL     1       9.444 -10.363   5.206  1.00  0.00    -0.354 N 
ATOM     40  C   UNL     1       7.154 -10.099   8.874  1.00  0.00     0.074 A 
ATOM     41  C   UNL     1       5.841  -9.544   8.620  1.00  0.00     0.031 C 
ATOM     42  C   UNL     1       9.824 -10.119   3.016  1.00  0.00     0.029 A 
ATOM     43  C   UNL     1      10.438 -10.538   4.271  1.00  0.00     0.049 A 
ATOM     44  H   UNL     1       9.562 -10.565   6.162  1.00  0.00     0.167 HD
ATOM     45  C   UNL     1       7.604 -10.479  10.097  1.00  0.00     0.034 A 
ATOM     46  C   UNL     1      11.702 -10.985   4.410  1.00  0.00     0.034 A 
ATOM     47  C   UNL     1       8.914 -11.042  10.331  1.00  0.00     0.049 A 
ATOM     48  C   UNL     1      12.178 -11.408   5.776  1.00  0.00     0.074 A 
ATOM     49  C   UNL     1       9.456 -11.505  11.518  1.00  0.00     0.029 A 
ATOM     50  N   UNL     1       9.891 -11.215   9.358  1.00  0.00    -0.354 N 
ATOM     51  N   UNL     1      11.535 -11.380   6.921  1.00  0.00    -0.248 NA
ATOM     52  C   UNL     1      13.542 -11.941   5.862  1.00  0.00     0.031 C 
ATOM     53  C   UNL     1      10.777 -11.900  11.274  1.00  0.00     0.029 A 
ATOM     54  C   UNL     1      11.038 -11.754   9.922  1.00  0.00     0.049 A 
ATOM     55  H   UNL     1       9.784 -10.988   8.406  1.00  0.00     0.167 HD
ATOM     56  C   UNL     1      12.412 -11.917   7.860  1.00  0.00     0.074 A 
ATOM     57  C   UNL     1      13.616 -12.281   7.140  1.00  0.00     0.031 C 
ATOM     58  C   UNL     1      12.239 -12.094   9.195  1.00  0.00     0.034 A 
BRANCH  45  59
ATOM     59  C   UNL     1       6.677 -10.271  11.273  1.00  0.00     0.023 A 
ATOM     60  C   UNL     1       5.435 -10.926  11.360  1.00  0.00     0.031 A 
ATOM     61  C   UNL     1       7.021  -9.380  12.306  1.00  0.00     0.131 A 
ATOM     62  C   UNL     1       4.551 -10.620  12.406  1.00  0.00     0.055 A 
ATOM     63  C   UNL     1       6.172  -9.144  13.389  1.00  0.00     0.041 A 
ATOM     64  F   UNL     1       8.183  -8.710  12.271  1.00  0.00    -0.206 F 
ATOM     65  C   UNL     1       4.921  -9.753  13.436  1.00  0.00     0.022 A 
BRANCH  62  66
ATOM     66  S   UNL     1       2.855 -11.259  12.322  1.00  0.00     0.124 S 
ATOM     67  O   UNL     1       2.387 -10.685  11.063  1.00  0.00    -0.237 OA
ATOM     68  O   UNL     1       3.060 -12.702  12.330  1.00  0.00    -0.237 OA
ATOM     69  O   UNL     1       2.223 -10.711  13.521  1.00  0.00    -0.744 OA
ENDBRANCH  62  66
ENDBRANCH  45  59
BRANCH  46  70
ATOM     70  C   UNL     1      12.608 -11.065   3.229  1.00  0.00     0.023 A 
ATOM     71  C   UNL     1      13.071 -12.303   2.755  1.00  0.00     0.031 A 
ATOM     72  C   UNL     1      13.053  -9.900   2.580  1.00  0.00     0.131 A 
ATOM     73  C   UNL     1      13.988 -12.346   1.693  1.00  0.00     0.055 A 
ATOM     74  C   UNL     1      13.926  -9.951   1.491  1.00  0.00     0.041 A 
ATOM     75  F   UNL     1      12.634  -8.692   2.989  1.00  0.00    -0.206 F 
ATOM     76  C   UNL     1      14.409 -11.180   1.050  1.00  0.00     0.022 A 
BRANCH  73  77
ATOM     77  S   UNL     1      14.684 -13.951   1.212  1.00  0.00     0.124 S 
ATOM     78  O   UNL     1      15.293 -14.397   2.460  1.00  0.00    -0.237 OA
ATOM     79  O   UNL     1      13.495 -14.679   0.781  1.00  0.00    -0.237 OA
ATOM     80  O   UNL     1      15.623 -13.608   0.146  1.00  0.00    -0.744 OA
ENDBRANCH  73  77
ENDBRANCH  46  70
BRANCH  58  81
ATOM     81  C   UNL     1      13.377 -12.745   9.945  1.00  0.00     0.023 A 
ATOM     82  C   UNL     1      14.627 -12.114  10.082  1.00  0.00     0.031 A 
ATOM     83  C   UNL     1      13.221 -14.030  10.494  1.00  0.00     0.131 A 
ATOM     84  C   UNL     1      15.692 -12.799  10.687  1.00  0.00     0.055 A 
ATOM     85  C   UNL     1      14.266 -14.679  11.152  1.00  0.00     0.041 A 
ATOM     86  F   UNL     1      12.050 -14.679  10.392  1.00  0.00    -0.206 F 
ATOM     87  C   UNL     1      15.515 -14.071  11.236  1.00  0.00     0.022 A 
BRANCH  84  88
ATOM     88  S   UNL     1      17.344 -12.050  10.641  1.00  0.00     0.124 S 
ATOM     89  O   UNL     1      17.545 -11.845   9.210  1.00  0.00    -0.237 OA
ATOM     90  O   UNL     1      17.160 -10.842  11.439  1.00  0.00    -0.237 OA
ATOM     91  O   UNL     1      18.199 -13.069  11.248  1.00  0.00    -0.744 OA
ENDBRANCH  84  88
ENDBRANCH  58  81
ENDBRANCH  32  33
ENDBRANCH  24  27
ENDBRANCH  22  23
ENDBRANCH   1  22
TORSDOF 16
