REMARK SMILES CCC[C@@H](C)C[NH2+][C@@](C)(CC)C(=O)NCCCNC(=O)c1ccc(-c2c3nc(c(-c4cc(S(=O)(=O)[O-])ccc4F)c4ccc([nH]4)c(-c4cc(S(=O)(=O)[O-])ccc4F)c4nc(c(-c5cc(S(=O)(=O)[O-])ccc5F)c5ccc2[nH]5)C=C4)C=C3)cc1
REMARK SMILES IDX 15 1 14 2 12 3 13 4 8 6 9 7 7 8 6 11 4 12 5 13 3 14 2 15
REMARK SMILES IDX 1 16 10 17 11 18 16 19 17 20 18 21 19 22 20 24 21 25 22 26
REMARK SMILES IDX 83 27 23 28 82 29 24 30 25 31 26 32 76 33 27 34 81 35 75 36
REMARK SMILES IDX 77 37 28 38 80 39 74 40 73 41 29 43 61 44 41 45 60 46 42 47
REMARK SMILES IDX 45 48 59 49 78 50 43 51 44 52 58 54 79 55 46 56 30 57 31 58
REMARK SMILES IDX 39 59 32 60 38 61 40 62 37 63 33 64 34 65 35 66 36 67 62 68
REMARK SMILES IDX 63 69 71 70 64 71 70 72 72 73 69 74 65 75 66 76 67 77 68 78
REMARK SMILES IDX 47 79 48 80 56 81 49 82 55 83 57 84 54 85 50 86 51 87 52 88
REMARK SMILES IDX 53 89
REMARK H PARENT 14 5 7 9 7 10 18 23 77 42 45 53
REMARK Flexibility Score: inf
ROOT
ATOM      1  C   UNL     1       3.513   7.713   4.177  1.00  0.00     0.118 C 
ENDROOT
BRANCH   1   2
ATOM      2  N   UNL     1       2.656   7.381   3.057  1.00  0.00    -0.351 N 
ATOM      3  C   UNL     1       2.375   6.207   2.430  1.00  0.00     0.281 C 
ATOM      4  O   UNL     1       1.731   6.328   1.380  1.00  0.00    -0.268 OA
ATOM      5  H   UNL     1       2.186   8.156   2.676  1.00  0.00     0.163 HD
BRANCH   3   6
ATOM      6  C   UNL     1       2.841   4.818   2.996  1.00  0.00     0.172 C 
ATOM      7  C   UNL     1       2.402   4.621   4.463  1.00  0.00     0.090 C 
BRANCH   6   8
ATOM      8  N   UNL     1       2.259   3.700   2.190  1.00  0.00    -0.334 N 
ATOM      9  H   UNL     1       2.532   3.840   1.217  1.00  0.00     0.347 HD
ATOM     10  H   UNL     1       2.623   2.840   2.601  1.00  0.00     0.347 HD
BRANCH   8  11
ATOM     11  C   UNL     1       0.799   3.579   2.236  1.00  0.00     0.264 C 
BRANCH  11  12
ATOM     12  C   UNL     1       0.302   2.371   1.409  1.00  0.00     0.041 C 
ATOM     13  C   UNL     1      -1.229   2.429   1.332  1.00  0.00     0.013 C 
BRANCH  12  14
ATOM     14  C   UNL     1       0.787   1.034   2.016  1.00  0.00     0.009 C 
BRANCH  14  15
ATOM     15  C   UNL     1       0.366  -0.230   1.263  1.00  0.00    -0.003 C 
ATOM     16  C   UNL     1       0.876  -0.272  -0.169  1.00  0.00     0.004 C 
ENDBRANCH  14  15
ENDBRANCH  12  14
ENDBRANCH  11  12
ENDBRANCH   8  11
ENDBRANCH   6   8
BRANCH   6  17
ATOM     17  C   UNL     1       4.384   4.680   2.882  1.00  0.00     0.075 C 
ATOM     18  C   UNL     1       4.938   4.801   1.463  1.00  0.00     0.011 C 
ENDBRANCH   6  17
ENDBRANCH   3   6
ENDBRANCH   1   2
BRANCH   1  19
ATOM     19  C   UNL     1       4.767   8.450   3.728  1.00  0.00     0.042 C 
BRANCH  19  20
ATOM     20  C   UNL     1       4.481   9.803   3.093  1.00  0.00     0.118 C 
BRANCH  20  21
ATOM     21  N   UNL     1       3.803  10.713   4.009  1.00  0.00    -0.352 N 
ATOM     22  C   UNL     1       4.250  11.877   4.583  1.00  0.00     0.251 C 
ATOM     23  H   UNL     1       2.886  10.453   4.253  1.00  0.00     0.163 HD
ATOM     24  O   UNL     1       3.622  12.367   5.521  1.00  0.00    -0.269 OA
BRANCH  22  25
ATOM     25  C   UNL     1       5.486  12.518   4.090  1.00  0.00     0.039 A 
ATOM     26  C   UNL     1       6.389  13.058   5.008  1.00  0.00     0.014 A 
ATOM     27  C   UNL     1       5.753  12.587   2.720  1.00  0.00     0.014 A 
ATOM     28  C   UNL     1       7.594  13.599   4.553  1.00  0.00     0.010 A 
ATOM     29  C   UNL     1       6.993  13.033   2.279  1.00  0.00     0.010 A 
ATOM     30  C   UNL     1       7.925  13.551   3.188  1.00  0.00    -0.014 A 
BRANCH  30  31
ATOM     31  C   UNL     1       9.228  14.058   2.684  1.00  0.00     0.031 A 
ATOM     32  C   UNL     1       9.255  15.195   1.697  1.00  0.00     0.074 A 
ATOM     33  C   UNL     1      10.375  13.461   3.065  1.00  0.00     0.049 A 
ATOM     34  N   UNL     1      10.271  15.712   1.056  1.00  0.00    -0.248 NA
ATOM     35  C   UNL     1       7.961  15.815   1.367  1.00  0.00     0.031 C 
ATOM     36  C   UNL     1      10.476  12.336   3.998  1.00  0.00     0.029 A 
ATOM     37  N   UNL     1      11.678  13.712   2.713  1.00  0.00    -0.354 N 
ATOM     38  C   UNL     1       9.741  16.713   0.250  1.00  0.00     0.074 A 
ATOM     39  C   UNL     1       8.305  16.676   0.423  1.00  0.00     0.031 C 
ATOM     40  C   UNL     1      11.769  12.018   4.168  1.00  0.00     0.029 A 
ATOM     41  C   UNL     1      12.588  12.872   3.314  1.00  0.00     0.049 A 
ATOM     42  H   UNL     1      11.938  14.427   2.088  1.00  0.00     0.167 HD
ATOM     43  C   UNL     1      10.393  17.605  -0.536  1.00  0.00     0.034 A 
ATOM     44  C   UNL     1      13.927  12.789   3.178  1.00  0.00     0.034 A 
ATOM     45  C   UNL     1      11.825  17.634  -0.696  1.00  0.00     0.049 A 
ATOM     46  C   UNL     1      14.620  13.747   2.237  1.00  0.00     0.074 A 
ATOM     47  C   UNL     1      12.590  18.501  -1.456  1.00  0.00     0.029 A 
ATOM     48  N   UNL     1      12.711  16.757  -0.084  1.00  0.00    -0.354 N 
ATOM     49  N   UNL     1      14.104  14.706   1.502  1.00  0.00    -0.248 NA
ATOM     50  C   UNL     1      16.079  13.619   2.116  1.00  0.00     0.031 C 
ATOM     51  C   UNL     1      13.928  18.109  -1.356  1.00  0.00     0.029 A 
ATOM     52  C   UNL     1      14.010  17.050  -0.467  1.00  0.00     0.049 A 
ATOM     53  H   UNL     1      12.454  16.033   0.532  1.00  0.00     0.167 HD
ATOM     54  C   UNL     1      15.182  15.323   0.873  1.00  0.00     0.074 A 
ATOM     55  C   UNL     1      16.375  14.638   1.324  1.00  0.00     0.031 C 
ATOM     56  C   UNL     1      15.190  16.364   0.003  1.00  0.00     0.034 A 
BRANCH  43  57
ATOM     57  C   UNL     1       9.557  18.614  -1.284  1.00  0.00     0.023 A 
ATOM     58  C   UNL     1       8.777  19.566  -0.603  1.00  0.00     0.031 A 
ATOM     59  C   UNL     1       9.529  18.626  -2.689  1.00  0.00     0.131 A 
ATOM     60  C   UNL     1       7.954  20.443  -1.323  1.00  0.00     0.055 A 
ATOM     61  C   UNL     1       8.771  19.557  -3.402  1.00  0.00     0.041 A 
ATOM     62  F   UNL     1      10.234  17.727  -3.394  1.00  0.00    -0.206 F 
ATOM     63  C   UNL     1       7.967  20.465  -2.719  1.00  0.00     0.022 A 
BRANCH  60  64
ATOM     64  S   UNL     1       6.768  21.463  -0.406  1.00  0.00     0.124 S 
ATOM     65  O   UNL     1       5.955  20.446   0.257  1.00  0.00    -0.237 OA
ATOM     66  O   UNL     1       7.633  22.254   0.460  1.00  0.00    -0.237 OA
ATOM     67  O   UNL     1       6.080  22.214  -1.455  1.00  0.00    -0.744 OA
ENDBRANCH  60  64
ENDBRANCH  43  57
BRANCH  44  68
ATOM     68  C   UNL     1      14.716  11.766   3.926  1.00  0.00     0.023 A 
ATOM     69  C   UNL     1      15.732  12.153   4.815  1.00  0.00     0.031 A 
ATOM     70  C   UNL     1      14.534  10.390   3.699  1.00  0.00     0.131 A 
ATOM     71  C   UNL     1      16.579  11.186   5.377  1.00  0.00     0.055 A 
ATOM     72  C   UNL     1      15.332   9.427   4.320  1.00  0.00     0.041 A 
ATOM     73  F   UNL     1      13.579   9.959   2.860  1.00  0.00    -0.206 F 
ATOM     74  C   UNL     1      16.376   9.824   5.148  1.00  0.00     0.022 A 
BRANCH  71  75
ATOM     75  S   UNL     1      18.040  11.747   6.295  1.00  0.00     0.124 S 
ATOM     76  O   UNL     1      18.696  12.600   5.311  1.00  0.00    -0.237 OA
ATOM     77  O   UNL     1      17.437  12.428   7.436  1.00  0.00    -0.237 OA
ATOM     78  O   UNL     1      18.740  10.504   6.610  1.00  0.00    -0.744 OA
ENDBRANCH  71  75
ENDBRANCH  44  68
BRANCH  56  79
ATOM     79  C   UNL     1      16.535  16.870  -0.458  1.00  0.00     0.023 A 
ATOM     80  C   UNL     1      17.393  16.091  -1.253  1.00  0.00     0.031 A 
ATOM     81  C   UNL     1      16.965  18.158  -0.087  1.00  0.00     0.131 A 
ATOM     82  C   UNL     1      18.659  16.583  -1.604  1.00  0.00     0.055 A 
ATOM     83  C   UNL     1      18.198  18.668  -0.496  1.00  0.00     0.041 A 
ATOM     84  F   UNL     1      16.188  18.945   0.674  1.00  0.00    -0.206 F 
ATOM     85  C   UNL     1      19.058  17.874  -1.247  1.00  0.00     0.022 A 
BRANCH  82  86
ATOM     86  S   UNL     1      19.817  15.477  -2.455  1.00  0.00     0.124 S 
ATOM     87  O   UNL     1      19.935  14.373  -1.508  1.00  0.00    -0.237 OA
ATOM     88  O   UNL     1      19.110  15.180  -3.696  1.00  0.00    -0.237 OA
ATOM     89  O   UNL     1      21.020  16.293  -2.609  1.00  0.00    -0.744 OA
ENDBRANCH  82  86
ENDBRANCH  56  79
ENDBRANCH  30  31
ENDBRANCH  22  25
ENDBRANCH  20  21
ENDBRANCH  19  20
ENDBRANCH   1  19
TORSDOF 19
