REMARK SMILES CC(C)C[C@@H](C)NS(=O)(=O)c1ccsc1C(=O)NCCCNC(=O)c1ccc(-c2c3nc(c(-c4cc(S(=O)(=O)[O-])ccc4F)c4ccc([nH]4)c(-c4cc(S(=O)(=O)[O-])ccc4F)c4nc(c(-c5cc(S(=O)(=O)[O-])ccc5F)c5ccc2[nH]5)C=C4)C=C3)cc1
REMARK SMILES IDX 19 1 18 2 16 3 17 4 15 6 11 7 12 8 13 9 14 10 8 11 9 12
REMARK SMILES IDX 10 13 7 14 5 16 6 17 4 18 2 19 1 20 3 21 20 22 21 23 22 24
REMARK SMILES IDX 23 25 24 27 25 28 26 29 87 30 27 31 86 32 28 33 29 34 30 35
REMARK SMILES IDX 80 36 31 37 85 38 79 39 81 40 32 41 84 42 78 43 77 44 33 46
REMARK SMILES IDX 65 47 45 48 64 49 46 50 49 51 63 52 82 53 47 54 48 55 62 57
REMARK SMILES IDX 83 58 50 59 34 60 35 61 43 62 36 63 42 64 44 65 41 66 37 67
REMARK SMILES IDX 38 68 39 69 40 70 66 71 67 72 75 73 68 74 74 75 76 76 73 77
REMARK SMILES IDX 69 78 70 79 71 80 72 81 51 82 52 83 60 84 53 85 59 86 61 87
REMARK SMILES IDX 58 88 54 89 55 90 56 91 57 92
REMARK H PARENT 18 5 7 15 22 26 81 45 49 56
REMARK Flexibility Score: inf
ROOT
ATOM      1  C   UNL     1      -4.214   0.220   0.569  1.00  0.00     0.118 C 
ENDROOT
BRANCH   1   2
ATOM      2  N   UNL     1      -3.085  -0.069  -0.293  1.00  0.00    -0.351 N 
ATOM      3  C   UNL     1      -2.688  -1.180  -0.990  1.00  0.00     0.262 C 
ATOM      4  O   UNL     1      -1.920  -0.924  -1.926  1.00  0.00    -0.268 OA
ATOM      5  H   UNL     1      -2.474   0.695  -0.401  1.00  0.00     0.163 HD
BRANCH   3   6
ATOM      6  C   UNL     1      -3.093  -2.544  -0.700  1.00  0.00     0.112 A 
ATOM      7  C   UNL     1      -3.147  -3.330   0.440  1.00  0.00     0.106 A 
ATOM      8  C   UNL     1      -3.438  -4.710   0.145  1.00  0.00     0.034 A 
ATOM      9  C   UNL     1      -3.547  -4.954  -1.200  1.00  0.00     0.067 A 
ATOM     10  S   UNL     1      -3.394  -3.525  -2.107  1.00  0.00    -0.137 S 
BRANCH   7  11
ATOM     11  S   UNL     1      -2.862  -2.871   2.078  1.00  0.00     0.242 S 
ATOM     12  O   UNL     1      -2.220  -4.026   2.674  1.00  0.00    -0.207 OA
ATOM     13  O   UNL     1      -4.154  -2.417   2.527  1.00  0.00    -0.207 OA
BRANCH  11  14
ATOM     14  N   UNL     1      -1.815  -1.589   2.215  1.00  0.00    -0.208 NA
ATOM     15  H   UNL     1      -2.205  -0.838   1.645  1.00  0.00     0.141 HD
BRANCH  14  16
ATOM     16  C   UNL     1      -0.389  -1.703   1.832  1.00  0.00     0.067 C 
ATOM     17  C   UNL     1       0.430  -1.892   3.103  1.00  0.00     0.025 C 
BRANCH  16  18
ATOM     18  C   UNL     1      -0.083  -0.391   1.085  1.00  0.00     0.022 C 
BRANCH  18  19
ATOM     19  C   UNL     1       1.356   0.117   0.992  1.00  0.00    -0.016 C 
ATOM     20  C   UNL     1       2.168  -0.697  -0.011  1.00  0.00     0.007 C 
ATOM     21  C   UNL     1       1.317   1.590   0.562  1.00  0.00     0.007 C 
ENDBRANCH  18  19
ENDBRANCH  16  18
ENDBRANCH  14  16
ENDBRANCH  11  14
ENDBRANCH   7  11
ENDBRANCH   3   6
ENDBRANCH   1   2
BRANCH   1  22
ATOM     22  C   UNL     1      -3.864   0.972   1.868  1.00  0.00     0.042 C 
BRANCH  22  23
ATOM     23  C   UNL     1      -2.913   2.175   1.741  1.00  0.00     0.118 C 
BRANCH  23  24
ATOM     24  N   UNL     1      -3.526   3.393   2.240  1.00  0.00    -0.352 N 
ATOM     25  C   UNL     1      -3.353   4.105   3.400  1.00  0.00     0.251 C 
ATOM     26  H   UNL     1      -4.194   3.782   1.630  1.00  0.00     0.163 HD
ATOM     27  O   UNL     1      -4.228   4.922   3.692  1.00  0.00    -0.269 OA
BRANCH  25  28
ATOM     28  C   UNL     1      -2.179   3.957   4.305  1.00  0.00     0.039 A 
ATOM     29  C   UNL     1      -2.390   4.171   5.675  1.00  0.00     0.014 A 
ATOM     30  C   UNL     1      -0.866   3.800   3.848  1.00  0.00     0.014 A 
ATOM     31  C   UNL     1      -1.313   4.241   6.570  1.00  0.00     0.010 A 
ATOM     32  C   UNL     1       0.212   3.827   4.755  1.00  0.00     0.010 A 
ATOM     33  C   UNL     1       0.007   4.077   6.124  1.00  0.00    -0.014 A 
BRANCH  33  34
ATOM     34  C   UNL     1       1.148   4.230   7.083  1.00  0.00     0.031 A 
ATOM     35  C   UNL     1       2.106   5.394   6.964  1.00  0.00     0.074 A 
ATOM     36  C   UNL     1       1.328   3.337   8.079  1.00  0.00     0.049 A 
ATOM     37  N   UNL     1       3.137   5.702   7.714  1.00  0.00    -0.248 NA
ATOM     38  C   UNL     1       1.887   6.323   5.846  1.00  0.00     0.031 C 
ATOM     39  C   UNL     1       0.499   2.152   8.308  1.00  0.00     0.029 A 
ATOM     40  N   UNL     1       2.263   3.284   9.088  1.00  0.00    -0.354 N 
ATOM     41  C   UNL     1       3.702   6.842   7.148  1.00  0.00     0.074 A 
ATOM     42  C   UNL     1       2.918   7.149   5.969  1.00  0.00     0.031 C 
ATOM     43  C   UNL     1       0.953   1.500   9.392  1.00  0.00     0.029 A 
ATOM     44  C   UNL     1       2.121   2.198   9.924  1.00  0.00     0.049 A 
ATOM     45  H   UNL     1       2.968   3.961   9.202  1.00  0.00     0.167 HD
ATOM     46  C   UNL     1       4.763   7.575   7.573  1.00  0.00     0.034 A 
ATOM     47  C   UNL     1       2.846   1.801  10.992  1.00  0.00     0.034 A 
ATOM     48  C   UNL     1       5.518   7.298   8.773  1.00  0.00     0.049 A 
ATOM     49  C   UNL     1       4.013   2.643  11.453  1.00  0.00     0.074 A 
ATOM     50  C   UNL     1       6.548   8.038   9.332  1.00  0.00     0.029 A 
ATOM     51  N   UNL     1       5.335   6.195   9.595  1.00  0.00    -0.354 N 
ATOM     52  N   UNL     1       4.478   3.760  10.944  1.00  0.00    -0.248 NA
ATOM     53  C   UNL     1       4.740   2.180  12.643  1.00  0.00     0.031 C 
ATOM     54  C   UNL     1       7.029   7.351  10.452  1.00  0.00     0.029 A 
ATOM     55  C   UNL     1       6.255   6.218  10.633  1.00  0.00     0.049 A 
ATOM     56  H   UNL     1       4.653   5.498   9.461  1.00  0.00     0.167 HD
ATOM     57  C   UNL     1       5.527   4.147  11.775  1.00  0.00     0.074 A 
ATOM     58  C   UNL     1       5.617   3.156  12.825  1.00  0.00     0.031 C 
ATOM     59  C   UNL     1       6.342   5.228  11.679  1.00  0.00     0.034 A 
BRANCH  46  60
ATOM     60  C   UNL     1       5.201   8.743   6.720  1.00  0.00     0.023 A 
ATOM     61  C   UNL     1       4.397   9.882   6.547  1.00  0.00     0.031 A 
ATOM     62  C   UNL     1       6.456   8.719   6.085  1.00  0.00     0.131 A 
ATOM     63  C   UNL     1       4.831  10.924   5.713  1.00  0.00     0.055 A 
ATOM     64  C   UNL     1       6.913   9.790   5.314  1.00  0.00     0.041 A 
ATOM     65  F   UNL     1       7.262   7.652   6.204  1.00  0.00    -0.206 F 
ATOM     66  C   UNL     1       6.094  10.897   5.114  1.00  0.00     0.022 A 
BRANCH  63  67
ATOM     67  S   UNL     1       3.678  12.271   5.332  1.00  0.00     0.124 S 
ATOM     68  O   UNL     1       2.592  11.550   4.672  1.00  0.00    -0.237 OA
ATOM     69  O   UNL     1       3.377  12.813   6.651  1.00  0.00    -0.237 OA
ATOM     70  O   UNL     1       4.453  13.150   4.458  1.00  0.00    -0.744 OA
ENDBRANCH  63  67
ENDBRANCH  46  60
BRANCH  47  71
ATOM     71  C   UNL     1       2.517   0.530  11.705  1.00  0.00     0.023 A 
ATOM     72  C   UNL     1       2.118   0.533  13.051  1.00  0.00     0.031 A 
ATOM     73  C   UNL     1       2.679  -0.714  11.069  1.00  0.00     0.131 A 
ATOM     74  C   UNL     1       1.953  -0.682  13.735  1.00  0.00     0.055 A 
ATOM     75  C   UNL     1       2.458  -1.919  11.738  1.00  0.00     0.041 A 
ATOM     76  F   UNL     1       3.059  -0.775   9.783  1.00  0.00    -0.206 F 
ATOM     77  C   UNL     1       2.110  -1.908  13.085  1.00  0.00     0.022 A 
BRANCH  74  78
ATOM     78  S   UNL     1       1.645  -0.638  15.523  1.00  0.00     0.124 S 
ATOM     79  O   UNL     1       2.765   0.166  15.999  1.00  0.00    -0.237 OA
ATOM     80  O   UNL     1       0.330  -0.009  15.586  1.00  0.00    -0.237 OA
ATOM     81  O   UNL     1       1.680  -2.047  15.909  1.00  0.00    -0.744 OA
ENDBRANCH  74  78
ENDBRANCH  47  71
BRANCH  59  82
ATOM     82  C   UNL     1       7.367   5.420  12.771  1.00  0.00     0.023 A 
ATOM     83  C   UNL     1       8.452   4.539  12.932  1.00  0.00     0.031 A 
ATOM     84  C   UNL     1       7.247   6.493  13.672  1.00  0.00     0.131 A 
ATOM     85  C   UNL     1       9.343   4.716  14.002  1.00  0.00     0.055 A 
ATOM     86  C   UNL     1       8.168   6.696  14.701  1.00  0.00     0.041 A 
ATOM     87  F   UNL     1       6.231   7.364  13.565  1.00  0.00    -0.206 F 
ATOM     88  C   UNL     1       9.216   5.797  14.879  1.00  0.00     0.022 A 
BRANCH  85  89
ATOM     89  S   UNL     1      10.627   3.466  14.285  1.00  0.00     0.124 S 
ATOM     90  O   UNL     1       9.836   2.254  14.469  1.00  0.00    -0.237 OA
ATOM     91  O   UNL     1      11.408   3.536  13.054  1.00  0.00    -0.237 OA
ATOM     92  O   UNL     1      11.316   3.945  15.482  1.00  0.00    -0.744 OA
ENDBRANCH  85  89
ENDBRANCH  59  82
ENDBRANCH  33  34
ENDBRANCH  25  28
ENDBRANCH  23  24
ENDBRANCH  22  23
ENDBRANCH   1  22
TORSDOF 18
