REMARK SMILES CN1C(=O)C[C@@H](C(=O)NCCCNC(=O)c2ccc(-c3c4nc(c(-c5cc(S(=O)(=O)[O-])ccc5F)c5ccc([nH]5)c(-c5cc(S(=O)(=O)[O-])ccc5F)c5nc(c(-c6cc(S(=O)(=O)[O-])ccc6F)c6ccc3[nH]6)C=C5)C=C4)cc2)C12CCN(C(=O)c1cccc3ccccc13)CC2
REMARK SMILES IDX 12 1 11 2 10 3 9 4 7 5 8 6 6 8 1 9 2 10 3 11 79 12 4 13 5 14
REMARK SMILES IDX 80 15 96 16 81 17 95 18 82 19 83 20 84 21 85 22 86 23 94 24
REMARK SMILES IDX 87 25 89 26 93 27 88 28 90 29 92 30 91 31 13 32 14 33 15 35
REMARK SMILES IDX 16 36 17 37 78 38 18 39 77 40 19 41 20 42 21 43 71 44 22 45
REMARK SMILES IDX 76 46 70 47 72 48 23 49 75 50 69 51 68 52 24 54 56 55 36 56
REMARK SMILES IDX 55 57 37 58 40 59 54 60 73 61 38 62 39 63 53 65 74 66 41 67
REMARK SMILES IDX 25 68 26 69 34 70 27 71 33 72 35 73 32 74 28 75 29 76 30 77
REMARK SMILES IDX 31 78 57 79 58 80 66 81 59 82 65 83 67 84 64 85 60 86 61 87
REMARK SMILES IDX 62 88 63 89 42 90 43 91 51 92 44 93 50 94 52 95 49 96 45 97
REMARK SMILES IDX 46 98 47 99 48 100
REMARK H PARENT 9 7 13 34 72 53 40 64
REMARK Flexibility Score: inf
ROOT
ATOM      1  C   UNL     1       3.984  -1.836  -4.042  1.00  0.00     0.118 C 
ENDROOT
BRANCH   1   2
ATOM      2  C   UNL     1       3.308  -0.866  -3.081  1.00  0.00     0.042 C 
BRANCH   2   3
ATOM      3  C   UNL     1       2.567   0.279  -3.775  1.00  0.00     0.117 C 
BRANCH   3   4
ATOM      4  N   UNL     1       1.496  -0.139  -4.671  1.00  0.00    -0.356 N 
ATOM      5  C   UNL     1       0.144  -0.035  -4.639  1.00  0.00     0.226 C 
ATOM      6  O   UNL     1      -0.454  -0.418  -5.653  1.00  0.00    -0.275 OA
ATOM      7  H   UNL     1       1.826  -0.598  -5.477  1.00  0.00     0.163 HD
BRANCH   5   8
ATOM      8  C   UNL     1      -0.682   0.454  -3.449  1.00  0.00     0.113 C 
ATOM      9  C   UNL     1       0.893   0.018  -0.075  1.00  0.00     0.147 C 
ATOM     10  N   UNL     1       0.299   0.435  -1.331  1.00  0.00    -0.339 N 
ATOM     11  C   UNL     1       0.366   1.761  -1.744  1.00  0.00     0.223 C 
ATOM     12  C   UNL     1      -0.607  -0.385  -2.151  1.00  0.00     0.058 C 
ATOM     13  O   UNL     1       0.935   2.673  -1.173  1.00  0.00    -0.275 OA
ATOM     14  C   UNL     1      -0.361   1.892  -3.053  1.00  0.00     0.116 C 
ATOM     15  C   UNL     1      -0.130  -1.835  -2.395  1.00  0.00     0.051 C 
ATOM     16  C   UNL     1      -1.982  -0.439  -1.416  1.00  0.00     0.051 C 
ATOM     17  C   UNL     1      -1.181  -2.690  -3.108  1.00  0.00     0.122 C 
ATOM     18  C   UNL     1      -2.972  -1.432  -2.026  1.00  0.00     0.122 C 
ATOM     19  N   UNL     1      -2.352  -2.734  -2.262  1.00  0.00    -0.338 N 
ATOM     20  C   UNL     1      -2.826  -3.857  -1.592  1.00  0.00     0.254 C 
ATOM     21  O   UNL     1      -3.676  -3.771  -0.704  1.00  0.00    -0.269 OA
BRANCH  20  22
ATOM     22  C   UNL     1      -2.466  -5.238  -2.019  1.00  0.00     0.047 A 
ATOM     23  C   UNL     1      -3.540  -5.929  -2.608  1.00  0.00     0.014 A 
ATOM     24  C   UNL     1      -1.269  -5.929  -1.667  1.00  0.00    -0.006 A 
ATOM     25  C   UNL     1      -3.485  -7.305  -2.788  1.00  0.00     0.001 A 
ATOM     26  C   UNL     1      -1.255  -7.342  -1.816  1.00  0.00    -0.018 A 
ATOM     27  C   UNL     1      -0.079  -5.334  -1.185  1.00  0.00     0.009 A 
ATOM     28  C   UNL     1      -2.366  -8.008  -2.352  1.00  0.00     0.009 A 
ATOM     29  C   UNL     1      -0.131  -8.090  -1.427  1.00  0.00     0.009 A 
ATOM     30  C   UNL     1       1.073  -6.080  -0.913  1.00  0.00     0.001 A 
ATOM     31  C   UNL     1       1.036  -7.463  -1.002  1.00  0.00     0.001 A 
ENDBRANCH  20  22
ENDBRANCH   5   8
ENDBRANCH   3   4
ENDBRANCH   2   3
ENDBRANCH   1   2
BRANCH   1  32
ATOM     32  N   UNL     1       5.096  -1.198  -4.726  1.00  0.00    -0.352 N 
ATOM     33  C   UNL     1       6.446  -1.370  -4.548  1.00  0.00     0.251 C 
ATOM     34  H   UNL     1       4.844  -0.546  -5.420  1.00  0.00     0.163 HD
ATOM     35  O   UNL     1       7.209  -0.486  -4.928  1.00  0.00    -0.269 OA
BRANCH  33  36
ATOM     36  C   UNL     1       6.979  -2.597  -3.911  1.00  0.00     0.039 A 
ATOM     37  C   UNL     1       8.130  -2.500  -3.126  1.00  0.00     0.014 A 
ATOM     38  C   UNL     1       6.398  -3.849  -4.137  1.00  0.00     0.014 A 
ATOM     39  C   UNL     1       8.671  -3.648  -2.541  1.00  0.00     0.010 A 
ATOM     40  C   UNL     1       6.886  -4.978  -3.479  1.00  0.00     0.010 A 
ATOM     41  C   UNL     1       8.037  -4.894  -2.686  1.00  0.00    -0.014 A 
BRANCH  41  42
ATOM     42  C   UNL     1       8.585  -6.104  -2.014  1.00  0.00     0.031 A 
ATOM     43  C   UNL     1       9.070  -7.278  -2.824  1.00  0.00     0.074 A 
ATOM     44  C   UNL     1       8.633  -6.143  -0.667  1.00  0.00     0.049 A 
ATOM     45  N   UNL     1       9.581  -8.411  -2.412  1.00  0.00    -0.248 NA
ATOM     46  C   UNL     1       8.943  -7.179  -4.287  1.00  0.00     0.031 C 
ATOM     47  C   UNL     1       8.146  -5.086   0.225  1.00  0.00     0.029 A 
ATOM     48  N   UNL     1       9.118  -7.097   0.191  1.00  0.00    -0.354 N 
ATOM     49  C   UNL     1       9.841  -9.153  -3.560  1.00  0.00     0.074 A 
ATOM     50  C   UNL     1       9.361  -8.373  -4.679  1.00  0.00     0.031 C 
ATOM     51  C   UNL     1       8.397  -5.431   1.497  1.00  0.00     0.029 A 
ATOM     52  C   UNL     1       9.014  -6.752   1.520  1.00  0.00     0.049 A 
ATOM     53  H   UNL     1       9.504  -7.949  -0.115  1.00  0.00     0.167 HD
ATOM     54  C   UNL     1      10.454 -10.358  -3.672  1.00  0.00     0.034 A 
ATOM     55  C   UNL     1       9.370  -7.426   2.632  1.00  0.00     0.034 A 
ATOM     56  C   UNL     1      10.932 -11.123  -2.545  1.00  0.00     0.049 A 
ATOM     57  C   UNL     1      10.025  -8.776   2.477  1.00  0.00     0.074 A 
ATOM     58  C   UNL     1      11.593 -12.339  -2.547  1.00  0.00     0.029 A 
ATOM     59  N   UNL     1      10.801 -10.747  -1.214  1.00  0.00    -0.354 N 
ATOM     60  N   UNL     1      10.310  -9.436   1.377  1.00  0.00    -0.248 NA
ATOM     61  C   UNL     1      10.425  -9.461   3.712  1.00  0.00     0.031 C 
ATOM     62  C   UNL     1      11.796 -12.731  -1.220  1.00  0.00     0.029 A 
ATOM     63  C   UNL     1      11.342 -11.721  -0.388  1.00  0.00     0.049 A 
ATOM     64  H   UNL     1      10.385  -9.911  -0.903  1.00  0.00     0.167 HD
ATOM     65  C   UNL     1      10.948 -10.602   1.792  1.00  0.00     0.074 A 
ATOM     66  C   UNL     1      11.040 -10.532   3.236  1.00  0.00     0.031 C 
ATOM     67  C   UNL     1      11.410 -11.643   1.052  1.00  0.00     0.034 A 
BRANCH  54  68
ATOM     68  C   UNL     1      10.633 -10.927  -5.060  1.00  0.00     0.023 A 
ATOM     69  C   UNL     1      11.436 -10.286  -6.021  1.00  0.00     0.031 A 
ATOM     70  C   UNL     1      10.003 -12.130  -5.428  1.00  0.00     0.131 A 
ATOM     71  C   UNL     1      11.542 -10.818  -7.315  1.00  0.00     0.055 A 
ATOM     72  C   UNL     1      10.177 -12.695  -6.694  1.00  0.00     0.041 A 
ATOM     73  F   UNL     1       9.206 -12.776  -4.564  1.00  0.00    -0.206 F 
ATOM     74  C   UNL     1      10.941 -12.033  -7.649  1.00  0.00     0.022 A 
BRANCH  71  75
ATOM     75  S   UNL     1      12.379  -9.836  -8.590  1.00  0.00     0.124 S 
ATOM     76  O   UNL     1      11.559  -8.626  -8.614  1.00  0.00    -0.237 OA
ATOM     77  O   UNL     1      13.722  -9.686  -8.043  1.00  0.00    -0.237 OA
ATOM     78  O   UNL     1      12.280 -10.671  -9.785  1.00  0.00    -0.744 OA
ENDBRANCH  71  75
ENDBRANCH  54  68
BRANCH  55  79
ATOM     79  C   UNL     1       9.104  -6.859   3.988  1.00  0.00     0.023 A 
ATOM     80  C   UNL     1      10.151  -6.608   4.890  1.00  0.00     0.031 A 
ATOM     81  C   UNL     1       7.789  -6.633   4.432  1.00  0.00     0.131 A 
ATOM     82  C   UNL     1       9.864  -6.219   6.207  1.00  0.00     0.055 A 
ATOM     83  C   UNL     1       7.511  -6.175   5.721  1.00  0.00     0.041 A 
ATOM     84  F   UNL     1       6.747  -6.853   3.614  1.00  0.00    -0.206 F 
ATOM     85  C   UNL     1       8.552  -5.986   6.625  1.00  0.00     0.022 A 
BRANCH  82  86
ATOM     86  S   UNL     1      11.223  -6.154   7.408  1.00  0.00     0.124 S 
ATOM     87  O   UNL     1      11.782  -7.496   7.294  1.00  0.00    -0.237 OA
ATOM     88  O   UNL     1      12.042  -5.070   6.877  1.00  0.00    -0.237 OA
ATOM     89  O   UNL     1      10.546  -5.863   8.670  1.00  0.00    -0.744 OA
ENDBRANCH  82  86
ENDBRANCH  55  79
BRANCH  67  90
ATOM     90  C   UNL     1      12.084 -12.766   1.806  1.00  0.00     0.023 A 
ATOM     91  C   UNL     1      11.384 -13.544   2.746  1.00  0.00     0.031 A 
ATOM     92  C   UNL     1      13.453 -13.029   1.621  1.00  0.00     0.131 A 
ATOM     93  C   UNL     1      12.073 -14.480   3.530  1.00  0.00     0.055 A 
ATOM     94  C   UNL     1      14.115 -14.020   2.347  1.00  0.00     0.041 A 
ATOM     95  F   UNL     1      14.174 -12.319   0.739  1.00  0.00    -0.206 F 
ATOM     96  C   UNL     1      13.430 -14.737   3.324  1.00  0.00     0.022 A 
BRANCH  93  97
ATOM     97  S   UNL     1      11.201 -15.250   4.921  1.00  0.00     0.124 S 
ATOM     98  O   UNL     1      10.757 -14.086   5.681  1.00  0.00    -0.237 OA
ATOM     99  O   UNL     1      10.152 -16.010   4.249  1.00  0.00    -0.237 OA
ATOM    100  O   UNL     1      12.234 -16.058   5.568  1.00  0.00    -0.744 OA
ENDBRANCH  93  97
ENDBRANCH  67  90
ENDBRANCH  41  42
ENDBRANCH  33  36
ENDBRANCH   1  32
TORSDOF 14
