REMARK SMILES CCC[C@@](C)(C(=O)NCCCNC(=O)c1ccc(-c2c3nc(c(-c4cc(S(=O)(=O)[O-])ccc4F)c4ccc([nH]4)c(-c4cc(S(=O)(=O)[O-])ccc4F)c4nc(c(-c5cc(S(=O)(=O)[O-])ccc5F)c5ccc2[nH]5)C=C4)C=C3)cc1)[C@H]1CCOC1
REMARK SMILES IDX 10 1 9 2 8 3 6 4 7 5 4 7 5 8 3 9 2 10 1 11 78 12 79 13 82 14
REMARK SMILES IDX 80 15 81 16 11 17 12 18 13 19 14 21 15 22 16 23 77 24 17 25
REMARK SMILES IDX 76 26 18 27 19 28 20 29 70 30 21 31 75 32 69 33 71 34 22 35
REMARK SMILES IDX 74 36 68 37 67 38 23 40 55 41 35 42 54 43 36 44 39 45 53 46
REMARK SMILES IDX 72 47 37 48 38 49 52 51 73 52 40 53 24 54 25 55 33 56 26 57
REMARK SMILES IDX 32 58 34 59 31 60 27 61 28 62 29 63 30 64 56 65 57 66 65 67
REMARK SMILES IDX 58 68 64 69 66 70 63 71 59 72 60 73 61 74 62 75 41 76 42 77
REMARK SMILES IDX 50 78 43 79 49 80 51 81 48 82 44 83 45 84 46 85 47 86
REMARK H PARENT 8 6 12 20 71 39 39 50
REMARK Flexibility Score: inf
ROOT
ATOM      1  C   UNL     1       2.378  -1.473   7.653  1.00  0.00     0.042 C 
ENDROOT
BRANCH   1   2
ATOM      2  C   UNL     1       1.741  -2.338   6.566  1.00  0.00     0.117 C 
BRANCH   2   3
ATOM      3  N   UNL     1       0.576  -1.709   5.975  1.00  0.00    -0.356 N 
ATOM      4  C   UNL     1       0.282  -1.210   4.753  1.00  0.00     0.226 C 
ATOM      5  O   UNL     1      -0.893  -0.834   4.645  1.00  0.00    -0.274 OA
ATOM      6  H   UNL     1      -0.173  -1.626   6.609  1.00  0.00     0.163 HD
BRANCH   4   7
ATOM      7  C   UNL     1       1.258  -1.189   3.532  1.00  0.00     0.051 C 
ATOM      8  C   UNL     1       1.351  -2.660   3.068  1.00  0.00     0.022 C 
BRANCH   7   9
ATOM      9  C   UNL     1       2.650  -0.570   3.884  1.00  0.00     0.017 C 
BRANCH   9  10
ATOM     10  C   UNL     1       3.942  -1.262   3.402  1.00  0.00    -0.002 C 
ATOM     11  C   UNL     1       4.307  -1.014   1.946  1.00  0.00     0.004 C 
ENDBRANCH   9  10
ENDBRANCH   7   9
BRANCH   7  12
ATOM     12  C   UNL     1       0.506  -0.364   2.419  1.00  0.00     0.032 C 
ATOM     13  C   UNL     1       0.207   1.104   2.716  1.00  0.00     0.035 C 
ATOM     14  C   UNL     1       1.153  -0.216   1.053  1.00  0.00     0.164 C 
ATOM     15  C   UNL     1      -0.234   1.621   1.359  1.00  0.00     0.160 C 
ATOM     16  O   UNL     1       0.381   0.784   0.367  1.00  0.00    -0.381 OA
ENDBRANCH   7  12
ENDBRANCH   4   7
ENDBRANCH   2   3
ENDBRANCH   1   2
BRANCH   1  17
ATOM     17  C   UNL     1       1.426  -1.015   8.758  1.00  0.00     0.118 C 
BRANCH  17  18
ATOM     18  N   UNL     1       0.837  -2.119   9.502  1.00  0.00    -0.352 N 
ATOM     19  C   UNL     1       1.010  -2.506  10.811  1.00  0.00     0.251 C 
ATOM     20  H   UNL     1       0.214  -2.680   8.985  1.00  0.00     0.163 HD
ATOM     21  O   UNL     1       0.560  -3.583  11.184  1.00  0.00    -0.269 OA
BRANCH  19  22
ATOM     22  C   UNL     1       1.766  -1.647  11.751  1.00  0.00     0.039 A 
ATOM     23  C   UNL     1       2.711  -2.237  12.595  1.00  0.00     0.014 A 
ATOM     24  C   UNL     1       1.549  -0.268  11.803  1.00  0.00     0.014 A 
ATOM     25  C   UNL     1       3.505  -1.433  13.416  1.00  0.00     0.010 A 
ATOM     26  C   UNL     1       2.395   0.538  12.560  1.00  0.00     0.010 A 
ATOM     27  C   UNL     1       3.393  -0.034  13.364  1.00  0.00    -0.014 A 
BRANCH  27  28
ATOM     28  C   UNL     1       4.335   0.847  14.105  1.00  0.00     0.031 A 
ATOM     29  C   UNL     1       3.831   1.780  15.169  1.00  0.00     0.074 A 
ATOM     30  C   UNL     1       5.638   0.861  13.760  1.00  0.00     0.049 A 
ATOM     31  N   UNL     1       4.484   2.679  15.861  1.00  0.00    -0.248 NA
ATOM     32  C   UNL     1       2.395   1.712  15.471  1.00  0.00     0.031 C 
ATOM     33  C   UNL     1       6.245   0.023  12.724  1.00  0.00     0.029 A 
ATOM     34  N   UNL     1       6.685   1.608  14.237  1.00  0.00    -0.354 N 
ATOM     35  C   UNL     1       3.538   3.290  16.678  1.00  0.00     0.074 A 
ATOM     36  C   UNL     1       2.257   2.706  16.334  1.00  0.00     0.031 C 
ATOM     37  C   UNL     1       7.562   0.274  12.672  1.00  0.00     0.029 A 
ATOM     38  C   UNL     1       7.885   1.332  13.624  1.00  0.00     0.049 A 
ATOM     39  H   UNL     1       6.588   2.279  14.951  1.00  0.00     0.167 HD
ATOM     40  C   UNL     1       3.724   4.229  17.640  1.00  0.00     0.034 A 
ATOM     41  C   UNL     1       9.106   1.876  13.797  1.00  0.00     0.034 A 
ATOM     42  C   UNL     1       5.008   4.809  17.957  1.00  0.00     0.049 A 
ATOM     43  C   UNL     1       9.276   2.979  14.808  1.00  0.00     0.074 A 
ATOM     44  C   UNL     1       5.321   5.730  18.941  1.00  0.00     0.029 A 
ATOM     45  N   UNL     1       6.192   4.541  17.279  1.00  0.00    -0.354 N 
ATOM     46  N   UNL     1       8.383   3.511  15.610  1.00  0.00    -0.248 NA
ATOM     47  C   UNL     1      10.620   3.555  14.936  1.00  0.00     0.031 C 
ATOM     48  C   UNL     1       6.668   6.084  18.802  1.00  0.00     0.029 A 
ATOM     49  C   UNL     1       7.223   5.317  17.790  1.00  0.00     0.049 A 
ATOM     50  H   UNL     1       6.286   3.894  16.542  1.00  0.00     0.167 HD
ATOM     51  C   UNL     1       9.065   4.466  16.358  1.00  0.00     0.074 A 
ATOM     52  C   UNL     1      10.446   4.427  15.919  1.00  0.00     0.031 C 
ATOM     53  C   UNL     1       8.593   5.293  17.326  1.00  0.00     0.034 A 
BRANCH  40  54
ATOM     54  C   UNL     1       2.494   4.705  18.383  1.00  0.00     0.023 A 
ATOM     55  C   UNL     1       1.683   3.814  19.109  1.00  0.00     0.031 A 
ATOM     56  C   UNL     1       2.086   6.049  18.311  1.00  0.00     0.131 A 
ATOM     57  C   UNL     1       0.455   4.248  19.630  1.00  0.00     0.055 A 
ATOM     58  C   UNL     1       0.913   6.497  18.924  1.00  0.00     0.041 A 
ATOM     59  F   UNL     1       2.805   6.947  17.620  1.00  0.00    -0.206 F 
ATOM     60  C   UNL     1       0.076   5.590  19.567  1.00  0.00     0.022 A 
BRANCH  57  61
ATOM     61  S   UNL     1      -0.728   2.994  20.198  1.00  0.00     0.124 S 
ATOM     62  O   UNL     1      -0.846   2.143  19.016  1.00  0.00    -0.237 OA
ATOM     63  O   UNL     1      -0.039   2.408  21.342  1.00  0.00    -0.237 OA
ATOM     64  O   UNL     1      -1.924   3.771  20.518  1.00  0.00    -0.744 OA
ENDBRANCH  57  61
ENDBRANCH  40  54
BRANCH  41  65
ATOM     65  C   UNL     1      10.263   1.387  12.996  1.00  0.00     0.023 A 
ATOM     66  C   UNL     1      11.338   0.733  13.619  1.00  0.00     0.031 A 
ATOM     67  C   UNL     1      10.320   1.571  11.603  1.00  0.00     0.131 A 
ATOM     68  C   UNL     1      12.437   0.312  12.855  1.00  0.00     0.055 A 
ATOM     69  C   UNL     1      11.393   1.106  10.841  1.00  0.00     0.041 A 
ATOM     70  F   UNL     1       9.316   2.187  10.958  1.00  0.00    -0.206 F 
ATOM     71  C   UNL     1      12.465   0.479  11.469  1.00  0.00     0.022 A 
BRANCH  68  72
ATOM     72  S   UNL     1      13.864  -0.407  13.713  1.00  0.00     0.124 S 
ATOM     73  O   UNL     1      14.273   0.692  14.580  1.00  0.00    -0.237 OA
ATOM     74  O   UNL     1      13.269  -1.562  14.376  1.00  0.00    -0.237 OA
ATOM     75  O   UNL     1      14.789  -0.724  12.626  1.00  0.00    -0.744 OA
ENDBRANCH  68  72
ENDBRANCH  41  65
BRANCH  53  76
ATOM     76  C   UNL     1       9.592   6.207  17.997  1.00  0.00     0.023 A 
ATOM     77  C   UNL     1      10.230   7.247  17.299  1.00  0.00     0.031 A 
ATOM     78  C   UNL     1       9.911   6.031  19.356  1.00  0.00     0.131 A 
ATOM     79  C   UNL     1      11.191   8.039  17.947  1.00  0.00     0.055 A 
ATOM     80  C   UNL     1      10.819   6.864  20.013  1.00  0.00     0.041 A 
ATOM     81  F   UNL     1       9.338   5.050  20.072  1.00  0.00    -0.206 F 
ATOM     82  C   UNL     1      11.473   7.867  19.305  1.00  0.00     0.022 A 
BRANCH  79  83
ATOM     83  S   UNL     1      12.134   9.241  16.970  1.00  0.00     0.124 S 
ATOM     84  O   UNL     1      12.780   8.384  15.980  1.00  0.00    -0.237 OA
ATOM     85  O   UNL     1      11.089  10.123  16.464  1.00  0.00    -0.237 OA
ATOM     86  O   UNL     1      13.036   9.847  17.948  1.00  0.00    -0.744 OA
ENDBRANCH  79  83
ENDBRANCH  53  76
ENDBRANCH  27  28
ENDBRANCH  19  22
ENDBRANCH  17  18
ENDBRANCH   1  17
TORSDOF 16
