REMARK SMILES C[N@H+]1[C@H]2CC[C@@H]1C[N@@H+]([C@H](C(=O)NCCCNC(=O)c1ccc(-c3c4nc(c(-c5cc(S(=O)(=O)[O-])ccc5F)c5ccc([nH]5)c(-c5cc(S(=O)(=O)[O-])ccc5F)c5nc(c(-c6cc(S(=O)(=O)[O-])ccc6F)c6ccc3[nH]6)C=C5)C=C4)cc1)c1ccccc1)CC2
REMARK SMILES IDX 14 1 13 2 12 3 10 4 11 5 9 7 8 8 7 10 6 11 1 12 2 13 3 14
REMARK SMILES IDX 4 16 5 18 88 19 89 20 82 22 83 23 87 24 84 25 86 26 85 27
REMARK SMILES IDX 15 28 16 29 17 30 18 32 19 33 20 34 81 35 21 36 80 37 22 38
REMARK SMILES IDX 23 39 24 40 74 41 25 42 79 43 73 44 75 45 26 46 78 47 72 48
REMARK SMILES IDX 71 49 27 51 59 52 39 53 58 54 40 55 43 56 57 57 76 58 41 59
REMARK SMILES IDX 42 60 56 62 77 63 44 64 28 65 29 66 37 67 30 68 36 69 38 70
REMARK SMILES IDX 35 71 31 72 32 73 33 74 34 75 60 76 61 77 69 78 62 79 68 80
REMARK SMILES IDX 70 81 67 82 63 83 64 84 65 85 66 86 45 87 46 88 54 89 47 90
REMARK SMILES IDX 53 91 55 92 52 93 48 94 49 95 50 96 51 97
REMARK H PARENT 12 6 8 9 2 15 16 31 75 50 43 61
REMARK Flexibility Score: 90.00
ROOT
ATOM      1  C   UNL     1      -2.151   2.060  -6.681  1.00  0.00     0.042 C 
ENDROOT
BRANCH   1   2
ATOM      2  C   UNL     1      -1.842   0.650  -6.178  1.00  0.00     0.118 C 
BRANCH   2   3
ATOM      3  N   UNL     1      -0.815   0.678  -5.160  1.00  0.00    -0.351 N 
ATOM      4  C   UNL     1      -0.877   0.809  -3.801  1.00  0.00     0.283 C 
ATOM      5  O   UNL     1       0.225   1.028  -3.282  1.00  0.00    -0.268 OA
ATOM      6  H   UNL     1       0.100   0.586  -5.512  1.00  0.00     0.163 HD
BRANCH   4   7
ATOM      7  C   UNL     1      -2.211   0.581  -2.982  1.00  0.00     0.305 C 
BRANCH   7   8
ATOM      8  N   UNL     1      -1.884  -0.095  -1.676  1.00  0.00    -0.316 N 
ATOM      9  H   UNL     1      -1.304  -0.881  -1.969  1.00  0.00     0.349 HD
BRANCH   8  10
ATOM     10  C   UNL     1      -3.074  -0.637  -0.984  1.00  0.00     0.328 C 
BRANCH  10  11
ATOM     11  C   UNL     1      -2.815  -1.613   0.219  1.00  0.00     0.240 C 
ATOM     12  C   UNL     1      -2.108  -1.609   2.565  1.00  0.00     0.333 C 
ATOM     13  N   UNL     1      -1.882  -1.065   1.233  1.00  0.00    -0.328 N 
ATOM     14  C   UNL     1      -0.532  -1.371   0.718  1.00  0.00     0.190 CG0
ATOM     15  H   UNL     1      -2.018  -0.062   1.358  1.00  0.00     0.348 HD
ATOM     16  C   UNL     1      -0.661  -2.607  -0.180  1.00  0.00     0.071 C 
ATOM     17  G   UNL     1       0.015  -0.152  -0.037  1.00  0.00     0.000 G0
ATOM     18  C   UNL     1      -2.147  -2.907  -0.237  1.00  0.00     0.077 C 
ENDBRANCH  10  11
ENDBRANCH   8  10
BRANCH   8  19
ATOM     19  C   UNL     1      -1.049   0.688  -0.751  1.00  0.00     0.269 C 
BRANCH  19  20
ATOM     20  C   UNL     1       0.015  -0.152  -0.037  1.00  0.00     0.126 CG0
ATOM     21  G   UNL     1      -0.532  -1.371   0.718  1.00  0.00     0.000 G0
ENDBRANCH  19  20
ENDBRANCH   8  19
ENDBRANCH   7   8
BRANCH   7  22
ATOM     22  C   UNL     1      -3.171   1.786  -2.938  1.00  0.00     0.019 A 
ATOM     23  C   UNL     1      -3.191   2.745  -1.913  1.00  0.00     0.010 A 
ATOM     24  C   UNL     1      -4.127   1.954  -3.960  1.00  0.00     0.010 A 
ATOM     25  C   UNL     1      -4.108   3.804  -1.905  1.00  0.00     0.001 A 
ATOM     26  C   UNL     1      -5.000   3.049  -3.994  1.00  0.00     0.001 A 
ATOM     27  C   UNL     1      -4.997   3.971  -2.958  1.00  0.00     0.000 A 
ENDBRANCH   7  22
ENDBRANCH   4   7
ENDBRANCH   2   3
ENDBRANCH   1   2
BRANCH   1  28
ATOM     28  C   UNL     1      -1.028   2.681  -7.510  1.00  0.00     0.118 C 
BRANCH  28  29
ATOM     29  N   UNL     1      -0.936   2.095  -8.838  1.00  0.00    -0.352 N 
ATOM     30  C   UNL     1      -1.106   2.673 -10.074  1.00  0.00     0.251 C 
ATOM     31  H   UNL     1      -0.718   1.135  -8.854  1.00  0.00     0.163 HD
ATOM     32  O   UNL     1      -1.212   1.945 -11.056  1.00  0.00    -0.269 OA
BRANCH  30  33
ATOM     33  C   UNL     1      -1.181   4.147 -10.229  1.00  0.00     0.039 A 
ATOM     34  C   UNL     1      -2.072   4.678 -11.167  1.00  0.00     0.014 A 
ATOM     35  C   UNL     1      -0.351   5.006  -9.503  1.00  0.00     0.014 A 
ATOM     36  C   UNL     1      -2.167   6.063 -11.338  1.00  0.00     0.010 A 
ATOM     37  C   UNL     1      -0.501   6.388  -9.618  1.00  0.00     0.010 A 
ATOM     38  C   UNL     1      -1.404   6.934 -10.543  1.00  0.00    -0.014 A 
BRANCH  38  39
ATOM     39  C   UNL     1      -1.523   8.411 -10.682  1.00  0.00     0.031 A 
ATOM     40  C   UNL     1      -0.343   9.227 -11.140  1.00  0.00     0.074 A 
ATOM     41  C   UNL     1      -2.675   9.024 -10.344  1.00  0.00     0.049 A 
ATOM     42  N   UNL     1      -0.226  10.525 -11.255  1.00  0.00    -0.248 NA
ATOM     43  C   UNL     1       0.876   8.482 -11.486  1.00  0.00     0.031 C 
ATOM     44  C   UNL     1      -3.878   8.349  -9.854  1.00  0.00     0.029 A 
ATOM     45  N   UNL     1      -3.022  10.352 -10.352  1.00  0.00    -0.354 N 
ATOM     46  C   UNL     1       1.083  10.755 -11.669  1.00  0.00     0.074 A 
ATOM     47  C   UNL     1       1.734   9.462 -11.725  1.00  0.00     0.031 C 
ATOM     48  C   UNL     1      -4.837   9.263  -9.634  1.00  0.00     0.029 A 
ATOM     49  C   UNL     1      -4.306  10.592  -9.919  1.00  0.00     0.049 A 
ATOM     50  H   UNL     1      -2.410  11.067 -10.641  1.00  0.00     0.167 HD
ATOM     51  C   UNL     1       1.680  11.930 -11.993  1.00  0.00     0.034 A 
ATOM     52  C   UNL     1      -4.976  11.750  -9.757  1.00  0.00     0.034 A 
ATOM     53  C   UNL     1       1.012  13.209 -11.944  1.00  0.00     0.049 A 
ATOM     54  C   UNL     1      -4.286  13.046 -10.098  1.00  0.00     0.074 A 
ATOM     55  C   UNL     1       1.501  14.452 -12.308  1.00  0.00     0.029 A 
ATOM     56  N   UNL     1      -0.287  13.412 -11.495  1.00  0.00    -0.354 N 
ATOM     57  N   UNL     1      -3.064  13.242 -10.537  1.00  0.00    -0.248 NA
ATOM     58  C   UNL     1      -5.070  14.277  -9.931  1.00  0.00     0.031 C 
ATOM     59  C   UNL     1       0.526  15.412 -12.012  1.00  0.00     0.029 A 
ATOM     60  C   UNL     1      -0.603  14.762 -11.539  1.00  0.00     0.049 A 
ATOM     61  H   UNL     1      -0.895  12.701 -11.189  1.00  0.00     0.167 HD
ATOM     62  C   UNL     1      -2.944  14.616 -10.726  1.00  0.00     0.074 A 
ATOM     63  C   UNL     1      -4.222  15.196 -10.368  1.00  0.00     0.031 C 
ATOM     64  C   UNL     1      -1.876  15.332 -11.164  1.00  0.00     0.034 A 
BRANCH  51  65
ATOM     65  C   UNL     1       3.136  11.881 -12.398  1.00  0.00     0.023 A 
ATOM     66  C   UNL     1       3.567  11.168 -13.531  1.00  0.00     0.031 A 
ATOM     67  C   UNL     1       4.114  12.527 -11.621  1.00  0.00     0.131 A 
ATOM     68  C   UNL     1       4.938  11.046 -13.806  1.00  0.00     0.055 A 
ATOM     69  C   UNL     1       5.471  12.475 -11.949  1.00  0.00     0.041 A 
ATOM     70  F   UNL     1       3.770  13.209 -10.517  1.00  0.00    -0.206 F 
ATOM     71  C   UNL     1       5.892  11.716 -13.037  1.00  0.00     0.022 A 
BRANCH  68  72
ATOM     72  S   UNL     1       5.463   9.870 -15.084  1.00  0.00     0.124 S 
ATOM     73  O   UNL     1       4.892   8.620 -14.587  1.00  0.00    -0.237 OA
ATOM     74  O   UNL     1       4.850  10.418 -16.288  1.00  0.00    -0.237 OA
ATOM     75  O   UNL     1       6.922   9.942 -15.037  1.00  0.00    -0.744 OA
ENDBRANCH  68  72
ENDBRANCH  51  65
BRANCH  52  76
ATOM     76  C   UNL     1      -6.376  11.745  -9.242  1.00  0.00     0.023 A 
ATOM     77  C   UNL     1      -7.444  12.174 -10.046  1.00  0.00     0.031 A 
ATOM     78  C   UNL     1      -6.662  11.342  -7.925  1.00  0.00     0.131 A 
ATOM     79  C   UNL     1      -8.742  12.229  -9.515  1.00  0.00     0.055 A 
ATOM     80  C   UNL     1      -7.962  11.350  -7.418  1.00  0.00     0.041 A 
ATOM     81  F   UNL     1      -5.678  10.918  -7.116  1.00  0.00    -0.206 F 
ATOM     82  C   UNL     1      -9.010  11.807  -8.211  1.00  0.00     0.022 A 
BRANCH  79  83
ATOM     83  S   UNL     1     -10.068  12.931 -10.533  1.00  0.00     0.124 S 
ATOM     84  O   UNL     1      -9.563  14.274 -10.794  1.00  0.00    -0.237 OA
ATOM     85  O   UNL     1     -10.090  12.020 -11.672  1.00  0.00    -0.237 OA
ATOM     86  O   UNL     1     -11.239  12.862  -9.661  1.00  0.00    -0.744 OA
ENDBRANCH  79  83
ENDBRANCH  52  76
BRANCH  64  87
ATOM     87  C   UNL     1      -2.068  16.821 -11.319  1.00  0.00     0.023 A 
ATOM     88  C   UNL     1      -2.277  17.662 -10.212  1.00  0.00     0.031 A 
ATOM     89  C   UNL     1      -2.054  17.405 -12.599  1.00  0.00     0.131 A 
ATOM     90  C   UNL     1      -2.520  19.030 -10.409  1.00  0.00     0.055 A 
ATOM     91  C   UNL     1      -2.235  18.776 -12.784  1.00  0.00     0.041 A 
ATOM     92  F   UNL     1      -1.862  16.650 -13.692  1.00  0.00    -0.206 F 
ATOM     93  C   UNL     1      -2.483  19.595 -11.686  1.00  0.00     0.022 A 
BRANCH  90  94
ATOM     94  S   UNL     1      -2.980  20.048  -8.979  1.00  0.00     0.124 S 
ATOM     95  O   UNL     1      -4.181  19.373  -8.499  1.00  0.00    -0.237 OA
ATOM     96  O   UNL     1      -1.802  19.938  -8.125  1.00  0.00    -0.237 OA
ATOM     97  O   UNL     1      -3.203  21.372  -9.559  1.00  0.00    -0.744 OA
ENDBRANCH  90  94
ENDBRANCH  64  87
ENDBRANCH  38  39
ENDBRANCH  30  33
ENDBRANCH  28  29
ENDBRANCH   1  28
TORSDOF 15
