REMARK SMILES COc1cc([C@@H]2CC(=O)Nc3c(C(=O)NCCCNC(=O)c4ccc(-c5c6nc(c(-c7cc(S(=O)(=O)[O-])ccc7F)c7ccc([nH]7)c(-c7cc(S(=O)(=O)[O-])ccc7F)c7nc(c(-c8cc(S(=O)(=O)[O-])ccc8F)c8ccc5[nH]8)C=C7)C=C6)cc4)cn(-c4ccc(F)cc4)c32)c(OC)c2c1OCO2
REMARK SMILES IDX 17 1 16 2 15 3 13 4 14 5 12 7 6 8 7 9 94 10 8 11 11 12 86 13
REMARK SMILES IDX 9 14 10 15 85 16 5 18 3 19 4 20 99 21 98 22 100 23 95 24
REMARK SMILES IDX 102 25 101 26 2 27 1 28 96 29 97 30 87 31 88 32 93 33 89 34
REMARK SMILES IDX 92 35 90 36 91 37 18 38 19 39 20 40 21 42 22 43 23 44 84 45
REMARK SMILES IDX 24 46 83 47 25 48 26 49 27 50 77 51 28 52 82 53 76 54 78 55
REMARK SMILES IDX 29 56 81 57 75 58 74 59 30 61 62 62 42 63 61 64 43 65 46 66
REMARK SMILES IDX 60 67 79 68 44 69 45 70 59 72 80 73 47 74 31 75 32 76 40 77
REMARK SMILES IDX 33 78 39 79 41 80 38 81 34 82 35 83 36 84 37 85 63 86 64 87
REMARK SMILES IDX 72 88 65 89 71 90 73 91 70 92 66 93 67 94 68 95 69 96 48 97
REMARK SMILES IDX 49 98 57 99 50 100 56 101 58 102 55 103 51 104 52 105 53 106
REMARK SMILES IDX 54 107
REMARK H PARENT 15 6 10 17 19 41 78 60 46 71
REMARK Flexibility Score: inf
ROOT
ATOM      1  C   UNL     1       0.818  -4.840   9.924  1.00  0.00     0.042 C 
ENDROOT
BRANCH   1   2
ATOM      2  C   UNL     1       1.344  -5.778   8.824  1.00  0.00     0.118 C 
BRANCH   2   3
ATOM      3  N   UNL     1       0.316  -6.668   8.328  1.00  0.00    -0.352 N 
ATOM      4  C   UNL     1      -0.622  -6.567   7.333  1.00  0.00     0.254 C 
ATOM      5  O   UNL     1      -1.269  -7.597   7.120  1.00  0.00    -0.269 OA
ATOM      6  H   UNL     1       0.283  -7.527   8.806  1.00  0.00     0.163 HD
BRANCH   4   7
ATOM      7  C   UNL     1      -0.859  -5.370   6.512  1.00  0.00     0.081 A 
ATOM      8  C   UNL     1      -0.737  -1.925   5.086  1.00  0.00     0.082 C 
ATOM      9  C   UNL     1      -0.607  -1.127   6.388  1.00  0.00     0.115 C 
ATOM     10  C   UNL     1      -0.963  -3.376   5.400  1.00  0.00     0.055 A 
ATOM     11  C   UNL     1       0.252  -1.838   7.398  1.00  0.00     0.225 C 
ATOM     12  C   UNL     1      -0.537  -3.983   6.560  1.00  0.00     0.076 A 
ATOM     13  N   UNL     1      -1.673  -4.295   4.670  1.00  0.00    -0.317 N 
ATOM     14  O   UNL     1       0.956  -1.236   8.208  1.00  0.00    -0.275 OA
ATOM     15  N   UNL     1       0.126  -3.196   7.466  1.00  0.00    -0.324 N 
ATOM     16  C   UNL     1      -1.660  -5.476   5.369  1.00  0.00     0.107 A 
ATOM     17  H   UNL     1       0.546  -3.650   8.232  1.00  0.00     0.170 HD
BRANCH   8  18
ATOM     18  C   UNL     1       0.442  -1.639   4.151  1.00  0.00     0.012 A 
ATOM     19  C   UNL     1       1.143  -0.402   2.146  1.00  0.00     0.165 A 
ATOM     20  C   UNL     1       0.192  -0.697   3.119  1.00  0.00     0.059 A 
ATOM     21  C   UNL     1       2.380  -1.004   2.255  1.00  0.00     0.211 A 
ATOM     22  C   UNL     1       2.666  -1.888   3.279  1.00  0.00     0.211 A 
ATOM     23  O   UNL     1       3.447  -0.814   1.429  1.00  0.00    -0.449 OA
ATOM     24  C   UNL     1       1.727  -2.229   4.245  1.00  0.00     0.168 A 
ATOM     25  O   UNL     1       3.944  -2.358   3.187  1.00  0.00    -0.449 OA
ATOM     26  C   UNL     1       4.450  -1.613   2.073  1.00  0.00     0.468 C 
BRANCH  19  27
ATOM     27  O   UNL     1       0.756   0.494   1.195  1.00  0.00    -0.493 OA
ATOM     28  C   UNL     1       1.153   0.139  -0.126  1.00  0.00     0.278 C 
ENDBRANCH  19  27
BRANCH  24  29
ATOM     29  O   UNL     1       1.941  -3.099   5.270  1.00  0.00    -0.492 OA
ATOM     30  C   UNL     1       3.259  -3.549   5.549  1.00  0.00     0.278 C 
ENDBRANCH  24  29
ENDBRANCH   8  18
BRANCH  13  31
ATOM     31  C   UNL     1      -2.365  -4.063   3.463  1.00  0.00     0.046 A 
ATOM     32  C   UNL     1      -1.694  -3.483   2.381  1.00  0.00     0.029 A 
ATOM     33  C   UNL     1      -3.732  -4.350   3.386  1.00  0.00     0.029 A 
ATOM     34  C   UNL     1      -2.406  -3.112   1.244  1.00  0.00     0.041 A 
ATOM     35  C   UNL     1      -4.441  -3.967   2.246  1.00  0.00     0.041 A 
ATOM     36  C   UNL     1      -3.775  -3.341   1.194  1.00  0.00     0.123 A 
ATOM     37  F   UNL     1      -4.466  -2.949   0.115  1.00  0.00    -0.207 F 
ENDBRANCH  13  31
ENDBRANCH   4   7
ENDBRANCH   2   3
ENDBRANCH   1   2
BRANCH   1  38
ATOM     38  C   UNL     1       1.069  -5.335  11.324  1.00  0.00     0.118 C 
BRANCH  38  39
ATOM     39  N   UNL     1       2.486  -5.192  11.673  1.00  0.00    -0.352 N 
ATOM     40  C   UNL     1       3.153  -5.683  12.781  1.00  0.00     0.251 C 
ATOM     41  H   UNL     1       3.034  -4.680  11.035  1.00  0.00     0.163 HD
ATOM     42  O   UNL     1       4.205  -5.194  13.144  1.00  0.00    -0.269 OA
BRANCH  40  43
ATOM     43  C   UNL     1       2.525  -6.799  13.506  1.00  0.00     0.039 A 
ATOM     44  C   UNL     1       2.463  -6.825  14.899  1.00  0.00     0.014 A 
ATOM     45  C   UNL     1       1.885  -7.762  12.737  1.00  0.00     0.014 A 
ATOM     46  C   UNL     1       1.657  -7.785  15.505  1.00  0.00     0.010 A 
ATOM     47  C   UNL     1       0.923  -8.536  13.318  1.00  0.00     0.010 A 
ATOM     48  C   UNL     1       0.861  -8.619  14.702  1.00  0.00    -0.014 A 
BRANCH  48  49
ATOM     49  C   UNL     1      -0.136  -9.516  15.272  1.00  0.00     0.031 A 
ATOM     50  C   UNL     1      -1.073  -8.869  16.223  1.00  0.00     0.074 A 
ATOM     51  C   UNL     1      -0.342 -10.769  14.807  1.00  0.00     0.049 A 
ATOM     52  N   UNL     1      -1.097  -9.007  17.505  1.00  0.00    -0.248 NA
ATOM     53  C   UNL     1      -1.970  -7.812  15.727  1.00  0.00     0.031 C 
ATOM     54  C   UNL     1       0.310 -11.440  13.675  1.00  0.00     0.029 A 
ATOM     55  N   UNL     1      -1.284 -11.675  15.178  1.00  0.00    -0.354 N 
ATOM     56  C   UNL     1      -2.190  -8.271  17.948  1.00  0.00     0.074 A 
ATOM     57  C   UNL     1      -2.520  -7.383  16.866  1.00  0.00     0.031 C 
ATOM     58  C   UNL     1      -0.414 -12.517  13.303  1.00  0.00     0.029 A 
ATOM     59  C   UNL     1      -1.470 -12.721  14.277  1.00  0.00     0.049 A 
ATOM     60  H   UNL     1      -1.793 -11.600  16.017  1.00  0.00     0.167 HD
ATOM     61  C   UNL     1      -2.884  -8.655  19.056  1.00  0.00     0.034 A 
ATOM     62  C   UNL     1      -2.429 -13.684  14.315  1.00  0.00     0.034 A 
ATOM     63  C   UNL     1      -2.140  -9.651  19.805  1.00  0.00     0.049 A 
ATOM     64  C   UNL     1      -2.883 -13.764  15.726  1.00  0.00     0.074 A 
ATOM     65  C   UNL     1      -0.878  -9.687  20.370  1.00  0.00     0.029 A 
ATOM     66  N   UNL     1      -2.527 -10.970  19.690  1.00  0.00    -0.354 N 
ATOM     67  N   UNL     1      -2.103 -14.151  16.700  1.00  0.00    -0.248 NA
ATOM     68  C   UNL     1      -4.006 -12.932  16.135  1.00  0.00     0.031 C 
ATOM     69  C   UNL     1      -0.382 -10.991  20.070  1.00  0.00     0.029 A 
ATOM     70  C   UNL     1      -1.398 -11.713  19.438  1.00  0.00     0.049 A 
ATOM     71  H   UNL     1      -3.445 -11.317  19.774  1.00  0.00     0.167 HD
ATOM     72  C   UNL     1      -2.352 -13.262  17.735  1.00  0.00     0.074 A 
ATOM     73  C   UNL     1      -3.609 -12.607  17.370  1.00  0.00     0.031 C 
ATOM     74  C   UNL     1      -1.378 -12.924  18.634  1.00  0.00     0.034 A 
BRANCH  61  75
ATOM     75  C   UNL     1      -4.368  -8.445  19.278  1.00  0.00     0.023 A 
ATOM     76  C   UNL     1      -4.907  -8.944  20.480  1.00  0.00     0.031 A 
ATOM     77  C   UNL     1      -5.314  -8.062  18.300  1.00  0.00     0.131 A 
ATOM     78  C   UNL     1      -6.287  -9.164  20.621  1.00  0.00     0.055 A 
ATOM     79  C   UNL     1      -6.693  -8.216  18.474  1.00  0.00     0.041 A 
ATOM     80  F   UNL     1      -4.970  -7.603  17.093  1.00  0.00    -0.206 F 
ATOM     81  C   UNL     1      -7.186  -8.806  19.623  1.00  0.00     0.022 A 
BRANCH  78  82
ATOM     82  S   UNL     1      -6.857 -10.112  22.054  1.00  0.00     0.124 S 
ATOM     83  O   UNL     1      -6.036 -11.314  21.953  1.00  0.00    -0.237 OA
ATOM     84  O   UNL     1      -6.543  -9.207  23.155  1.00  0.00    -0.237 OA
ATOM     85  O   UNL     1      -8.280 -10.303  21.789  1.00  0.00    -0.744 OA
ENDBRANCH  78  82
ENDBRANCH  61  75
BRANCH  62  86
ATOM     86  C   UNL     1      -3.141 -14.304  13.162  1.00  0.00     0.023 A 
ATOM     87  C   UNL     1      -3.851 -15.521  13.255  1.00  0.00     0.031 A 
ATOM     88  C   UNL     1      -3.325 -13.557  11.975  1.00  0.00     0.131 A 
ATOM     89  C   UNL     1      -4.698 -15.937  12.197  1.00  0.00     0.055 A 
ATOM     90  C   UNL     1      -4.158 -13.974  10.934  1.00  0.00     0.041 A 
ATOM     91  F   UNL     1      -2.765 -12.347  11.822  1.00  0.00    -0.206 F 
ATOM     92  C   UNL     1      -4.857 -15.164  11.046  1.00  0.00     0.022 A 
BRANCH  89  93
ATOM     93  S   UNL     1      -5.689 -17.462  12.343  1.00  0.00     0.124 S 
ATOM     94  O   UNL     1      -4.670 -18.503  12.288  1.00  0.00    -0.237 OA
ATOM     95  O   UNL     1      -6.362 -17.278  13.624  1.00  0.00    -0.237 OA
ATOM     96  O   UNL     1      -6.574 -17.408  11.178  1.00  0.00    -0.744 OA
ENDBRANCH  89  93
ENDBRANCH  62  86
BRANCH  74  97
ATOM     97  C   UNL     1      -0.095 -13.739  18.655  1.00  0.00     0.023 A 
ATOM     98  C   UNL     1       0.764 -13.936  17.548  1.00  0.00     0.031 A 
ATOM     99  C   UNL     1       0.332 -14.235  19.900  1.00  0.00     0.131 A 
ATOM    100  C   UNL     1       1.988 -14.618  17.712  1.00  0.00     0.055 A 
ATOM    101  C   UNL     1       1.554 -14.887  20.064  1.00  0.00     0.041 A 
ATOM    102  F   UNL     1      -0.421 -14.060  20.998  1.00  0.00    -0.206 F 
ATOM    103  C   UNL     1       2.385 -15.087  18.968  1.00  0.00     0.022 A 
BRANCH 100 104
ATOM    104  S   UNL     1       3.084 -14.928  16.288  1.00  0.00     0.124 S 
ATOM    105  O   UNL     1       2.181 -15.445  15.266  1.00  0.00    -0.237 OA
ATOM    106  O   UNL     1       3.651 -13.608  16.029  1.00  0.00    -0.237 OA
ATOM    107  O   UNL     1       4.042 -15.908  16.804  1.00  0.00    -0.744 OA
ENDBRANCH 100 104
ENDBRANCH  74  97
ENDBRANCH  48  49
ENDBRANCH  40  43
ENDBRANCH  38  39
ENDBRANCH   1  38
TORSDOF 17
