REMARK SMILES O=C(NCCCNC(=O)[C@@]1(C(F)(F)F)CCN(C(=O)Cc2ccn[nH]2)C1)c1ccc(-c2c3nc(c(-c4cc(S(=O)(=O)[O-])ccc4F)c4ccc([nH]4)c(-c4cc(S(=O)(=O)[O-])ccc4F)c4nc(c(-c5cc(S(=O)(=O)[O-])ccc5F)c5ccc2[nH]5)C=C4)C=C3)cc1
REMARK SMILES IDX 5 1 4 2 3 3 1 4 2 5 27 7 28 8 89 9 29 10 88 11 30 12 31 13
REMARK SMILES IDX 32 14 82 15 33 16 87 17 81 18 83 19 34 20 86 21 80 22 79 23
REMARK SMILES IDX 35 25 67 26 47 27 66 28 48 29 51 30 65 31 84 32 49 33 50 34
REMARK SMILES IDX 64 36 85 37 52 38 36 39 37 40 45 41 38 42 44 43 46 44 43 45
REMARK SMILES IDX 39 46 40 47 41 48 42 49 68 50 69 51 77 52 70 53 76 54 78 55
REMARK SMILES IDX 75 56 71 57 72 58 73 59 74 60 53 61 54 62 62 63 55 64 61 65
REMARK SMILES IDX 63 66 60 67 56 68 57 69 58 70 59 71 6 72 7 73 8 74 9 76
REMARK SMILES IDX 10 77 15 78 26 79 16 80 17 81 11 82 12 83 13 84 14 85 18 86
REMARK SMILES IDX 19 87 20 88 21 89 22 90 25 91 23 92 24 93
REMARK H PARENT 3 6 83 24 51 35 7 75 25 94
REMARK Flexibility Score: inf
ROOT
ATOM      1  C   UNL     1       8.673   0.293   9.027  1.00  0.00     0.042 C 
ENDROOT
BRANCH   1   2
ATOM      2  C   UNL     1       8.899  -0.510  10.297  1.00  0.00     0.118 C 
BRANCH   2   3
ATOM      3  N   UNL     1      10.198  -1.166  10.339  1.00  0.00    -0.352 N 
ATOM      4  O   UNL     1      12.386  -1.432  10.781  1.00  0.00    -0.269 OA
ATOM      5  C   UNL     1      11.346  -0.830  11.020  1.00  0.00     0.251 C 
ATOM      6  H   UNL     1      10.266  -1.982   9.792  1.00  0.00     0.163 HD
BRANCH   5   7
ATOM      7  C   UNL     1      11.332   0.264  12.018  1.00  0.00     0.039 A 
ATOM      8  C   UNL     1      10.280   0.393  12.925  1.00  0.00     0.014 A 
ATOM      9  C   UNL     1      12.405   1.158  12.066  1.00  0.00     0.014 A 
ATOM     10  C   UNL     1      10.209   1.506  13.753  1.00  0.00     0.010 A 
ATOM     11  C   UNL     1      12.389   2.213  12.984  1.00  0.00     0.010 A 
ATOM     12  C   UNL     1      11.276   2.413  13.816  1.00  0.00    -0.014 A 
BRANCH  12  13
ATOM     13  C   UNL     1      11.241   3.516  14.810  1.00  0.00     0.031 A 
ATOM     14  C   UNL     1      11.281   4.953  14.374  1.00  0.00     0.074 A 
ATOM     15  C   UNL     1      11.184   3.206  16.120  1.00  0.00     0.049 A 
ATOM     16  N   UNL     1      11.332   6.037  15.105  1.00  0.00    -0.248 NA
ATOM     17  C   UNL     1      11.276   5.203  12.926  1.00  0.00     0.031 C 
ATOM     18  C   UNL     1      11.142   1.843  16.658  1.00  0.00     0.029 A 
ATOM     19  N   UNL     1      11.155   4.002  17.235  1.00  0.00    -0.354 N 
ATOM     20  C   UNL     1      11.392   7.099  14.210  1.00  0.00     0.074 A 
ATOM     21  C   UNL     1      11.405   6.521  12.881  1.00  0.00     0.031 C 
ATOM     22  C   UNL     1      11.073   1.899  17.994  1.00  0.00     0.029 A 
ATOM     23  C   UNL     1      11.157   3.292  18.413  1.00  0.00     0.049 A 
ATOM     24  H   UNL     1      11.136   4.986  17.197  1.00  0.00     0.167 HD
ATOM     25  C   UNL     1      11.427   8.430  14.477  1.00  0.00     0.034 A 
ATOM     26  C   UNL     1      11.269   3.704  19.690  1.00  0.00     0.034 A 
ATOM     27  C   UNL     1      11.424   8.976  15.816  1.00  0.00     0.049 A 
ATOM     28  C   UNL     1      11.375   5.178  19.966  1.00  0.00     0.074 A 
ATOM     29  C   UNL     1      11.415  10.304  16.206  1.00  0.00     0.029 A 
ATOM     30  N   UNL     1      11.454   8.223  16.985  1.00  0.00    -0.354 N 
ATOM     31  N   UNL     1      11.402   6.174  19.111  1.00  0.00    -0.248 NA
ATOM     32  C   UNL     1      11.460   5.584  21.373  1.00  0.00     0.031 C 
ATOM     33  C   UNL     1      11.529  10.354  17.599  1.00  0.00     0.029 A 
ATOM     34  C   UNL     1      11.511   9.058  18.092  1.00  0.00     0.049 A 
ATOM     35  H   UNL     1      11.438   7.239  17.023  1.00  0.00     0.167 HD
ATOM     36  C   UNL     1      11.487   7.330  19.879  1.00  0.00     0.074 A 
ATOM     37  C   UNL     1      11.498   6.905  21.265  1.00  0.00     0.031 C 
ATOM     38  C   UNL     1      11.538   8.623  19.471  1.00  0.00     0.034 A 
BRANCH  25  39
ATOM     39  C   UNL     1      11.536   9.373  13.299  1.00  0.00     0.023 A 
ATOM     40  C   UNL     1      10.555   9.425  12.294  1.00  0.00     0.031 A 
ATOM     41  C   UNL     1      12.667  10.197  13.150  1.00  0.00     0.131 A 
ATOM     42  C   UNL     1      10.768  10.199  11.142  1.00  0.00     0.055 A 
ATOM     43  C   UNL     1      12.828  11.039  12.048  1.00  0.00     0.041 A 
ATOM     44  F   UNL     1      13.650  10.182  14.064  1.00  0.00    -0.206 F 
ATOM     45  C   UNL     1      11.886  11.027  11.024  1.00  0.00     0.022 A 
BRANCH  42  46
ATOM     46  S   UNL     1       9.659   9.961   9.725  1.00  0.00     0.124 S 
ATOM     47  O   UNL     1       9.750   8.517   9.514  1.00  0.00    -0.237 OA
ATOM     48  O   UNL     1       8.384  10.450  10.235  1.00  0.00    -0.237 OA
ATOM     49  O   UNL     1      10.266  10.773   8.673  1.00  0.00    -0.744 OA
ENDBRANCH  42  46
ENDBRANCH  25  39
BRANCH  26  50
ATOM     50  C   UNL     1      11.351   2.693  20.780  1.00  0.00     0.023 A 
ATOM     51  C   UNL     1      10.337   2.566  21.740  1.00  0.00     0.031 A 
ATOM     52  C   UNL     1      12.448   1.813  20.855  1.00  0.00     0.131 A 
ATOM     53  C   UNL     1      10.450   1.593  22.745  1.00  0.00     0.055 A 
ATOM     54  C   UNL     1      12.530   0.814  21.823  1.00  0.00     0.041 A 
ATOM     55  F   UNL     1      13.441   1.889  19.953  1.00  0.00    -0.206 F 
ATOM     56  C   UNL     1      11.529   0.705  22.783  1.00  0.00     0.022 A 
BRANCH  53  57
ATOM     57  S   UNL     1       9.186   1.534  24.044  1.00  0.00     0.124 S 
ATOM     58  O   UNL     1       9.294   2.869  24.623  1.00  0.00    -0.237 OA
ATOM     59  O   UNL     1       7.975   1.264  23.276  1.00  0.00    -0.237 OA
ATOM     60  O   UNL     1       9.633   0.441  24.905  1.00  0.00    -0.744 OA
ENDBRANCH  53  57
ENDBRANCH  26  50
BRANCH  38  61
ATOM     61  C   UNL     1      11.560   9.684  20.545  1.00  0.00     0.023 A 
ATOM     62  C   UNL     1      12.666   9.865  21.393  1.00  0.00     0.031 A 
ATOM     63  C   UNL     1      10.456  10.541  20.703  1.00  0.00     0.131 A 
ATOM     64  C   UNL     1      12.628  10.858  22.385  1.00  0.00     0.055 A 
ATOM     65  C   UNL     1      10.448  11.563  21.652  1.00  0.00     0.041 A 
ATOM     66  F   UNL     1       9.370  10.406  19.925  1.00  0.00    -0.206 F 
ATOM     67  C   UNL     1      11.536  11.721  22.505  1.00  0.00     0.022 A 
BRANCH  64  68
ATOM     68  S   UNL     1      14.001  10.969  23.565  1.00  0.00     0.124 S 
ATOM     69  O   UNL     1      13.954   9.659  24.207  1.00  0.00    -0.237 OA
ATOM     70  O   UNL     1      15.146  11.212  22.694  1.00  0.00    -0.237 OA
ATOM     71  O   UNL     1      13.627  12.092  24.422  1.00  0.00    -0.744 OA
ENDBRANCH  64  68
ENDBRANCH  38  61
ENDBRANCH  12  13
ENDBRANCH   5   7
ENDBRANCH   2   3
ENDBRANCH   1   2
BRANCH   1  72
ATOM     72  C   UNL     1       8.608  -0.533   7.754  1.00  0.00     0.117 C 
BRANCH  72  73
ATOM     73  N   UNL     1       7.614  -1.596   7.801  1.00  0.00    -0.355 N 
ATOM     74  C   UNL     1       6.664  -2.046   6.943  1.00  0.00     0.237 C 
ATOM     75  H   UNL     1       7.635  -2.102   8.646  1.00  0.00     0.163 HD
ATOM     76  O   UNL     1       6.104  -3.084   7.310  1.00  0.00    -0.274 OA
BRANCH  74  77
ATOM     77  C   UNL     1       6.184  -1.295   5.713  1.00  0.00     0.163 C 
ATOM     78  C   UNL     1       5.193  -0.189   6.141  1.00  0.00     0.050 C 
ATOM     79  C   UNL     1       7.259  -0.586   4.892  1.00  0.00     0.146 C 
ATOM     80  C   UNL     1       5.496   0.990   5.234  1.00  0.00     0.121 C 
ATOM     81  N   UNL     1       6.905   0.828   4.935  1.00  0.00    -0.341 N 
BRANCH  77  82
ATOM     82  C   UNL     1       5.520  -2.310   4.798  1.00  0.00     0.404 C 
ATOM     83  F   UNL     1       6.395  -3.258   4.390  1.00  0.00    -0.170 F 
ATOM     84  F   UNL     1       4.449  -2.923   5.341  1.00  0.00    -0.170 F 
ATOM     85  F   UNL     1       5.065  -1.698   3.670  1.00  0.00    -0.170 F 
ENDBRANCH  77  82
BRANCH  81  86
ATOM     86  C   UNL     1       7.826   1.815   4.644  1.00  0.00     0.228 C 
ATOM     87  O   UNL     1       9.011   1.535   4.455  1.00  0.00    -0.274 OA
BRANCH  86  88
ATOM     88  C   UNL     1       7.310   3.238   4.454  1.00  0.00     0.155 C 
BRANCH  88  89
ATOM     89  C   UNL     1       6.603   3.387   3.141  1.00  0.00     0.044 A 
ATOM     90  C   UNL     1       5.987   4.477   2.563  1.00  0.00     0.045 A 
ATOM     91  N   UNL     1       6.469   2.371   2.228  1.00  0.00    -0.282 N 
ATOM     92  C   UNL     1       5.476   3.999   1.343  1.00  0.00     0.135 A 
ATOM     93  N   UNL     1       5.745   2.707   1.149  1.00  0.00    -0.184 NA
ATOM     94  H   UNL     1       6.866   1.479   2.353  1.00  0.00     0.190 HD
ENDBRANCH  88  89
ENDBRANCH  86  88
ENDBRANCH  81  86
ENDBRANCH  74  77
ENDBRANCH  72  73
ENDBRANCH   1  72
TORSDOF 17
