REMARK SMILES O=C(NCCCNC(=O)c1noc(-c2ccccc2Cl)n1)c1ccc(-c2c3nc(c(-c4cc(S(=O)(=O)[O-])ccc4F)c4ccc([nH]4)c(-c4cc(S(=O)(=O)[O-])ccc4F)c4nc(c(-c5cc(S(=O)(=O)[O-])ccc5F)c5ccc2[nH]5)C=C4)C=C3)cc1
REMARK SMILES IDX 4 1 3 2 1 3 2 4 22 6 23 7 84 8 24 9 83 10 25 11 26 12 27 13
REMARK SMILES IDX 77 14 28 15 82 16 76 17 78 18 29 19 81 20 75 21 74 22 30 24
REMARK SMILES IDX 62 25 42 26 61 27 43 28 46 29 60 30 79 31 44 32 45 33 59 35
REMARK SMILES IDX 80 36 47 37 31 38 32 39 40 40 33 41 39 42 41 43 38 44 34 45
REMARK SMILES IDX 35 46 36 47 37 48 63 49 64 50 72 51 65 52 71 53 73 54 70 55
REMARK SMILES IDX 66 56 67 57 68 58 69 59 48 60 49 61 57 62 50 63 56 64 58 65
REMARK SMILES IDX 55 66 51 67 52 68 53 69 54 70 5 71 6 72 7 73 8 74 9 76 10 77
REMARK SMILES IDX 11 78 21 79 12 80 13 81 14 82 15 83 19 84 16 85 18 86 20 87
REMARK SMILES IDX 17 88
REMARK H PARENT 3 5 78 23 46 34 7 75
REMARK Flexibility Score: inf
ROOT
ATOM      1  C   UNL     1       4.597  -1.149   0.595  1.00  0.00     0.118 C 
ENDROOT
BRANCH   1   2
ATOM      2  N   UNL     1       3.164  -1.087   0.343  1.00  0.00    -0.352 N 
ATOM      3  O   UNL     1       1.177  -0.163  -0.147  1.00  0.00    -0.269 OA
ATOM      4  C   UNL     1       2.402  -0.083  -0.202  1.00  0.00     0.251 C 
ATOM      5  H   UNL     1       2.662  -1.892   0.606  1.00  0.00     0.163 HD
BRANCH   4   6
ATOM      6  C   UNL     1       3.040   1.091  -0.838  1.00  0.00     0.039 A 
ATOM      7  C   UNL     1       4.142   0.947  -1.685  1.00  0.00     0.014 A 
ATOM      8  C   UNL     1       2.494   2.358  -0.613  1.00  0.00     0.014 A 
ATOM      9  C   UNL     1       4.779   2.075  -2.195  1.00  0.00     0.010 A 
ATOM     10  C   UNL     1       3.087   3.483  -1.192  1.00  0.00     0.010 A 
ATOM     11  C   UNL     1       4.253   3.354  -1.965  1.00  0.00    -0.014 A 
BRANCH  11  12
ATOM     12  C   UNL     1       4.904   4.552  -2.557  1.00  0.00     0.031 A 
ATOM     13  C   UNL     1       5.499   5.612  -1.674  1.00  0.00     0.074 A 
ATOM     14  C   UNL     1       4.938   4.690  -3.896  1.00  0.00     0.049 A 
ATOM     15  N   UNL     1       6.024   6.766  -2.002  1.00  0.00    -0.248 NA
ATOM     16  C   UNL     1       5.490   5.344  -0.230  1.00  0.00     0.031 C 
ATOM     17  C   UNL     1       4.402   3.722  -4.856  1.00  0.00     0.029 A 
ATOM     18  N   UNL     1       5.434   5.699  -4.683  1.00  0.00    -0.354 N 
ATOM     19  C   UNL     1       6.390   7.372  -0.805  1.00  0.00     0.074 A 
ATOM     20  C   UNL     1       5.988   6.471   0.256  1.00  0.00     0.031 C 
ATOM     21  C   UNL     1       4.609   4.177  -6.100  1.00  0.00     0.029 A 
ATOM     22  C   UNL     1       5.224   5.498  -6.027  1.00  0.00     0.049 A 
ATOM     23  H   UNL     1       5.895   6.489  -4.321  1.00  0.00     0.167 HD
ATOM     24  C   UNL     1       7.010   8.565  -0.614  1.00  0.00     0.034 A 
ATOM     25  C   UNL     1       5.459   6.301  -7.083  1.00  0.00     0.034 A 
ATOM     26  C   UNL     1       7.391   9.452  -1.690  1.00  0.00     0.049 A 
ATOM     27  C   UNL     1       6.081   7.651  -6.847  1.00  0.00     0.074 A 
ATOM     28  C   UNL     1       8.045  10.670  -1.614  1.00  0.00     0.029 A 
ATOM     29  N   UNL     1       7.137   9.226  -3.038  1.00  0.00    -0.354 N 
ATOM     30  N   UNL     1       6.431   8.210  -5.712  1.00  0.00    -0.248 NA
ATOM     31  C   UNL     1       6.346   8.475  -8.032  1.00  0.00     0.031 C 
ATOM     32  C   UNL     1       8.114  11.214  -2.901  1.00  0.00     0.029 A 
ATOM     33  C   UNL     1       7.588  10.296  -3.797  1.00  0.00     0.049 A 
ATOM     34  H   UNL     1       6.700   8.422  -3.402  1.00  0.00     0.167 HD
ATOM     35  C   UNL     1       6.989   9.440  -6.050  1.00  0.00     0.074 A 
ATOM     36  C   UNL     1       6.928   9.538  -7.495  1.00  0.00     0.031 C 
ATOM     37  C   UNL     1       7.516  10.391  -5.238  1.00  0.00     0.034 A 
BRANCH  24  38
ATOM     38  C   UNL     1       7.255   8.998   0.815  1.00  0.00     0.023 A 
ATOM     39  C   UNL     1       8.060   8.247   1.691  1.00  0.00     0.031 A 
ATOM     40  C   UNL     1       6.632  10.151   1.327  1.00  0.00     0.131 A 
ATOM     41  C   UNL     1       8.141   8.601   3.047  1.00  0.00     0.055 A 
ATOM     42  C   UNL     1       6.795  10.551   2.655  1.00  0.00     0.041 A 
ATOM     43  F   UNL     1       5.835  10.900   0.549  1.00  0.00    -0.206 F 
ATOM     44  C   UNL     1       7.536   9.763   3.530  1.00  0.00     0.022 A 
BRANCH  41  45
ATOM     45  S   UNL     1       8.892   7.421   4.204  1.00  0.00     0.124 S 
ATOM     46  O   UNL     1       8.106   6.215   3.951  1.00  0.00    -0.237 OA
ATOM     47  O   UNL     1      10.280   7.383   3.760  1.00  0.00    -0.237 OA
ATOM     48  O   UNL     1       8.671   8.034   5.512  1.00  0.00    -0.744 OA
ENDBRANCH  41  45
ENDBRANCH  24  38
BRANCH  25  49
ATOM     49  C   UNL     1       5.063   5.859  -8.449  1.00  0.00     0.023 A 
ATOM     50  C   UNL     1       6.023   5.597  -9.437  1.00  0.00     0.031 A 
ATOM     51  C   UNL     1       3.706   5.684  -8.781  1.00  0.00     0.131 A 
ATOM     52  C   UNL     1       5.613   5.199 -10.719  1.00  0.00     0.055 A 
ATOM     53  C   UNL     1       3.307   5.239 -10.041  1.00  0.00     0.041 A 
ATOM     54  F   UNL     1       2.749   5.915  -7.868  1.00  0.00    -0.206 F 
ATOM     55  C   UNL     1       4.263   5.002 -11.022  1.00  0.00     0.022 A 
BRANCH  52  56
ATOM     56  S   UNL     1       6.871   4.993 -12.008  1.00  0.00     0.124 S 
ATOM     57  O   UNL     1       7.450   6.330 -12.073  1.00  0.00    -0.237 OA
ATOM     58  O   UNL     1       7.721   3.952 -11.440  1.00  0.00    -0.237 OA
ATOM     59  O   UNL     1       6.095   4.590 -13.179  1.00  0.00    -0.744 OA
ENDBRANCH  52  56
ENDBRANCH  25  49
BRANCH  37  60
ATOM     60  C   UNL     1       8.134  11.600  -5.900  1.00  0.00     0.023 A 
ATOM     61  C   UNL     1       7.364  12.554  -6.587  1.00  0.00     0.031 A 
ATOM     62  C   UNL     1       9.524  11.801  -5.824  1.00  0.00     0.131 A 
ATOM     63  C   UNL     1       7.996  13.646  -7.205  1.00  0.00     0.055 A 
ATOM     64  C   UNL     1      10.139  12.917  -6.391  1.00  0.00     0.041 A 
ATOM     65  F   UNL     1      10.308  10.917  -5.185  1.00  0.00    -0.206 F 
ATOM     66  C   UNL     1       9.375  13.843  -7.095  1.00  0.00     0.022 A 
BRANCH  63  67
ATOM     67  S   UNL     1       7.002  14.773  -8.221  1.00  0.00     0.124 S 
ATOM     68  O   UNL     1       6.468  13.874  -9.238  1.00  0.00    -0.237 OA
ATOM     69  O   UNL     1       6.037  15.293  -7.258  1.00  0.00    -0.237 OA
ATOM     70  O   UNL     1       7.977  15.748  -8.707  1.00  0.00    -0.744 OA
ENDBRANCH  63  67
ENDBRANCH  37  60
ENDBRANCH  11  12
ENDBRANCH   4   6
ENDBRANCH   1   2
BRANCH   1  71
ATOM     71  C   UNL     1       4.928  -1.216   2.081  1.00  0.00     0.042 C 
BRANCH  71  72
ATOM     72  C   UNL     1       4.412  -2.471   2.778  1.00  0.00     0.118 C 
BRANCH  72  73
ATOM     73  N   UNL     1       5.050  -3.678   2.268  1.00  0.00    -0.349 N 
ATOM     74  C   UNL     1       5.972  -4.496   2.885  1.00  0.00     0.292 C 
ATOM     75  H   UNL     1       4.786  -3.945   1.358  1.00  0.00     0.163 HD
ATOM     76  O   UNL     1       6.542  -5.351   2.194  1.00  0.00    -0.266 OA
BRANCH  74  77
ATOM     77  C   UNL     1       6.224  -4.334   4.320  1.00  0.00     0.260 A 
ATOM     78  N   UNL     1       7.441  -4.484   4.874  1.00  0.00    -0.051 NA
ATOM     79  N   UNL     1       5.231  -4.029   5.231  1.00  0.00    -0.182 NA
ATOM     80  O   UNL     1       7.227  -4.185   6.223  1.00  0.00    -0.333 OA
ATOM     81  C   UNL     1       5.893  -3.933   6.357  1.00  0.00     0.259 A 
BRANCH  81  82
ATOM     82  C   UNL     1       5.420  -3.562   7.676  1.00  0.00     0.058 A 
ATOM     83  C   UNL     1       6.039  -2.497   8.354  1.00  0.00     0.015 A 
ATOM     84  C   UNL     1       4.316  -4.191   8.273  1.00  0.00     0.053 A 
ATOM     85  C   UNL     1       5.560  -2.066   9.593  1.00  0.00     0.001 A 
ATOM     86  C   UNL     1       3.844  -3.759   9.517  1.00  0.00     0.021 A 
ATOM     87  Cl  UNL     1       3.502  -5.532   7.542  1.00  0.00    -0.083 Cl
ATOM     88  C   UNL     1       4.462  -2.696  10.173  1.00  0.00     0.002 A 
ENDBRANCH  81  82
ENDBRANCH  74  77
ENDBRANCH  72  73
ENDBRANCH  71  72
ENDBRANCH   1  71
TORSDOF 14
