REMARK SMILES O=C(/C=C/c1ccc(C(=O)NC2CC2)cc1)NC1(C(=O)NCCCNC(=O)c2ccc(-c3c4nc(c(-c5cc(S(=O)(=O)[O-])ccc5F)c5ccc([nH]5)c(-c5cc(S(=O)(=O)[O-])ccc5F)c5nc(c(-c6cc(S(=O)(=O)[O-])ccc6F)c6ccc3[nH]6)C=C5)C=C4)cc2)CCCC1
REMARK SMILES IDX 22 1 21 2 19 3 20 4 18 6 91 7 94 8 92 9 93 10 17 11 1 12
REMARK SMILES IDX 2 13 3 15 4 16 5 17 6 18 16 19 7 20 15 21 8 22 9 23 10 24
REMARK SMILES IDX 11 25 12 27 13 28 14 29 23 30 24 31 25 32 26 33 27 35 28 36
REMARK SMILES IDX 29 37 90 38 30 39 89 40 31 41 32 42 33 43 83 44 34 45 88 46
REMARK SMILES IDX 82 47 84 48 35 49 87 50 81 51 80 52 36 54 68 55 48 56 67 57
REMARK SMILES IDX 49 58 52 59 66 60 85 61 50 62 51 63 65 65 86 66 53 67 37 68
REMARK SMILES IDX 38 69 46 70 39 71 45 72 47 73 44 74 40 75 41 76 42 77 43 78
REMARK SMILES IDX 69 79 70 80 78 81 71 82 77 83 79 84 76 85 72 86 73 87 74 88
REMARK SMILES IDX 75 89 54 90 55 91 63 92 56 93 62 94 64 95 61 96 57 97 58 98
REMARK SMILES IDX 59 99 60 100
REMARK H PARENT 21 5 17 14 11 26 25 34 84 53 52 64
REMARK Flexibility Score: inf
ROOT
ATOM      1  C   UNL     1      -0.413  -4.047  -1.740  1.00  0.00     0.117 C 
ENDROOT
BRANCH   1   2
ATOM      2  N   UNL     1      -0.258  -2.962  -0.799  1.00  0.00    -0.354 N 
ATOM      3  C   UNL     1       0.848  -2.350  -0.309  1.00  0.00     0.245 C 
ATOM      4  O   UNL     1       0.685  -1.759   0.770  1.00  0.00    -0.272 OA
ATOM      5  H   UNL     1      -1.107  -2.603  -0.452  1.00  0.00     0.163 HD
BRANCH   3   6
ATOM      6  C   UNL     1       2.266  -2.438  -0.973  1.00  0.00     0.119 C 
ATOM      7  C   UNL     1       2.338  -2.426  -2.509  1.00  0.00     0.038 C 
ATOM      8  C   UNL     1       3.008  -3.713  -0.537  1.00  0.00     0.038 C 
ATOM      9  C   UNL     1       2.905  -3.773  -2.960  1.00  0.00     0.003 C 
ATOM     10  C   UNL     1       3.015  -4.654  -1.728  1.00  0.00     0.003 C 
BRANCH   6  11
ATOM     11  N   UNL     1       2.985  -1.275  -0.422  1.00  0.00    -0.338 N 
ATOM     12  O   UNL     1       1.781   0.349  -1.541  1.00  0.00    -0.270 OA
ATOM     13  C   UNL     1       2.635   0.017  -0.739  1.00  0.00     0.244 C 
ATOM     14  H   UNL     1       3.740  -1.427   0.191  1.00  0.00     0.164 HD
BRANCH  13  15
ATOM     15  C   UNL     1       3.353   1.022   0.070  1.00  0.00     0.072 C 
ATOM     16  C   UNL     1       4.689   0.975   0.166  1.00  0.00     0.014 C 
BRANCH  16  17
ATOM     17  C   UNL     1       5.426   1.988   0.909  1.00  0.00    -0.025 A 
ATOM     18  C   UNL     1       6.256   2.868   0.214  1.00  0.00     0.009 A 
ATOM     19  C   UNL     1       5.296   2.103   2.298  1.00  0.00     0.009 A 
ATOM     20  C   UNL     1       6.881   3.913   0.894  1.00  0.00     0.014 A 
ATOM     21  C   UNL     1       5.951   3.130   2.984  1.00  0.00     0.014 A 
ATOM     22  C   UNL     1       6.685   4.080   2.272  1.00  0.00     0.039 A 
BRANCH  22  23
ATOM     23  C   UNL     1       7.278   5.286   2.892  1.00  0.00     0.251 C 
ATOM     24  O   UNL     1       8.363   5.697   2.477  1.00  0.00    -0.269 OA
ATOM     25  N   UNL     1       6.627   6.014   3.861  1.00  0.00    -0.349 N 
ATOM     26  H   UNL     1       7.105   6.835   4.120  1.00  0.00     0.164 HD
BRANCH  25  27
ATOM     27  C   UNL     1       5.404   5.826   4.569  1.00  0.00     0.082 C 
ATOM     28  C   UNL     1       4.281   6.803   4.306  1.00  0.00     0.027 C 
ATOM     29  C   UNL     1       4.085   5.349   4.030  1.00  0.00     0.027 C 
ENDBRANCH  25  27
ENDBRANCH  22  23
ENDBRANCH  16  17
ENDBRANCH  13  15
ENDBRANCH   6  11
ENDBRANCH   3   6
ENDBRANCH   1   2
BRANCH   1  30
ATOM     30  C   UNL     1      -0.607  -5.365  -1.002  1.00  0.00     0.042 C 
BRANCH  30  31
ATOM     31  C   UNL     1      -1.997  -5.490  -0.393  1.00  0.00     0.118 C 
BRANCH  31  32
ATOM     32  N   UNL     1      -3.025  -5.549  -1.422  1.00  0.00    -0.352 N 
ATOM     33  C   UNL     1      -3.868  -6.573  -1.768  1.00  0.00     0.251 C 
ATOM     34  H   UNL     1      -3.131  -4.726  -1.951  1.00  0.00     0.163 HD
ATOM     35  O   UNL     1      -4.439  -6.531  -2.855  1.00  0.00    -0.269 OA
BRANCH  33  36
ATOM     36  C   UNL     1      -4.085  -7.711  -0.849  1.00  0.00     0.039 A 
ATOM     37  C   UNL     1      -4.310  -8.980  -1.387  1.00  0.00     0.014 A 
ATOM     38  C   UNL     1      -4.125  -7.524   0.536  1.00  0.00     0.014 A 
ATOM     39  C   UNL     1      -4.544 -10.060  -0.536  1.00  0.00     0.010 A 
ATOM     40  C   UNL     1      -4.250  -8.618   1.384  1.00  0.00     0.010 A 
ATOM     41  C   UNL     1      -4.495  -9.893   0.858  1.00  0.00    -0.014 A 
BRANCH  41  42
ATOM     42  C   UNL     1      -4.753 -11.033   1.773  1.00  0.00     0.031 A 
ATOM     43  C   UNL     1      -5.934 -10.996   2.708  1.00  0.00     0.074 A 
ATOM     44  C   UNL     1      -3.912 -12.085   1.777  1.00  0.00     0.049 A 
ATOM     45  N   UNL     1      -6.325 -11.884   3.586  1.00  0.00    -0.248 NA
ATOM     46  C   UNL     1      -6.765  -9.782   2.676  1.00  0.00     0.031 C 
ATOM     47  C   UNL     1      -2.708 -12.206   0.951  1.00  0.00     0.029 A 
ATOM     48  N   UNL     1      -3.943 -13.256   2.489  1.00  0.00    -0.354 N 
ATOM     49  C   UNL     1      -7.439 -11.333   4.213  1.00  0.00     0.074 A 
ATOM     50  C   UNL     1      -7.604 -10.001   3.675  1.00  0.00     0.031 C 
ATOM     51  C   UNL     1      -2.145 -13.405   1.168  1.00  0.00     0.029 A 
ATOM     52  C   UNL     1      -2.920 -14.120   2.176  1.00  0.00     0.049 A 
ATOM     53  H   UNL     1      -4.634 -13.459   3.161  1.00  0.00     0.167 HD
ATOM     54  C   UNL     1      -8.268 -11.898   5.126  1.00  0.00     0.034 A 
ATOM     55  C   UNL     1      -2.644 -15.351   2.647  1.00  0.00     0.034 A 
ATOM     56  C   UNL     1      -8.088 -13.233   5.643  1.00  0.00     0.049 A 
ATOM     57  C   UNL     1      -3.574 -15.958   3.667  1.00  0.00     0.074 A 
ATOM     58  C   UNL     1      -8.877 -13.925   6.545  1.00  0.00     0.029 A 
ATOM     59  N   UNL     1      -7.040 -14.082   5.302  1.00  0.00    -0.354 N 
ATOM     60  N   UNL     1      -4.652 -15.443   4.215  1.00  0.00    -0.248 NA
ATOM     61  C   UNL     1      -3.261 -17.320   4.112  1.00  0.00     0.031 C 
ATOM     62  C   UNL     1      -8.271 -15.162   6.799  1.00  0.00     0.029 A 
ATOM     63  C   UNL     1      -7.150 -15.279   5.993  1.00  0.00     0.049 A 
ATOM     64  H   UNL     1      -6.324 -13.863   4.663  1.00  0.00     0.167 HD
ATOM     65  C   UNL     1      -5.165 -16.437   5.044  1.00  0.00     0.074 A 
ATOM     66  C   UNL     1      -4.290 -17.584   4.901  1.00  0.00     0.031 C 
ATOM     67  C   UNL     1      -6.260 -16.409   5.849  1.00  0.00     0.034 A 
BRANCH  54  68
ATOM     68  C   UNL     1      -9.420 -11.057   5.630  1.00  0.00     0.023 A 
ATOM     69  C   UNL     1     -10.412 -10.566   4.759  1.00  0.00     0.031 A 
ATOM     70  C   UNL     1      -9.506 -10.697   6.986  1.00  0.00     0.131 A 
ATOM     71  C   UNL     1     -11.385  -9.673   5.233  1.00  0.00     0.055 A 
ATOM     72  C   UNL     1     -10.534  -9.882   7.470  1.00  0.00     0.041 A 
ATOM     73  F   UNL     1      -8.580 -11.112   7.864  1.00  0.00    -0.206 F 
ATOM     74  C   UNL     1     -11.470  -9.350   6.588  1.00  0.00     0.022 A 
BRANCH  71  75
ATOM     75  S   UNL     1     -12.429  -8.810   4.026  1.00  0.00     0.124 S 
ATOM     76  O   UNL     1     -11.429  -8.126   3.209  1.00  0.00    -0.237 OA
ATOM     77  O   UNL     1     -13.139  -9.908   3.380  1.00  0.00    -0.237 OA
ATOM     78  O   UNL     1     -13.254  -7.932   4.852  1.00  0.00    -0.744 OA
ENDBRANCH  71  75
ENDBRANCH  54  68
BRANCH  55  79
ATOM     79  C   UNL     1      -1.456 -16.103   2.150  1.00  0.00     0.023 A 
ATOM     80  C   UNL     1      -1.606 -17.306   1.441  1.00  0.00     0.031 A 
ATOM     81  C   UNL     1      -0.150 -15.652   2.412  1.00  0.00     0.131 A 
ATOM     82  C   UNL     1      -0.472 -18.043   1.063  1.00  0.00     0.055 A 
ATOM     83  C   UNL     1       0.975 -16.360   1.985  1.00  0.00     0.041 A 
ATOM     84  F   UNL     1       0.051 -14.504   3.079  1.00  0.00    -0.206 F 
ATOM     85  C   UNL     1       0.817 -17.571   1.319  1.00  0.00     0.022 A 
BRANCH  82  86
ATOM     86  S   UNL     1      -0.710 -19.675   0.310  1.00  0.00     0.124 S 
ATOM     87  O   UNL     1      -1.479 -20.368   1.337  1.00  0.00    -0.237 OA
ATOM     88  O   UNL     1      -1.429 -19.341  -0.915  1.00  0.00    -0.237 OA
ATOM     89  O   UNL     1       0.655 -20.161   0.116  1.00  0.00    -0.744 OA
ENDBRANCH  82  86
ENDBRANCH  55  79
BRANCH  67  90
ATOM     90  C   UNL     1      -6.589 -17.682   6.593  1.00  0.00     0.023 A 
ATOM     91  C   UNL     1      -5.720 -18.223   7.556  1.00  0.00     0.031 A 
ATOM     92  C   UNL     1      -7.768 -18.390   6.296  1.00  0.00     0.131 A 
ATOM     93  C   UNL     1      -5.998 -19.476   8.123  1.00  0.00     0.055 A 
ATOM     94  C   UNL     1      -8.078 -19.598   6.922  1.00  0.00     0.041 A 
ATOM     95  F   UNL     1      -8.636 -17.923   5.384  1.00  0.00    -0.206 F 
ATOM     96  C   UNL     1      -7.180 -20.158   7.826  1.00  0.00     0.022 A 
BRANCH  93  97
ATOM     97  S   UNL     1      -4.723 -20.267   9.143  1.00  0.00     0.124 S 
ATOM     98  O   UNL     1      -3.573 -20.267   8.244  1.00  0.00    -0.237 OA
ATOM     99  O   UNL     1      -4.637 -19.367  10.287  1.00  0.00    -0.237 OA
ATOM    100  O   UNL     1      -5.284 -21.586   9.431  1.00  0.00    -0.744 OA
ENDBRANCH  93  97
ENDBRANCH  67  90
ENDBRANCH  41  42
ENDBRANCH  33  36
ENDBRANCH  31  32
ENDBRANCH  30  31
ENDBRANCH   1  30
TORSDOF 18
