REMARK SMILES O=C(NCCCNC(=O)C1CCN(c2nc(-c3ccc(F)cc3)cc(C(F)F)n2)CC1)c1ccc(-c2c3nc(c(-c4cc(S(=O)(=O)[O-])ccc4F)c4ccc([nH]4)c(-c4cc(S(=O)(=O)[O-])ccc4F)c4nc(c(-c5cc(S(=O)(=O)[O-])ccc5F)c5ccc2[nH]5)C=C4)C=C3)cc1
REMARK SMILES IDX 4 1 3 2 1 3 2 4 32 6 33 7 94 8 34 9 93 10 35 11 36 12 37 13
REMARK SMILES IDX 87 14 38 15 92 16 86 17 88 18 39 19 91 20 85 21 84 22 40 24
REMARK SMILES IDX 72 25 52 26 71 27 53 28 56 29 70 30 89 31 54 32 55 33 69 35
REMARK SMILES IDX 90 36 57 37 41 38 42 39 50 40 43 41 49 42 51 43 48 44 44 45
REMARK SMILES IDX 45 46 46 47 47 48 73 49 74 50 82 51 75 52 81 53 83 54 80 55
REMARK SMILES IDX 76 56 77 57 78 58 79 59 58 60 59 61 67 62 60 63 66 64 68 65
REMARK SMILES IDX 65 66 61 67 62 68 63 69 64 70 5 71 6 72 7 73 8 74 9 76 10 77
REMARK SMILES IDX 11 78 31 79 12 80 30 81 13 82 14 83 15 84 29 85 16 86 25 87
REMARK SMILES IDX 24 88 17 89 18 90 23 91 19 92 22 93 20 94 21 95 26 96 27 97
REMARK SMILES IDX 28 98
REMARK H PARENT 3 5 88 23 56 34 7 75
REMARK Flexibility Score: inf
ROOT
ATOM      1  C   UNL     1       4.420  -1.296  -0.699  1.00  0.00     0.118 C 
ENDROOT
BRANCH   1   2
ATOM      2  N   UNL     1       3.017  -0.908  -0.783  1.00  0.00    -0.352 N 
ATOM      3  O   UNL     1       1.106   0.148  -0.254  1.00  0.00    -0.269 OA
ATOM      4  C   UNL     1       2.330   0.098  -0.148  1.00  0.00     0.251 C 
ATOM      5  H   UNL     1       2.474  -1.456  -1.395  1.00  0.00     0.163 HD
BRANCH   4   6
ATOM      6  C   UNL     1       3.043   1.100   0.675  1.00  0.00     0.039 A 
ATOM      7  C   UNL     1       4.241   1.670   0.241  1.00  0.00     0.014 A 
ATOM      8  C   UNL     1       2.488   1.494   1.897  1.00  0.00     0.014 A 
ATOM      9  C   UNL     1       4.960   2.503   1.094  1.00  0.00     0.010 A 
ATOM     10  C   UNL     1       3.173   2.397   2.719  1.00  0.00     0.010 A 
ATOM     11  C   UNL     1       4.438   2.874   2.343  1.00  0.00    -0.014 A 
BRANCH  11  12
ATOM     12  C   UNL     1       5.238   3.759   3.233  1.00  0.00     0.031 A 
ATOM     13  C   UNL     1       5.768   3.251   4.548  1.00  0.00     0.074 A 
ATOM     14  C   UNL     1       5.545   5.005   2.818  1.00  0.00     0.049 A 
ATOM     15  N   UNL     1       6.516   3.868   5.427  1.00  0.00    -0.248 NA
ATOM     16  C   UNL     1       5.410   1.875   4.931  1.00  0.00     0.031 C 
ATOM     17  C   UNL     1       5.095   5.607   1.560  1.00  0.00     0.029 A 
ATOM     18  N   UNL     1       6.331   5.975   3.386  1.00  0.00    -0.354 N 
ATOM     19  C   UNL     1       6.710   2.966   6.467  1.00  0.00     0.074 A 
ATOM     20  C   UNL     1       5.974   1.768   6.127  1.00  0.00     0.031 C 
ATOM     21  C   UNL     1       5.660   6.816   1.425  1.00  0.00     0.029 A 
ATOM     22  C   UNL     1       6.462   7.103   2.609  1.00  0.00     0.049 A 
ATOM     23  H   UNL     1       6.760   5.874   4.267  1.00  0.00     0.167 HD
ATOM     24  C   UNL     1       7.445   3.119   7.595  1.00  0.00     0.034 A 
ATOM     25  C   UNL     1       7.141   8.246   2.827  1.00  0.00     0.034 A 
ATOM     26  C   UNL     1       8.198   4.304   7.915  1.00  0.00     0.049 A 
ATOM     27  C   UNL     1       7.911   8.407   4.108  1.00  0.00     0.074 A 
ATOM     28  C   UNL     1       9.006   4.538   9.015  1.00  0.00     0.029 A 
ATOM     29  N   UNL     1       8.236   5.455   7.142  1.00  0.00    -0.354 N 
ATOM     30  N   UNL     1       8.068   7.544   5.084  1.00  0.00    -0.248 NA
ATOM     31  C   UNL     1       8.580   9.696   4.326  1.00  0.00     0.031 C 
ATOM     32  C   UNL     1       9.489   5.848   8.934  1.00  0.00     0.029 A 
ATOM     33  C   UNL     1       9.028   6.412   7.756  1.00  0.00     0.049 A 
ATOM     34  H   UNL     1       7.769   5.574   6.283  1.00  0.00     0.167 HD
ATOM     35  C   UNL     1       8.855   8.188   6.033  1.00  0.00     0.074 A 
ATOM     36  C   UNL     1       9.154   9.504   5.507  1.00  0.00     0.031 C 
ATOM     37  C   UNL     1       9.291   7.728   7.231  1.00  0.00     0.034 A 
BRANCH  24  38
ATOM     38  C   UNL     1       7.458   1.985   8.586  1.00  0.00     0.023 A 
ATOM     39  C   UNL     1       8.133   0.782   8.319  1.00  0.00     0.031 A 
ATOM     40  C   UNL     1       6.819   2.128   9.830  1.00  0.00     0.131 A 
ATOM     41  C   UNL     1       8.125  -0.246   9.274  1.00  0.00     0.055 A 
ATOM     42  C   UNL     1       6.863   1.123  10.797  1.00  0.00     0.041 A 
ATOM     43  F   UNL     1       6.149   3.252  10.127  1.00  0.00    -0.206 F 
ATOM     44  C   UNL     1       7.516  -0.075  10.520  1.00  0.00     0.022 A 
BRANCH  41  45
ATOM     45  S   UNL     1       8.877  -1.839   8.844  1.00  0.00     0.124 S 
ATOM     46  O   UNL     1       7.983  -2.311   7.789  1.00  0.00    -0.237 OA
ATOM     47  O   UNL     1      10.218  -1.456   8.418  1.00  0.00    -0.237 OA
ATOM     48  O   UNL     1       8.813  -2.597  10.092  1.00  0.00    -0.744 OA
ENDBRANCH  41  45
ENDBRANCH  24  38
BRANCH  25  49
ATOM     49  C   UNL     1       7.088   9.343   1.822  1.00  0.00     0.023 A 
ATOM     50  C   UNL     1       8.220   9.698   1.074  1.00  0.00     0.031 A 
ATOM     51  C   UNL     1       5.892  10.048   1.595  1.00  0.00     0.131 A 
ATOM     52  C   UNL     1       8.137  10.745   0.143  1.00  0.00     0.055 A 
ATOM     53  C   UNL     1       5.805  11.061   0.640  1.00  0.00     0.041 A 
ATOM     54  F   UNL     1       4.781   9.739   2.282  1.00  0.00    -0.206 F 
ATOM     55  C   UNL     1       6.935  11.419  -0.089  1.00  0.00     0.022 A 
BRANCH  52  56
ATOM     56  S   UNL     1       9.636  11.238  -0.752  1.00  0.00     0.124 S 
ATOM     57  O   UNL     1      10.482  11.724   0.333  1.00  0.00    -0.237 OA
ATOM     58  O   UNL     1      10.047   9.983  -1.374  1.00  0.00    -0.237 OA
ATOM     59  O   UNL     1       9.159  12.261  -1.679  1.00  0.00    -0.744 OA
ENDBRANCH  52  56
ENDBRANCH  25  49
BRANCH  37  60
ATOM     60  C   UNL     1      10.140   8.654   8.057  1.00  0.00     0.023 A 
ATOM     61  C   UNL     1       9.571   9.736   8.748  1.00  0.00     0.031 A 
ATOM     62  C   UNL     1      11.518   8.419   8.196  1.00  0.00     0.131 A 
ATOM     63  C   UNL     1      10.386  10.562   9.535  1.00  0.00     0.055 A 
ATOM     64  C   UNL     1      12.317   9.221   9.010  1.00  0.00     0.041 A 
ATOM     65  F   UNL     1      12.103   7.393   7.557  1.00  0.00    -0.206 F 
ATOM     66  C   UNL     1      11.752  10.301   9.683  1.00  0.00     0.022 A 
BRANCH  63  67
ATOM     67  S   UNL     1       9.642  11.994  10.362  1.00  0.00     0.124 S 
ATOM     68  O   UNL     1       9.319  12.860   9.232  1.00  0.00    -0.237 OA
ATOM     69  O   UNL     1       8.504  11.404  11.059  1.00  0.00    -0.237 OA
ATOM     70  O   UNL     1      10.712  12.482  11.231  1.00  0.00    -0.744 OA
ENDBRANCH  63  67
ENDBRANCH  37  60
ENDBRANCH  11  12
ENDBRANCH   4   6
ENDBRANCH   1   2
BRANCH   1  71
ATOM     71  C   UNL     1       4.615  -2.743  -0.246  1.00  0.00     0.042 C 
BRANCH  71  72
ATOM     72  C   UNL     1       4.007  -3.777  -1.190  1.00  0.00     0.117 C 
BRANCH  72  73
ATOM     73  N   UNL     1       4.596  -3.712  -2.516  1.00  0.00    -0.356 N 
ATOM     74  C   UNL     1       5.653  -4.406  -3.030  1.00  0.00     0.223 C 
ATOM     75  H   UNL     1       4.172  -3.074  -3.135  1.00  0.00     0.163 HD
ATOM     76  O   UNL     1       6.075  -4.086  -4.140  1.00  0.00    -0.275 OA
BRANCH  74  77
ATOM     77  C   UNL     1       6.203  -5.593  -2.252  1.00  0.00     0.082 C 
ATOM     78  C   UNL     1       7.710  -5.784  -2.484  1.00  0.00     0.035 C 
ATOM     79  C   UNL     1       5.383  -6.845  -2.612  1.00  0.00     0.035 C 
ATOM     80  C   UNL     1       8.047  -6.470  -3.803  1.00  0.00     0.120 C 
ATOM     81  C   UNL     1       5.774  -7.432  -3.976  1.00  0.00     0.120 C 
ATOM     82  N   UNL     1       7.202  -7.639  -3.957  1.00  0.00    -0.341 N 
BRANCH  82  83
ATOM     83  C   UNL     1       7.765  -8.755  -4.507  1.00  0.00     0.226 A 
ATOM     84  N   UNL     1       8.811  -9.280  -3.859  1.00  0.00    -0.213 NA
ATOM     85  N   UNL     1       7.246  -9.300  -5.614  1.00  0.00    -0.212 NA
ATOM     86  C   UNL     1       9.366 -10.404  -4.338  1.00  0.00     0.076 A 
ATOM     87  C   UNL     1       7.855 -10.395  -6.130  1.00  0.00     0.112 A 
ATOM     88  C   UNL     1       8.937 -10.990  -5.507  1.00  0.00     0.059 A 
BRANCH  86  89
ATOM     89  C   UNL     1      10.408 -10.992  -3.487  1.00  0.00     0.001 A 
ATOM     90  C   UNL     1      11.690 -11.290  -3.979  1.00  0.00     0.013 A 
ATOM     91  C   UNL     1      10.132 -11.267  -2.132  1.00  0.00     0.013 A 
ATOM     92  C   UNL     1      12.659 -11.854  -3.144  1.00  0.00     0.040 A 
ATOM     93  C   UNL     1      11.096 -11.839  -1.301  1.00  0.00     0.040 A 
ATOM     94  C   UNL     1      12.351 -12.128  -1.816  1.00  0.00     0.123 A 
ATOM     95  F   UNL     1      13.281 -12.678  -1.024  1.00  0.00    -0.207 F 
ENDBRANCH  86  89
BRANCH  87  96
ATOM     96  C   UNL     1       7.331 -10.960  -7.432  1.00  0.00     0.391 C 
ATOM     97  F   UNL     1       5.989 -11.202  -7.424  1.00  0.00    -0.203 F 
ATOM     98  F   UNL     1       7.565 -10.149  -8.503  1.00  0.00    -0.203 F 
ENDBRANCH  87  96
ENDBRANCH  82  83
ENDBRANCH  74  77
ENDBRANCH  72  73
ENDBRANCH  71  72
ENDBRANCH   1  71
TORSDOF 16
