REMARK SMILES O=C(NCCCNC(=O)C1(Cc2ccccc2Cl)CCN(c2ncnc3[nH]ccc23)CC1)c1ccc(-c2c3nc(c(-c4cc(S(=O)(=O)[O-])ccc4F)c4ccc([nH]4)c(-c4cc(S(=O)(=O)[O-])ccc4F)c4nc(c(-c5cc(S(=O)(=O)[O-])ccc5F)c5ccc2[nH]5)C=C4)C=C3)cc1
REMARK SMILES IDX 4 1 3 2 1 3 2 4 33 6 34 7 95 8 35 9 94 10 36 11 37 12 38 13
REMARK SMILES IDX 88 14 39 15 93 16 87 17 89 18 40 19 92 20 86 21 85 22 41 24
REMARK SMILES IDX 73 25 53 26 72 27 54 28 57 29 71 30 90 31 55 32 56 33 70 35
REMARK SMILES IDX 91 36 58 37 42 38 43 39 51 40 44 41 50 42 52 43 49 44 45 45
REMARK SMILES IDX 46 46 47 47 48 48 74 49 75 50 83 51 76 52 82 53 84 54 81 55
REMARK SMILES IDX 77 56 78 57 79 58 80 59 59 60 60 61 68 62 61 63 67 64 69 65
REMARK SMILES IDX 66 66 62 67 63 68 64 69 65 70 5 71 6 72 7 73 8 74 9 76 10 77
REMARK SMILES IDX 19 78 32 79 20 80 31 81 21 82 11 83 12 84 13 85 17 86 14 87
REMARK SMILES IDX 16 88 18 89 15 90 22 91 23 92 30 93 24 94 26 95 29 96 25 97
REMARK SMILES IDX 27 98 28 99
REMARK H PARENT 3 5 89 23 57 34 7 75 27 100
REMARK Flexibility Score: inf
ROOT
ATOM      1  C   UNL     1       4.207   0.999   1.239  1.00  0.00     0.118 C 
ENDROOT
BRANCH   1   2
ATOM      2  N   UNL     1       2.844   0.560   1.008  1.00  0.00    -0.352 N 
ATOM      3  O   UNL     1       1.059  -0.107  -0.167  1.00  0.00    -0.269 OA
ATOM      4  C   UNL     1       2.283  -0.044  -0.090  1.00  0.00     0.251 C 
ATOM      5  H   UNL     1       2.223   0.720   1.756  1.00  0.00     0.163 HD
BRANCH   4   6
ATOM      6  C   UNL     1       3.119  -0.618  -1.173  1.00  0.00     0.039 A 
ATOM      7  C   UNL     1       4.255  -1.386  -0.901  1.00  0.00     0.014 A 
ATOM      8  C   UNL     1       2.679  -0.484  -2.495  1.00  0.00     0.014 A 
ATOM      9  C   UNL     1       4.983  -1.961  -1.946  1.00  0.00     0.010 A 
ATOM     10  C   UNL     1       3.374  -1.110  -3.537  1.00  0.00     0.010 A 
ATOM     11  C   UNL     1       4.532  -1.857  -3.271  1.00  0.00    -0.014 A 
BRANCH  11  12
ATOM     12  C   UNL     1       5.196  -2.630  -4.355  1.00  0.00     0.031 A 
ATOM     13  C   UNL     1       5.923  -1.937  -5.473  1.00  0.00     0.074 A 
ATOM     14  C   UNL     1       5.093  -3.975  -4.347  1.00  0.00     0.049 A 
ATOM     15  N   UNL     1       6.501  -2.456  -6.527  1.00  0.00    -0.248 NA
ATOM     16  C   UNL     1       6.004  -0.471  -5.406  1.00  0.00     0.031 C 
ATOM     17  C   UNL     1       4.391  -4.757  -3.324  1.00  0.00     0.029 A 
ATOM     18  N   UNL     1       5.558  -4.924  -5.224  1.00  0.00    -0.354 N 
ATOM     19  C   UNL     1       7.000  -1.385  -7.259  1.00  0.00     0.074 A 
ATOM     20  C   UNL     1       6.639  -0.183  -6.535  1.00  0.00     0.031 C 
ATOM     21  C   UNL     1       4.478  -6.061  -3.629  1.00  0.00     0.029 A 
ATOM     22  C   UNL     1       5.184  -6.208  -4.896  1.00  0.00     0.049 A 
ATOM     23  H   UNL     1       6.106  -4.707  -6.012  1.00  0.00     0.167 HD
ATOM     24  C   UNL     1       7.694  -1.408  -8.424  1.00  0.00     0.034 A 
ATOM     25  C   UNL     1       5.351  -7.370  -5.559  1.00  0.00     0.034 A 
ATOM     26  C   UNL     1       8.054  -2.618  -9.125  1.00  0.00     0.049 A 
ATOM     27  C   UNL     1       6.080  -7.357  -6.876  1.00  0.00     0.074 A 
ATOM     28  C   UNL     1       8.841  -2.754 -10.256  1.00  0.00     0.029 A 
ATOM     29  N   UNL     1       7.629  -3.895  -8.784  1.00  0.00    -0.354 N 
ATOM     30  N   UNL     1       6.612  -6.339  -7.513  1.00  0.00    -0.248 NA
ATOM     31  C   UNL     1       6.230  -8.645  -7.566  1.00  0.00     0.031 C 
ATOM     32  C   UNL     1       8.830  -4.100 -10.641  1.00  0.00     0.029 A 
ATOM     33  C   UNL     1       8.092  -4.816  -9.711  1.00  0.00     0.049 A 
ATOM     34  H   UNL     1       7.079  -4.114  -7.997  1.00  0.00     0.167 HD
ATOM     35  C   UNL     1       7.170  -6.869  -8.672  1.00  0.00     0.074 A 
ATOM     36  C   UNL     1       6.930  -8.297  -8.635  1.00  0.00     0.031 C 
ATOM     37  C   UNL     1       7.823  -6.233  -9.676  1.00  0.00     0.034 A 
BRANCH  24  38
ATOM     38  C   UNL     1       8.080  -0.088  -9.043  1.00  0.00     0.023 A 
ATOM     39  C   UNL     1       9.022   0.768  -8.448  1.00  0.00     0.031 A 
ATOM     40  C   UNL     1       7.513   0.305 -10.269  1.00  0.00     0.131 A 
ATOM     41  C   UNL     1       9.336   1.993  -9.057  1.00  0.00     0.055 A 
ATOM     42  C   UNL     1       7.874   1.496 -10.901  1.00  0.00     0.041 A 
ATOM     43  F   UNL     1       6.595  -0.467 -10.874  1.00  0.00    -0.206 F 
ATOM     44  C   UNL     1       8.785   2.352 -10.290  1.00  0.00     0.022 A 
BRANCH  41  45
ATOM     45  S   UNL     1      10.407   3.158  -8.169  1.00  0.00     0.124 S 
ATOM     46  O   UNL     1       9.649   3.381  -6.940  1.00  0.00    -0.237 OA
ATOM     47  O   UNL     1      11.646   2.402  -8.025  1.00  0.00    -0.237 OA
ATOM     48  O   UNL     1      10.480   4.310  -9.065  1.00  0.00    -0.744 OA
ENDBRANCH  41  45
ENDBRANCH  24  38
BRANCH  25  49
ATOM     49  C   UNL     1       4.764  -8.633  -5.025  1.00  0.00     0.023 A 
ATOM     50  C   UNL     1       5.577  -9.713  -4.653  1.00  0.00     0.031 A 
ATOM     51  C   UNL     1       3.369  -8.792  -4.927  1.00  0.00     0.131 A 
ATOM     52  C   UNL     1       4.990 -10.921  -4.242  1.00  0.00     0.055 A 
ATOM     53  C   UNL     1       2.791  -9.975  -4.464  1.00  0.00     0.041 A 
ATOM     54  F   UNL     1       2.545  -7.790  -5.272  1.00  0.00    -0.206 F 
ATOM     55  C   UNL     1       3.604 -11.054  -4.132  1.00  0.00     0.022 A 
BRANCH  52  56
ATOM     56  S   UNL     1       6.064 -12.352  -3.949  1.00  0.00     0.124 S 
ATOM     57  O   UNL     1       6.783 -12.450  -5.214  1.00  0.00    -0.237 OA
ATOM     58  O   UNL     1       6.847 -11.911  -2.799  1.00  0.00    -0.237 OA
ATOM     59  O   UNL     1       5.121 -13.436  -3.681  1.00  0.00    -0.744 OA
ENDBRANCH  52  56
ENDBRANCH  25  49
BRANCH  37  60
ATOM     60  C   UNL     1       8.336  -7.090 -10.804  1.00  0.00     0.023 A 
ATOM     61  C   UNL     1       7.458  -7.710 -11.711  1.00  0.00     0.031 A 
ATOM     62  C   UNL     1       9.716  -7.300 -10.967  1.00  0.00     0.131 A 
ATOM     63  C   UNL     1       7.968  -8.548 -12.713  1.00  0.00     0.055 A 
ATOM     64  C   UNL     1      10.221  -8.092 -11.998  1.00  0.00     0.041 A 
ATOM     65  F   UNL     1      10.596  -6.734 -10.126  1.00  0.00    -0.206 F 
ATOM     66  C   UNL     1       9.345  -8.730 -12.873  1.00  0.00     0.022 A 
BRANCH  63  67
ATOM     67  S   UNL     1       6.805  -9.453 -13.771  1.00  0.00     0.124 S 
ATOM     68  O   UNL     1       6.115 -10.302 -12.805  1.00  0.00    -0.237 OA
ATOM     69  O   UNL     1       6.011  -8.377 -14.356  1.00  0.00    -0.237 OA
ATOM     70  O   UNL     1       7.674 -10.160 -14.710  1.00  0.00    -0.744 OA
ENDBRANCH  63  67
ENDBRANCH  37  60
ENDBRANCH  11  12
ENDBRANCH   4   6
ENDBRANCH   1   2
BRANCH   1  71
ATOM     71  C   UNL     1       4.341   2.517   1.160  1.00  0.00     0.042 C 
BRANCH  71  72
ATOM     72  C   UNL     1       3.739   3.289   2.336  1.00  0.00     0.117 C 
BRANCH  72  73
ATOM     73  N   UNL     1       4.163   2.816   3.643  1.00  0.00    -0.356 N 
ATOM     74  C   UNL     1       5.147   3.137   4.518  1.00  0.00     0.226 C 
ATOM     75  H   UNL     1       3.595   2.083   3.975  1.00  0.00     0.163 HD
ATOM     76  O   UNL     1       5.102   2.508   5.584  1.00  0.00    -0.274 OA
BRANCH  74  77
ATOM     77  C   UNL     1       6.190   4.254   4.316  1.00  0.00     0.057 C 
ATOM     78  C   UNL     1       7.371   4.082   5.326  1.00  0.00     0.039 C 
ATOM     79  C   UNL     1       5.444   5.612   4.593  1.00  0.00     0.039 C 
ATOM     80  C   UNL     1       7.045   4.466   6.767  1.00  0.00     0.119 C 
ATOM     81  C   UNL     1       5.201   5.920   6.077  1.00  0.00     0.119 C 
ATOM     82  N   UNL     1       6.470   5.795   6.771  1.00  0.00    -0.356 N 
BRANCH  77  83
ATOM     83  C   UNL     1       6.808   4.367   2.891  1.00  0.00     0.054 C 
BRANCH  83  84
ATOM     84  C   UNL     1       7.733   3.402   2.159  1.00  0.00    -0.028 A 
ATOM     85  C   UNL     1       8.403   3.998   1.057  1.00  0.00     0.005 A 
ATOM     86  C   UNL     1       7.924   2.023   2.332  1.00  0.00     0.044 A 
ATOM     87  C   UNL     1       9.204   3.269   0.176  1.00  0.00     0.000 A 
ATOM     88  C   UNL     1       8.736   1.293   1.443  1.00  0.00     0.021 A 
ATOM     89  Cl  UNL     1       7.190   1.070   3.559  1.00  0.00    -0.084 Cl
ATOM     90  C   UNL     1       9.367   1.909   0.367  1.00  0.00     0.002 A 
ENDBRANCH  83  84
ENDBRANCH  77  83
BRANCH  82  91
ATOM     91  C   UNL     1       7.077   6.889   7.345  1.00  0.00     0.141 A 
ATOM     92  N   UNL     1       6.282   7.858   7.880  1.00  0.00    -0.219 NA
ATOM     93  C   UNL     1       8.477   7.107   7.413  1.00  0.00     0.061 A 
ATOM     94  C   UNL     1       6.843   8.922   8.485  1.00  0.00     0.226 A 
ATOM     95  C   UNL     1       8.905   8.267   8.047  1.00  0.00     0.142 A 
ATOM     96  C   UNL     1       9.666   6.460   6.954  1.00  0.00     0.033 A 
ATOM     97  N   UNL     1       8.146   9.211   8.619  1.00  0.00    -0.218 NA
ATOM     98  N   UNL     1      10.272   8.318   7.992  1.00  0.00    -0.346 N 
ATOM     99  C   UNL     1      10.751   7.228   7.320  1.00  0.00     0.085 A 
ATOM    100  H   UNL     1      10.827   9.034   8.379  1.00  0.00     0.167 HD
ENDBRANCH  82  91
ENDBRANCH  74  77
ENDBRANCH  72  73
ENDBRANCH  71  72
ENDBRANCH   1  71
TORSDOF 16
