REMARK SMILES C/C=C(\C)[C@H]1C(C)=C[C@H]2CC[C@@H](OS(=O)(=O)[O-])[C@@H](C)[C@H]2[C@H]1/C=C/C=C/C(=O)NCCCNC(=O)c1ccc(-c2c3nc(c(-c4cc(S(=O)(=O)[O-])ccc4F)c4ccc([nH]4)c(-c4cc(S(=O)(=O)[O-])ccc4F)c4nc(c(-c5cc(S(=O)(=O)[O-])ccc5F)c5ccc2[nH]5)C=C4)C=C3)cc1
REMARK SMILES IDX 29 1 28 2 26 3 27 4 25 6 24 7 23 8 22 9 21 10 5 11 6 12 7 13
REMARK SMILES IDX 8 14 20 15 9 16 18 17 10 18 12 19 19 20 11 21 3 22 1 23 2 24
REMARK SMILES IDX 4 25 13 26 14 27 15 28 16 29 17 30 30 31 31 32 32 33 33 34
REMARK SMILES IDX 34 36 35 37 36 38 97 39 37 40 96 41 38 42 39 43 40 44 90 45
REMARK SMILES IDX 41 46 95 47 89 48 91 49 42 50 94 51 88 52 87 53 43 55 75 56
REMARK SMILES IDX 55 57 74 58 56 59 59 60 73 61 92 62 57 63 58 64 72 66 93 67
REMARK SMILES IDX 60 68 44 69 45 70 53 71 46 72 52 73 54 74 51 75 47 76 48 77
REMARK SMILES IDX 49 78 50 79 76 80 77 81 85 82 78 83 84 84 86 85 83 86 79 87
REMARK SMILES IDX 80 88 81 89 82 90 61 91 62 92 70 93 63 94 69 95 71 96 68 97
REMARK SMILES IDX 64 98 65 99 66 100 67 101
REMARK H PARENT 28 5 32 35 91 54 59 65
REMARK Flexibility Score: inf
ROOT
ATOM      1  C   UNL     1      -2.647  -0.183   4.425  1.00  0.00     0.118 C 
ENDROOT
BRANCH   1   2
ATOM      2  N   UNL     1      -3.304   1.043   3.990  1.00  0.00    -0.352 N 
ATOM      3  C   UNL     1      -3.712   1.453   2.754  1.00  0.00     0.243 C 
ATOM      4  O   UNL     1      -4.208   2.566   2.603  1.00  0.00    -0.270 OA
ATOM      5  H   UNL     1      -3.485   1.687   4.713  1.00  0.00     0.163 HD
BRANCH   3   6
ATOM      6  C   UNL     1      -3.455   0.602   1.575  1.00  0.00     0.071 C 
ATOM      7  C   UNL     1      -3.796  -0.692   1.522  1.00  0.00     0.005 C 
BRANCH   7   8
ATOM      8  C   UNL     1      -3.258  -1.559   0.501  1.00  0.00    -0.004 C 
ATOM      9  C   UNL     1      -2.830  -2.789   0.833  1.00  0.00    -0.022 C 
BRANCH   9  10
ATOM     10  C   UNL     1      -1.985  -3.670  -0.058  1.00  0.00     0.027 C 
ATOM     11  C   UNL     1      -0.628  -3.066  -0.644  1.00  0.00     0.047 C 
ATOM     12  C   UNL     1       0.401  -4.169  -0.997  1.00  0.00    -0.069 C 
ATOM     13  C   UNL     1       1.820  -3.797  -1.338  1.00  0.00     0.040 C 
ATOM     14  C   UNL     1       0.071  -5.480  -1.032  1.00  0.00    -0.024 C 
ATOM     15  C   UNL     1      -1.877  -5.143   0.491  1.00  0.00     0.009 C 
ATOM     16  C   UNL     1      -1.268  -6.023  -0.618  1.00  0.00     0.016 C 
ATOM     17  C   UNL     1      -1.205  -5.378   1.894  1.00  0.00     0.021 C 
ATOM     18  C   UNL     1      -1.233  -7.500  -0.189  1.00  0.00     0.011 C 
ATOM     19  C   UNL     1      -1.140  -6.884   2.267  1.00  0.00     0.141 C 
ATOM     20  C   UNL     1       0.182  -4.782   2.082  1.00  0.00     0.011 C 
ATOM     21  C   UNL     1      -0.539  -7.740   1.146  1.00  0.00     0.034 C 
BRANCH  11  22
ATOM     22  C   UNL     1      -0.012  -1.747  -0.052  1.00  0.00    -0.070 C 
ATOM     23  C   UNL     1       1.179   0.474  -0.561  1.00  0.00     0.035 C 
ATOM     24  C   UNL     1       0.474  -0.806  -0.899  1.00  0.00    -0.031 C 
ATOM     25  C   UNL     1       0.064  -1.504   1.440  1.00  0.00     0.040 C 
ENDBRANCH  11  22
BRANCH  19  26
ATOM     26  O   UNL     1      -0.548  -7.034   3.562  1.00  0.00    -0.276 OA
BRANCH  26  27
ATOM     27  S   UNL     1       0.907  -7.714   3.821  1.00  0.00     0.217 S 
ATOM     28  O   UNL     1       0.793  -9.142   3.620  1.00  0.00    -0.213 OA
ATOM     29  O   UNL     1       1.937  -6.940   3.174  1.00  0.00    -0.213 OA
ATOM     30  O   UNL     1       1.138  -7.464   5.393  1.00  0.00    -0.726 OA
ENDBRANCH  26  27
ENDBRANCH  19  26
ENDBRANCH   9  10
ENDBRANCH   7   8
ENDBRANCH   3   6
ENDBRANCH   1   2
BRANCH   1  31
ATOM     31  C   UNL     1      -1.265   0.041   5.024  1.00  0.00     0.042 C 
BRANCH  31  32
ATOM     32  C   UNL     1      -1.257   0.817   6.334  1.00  0.00     0.118 C 
BRANCH  32  33
ATOM     33  N   UNL     1      -1.972   0.134   7.404  1.00  0.00    -0.352 N 
ATOM     34  C   UNL     1      -1.531  -0.360   8.608  1.00  0.00     0.251 C 
ATOM     35  H   UNL     1      -2.934   0.005   7.236  1.00  0.00     0.163 HD
ATOM     36  O   UNL     1      -2.288  -1.069   9.268  1.00  0.00    -0.269 OA
BRANCH  34  37
ATOM     37  C   UNL     1      -0.163  -0.076   9.101  1.00  0.00     0.039 A 
ATOM     38  C   UNL     1       0.529  -1.078   9.788  1.00  0.00     0.014 A 
ATOM     39  C   UNL     1       0.433   1.175   8.926  1.00  0.00     0.014 A 
ATOM     40  C   UNL     1       1.834  -0.847  10.234  1.00  0.00     0.010 A 
ATOM     41  C   UNL     1       1.766   1.371   9.281  1.00  0.00     0.010 A 
ATOM     42  C   UNL     1       2.481   0.366   9.949  1.00  0.00    -0.014 A 
BRANCH  42  43
ATOM     43  C   UNL     1       3.893   0.605  10.357  1.00  0.00     0.031 A 
ATOM     44  C   UNL     1       4.229   1.726  11.306  1.00  0.00     0.074 A 
ATOM     45  C   UNL     1       4.878  -0.154   9.835  1.00  0.00     0.049 A 
ATOM     46  N   UNL     1       5.400   2.128  11.732  1.00  0.00    -0.248 NA
ATOM     47  C   UNL     1       3.102   2.519  11.819  1.00  0.00     0.031 C 
ATOM     48  C   UNL     1       4.685  -1.244   8.877  1.00  0.00     0.029 A 
ATOM     49  N   UNL     1       6.236  -0.127  10.033  1.00  0.00    -0.354 N 
ATOM     50  C   UNL     1       5.150   3.225  12.552  1.00  0.00     0.074 A 
ATOM     51  C   UNL     1       3.724   3.467  12.502  1.00  0.00     0.031 C 
ATOM     52  C   UNL     1       5.874  -1.804   8.600  1.00  0.00     0.029 A 
ATOM     53  C   UNL     1       6.921  -1.081   9.315  1.00  0.00     0.049 A 
ATOM     54  H   UNL     1       6.679   0.516  10.633  1.00  0.00     0.167 HD
ATOM     55  C   UNL     1       6.024   3.946  13.299  1.00  0.00     0.034 A 
ATOM     56  C   UNL     1       8.242  -1.338   9.231  1.00  0.00     0.034 A 
ATOM     57  C   UNL     1       7.443   3.687  13.342  1.00  0.00     0.049 A 
ATOM     58  C   UNL     1       9.199  -0.498  10.040  1.00  0.00     0.074 A 
ATOM     59  C   UNL     1       8.412   4.324  14.099  1.00  0.00     0.029 A 
ATOM     60  N   UNL     1       8.101   2.720  12.591  1.00  0.00    -0.354 N 
ATOM     61  N   UNL     1       8.940   0.504  10.849  1.00  0.00    -0.248 NA
ATOM     62  C   UNL     1      10.624  -0.833   9.934  1.00  0.00     0.031 C 
ATOM     63  C   UNL     1       9.660   3.801  13.744  1.00  0.00     0.029 A 
ATOM     64  C   UNL     1       9.465   2.770  12.839  1.00  0.00     0.049 A 
ATOM     65  H   UNL     1       7.662   2.092  11.973  1.00  0.00     0.167 HD
ATOM     66  C   UNL     1      10.169   0.893  11.376  1.00  0.00     0.074 A 
ATOM     67  C   UNL     1      11.162   0.007  10.805  1.00  0.00     0.031 C 
ATOM     68  C   UNL     1      10.450   1.888  12.257  1.00  0.00     0.034 A 
BRANCH  55  69
ATOM     69  C   UNL     1       5.466   5.097  14.105  1.00  0.00     0.023 A 
ATOM     70  C   UNL     1       4.506   4.899  15.113  1.00  0.00     0.031 A 
ATOM     71  C   UNL     1       5.879   6.417  13.846  1.00  0.00     0.131 A 
ATOM     72  C   UNL     1       3.930   6.002  15.762  1.00  0.00     0.055 A 
ATOM     73  C   UNL     1       5.370   7.503  14.561  1.00  0.00     0.041 A 
ATOM     74  F   UNL     1       6.776   6.676  12.881  1.00  0.00    -0.206 F 
ATOM     75  C   UNL     1       4.376   7.301  15.514  1.00  0.00     0.022 A 
BRANCH  72  76
ATOM     76  S   UNL     1       2.477   5.725  16.813  1.00  0.00     0.124 S 
ATOM     77  O   UNL     1       1.550   5.097  15.873  1.00  0.00    -0.237 OA
ATOM     78  O   UNL     1       3.006   4.861  17.861  1.00  0.00    -0.237 OA
ATOM     79  O   UNL     1       2.102   7.071  17.241  1.00  0.00    -0.744 OA
ENDBRANCH  72  76
ENDBRANCH  55  69
BRANCH  56  80
ATOM     80  C   UNL     1       8.746  -2.430   8.347  1.00  0.00     0.023 A 
ATOM     81  C   UNL     1       9.427  -3.537   8.878  1.00  0.00     0.031 A 
ATOM     82  C   UNL     1       8.597  -2.360   6.950  1.00  0.00     0.131 A 
ATOM     83  C   UNL     1       9.977  -4.500   8.018  1.00  0.00     0.055 A 
ATOM     84  C   UNL     1       9.091  -3.353   6.102  1.00  0.00     0.041 A 
ATOM     85  F   UNL     1       7.952  -1.325   6.386  1.00  0.00    -0.206 F 
ATOM     86  C   UNL     1       9.800  -4.425   6.636  1.00  0.00     0.022 A 
BRANCH  83  87
ATOM     87  S   UNL     1      11.014  -5.808   8.730  1.00  0.00     0.124 S 
ATOM     88  O   UNL     1      12.053  -5.031   9.397  1.00  0.00    -0.237 OA
ATOM     89  O   UNL     1      10.071  -6.501   9.600  1.00  0.00    -0.237 OA
ATOM     90  O   UNL     1      11.454  -6.566   7.560  1.00  0.00    -0.744 OA
ENDBRANCH  83  87
ENDBRANCH  56  80
BRANCH  68  91
ATOM     91  C   UNL     1      11.889   2.033  12.697  1.00  0.00     0.023 A 
ATOM     92  C   UNL     1      12.911   2.383  11.798  1.00  0.00     0.031 A 
ATOM     93  C   UNL     1      12.242   1.798  14.038  1.00  0.00     0.131 A 
ATOM     94  C   UNL     1      14.244   2.422  12.236  1.00  0.00     0.055 A 
ATOM     95  C   UNL     1      13.560   1.912  14.484  1.00  0.00     0.041 A 
ATOM     96  F   UNL     1      11.310   1.455  14.942  1.00  0.00    -0.206 F 
ATOM     97  C   UNL     1      14.572   2.209  13.577  1.00  0.00     0.022 A 
BRANCH  94  98
ATOM     98  S   UNL     1      15.558   2.636  11.003  1.00  0.00     0.124 S 
ATOM     99  O   UNL     1      15.309   1.519  10.098  1.00  0.00    -0.237 OA
ATOM    100  O   UNL     1      15.273   3.964  10.470  1.00  0.00    -0.237 OA
ATOM    101  O   UNL     1      16.786   2.535  11.790  1.00  0.00    -0.744 OA
ENDBRANCH  94  98
ENDBRANCH  68  91
ENDBRANCH  42  43
ENDBRANCH  34  37
ENDBRANCH  32  33
ENDBRANCH  31  32
ENDBRANCH   1  31
TORSDOF 18
