REMARK SMILES COC(=O)c1ccc(Cl)c(-c2ccc(C(=O)NCCCNC(=O)c3ccc(-c4c5nc(c(-c6cc(S(=O)(=O)[O-])ccc6F)c6ccc([nH]6)c(-c6cc(S(=O)(=O)[O-])ccc6F)c6nc(c(-c7cc(S(=O)(=O)[O-])ccc7F)c7ccc4[nH]7)C=C6)C=C5)cc3)nc2)c1
REMARK SMILES IDX 19 1 18 2 17 3 15 4 16 5 14 7 11 8 12 9 88 10 13 11 87 12
REMARK SMILES IDX 10 13 5 14 6 15 89 16 7 17 8 18 9 19 3 20 4 21 2 22 1 23
REMARK SMILES IDX 20 24 21 25 22 26 23 28 24 29 25 30 86 31 26 32 85 33 27 34
REMARK SMILES IDX 28 35 29 36 79 37 30 38 84 39 78 40 80 41 31 42 83 43 77 44
REMARK SMILES IDX 76 45 32 47 64 48 44 49 63 50 45 51 48 52 62 53 81 54 46 55
REMARK SMILES IDX 47 56 61 58 82 59 49 60 33 61 34 62 42 63 35 64 41 65 43 66
REMARK SMILES IDX 40 67 36 68 37 69 38 70 39 71 65 72 66 73 74 74 67 75 73 76
REMARK SMILES IDX 75 77 72 78 68 79 69 80 70 81 71 82 50 83 51 84 59 85 52 86
REMARK SMILES IDX 58 87 60 88 57 89 53 90 54 91 55 92 56 93
REMARK H PARENT 17 6 21 27 80 46 48 57
REMARK Flexibility Score: inf
ROOT
ATOM      1  C   UNL     1       3.072   3.186  12.056  1.00  0.00     0.042 C 
ENDROOT
BRANCH   1   2
ATOM      2  C   UNL     1       2.983   4.531  11.333  1.00  0.00     0.118 C 
BRANCH   2   3
ATOM      3  N   UNL     1       4.162   4.779  10.524  1.00  0.00    -0.351 N 
ATOM      4  C   UNL     1       4.400   4.675   9.172  1.00  0.00     0.269 C 
ATOM      5  O   UNL     1       5.506   5.052   8.778  1.00  0.00    -0.268 OA
ATOM      6  H   UNL     1       4.943   5.080  11.043  1.00  0.00     0.163 HD
BRANCH   4   7
ATOM      7  C   UNL     1       3.388   4.157   8.184  1.00  0.00     0.128 A 
ATOM      8  C   UNL     1       1.647   3.289   6.203  1.00  0.00     0.002 A 
ATOM      9  C   UNL     1       1.510   2.822   7.511  1.00  0.00     0.013 A 
ATOM     10  C   UNL     1       2.695   4.171   5.965  1.00  0.00     0.120 A 
ATOM     11  C   UNL     1       2.399   3.237   8.502  1.00  0.00     0.035 A 
ATOM     12  N   UNL     1       3.550   4.619   6.914  1.00  0.00    -0.250 NA
BRANCH   8  13
ATOM     13  C   UNL     1       0.753   2.825   5.139  1.00  0.00     0.003 A 
ATOM     14  C   UNL     1       0.419   1.398   3.183  1.00  0.00     0.060 A 
ATOM     15  C   UNL     1      -0.916   1.804   3.102  1.00  0.00     0.017 A 
ATOM     16  C   UNL     1       1.241   1.896   4.202  1.00  0.00     0.026 A 
ATOM     17  C   UNL     1      -1.417   2.725   4.024  1.00  0.00     0.022 A 
ATOM     18  C   UNL     1      -0.588   3.239   5.028  1.00  0.00     0.048 A 
ATOM     19  Cl  UNL     1      -1.276   4.405   6.107  1.00  0.00    -0.084 Cl
BRANCH  14  20
ATOM     20  C   UNL     1       1.013   0.442   2.216  1.00  0.00     0.337 C 
ATOM     21  O   UNL     1       1.950  -0.282   2.474  1.00  0.00    -0.246 OA
BRANCH  20  22
ATOM     22  O   UNL     1       0.407   0.588   1.009  1.00  0.00    -0.465 OA
ATOM     23  C   UNL     1       1.014  -0.177  -0.032  1.00  0.00     0.282 C 
ENDBRANCH  20  22
ENDBRANCH  14  20
ENDBRANCH   8  13
ENDBRANCH   4   7
ENDBRANCH   2   3
ENDBRANCH   1   2
BRANCH   1  24
ATOM     24  C   UNL     1       4.022   3.191  13.253  1.00  0.00     0.118 C 
BRANCH  24  25
ATOM     25  N   UNL     1       3.542   4.055  14.319  1.00  0.00    -0.352 N 
ATOM     26  C   UNL     1       3.206   3.773  15.618  1.00  0.00     0.251 C 
ATOM     27  H   UNL     1       3.442   5.001  14.065  1.00  0.00     0.163 HD
ATOM     28  O   UNL     1       2.566   4.612  16.249  1.00  0.00    -0.269 OA
BRANCH  26  29
ATOM     29  C   UNL     1       3.590   2.495  16.261  1.00  0.00     0.039 A 
ATOM     30  C   UNL     1       2.721   1.944  17.209  1.00  0.00     0.014 A 
ATOM     31  C   UNL     1       4.817   1.875  16.007  1.00  0.00     0.014 A 
ATOM     32  C   UNL     1       3.065   0.761  17.868  1.00  0.00     0.010 A 
ATOM     33  C   UNL     1       5.126   0.655  16.610  1.00  0.00     0.010 A 
ATOM     34  C   UNL     1       4.258   0.090  17.555  1.00  0.00    -0.014 A 
BRANCH  34  35
ATOM     35  C   UNL     1       4.587  -1.203  18.212  1.00  0.00     0.031 A 
ATOM     36  C   UNL     1       5.783  -1.327  19.117  1.00  0.00     0.074 A 
ATOM     37  C   UNL     1       3.813  -2.278  17.963  1.00  0.00     0.049 A 
ATOM     38  N   UNL     1       6.209  -2.367  19.789  1.00  0.00    -0.248 NA
ATOM     39  C   UNL     1       6.628  -0.133  19.264  1.00  0.00     0.031 C 
ATOM     40  C   UNL     1       2.663  -2.294  17.055  1.00  0.00     0.029 A 
ATOM     41  N   UNL     1       3.866  -3.559  18.451  1.00  0.00    -0.354 N 
ATOM     42  C   UNL     1       7.373  -1.957  20.431  1.00  0.00     0.074 A 
ATOM     43  C   UNL     1       7.619  -0.593  20.014  1.00  0.00     0.031 C 
ATOM     44  C   UNL     1       2.099  -3.511  17.080  1.00  0.00     0.029 A 
ATOM     45  C   UNL     1       2.865  -4.373  17.974  1.00  0.00     0.049 A 
ATOM     46  H   UNL     1       4.556  -3.867  19.082  1.00  0.00     0.167 HD
ATOM     47  C   UNL     1       8.152  -2.648  21.303  1.00  0.00     0.034 A 
ATOM     48  C   UNL     1       2.591  -5.667  18.229  1.00  0.00     0.034 A 
ATOM     49  C   UNL     1       7.885  -4.009  21.709  1.00  0.00     0.049 A 
ATOM     50  C   UNL     1       3.456  -6.409  19.213  1.00  0.00     0.074 A 
ATOM     51  C   UNL     1       8.571  -4.788  22.625  1.00  0.00     0.029 A 
ATOM     52  N   UNL     1       6.853  -4.800  21.216  1.00  0.00    -0.354 N 
ATOM     53  N   UNL     1       4.515  -5.986  19.866  1.00  0.00    -0.248 NA
ATOM     54  C   UNL     1       3.074  -7.793  19.513  1.00  0.00     0.031 C 
ATOM     55  C   UNL     1       7.998  -6.066  22.634  1.00  0.00     0.029 A 
ATOM     56  C   UNL     1       6.902  -6.064  21.787  1.00  0.00     0.049 A 
ATOM     57  H   UNL     1       6.183  -4.505  20.557  1.00  0.00     0.167 HD
ATOM     58  C   UNL     1       4.909  -7.047  20.676  1.00  0.00     0.074 A 
ATOM     59  C   UNL     1       3.958  -8.116  20.446  1.00  0.00     0.031 C 
ATOM     60  C   UNL     1       5.960  -7.130  21.533  1.00  0.00     0.034 A 
BRANCH  47  61
ATOM     61  C   UNL     1       9.377  -1.948  21.849  1.00  0.00     0.023 A 
ATOM     62  C   UNL     1       9.280  -0.772  22.616  1.00  0.00     0.031 A 
ATOM     63  C   UNL     1      10.664  -2.445  21.575  1.00  0.00     0.131 A 
ATOM     64  C   UNL     1      10.443  -0.091  23.010  1.00  0.00     0.055 A 
ATOM     65  C   UNL     1      11.817  -1.809  22.044  1.00  0.00     0.041 A 
ATOM     66  F   UNL     1      10.827  -3.551  20.833  1.00  0.00    -0.206 F 
ATOM     67  C   UNL     1      11.711  -0.615  22.751  1.00  0.00     0.022 A 
BRANCH  64  68
ATOM     68  S   UNL     1      10.275   1.566  23.729  1.00  0.00     0.124 S 
ATOM     69  O   UNL     1       9.563   2.276  22.669  1.00  0.00    -0.237 OA
ATOM     70  O   UNL     1       9.517   1.307  24.946  1.00  0.00    -0.237 OA
ATOM     71  O   UNL     1      11.658   1.993  23.933  1.00  0.00    -0.744 OA
ENDBRANCH  64  68
ENDBRANCH  47  61
BRANCH  48  72
ATOM     72  C   UNL     1       1.444  -6.339  17.553  1.00  0.00     0.023 A 
ATOM     73  C   UNL     1       0.333  -6.790  18.283  1.00  0.00     0.031 A 
ATOM     74  C   UNL     1       1.454  -6.558  16.164  1.00  0.00     0.131 A 
ATOM     75  C   UNL     1      -0.703  -7.476  17.629  1.00  0.00     0.055 A 
ATOM     76  C   UNL     1       0.397  -7.194  15.510  1.00  0.00     0.041 A 
ATOM     77  F   UNL     1       2.487  -6.137  15.418  1.00  0.00    -0.206 F 
ATOM     78  C   UNL     1      -0.684  -7.668  16.245  1.00  0.00     0.022 A 
BRANCH  75  79
ATOM     79  S   UNL     1      -2.047  -8.178  18.624  1.00  0.00     0.124 S 
ATOM     80  O   UNL     1      -1.319  -9.063  19.526  1.00  0.00    -0.237 OA
ATOM     81  O   UNL     1      -2.630  -6.985  19.229  1.00  0.00    -0.237 OA
ATOM     82  O   UNL     1      -2.889  -8.847  17.635  1.00  0.00    -0.744 OA
ENDBRANCH  75  79
ENDBRANCH  48  72
BRANCH  60  83
ATOM     83  C   UNL     1       6.100  -8.418  22.311  1.00  0.00     0.023 A 
ATOM     84  C   UNL     1       6.357  -9.644  21.671  1.00  0.00     0.031 A 
ATOM     85  C   UNL     1       5.929  -8.425  23.706  1.00  0.00     0.131 A 
ATOM     86  C   UNL     1       6.355 -10.834  22.414  1.00  0.00     0.055 A 
ATOM     87  C   UNL     1       6.001  -9.604  24.450  1.00  0.00     0.041 A 
ATOM     88  F   UNL     1       5.679  -7.286  24.371  1.00  0.00    -0.206 F 
ATOM     89  C   UNL     1       6.195 -10.820  23.802  1.00  0.00     0.022 A 
BRANCH  86  90
ATOM     90  S   UNL     1       6.429 -12.414  21.525  1.00  0.00     0.124 S 
ATOM     91  O   UNL     1       5.300 -12.299  20.608  1.00  0.00    -0.237 OA
ATOM     92  O   UNL     1       7.754 -12.365  20.914  1.00  0.00    -0.237 OA
ATOM     93  O   UNL     1       6.271 -13.411  22.582  1.00  0.00    -0.744 OA
ENDBRANCH  86  90
ENDBRANCH  60  83
ENDBRANCH  34  35
ENDBRANCH  26  29
ENDBRANCH  24  25
ENDBRANCH   1  24
TORSDOF 16
