REMARK SMILES Cc1ccc(-c2cccc(F)c2C(=O)NCCCNC(=O)c2ccc(-c3c4nc(c(-c5cc(S(=O)(=O)[O-])ccc5F)c5ccc([nH]5)c(-c5cc(S(=O)(=O)[O-])ccc5F)c5nc(c(-c6cc(S(=O)(=O)[O-])ccc6F)c6ccc3[nH]6)C=C5)C=C4)cc2)c(C)c1
REMARK SMILES IDX 18 1 17 2 16 3 15 4 13 5 14 6 12 8 6 9 7 10 8 11 10 12 9 13
REMARK SMILES IDX 11 14 5 15 1 16 2 17 3 18 87 19 4 20 85 21 86 22 19 23 20 24
REMARK SMILES IDX 21 26 22 27 23 28 84 29 24 30 83 31 25 32 26 33 27 34 77 35
REMARK SMILES IDX 28 36 82 37 76 38 78 39 29 40 81 41 75 42 74 43 30 45 62 46
REMARK SMILES IDX 42 47 61 48 43 49 46 50 60 51 79 52 44 53 45 54 59 56 80 57
REMARK SMILES IDX 47 58 31 59 32 60 40 61 33 62 39 63 41 64 38 65 34 66 35 67
REMARK SMILES IDX 36 68 37 69 63 70 64 71 72 72 65 73 71 74 73 75 70 76 66 77
REMARK SMILES IDX 67 78 68 79 69 80 48 81 49 82 57 83 50 84 56 85 58 86 55 87
REMARK SMILES IDX 51 88 52 89 53 90 54 91
REMARK H PARENT 15 7 19 25 78 44 46 55
REMARK Flexibility Score: inf
ROOT
ATOM      1  C   UNL     1      -6.236   0.785  -4.613  1.00  0.00     0.118 C 
ENDROOT
BRANCH   1   2
ATOM      2  C   UNL     1      -6.423  -0.101  -3.391  1.00  0.00     0.042 C 
BRANCH   2   3
ATOM      3  C   UNL     1      -5.482  -1.290  -3.274  1.00  0.00     0.118 C 
BRANCH   3   4
ATOM      4  N   UNL     1      -4.068  -0.953  -3.177  1.00  0.00    -0.352 N 
ATOM      5  C   UNL     1      -3.050  -1.405  -2.363  1.00  0.00     0.254 C 
ATOM      6  O   UNL     1      -1.905  -1.131  -2.721  1.00  0.00    -0.269 OA
ATOM      7  H   UNL     1      -3.782  -0.265  -3.821  1.00  0.00     0.163 HD
BRANCH   5   8
ATOM      8  C   UNL     1      -3.274  -2.129  -1.077  1.00  0.00     0.083 A 
ATOM      9  C   UNL     1      -2.472  -1.855   0.063  1.00  0.00    -0.002 A 
ATOM     10  C   UNL     1      -2.783  -2.496   1.287  1.00  0.00     0.010 A 
ATOM     11  C   UNL     1      -3.828  -3.410   1.387  1.00  0.00     0.004 A 
ATOM     12  C   UNL     1      -4.228  -3.146  -0.975  1.00  0.00     0.136 A 
ATOM     13  C   UNL     1      -4.537  -3.751   0.245  1.00  0.00     0.040 A 
ATOM     14  F   UNL     1      -4.832  -3.646  -2.063  1.00  0.00    -0.206 F 
BRANCH   9  15
ATOM     15  C   UNL     1      -1.247  -1.028   0.050  1.00  0.00    -0.015 A 
ATOM     16  C   UNL     1       2.510   1.138   0.039  1.00  0.00     0.044 C 
ATOM     17  C   UNL     1       1.218   0.377   0.066  1.00  0.00    -0.051 A 
ATOM     18  C   UNL     1       1.206  -1.014  -0.007  1.00  0.00     0.004 A 
ATOM     19  C   UNL     1      -0.004   1.061   0.136  1.00  0.00     0.007 A 
ATOM     20  C   UNL     1      -0.007  -1.702  -0.015  1.00  0.00     0.009 A 
ATOM     21  C   UNL     1      -1.238   0.377   0.140  1.00  0.00    -0.043 A 
ATOM     22  C   UNL     1      -2.494   1.202   0.188  1.00  0.00     0.045 C 
ENDBRANCH   9  15
ENDBRANCH   5   8
ENDBRANCH   3   4
ENDBRANCH   2   3
ENDBRANCH   1   2
BRANCH   1  23
ATOM     23  N   UNL     1      -6.451   0.092  -5.876  1.00  0.00    -0.352 N 
ATOM     24  C   UNL     1      -7.478   0.165  -6.791  1.00  0.00     0.251 C 
ATOM     25  H   UNL     1      -5.737  -0.541  -6.118  1.00  0.00     0.163 HD
ATOM     26  O   UNL     1      -7.520  -0.655  -7.703  1.00  0.00    -0.269 OA
BRANCH  24  27
ATOM     27  C   UNL     1      -8.540   1.192  -6.672  1.00  0.00     0.039 A 
ATOM     28  C   UNL     1      -9.861   0.844  -6.976  1.00  0.00     0.014 A 
ATOM     29  C   UNL     1      -8.245   2.501  -6.290  1.00  0.00     0.014 A 
ATOM     30  C   UNL     1     -10.886   1.781  -6.807  1.00  0.00     0.010 A 
ATOM     31  C   UNL     1      -9.274   3.398  -6.019  1.00  0.00     0.010 A 
ATOM     32  C   UNL     1     -10.607   3.051  -6.277  1.00  0.00    -0.014 A 
BRANCH  32  33
ATOM     33  C   UNL     1     -11.687   4.033  -5.992  1.00  0.00     0.031 A 
ATOM     34  C   UNL     1     -11.700   5.368  -6.685  1.00  0.00     0.074 A 
ATOM     35  C   UNL     1     -12.622   3.747  -5.065  1.00  0.00     0.049 A 
ATOM     36  N   UNL     1     -12.507   6.383  -6.510  1.00  0.00    -0.248 NA
ATOM     37  C   UNL     1     -10.647   5.604  -7.685  1.00  0.00     0.031 C 
ATOM     38  C   UNL     1     -12.703   2.498  -4.304  1.00  0.00     0.029 A 
ATOM     39  N   UNL     1     -13.688   4.480  -4.609  1.00  0.00    -0.354 N 
ATOM     40  C   UNL     1     -12.058   7.376  -7.374  1.00  0.00     0.074 A 
ATOM     41  C   UNL     1     -10.860   6.870  -8.008  1.00  0.00     0.031 C 
ATOM     42  C   UNL     1     -13.792   2.529  -3.522  1.00  0.00     0.029 A 
ATOM     43  C   UNL     1     -14.457   3.819  -3.681  1.00  0.00     0.049 A 
ATOM     44  H   UNL     1     -13.885   5.394  -4.918  1.00  0.00     0.167 HD
ATOM     45  C   UNL     1     -12.612   8.584  -7.642  1.00  0.00     0.034 A 
ATOM     46  C   UNL     1     -15.572   4.203  -3.029  1.00  0.00     0.034 A 
ATOM     47  C   UNL     1     -13.810   9.074  -7.009  1.00  0.00     0.049 A 
ATOM     48  C   UNL     1     -16.139   5.571  -3.290  1.00  0.00     0.074 A 
ATOM     49  C   UNL     1     -14.470  10.271  -7.224  1.00  0.00     0.029 A 
ATOM     50  N   UNL     1     -14.529   8.393  -6.035  1.00  0.00    -0.354 N 
ATOM     51  N   UNL     1     -15.700   6.500  -4.106  1.00  0.00    -0.248 NA
ATOM     52  C   UNL     1     -17.345   5.945  -2.541  1.00  0.00     0.031 C 
ATOM     53  C   UNL     1     -15.548  10.342  -6.336  1.00  0.00     0.029 A 
ATOM     54  C   UNL     1     -15.608   9.157  -5.619  1.00  0.00     0.049 A 
ATOM     55  H   UNL     1     -14.305   7.498  -5.690  1.00  0.00     0.167 HD
ATOM     56  C   UNL     1     -16.591   7.562  -3.988  1.00  0.00     0.074 A 
ATOM     57  C   UNL     1     -17.591   7.159  -3.018  1.00  0.00     0.031 C 
ATOM     58  C   UNL     1     -16.586   8.754  -4.635  1.00  0.00     0.034 A 
BRANCH  45  59
ATOM     59  C   UNL     1     -11.913   9.454  -8.658  1.00  0.00     0.023 A 
ATOM     60  C   UNL     1     -11.784   9.052  -9.999  1.00  0.00     0.031 A 
ATOM     61  C   UNL     1     -11.346  10.684  -8.283  1.00  0.00     0.131 A 
ATOM     62  C   UNL     1     -11.040   9.832 -10.897  1.00  0.00     0.055 A 
ATOM     63  C   UNL     1     -10.677  11.496  -9.202  1.00  0.00     0.041 A 
ATOM     64  F   UNL     1     -11.420  11.113  -7.013  1.00  0.00    -0.206 F 
ATOM     65  C   UNL     1     -10.508  11.064 -10.514  1.00  0.00     0.022 A 
BRANCH  62  66
ATOM     66  S   UNL     1     -10.669   9.147 -12.534  1.00  0.00     0.124 S 
ATOM     67  O   UNL     1      -9.896   7.957 -12.186  1.00  0.00    -0.237 OA
ATOM     68  O   UNL     1     -11.997   8.908 -13.086  1.00  0.00    -0.237 OA
ATOM     69  O   UNL     1      -9.905  10.210 -13.184  1.00  0.00    -0.744 OA
ENDBRANCH  62  66
ENDBRANCH  45  59
BRANCH  46  70
ATOM     70  C   UNL     1     -16.232   3.255  -2.092  1.00  0.00     0.023 A 
ATOM     71  C   UNL     1     -17.439   2.630  -2.443  1.00  0.00     0.031 A 
ATOM     72  C   UNL     1     -15.636   2.910  -0.866  1.00  0.00     0.131 A 
ATOM     73  C   UNL     1     -18.014   1.688  -1.575  1.00  0.00     0.055 A 
ATOM     74  C   UNL     1     -16.196   1.951  -0.021  1.00  0.00     0.041 A 
ATOM     75  F   UNL     1     -14.473   3.470  -0.497  1.00  0.00    -0.206 F 
ATOM     76  C   UNL     1     -17.393   1.334  -0.375  1.00  0.00     0.022 A 
BRANCH  73  77
ATOM     77  S   UNL     1     -19.586   0.917  -2.045  1.00  0.00     0.124 S 
ATOM     78  O   UNL     1     -20.500   2.052  -1.994  1.00  0.00    -0.237 OA
ATOM     79  O   UNL     1     -19.286   0.391  -3.372  1.00  0.00    -0.237 OA
ATOM     80  O   UNL     1     -19.789  -0.096  -1.010  1.00  0.00    -0.744 OA
ENDBRANCH  73  77
ENDBRANCH  46  70
BRANCH  58  81
ATOM     81  C   UNL     1     -17.712   9.711  -4.342  1.00  0.00     0.023 A 
ATOM     82  C   UNL     1     -17.800  10.392  -3.116  1.00  0.00     0.031 A 
ATOM     83  C   UNL     1     -18.672   9.992  -5.330  1.00  0.00     0.131 A 
ATOM     84  C   UNL     1     -18.842  11.307  -2.902  1.00  0.00     0.055 A 
ATOM     85  C   UNL     1     -19.677  10.938  -5.129  1.00  0.00     0.041 A 
ATOM     86  F   UNL     1     -18.629   9.370  -6.519  1.00  0.00    -0.206 F 
ATOM     87  C   UNL     1     -19.768  11.599  -3.908  1.00  0.00     0.022 A 
BRANCH  84  88
ATOM     88  S   UNL     1     -18.991  12.095  -1.276  1.00  0.00     0.124 S 
ATOM     89  O   UNL     1     -19.276  10.953  -0.412  1.00  0.00    -0.237 OA
ATOM     90  O   UNL     1     -17.681  12.714  -1.103  1.00  0.00    -0.237 OA
ATOM     91  O   UNL     1     -20.099  13.033  -1.449  1.00  0.00    -0.744 OA
ENDBRANCH  84  88
ENDBRANCH  58  81
ENDBRANCH  32  33
ENDBRANCH  24  27
ENDBRANCH   1  23
TORSDOF 14
