REMARK SMILES COC[C@H]1CC[N@@H+]([C@H]2CCC[C@]([NH2+]C(C)C)(C(=O)NCCCNC(=O)c3ccc(-c4c5nc(c(-c6cc(S(=O)(=O)[O-])ccc6F)c6ccc([nH]6)c(-c6cc(S(=O)(=O)[O-])ccc6F)c6nc(c(-c7cc(S(=O)(=O)[O-])ccc7F)c7ccc4[nH]7)C=C6)C=C5)cc3)C2)C1
REMARK SMILES IDX 21 1 20 2 19 3 17 4 18 5 12 7 8 8 9 9 89 10 10 11 11 12 7 13
REMARK SMILES IDX 4 14 5 15 90 16 6 17 3 19 2 20 1 21 13 22 14 25 15 26 16 27
REMARK SMILES IDX 22 28 23 29 24 30 25 32 26 33 27 34 88 35 28 36 87 37 29 38
REMARK SMILES IDX 30 39 31 40 81 41 32 42 86 43 80 44 82 45 33 46 85 47 79 48
REMARK SMILES IDX 78 49 34 51 66 52 46 53 65 54 47 55 50 56 64 57 83 58 48 59
REMARK SMILES IDX 49 60 63 62 84 63 51 64 35 65 36 66 44 67 37 68 43 69 45 70
REMARK SMILES IDX 42 71 38 72 39 73 40 74 41 75 67 76 68 77 76 78 69 79 75 80
REMARK SMILES IDX 77 81 74 82 70 83 71 84 72 85 73 86 52 87 53 88 61 89 54 90
REMARK SMILES IDX 60 91 62 92 59 93 55 94 56 95 57 96 58 97
REMARK H PARENT 19 6 7 18 13 23 13 24 23 31 82 50 50 61
REMARK Flexibility Score: inf
ROOT
ATOM      1  C   UNL     1      -0.624  -8.459   1.716  1.00  0.00     0.042 C 
ENDROOT
BRANCH   1   2
ATOM      2  C   UNL     1       0.549  -9.072   0.953  1.00  0.00     0.118 C 
BRANCH   2   3
ATOM      3  N   UNL     1       0.077  -9.786  -0.210  1.00  0.00    -0.351 N 
ATOM      4  C   UNL     1      -0.305  -9.395  -1.446  1.00  0.00     0.281 C 
ATOM      5  O   UNL     1      -0.985 -10.248  -2.040  1.00  0.00    -0.268 OA
ATOM      6  H   UNL     1       0.022 -10.760  -0.074  1.00  0.00     0.163 HD
BRANCH   4   7
ATOM      7  C   UNL     1       0.077  -8.041  -2.158  1.00  0.00     0.181 C 
ATOM      8  C   UNL     1       0.712  -5.474  -1.879  1.00  0.00     0.190 C 
ATOM      9  C   UNL     1      -0.772  -5.097  -1.898  1.00  0.00     0.065 C 
ATOM     10  C   UNL     1       0.780  -6.935  -1.340  1.00  0.00     0.144 C 
ATOM     11  C   UNL     1      -1.601  -6.008  -2.778  1.00  0.00     0.013 C 
ATOM     12  C   UNL     1      -1.328  -7.512  -2.633  1.00  0.00     0.079 C 
BRANCH   8  13
ATOM     13  N   UNL     1       1.551  -5.096  -3.045  1.00  0.00    -0.332 N 
ATOM     14  C   UNL     1       0.884  -4.479  -5.329  1.00  0.00     0.076 C 
ATOM     15  C   UNL     1       0.738  -3.293  -4.390  1.00  0.00     0.073 C 
ATOM     16  C   UNL     1       1.236  -5.630  -4.380  1.00  0.00     0.268 C 
ATOM     17  C   UNL     1       1.660  -3.639  -3.231  1.00  0.00     0.263 C 
ATOM     18  H   UNL     1       2.412  -5.550  -2.741  1.00  0.00     0.348 HD
BRANCH  14  19
ATOM     19  C   UNL     1      -0.379  -4.770  -6.154  1.00  0.00     0.169 C 
BRANCH  19  20
ATOM     20  O   UNL     1      -0.060  -5.094  -7.509  1.00  0.00    -0.384 OA
ATOM     21  C   UNL     1      -0.002  -3.946  -8.340  1.00  0.00     0.194 C 
ENDBRANCH  19  20
ENDBRANCH  14  19
ENDBRANCH   8  13
BRANCH   7  22
ATOM     22  N   UNL     1       0.995  -8.308  -3.305  1.00  0.00    -0.331 N 
ATOM     23  H   UNL     1       1.857  -7.804  -3.096  1.00  0.00     0.347 HD
ATOM     24  H   UNL     1       0.415  -8.027  -4.096  1.00  0.00     0.347 HD
BRANCH  22  25
ATOM     25  C   UNL     1       1.403  -9.651  -3.709  1.00  0.00     0.176 C 
ATOM     26  C   UNL     1       2.099  -9.487  -5.070  1.00  0.00     0.075 C 
ATOM     27  C   UNL     1       2.404 -10.303  -2.750  1.00  0.00     0.075 C 
ENDBRANCH  22  25
ENDBRANCH   7  22
ENDBRANCH   4   7
ENDBRANCH   2   3
ENDBRANCH   1   2
BRANCH   1  28
ATOM     28  C   UNL     1      -1.557  -9.513   2.314  1.00  0.00     0.118 C 
BRANCH  28  29
ATOM     29  N   UNL     1      -0.865 -10.346   3.288  1.00  0.00    -0.352 N 
ATOM     30  C   UNL     1      -1.032 -10.416   4.648  1.00  0.00     0.251 C 
ATOM     31  H   UNL     1      -0.178 -10.946   2.917  1.00  0.00     0.163 HD
ATOM     32  O   UNL     1      -0.153 -10.913   5.343  1.00  0.00    -0.269 OA
BRANCH  30  33
ATOM     33  C   UNL     1      -2.270  -9.892   5.259  1.00  0.00     0.039 A 
ATOM     34  C   UNL     1      -2.188  -9.145   6.436  1.00  0.00     0.014 A 
ATOM     35  C   UNL     1      -3.512 -10.163   4.676  1.00  0.00     0.014 A 
ATOM     36  C   UNL     1      -3.352  -8.614   6.995  1.00  0.00     0.010 A 
ATOM     37  C   UNL     1      -4.661  -9.578   5.196  1.00  0.00     0.010 A 
ATOM     38  C   UNL     1      -4.591  -8.796   6.359  1.00  0.00    -0.014 A 
BRANCH  38  39
ATOM     39  C   UNL     1      -5.826  -8.158   6.877  1.00  0.00     0.031 A 
ATOM     40  C   UNL     1      -6.961  -9.007   7.376  1.00  0.00     0.074 A 
ATOM     41  C   UNL     1      -5.948  -6.818   6.815  1.00  0.00     0.049 A 
ATOM     42  N   UNL     1      -8.154  -8.645   7.769  1.00  0.00    -0.248 NA
ATOM     43  C   UNL     1      -6.731 -10.460   7.408  1.00  0.00     0.031 C 
ATOM     44  C   UNL     1      -4.923  -5.900   6.312  1.00  0.00     0.029 A 
ATOM     45  N   UNL     1      -6.988  -5.993   7.161  1.00  0.00    -0.354 N 
ATOM     46  C   UNL     1      -8.823  -9.822   8.086  1.00  0.00     0.074 A 
ATOM     47  C   UNL     1      -7.919 -10.912   7.784  1.00  0.00     0.031 C 
ATOM     48  C   UNL     1      -5.379  -4.641   6.397  1.00  0.00     0.029 A 
ATOM     49  C   UNL     1      -6.744  -4.663   6.911  1.00  0.00     0.049 A 
ATOM     50  H   UNL     1      -7.830  -6.323   7.551  1.00  0.00     0.167 HD
ATOM     51  C   UNL     1     -10.069  -9.975   8.601  1.00  0.00     0.034 A 
ATOM     52  C   UNL     1      -7.539  -3.585   7.058  1.00  0.00     0.034 A 
ATOM     53  C   UNL     1     -10.950  -8.871   8.898  1.00  0.00     0.049 A 
ATOM     54  C   UNL     1      -8.934  -3.784   7.592  1.00  0.00     0.074 A 
ATOM     55  C   UNL     1     -12.204  -8.903   9.481  1.00  0.00     0.029 A 
ATOM     56  N   UNL     1     -10.675  -7.537   8.622  1.00  0.00    -0.354 N 
ATOM     57  N   UNL     1      -9.532  -4.900   7.944  1.00  0.00    -0.248 NA
ATOM     58  C   UNL     1      -9.760  -2.581   7.752  1.00  0.00     0.031 C 
ATOM     59  C   UNL     1     -12.716  -7.600   9.491  1.00  0.00     0.029 A 
ATOM     60  C   UNL     1     -11.752  -6.743   8.985  1.00  0.00     0.049 A 
ATOM     61  H   UNL     1      -9.836  -7.205   8.227  1.00  0.00     0.167 HD
ATOM     62  C   UNL     1     -10.797  -4.528   8.387  1.00  0.00     0.074 A 
ATOM     63  C   UNL     1     -10.867  -3.085   8.277  1.00  0.00     0.031 C 
ATOM     64  C   UNL     1     -11.811  -5.306   8.845  1.00  0.00     0.034 A 
BRANCH  51  65
ATOM     65  C   UNL     1     -10.554 -11.384   8.845  1.00  0.00     0.023 A 
ATOM     66  C   UNL     1      -9.916 -12.237   9.763  1.00  0.00     0.031 A 
ATOM     67  C   UNL     1     -11.657 -11.891   8.135  1.00  0.00     0.131 A 
ATOM     68  C   UNL     1     -10.337 -13.569   9.893  1.00  0.00     0.055 A 
ATOM     69  C   UNL     1     -12.122 -13.194   8.328  1.00  0.00     0.041 A 
ATOM     70  F   UNL     1     -12.295 -11.133   7.230  1.00  0.00    -0.206 F 
ATOM     71  C   UNL     1     -11.452 -14.046   9.201  1.00  0.00     0.022 A 
BRANCH  68  72
ATOM     72  S   UNL     1      -9.321 -14.706  10.875  1.00  0.00     0.124 S 
ATOM     73  O   UNL     1      -8.036 -14.624  10.184  1.00  0.00    -0.237 OA
ATOM     74  O   UNL     1      -9.371 -14.108  12.203  1.00  0.00    -0.237 OA
ATOM     75  O   UNL     1     -10.012 -15.987  10.740  1.00  0.00    -0.744 OA
ENDBRANCH  68  72
ENDBRANCH  51  65
BRANCH  52  76
ATOM     76  C   UNL     1      -7.052  -2.229   6.676  1.00  0.00     0.023 A 
ATOM     77  C   UNL     1      -6.896  -1.220   7.640  1.00  0.00     0.031 A 
ATOM     78  C   UNL     1      -6.766  -1.911   5.336  1.00  0.00     0.131 A 
ATOM     79  C   UNL     1      -6.510   0.070   7.245  1.00  0.00     0.055 A 
ATOM     80  C   UNL     1      -6.331  -0.640   4.956  1.00  0.00     0.041 A 
ATOM     81  F   UNL     1      -6.892  -2.840   4.375  1.00  0.00    -0.206 F 
ATOM     82  C   UNL     1      -6.213   0.363   5.912  1.00  0.00     0.022 A 
BRANCH  79  83
ATOM     83  S   UNL     1      -6.481   1.386   8.493  1.00  0.00     0.124 S 
ATOM     84  O   UNL     1      -7.855   1.363   8.981  1.00  0.00    -0.237 OA
ATOM     85  O   UNL     1      -5.462   0.903   9.418  1.00  0.00    -0.237 OA
ATOM     86  O   UNL     1      -6.111   2.573   7.725  1.00  0.00    -0.744 OA
ENDBRANCH  79  83
ENDBRANCH  52  76
BRANCH  64  87
ATOM     87  C   UNL     1     -13.069  -4.599   9.281  1.00  0.00     0.023 A 
ATOM     88  C   UNL     1     -13.897  -3.936   8.359  1.00  0.00     0.031 A 
ATOM     89  C   UNL     1     -13.439  -4.580  10.638  1.00  0.00     0.131 A 
ATOM     90  C   UNL     1     -15.027  -3.237   8.812  1.00  0.00     0.055 A 
ATOM     91  C   UNL     1     -14.597  -3.935  11.074  1.00  0.00     0.041 A 
ATOM     92  F   UNL     1     -12.682  -5.194  11.561  1.00  0.00    -0.206 F 
ATOM     93  C   UNL     1     -15.392  -3.248  10.161  1.00  0.00     0.022 A 
BRANCH  90  94
ATOM     94  S   UNL     1     -15.968  -2.242   7.624  1.00  0.00     0.124 S 
ATOM     95  O   UNL     1     -14.962  -1.291   7.161  1.00  0.00    -0.237 OA
ATOM     96  O   UNL     1     -16.398  -3.240   6.649  1.00  0.00    -0.237 OA
ATOM     97  O   UNL     1     -17.041  -1.666   8.433  1.00  0.00    -0.744 OA
ENDBRANCH  90  94
ENDBRANCH  64  87
ENDBRANCH  38  39
ENDBRANCH  30  33
ENDBRANCH  28  29
ENDBRANCH   1  28
TORSDOF 18
