REMARK SMILES CC(C)[NH+]1CCC(NC(=O)OC(C)(C)C)(C(=O)NCCCNC(=O)c2ccc(-c3c4nc(c(-c5cc(S(=O)(=O)[O-])ccc5F)c5ccc([nH]5)c(-c5cc(S(=O)(=O)[O-])ccc5F)c5nc(c(-c6cc(S(=O)(=O)[O-])ccc6F)c6ccc3[nH]6)C=C5)C=C4)cc2)CC1
REMARK SMILES IDX 20 1 19 2 18 3 16 4 17 5 7 7 4 8 5 9 89 10 6 12 88 13 2 14
REMARK SMILES IDX 1 15 3 16 8 17 9 18 10 20 11 21 12 22 13 23 14 24 15 25
REMARK SMILES IDX 21 26 22 27 23 28 24 30 25 31 26 32 87 33 27 34 86 35 28 36
REMARK SMILES IDX 29 37 30 38 80 39 31 40 85 41 79 42 81 43 32 44 84 45 78 46
REMARK SMILES IDX 77 47 33 49 65 50 45 51 64 52 46 53 49 54 63 55 82 56 47 57
REMARK SMILES IDX 48 58 62 60 83 61 50 62 34 63 35 64 43 65 36 66 42 67 44 68
REMARK SMILES IDX 41 69 37 70 38 71 39 72 40 73 66 74 67 75 75 76 68 77 74 78
REMARK SMILES IDX 76 79 73 80 69 81 70 82 71 83 72 84 51 85 52 86 60 87 53 88
REMARK SMILES IDX 59 89 61 90 58 91 54 92 55 93 56 94 57 95
REMARK H PARENT 18 6 4 11 8 19 22 29 81 48 49 59
REMARK Flexibility Score: inf
ROOT
ATOM      1  C   UNL     1      -3.685   5.242  -2.840  1.00  0.00     0.042 C 
ENDROOT
BRANCH   1   2
ATOM      2  C   UNL     1      -4.306   3.877  -2.661  1.00  0.00     0.117 C 
BRANCH   2   3
ATOM      3  N   UNL     1      -3.392   2.831  -3.063  1.00  0.00    -0.354 N 
ATOM      4  C   UNL     1      -3.137   1.636  -2.470  1.00  0.00     0.246 C 
ATOM      5  O   UNL     1      -2.533   0.805  -3.155  1.00  0.00    -0.272 OA
ATOM      6  H   UNL     1      -2.881   3.011  -3.885  1.00  0.00     0.163 HD
BRANCH   4   7
ATOM      7  C   UNL     1      -3.589   1.351  -1.006  1.00  0.00     0.132 C 
ATOM      8  N   UNL     1      -0.880   1.158   0.249  1.00  0.00    -0.333 N 
ATOM      9  C   UNL     1      -1.486   2.446  -0.097  1.00  0.00     0.265 C 
ATOM     10  C   UNL     1      -1.448   0.030  -0.503  1.00  0.00     0.265 C 
ATOM     11  H   UNL     1      -1.140   0.949   1.213  1.00  0.00     0.348 HD
ATOM     12  C   UNL     1      -3.006   2.401  -0.027  1.00  0.00     0.100 C 
ATOM     13  C   UNL     1      -2.994   0.006  -0.545  1.00  0.00     0.100 C 
BRANCH   8  14
ATOM     14  C   UNL     1       0.609   1.232   0.261  1.00  0.00     0.177 C 
ATOM     15  C   UNL     1       1.314  -0.133   0.263  1.00  0.00     0.075 C 
ATOM     16  C   UNL     1       1.250   2.103  -0.838  1.00  0.00     0.075 C 
ENDBRANCH   8  14
BRANCH   7  17
ATOM     17  N   UNL     1      -5.075   1.345  -0.864  1.00  0.00    -0.306 N 
ATOM     18  C   UNL     1      -6.069   1.112  -1.778  1.00  0.00     0.408 C 
ATOM     19  H   UNL     1      -5.398   1.543   0.045  1.00  0.00     0.168 HD
ATOM     20  O   UNL     1      -7.233   0.997  -1.409  1.00  0.00    -0.225 OA
BRANCH  18  21
ATOM     21  O   UNL     1      -5.662   1.131  -3.063  1.00  0.00    -0.444 OA
BRANCH  21  22
ATOM     22  C   UNL     1      -6.580   1.163  -4.194  1.00  0.00     0.106 C 
ATOM     23  C   UNL     1      -7.372  -0.140  -4.293  1.00  0.00     0.056 C 
ATOM     24  C   UNL     1      -7.523   2.376  -4.170  1.00  0.00     0.056 C 
ATOM     25  C   UNL     1      -5.672   1.289  -5.432  1.00  0.00     0.056 C 
ENDBRANCH  21  22
ENDBRANCH  18  21
ENDBRANCH   7  17
ENDBRANCH   4   7
ENDBRANCH   2   3
ENDBRANCH   1   2
BRANCH   1  26
ATOM     26  C   UNL     1      -3.410   5.553  -4.303  1.00  0.00     0.118 C 
BRANCH  26  27
ATOM     27  N   UNL     1      -4.629   5.583  -5.105  1.00  0.00    -0.352 N 
ATOM     28  C   UNL     1      -5.164   6.623  -5.825  1.00  0.00     0.251 C 
ATOM     29  H   UNL     1      -5.139   4.741  -5.134  1.00  0.00     0.163 HD
ATOM     30  O   UNL     1      -6.309   6.550  -6.257  1.00  0.00    -0.269 OA
BRANCH  28  31
ATOM     31  C   UNL     1      -4.341   7.827  -6.041  1.00  0.00     0.039 A 
ATOM     32  C   UNL     1      -4.898   9.086  -5.828  1.00  0.00     0.014 A 
ATOM     33  C   UNL     1      -2.994   7.692  -6.391  1.00  0.00     0.014 A 
ATOM     34  C   UNL     1      -4.077  10.212  -5.891  1.00  0.00     0.010 A 
ATOM     35  C   UNL     1      -2.160   8.799  -6.339  1.00  0.00     0.010 A 
ATOM     36  C   UNL     1      -2.694  10.072  -6.099  1.00  0.00    -0.014 A 
BRANCH  36  37
ATOM     37  C   UNL     1      -1.786  11.246  -6.089  1.00  0.00     0.031 A 
ATOM     38  C   UNL     1      -0.986  11.576  -7.320  1.00  0.00     0.074 A 
ATOM     39  C   UNL     1      -1.637  11.967  -4.960  1.00  0.00     0.049 A 
ATOM     40  N   UNL     1      -0.078  12.500  -7.492  1.00  0.00    -0.248 NA
ATOM     41  C   UNL     1      -1.214  10.731  -8.505  1.00  0.00     0.031 C 
ATOM     42  C   UNL     1      -2.330  11.711  -3.694  1.00  0.00     0.029 A 
ATOM     43  N   UNL     1      -0.854  13.060  -4.691  1.00  0.00    -0.354 N 
ATOM     44  C   UNL     1       0.378  12.343  -8.797  1.00  0.00     0.074 A 
ATOM     45  C   UNL     1      -0.297  11.187  -9.344  1.00  0.00     0.031 C 
ATOM     46  C   UNL     1      -1.967  12.642  -2.797  1.00  0.00     0.029 A 
ATOM     47  C   UNL     1      -0.975  13.525  -3.401  1.00  0.00     0.049 A 
ATOM     48  H   UNL     1      -0.259  13.474  -5.358  1.00  0.00     0.167 HD
ATOM     49  C   UNL     1       1.256  13.112  -9.485  1.00  0.00     0.034 A 
ATOM     50  C   UNL     1      -0.345  14.539  -2.773  1.00  0.00     0.034 A 
ATOM     51  C   UNL     1       1.908  14.269  -8.925  1.00  0.00     0.049 A 
ATOM     52  C   UNL     1       0.659  15.355  -3.551  1.00  0.00     0.074 A 
ATOM     53  C   UNL     1       2.780  15.147  -9.544  1.00  0.00     0.029 A 
ATOM     54  N   UNL     1       1.766  14.707  -7.615  1.00  0.00    -0.354 N 
ATOM     55  N   UNL     1       1.040  15.224  -4.801  1.00  0.00    -0.248 NA
ATOM     56  C   UNL     1       1.308  16.462  -2.837  1.00  0.00     0.031 C 
ATOM     57  C   UNL     1       3.224  16.067  -8.589  1.00  0.00     0.029 A 
ATOM     58  C   UNL     1       2.560  15.821  -7.398  1.00  0.00     0.049 A 
ATOM     59  H   UNL     1       1.186  14.287  -6.939  1.00  0.00     0.167 HD
ATOM     60  C   UNL     1       1.946  16.256  -5.031  1.00  0.00     0.074 A 
ATOM     61  C   UNL     1       2.037  17.009  -3.798  1.00  0.00     0.031 C 
ATOM     62  C   UNL     1       2.640  16.558  -6.159  1.00  0.00     0.034 A 
BRANCH  49  63
ATOM     63  C   UNL     1       1.569  12.714 -10.906  1.00  0.00     0.023 A 
ATOM     64  C   UNL     1       0.579  12.699 -11.905  1.00  0.00     0.031 A 
ATOM     65  C   UNL     1       2.874  12.335 -11.269  1.00  0.00     0.131 A 
ATOM     66  C   UNL     1       0.892  12.252 -13.197  1.00  0.00     0.055 A 
ATOM     67  C   UNL     1       3.198  11.972 -12.578  1.00  0.00     0.041 A 
ATOM     68  F   UNL     1       3.856  12.303 -10.355  1.00  0.00    -0.206 F 
ATOM     69  C   UNL     1       2.201  11.916 -13.548  1.00  0.00     0.022 A 
BRANCH  66  70
ATOM     70  S   UNL     1      -0.462  11.985 -14.372  1.00  0.00     0.124 S 
ATOM     71  O   UNL     1      -1.272  10.993 -13.668  1.00  0.00    -0.237 OA
ATOM     72  O   UNL     1      -1.044  13.316 -14.491  1.00  0.00    -0.237 OA
ATOM     73  O   UNL     1       0.215  11.490 -15.569  1.00  0.00    -0.744 OA
ENDBRANCH  66  70
ENDBRANCH  49  63
BRANCH  50  74
ATOM     74  C   UNL     1      -0.622  14.840  -1.337  1.00  0.00     0.023 A 
ATOM     75  C   UNL     1      -1.139  16.085  -0.946  1.00  0.00     0.031 A 
ATOM     76  C   UNL     1      -0.308  13.913  -0.327  1.00  0.00     0.131 A 
ATOM     77  C   UNL     1      -1.262  16.396   0.417  1.00  0.00     0.055 A 
ATOM     78  C   UNL     1      -0.497  14.202   1.026  1.00  0.00     0.041 A 
ATOM     79  F   UNL     1       0.188  12.706  -0.641  1.00  0.00    -0.206 F 
ATOM     80  C   UNL     1      -0.960  15.458   1.405  1.00  0.00     0.022 A 
BRANCH  77  81
ATOM     81  S   UNL     1      -1.703  18.094   0.881  1.00  0.00     0.124 S 
ATOM     82  O   UNL     1      -0.660  18.863   0.212  1.00  0.00    -0.237 OA
ATOM     83  O   UNL     1      -3.048  18.218   0.329  1.00  0.00    -0.237 OA
ATOM     84  O   UNL     1      -1.629  18.076   2.341  1.00  0.00    -0.744 OA
ENDBRANCH  77  81
ENDBRANCH  50  74
BRANCH  62  85
ATOM     85  C   UNL     1       3.515  17.788  -6.120  1.00  0.00     0.023 A 
ATOM     86  C   UNL     1       4.641  17.872  -5.283  1.00  0.00     0.031 A 
ATOM     87  C   UNL     1       3.209  18.897  -6.930  1.00  0.00     0.131 A 
ATOM     88  C   UNL     1       5.383  19.061  -5.229  1.00  0.00     0.055 A 
ATOM     89  C   UNL     1       3.994  20.050  -6.926  1.00  0.00     0.041 A 
ATOM     90  F   UNL     1       2.143  18.874  -7.746  1.00  0.00    -0.206 F 
ATOM     91  C   UNL     1       5.080  20.142  -6.060  1.00  0.00     0.022 A 
BRANCH  88  92
ATOM     92  S   UNL     1       6.689  19.214  -3.980  1.00  0.00     0.124 S 
ATOM     93  O   UNL     1       5.950  18.992  -2.741  1.00  0.00    -0.237 OA
ATOM     94  O   UNL     1       7.616  18.155  -4.366  1.00  0.00    -0.237 OA
ATOM     95  O   UNL     1       7.188  20.574  -4.171  1.00  0.00    -0.744 OA
ENDBRANCH  88  92
ENDBRANCH  62  85
ENDBRANCH  36  37
ENDBRANCH  28  31
ENDBRANCH  26  27
ENDBRANCH   1  26
TORSDOF 17
