REMARK SMILES CC[C@@H]1CCC[C@](CCCCCO)(C(=O)NCCCNC(=O)c2ccc(-c3c4nc(c(-c5cc(S(=O)(=O)[O-])ccc5F)c5ccc([nH]5)c(-c5cc(S(=O)(=O)[O-])ccc5F)c5nc(c(-c6cc(S(=O)(=O)[O-])ccc6F)c6ccc3[nH]6)C=C5)C=C4)cc2)C1
REMARK SMILES IDX 14 1 15 2 16 3 7 5 3 6 4 7 86 8 5 9 6 10 2 11 1 12 8 13 9 14
REMARK SMILES IDX 10 15 11 16 12 17 13 18 17 20 18 21 19 22 20 23 21 24 22 26
REMARK SMILES IDX 23 27 24 28 85 29 25 30 84 31 26 32 27 33 28 34 78 35 29 36
REMARK SMILES IDX 83 37 77 38 79 39 30 40 82 41 76 42 75 43 31 45 63 46 43 47
REMARK SMILES IDX 62 48 44 49 47 50 61 51 80 52 45 53 46 54 60 56 81 57 48 58
REMARK SMILES IDX 32 59 33 60 41 61 34 62 40 63 42 64 39 65 35 66 36 67 37 68
REMARK SMILES IDX 38 69 64 70 65 71 73 72 66 73 72 74 74 75 71 76 67 77 68 78
REMARK SMILES IDX 69 79 70 80 49 81 50 82 58 83 51 84 57 85 59 86 56 87 52 88
REMARK SMILES IDX 53 89 54 90 55 91
REMARK H PARENT 16 4 13 19 20 25 79 44 47 55
REMARK Flexibility Score: inf
ROOT
ATOM      1  C   UNL     1       4.325  -2.485  -2.340  1.00  0.00     0.226 C 
ATOM      2  O   UNL     1       4.847  -3.558  -2.014  1.00  0.00    -0.274 OA
ATOM      3  N   UNL     1       5.136  -1.395  -2.252  1.00  0.00    -0.356 N 
ATOM      4  H   UNL     1       5.921  -1.528  -1.672  1.00  0.00     0.163 HD
ENDROOT
BRANCH   1   5
ATOM      5  C   UNL     1       2.853  -2.428  -2.831  1.00  0.00     0.049 C 
ATOM      6  C   UNL     1       0.596  -1.224  -2.162  1.00  0.00    -0.010 C 
ATOM      7  C   UNL     1       0.048  -2.530  -1.593  1.00  0.00     0.003 C 
ATOM      8  C   UNL     1       2.130  -1.205  -2.206  1.00  0.00     0.020 C 
ATOM      9  C   UNL     1       0.646  -3.727  -2.314  1.00  0.00     0.001 C 
ATOM     10  C   UNL     1       2.170  -3.710  -2.223  1.00  0.00     0.017 C 
BRANCH   6  11
ATOM     11  C   UNL     1       0.042   0.015  -1.415  1.00  0.00     0.000 C 
ATOM     12  C   UNL     1       0.516   0.198   0.024  1.00  0.00     0.004 C 
ENDBRANCH   6  11
BRANCH   5  13
ATOM     13  C   UNL     1       2.745  -2.563  -4.388  1.00  0.00     0.017 C 
BRANCH  13  14
ATOM     14  C   UNL     1       3.472  -1.593  -5.333  1.00  0.00     0.001 C 
BRANCH  14  15
ATOM     15  C   UNL     1       4.970  -1.861  -5.554  1.00  0.00     0.002 C 
BRANCH  15  16
ATOM     16  C   UNL     1       5.330  -2.986  -6.523  1.00  0.00     0.028 C 
BRANCH  16  17
ATOM     17  C   UNL     1       5.198  -2.620  -7.996  1.00  0.00     0.156 C 
BRANCH  17  18
ATOM     18  O   UNL     1       6.121  -1.606  -8.365  1.00  0.00    -0.396 OA
ATOM     19  H   UNL     1       5.947  -0.805  -7.845  1.00  0.00     0.210 HD
ENDBRANCH  17  18
ENDBRANCH  16  17
ENDBRANCH  15  16
ENDBRANCH  14  15
ENDBRANCH  13  14
ENDBRANCH   5  13
ENDBRANCH   1   5
BRANCH   3  20
ATOM     20  C   UNL     1       5.066  -0.072  -2.851  1.00  0.00     0.117 C 
BRANCH  20  21
ATOM     21  C   UNL     1       5.616   1.024  -1.966  1.00  0.00     0.042 C 
BRANCH  21  22
ATOM     22  C   UNL     1       7.136   0.991  -1.895  1.00  0.00     0.118 C 
BRANCH  22  23
ATOM     23  N   UNL     1       7.770   1.162  -3.205  1.00  0.00    -0.352 N 
ATOM     24  C   UNL     1       8.441   2.236  -3.741  1.00  0.00     0.251 C 
ATOM     25  H   UNL     1       7.706   0.379  -3.798  1.00  0.00     0.163 HD
ATOM     26  O   UNL     1       8.684   2.266  -4.944  1.00  0.00    -0.269 OA
BRANCH  24  27
ATOM     27  C   UNL     1       8.837   3.355  -2.865  1.00  0.00     0.039 A 
ATOM     28  C   UNL     1       8.686   4.672  -3.302  1.00  0.00     0.014 A 
ATOM     29  C   UNL     1       9.322   3.090  -1.585  1.00  0.00     0.014 A 
ATOM     30  C   UNL     1       8.919   5.721  -2.409  1.00  0.00     0.010 A 
ATOM     31  C   UNL     1       9.422   4.120  -0.666  1.00  0.00     0.010 A 
ATOM     32  C   UNL     1       9.226   5.449  -1.066  1.00  0.00    -0.014 A 
BRANCH  32  33
ATOM     33  C   UNL     1       9.371   6.521  -0.047  1.00  0.00     0.031 A 
ATOM     34  C   UNL     1      10.655   6.623   0.734  1.00  0.00     0.074 A 
ATOM     35  C   UNL     1       8.320   7.309   0.254  1.00  0.00     0.049 A 
ATOM     36  N   UNL     1      10.923   7.329   1.801  1.00  0.00    -0.248 NA
ATOM     37  C   UNL     1      11.765   5.764   0.289  1.00  0.00     0.031 C 
ATOM     38  C   UNL     1       7.005   7.260  -0.392  1.00  0.00     0.029 A 
ATOM     39  N   UNL     1       8.184   8.297   1.197  1.00  0.00    -0.354 N 
ATOM     40  C   UNL     1      12.214   6.969   2.175  1.00  0.00     0.074 A 
ATOM     41  C   UNL     1      12.642   5.929   1.265  1.00  0.00     0.031 C 
ATOM     42  C   UNL     1       6.209   8.195   0.153  1.00  0.00     0.029 A 
ATOM     43  C   UNL     1       6.934   8.872   1.221  1.00  0.00     0.049 A 
ATOM     44  H   UNL     1       8.913   8.569   1.800  1.00  0.00     0.167 HD
ATOM     45  C   UNL     1      12.983   7.480   3.167  1.00  0.00     0.034 A 
ATOM     46  C   UNL     1       6.428   9.828   2.026  1.00  0.00     0.034 A 
ATOM     47  C   UNL     1      12.556   8.555   4.027  1.00  0.00     0.049 A 
ATOM     48  C   UNL     1       7.319  10.414   3.093  1.00  0.00     0.074 A 
ATOM     49  C   UNL     1      13.265   9.195   5.027  1.00  0.00     0.029 A 
ATOM     50  N   UNL     1      11.307   9.160   3.973  1.00  0.00    -0.354 N 
ATOM     51  N   UNL     1       8.549  10.084   3.414  1.00  0.00    -0.248 NA
ATOM     52  C   UNL     1       6.759  11.508   3.896  1.00  0.00     0.031 C 
ATOM     53  C   UNL     1      12.431  10.160   5.605  1.00  0.00     0.029 A 
ATOM     54  C   UNL     1      11.224  10.162   4.925  1.00  0.00     0.049 A 
ATOM     55  H   UNL     1      10.586   8.912   3.350  1.00  0.00     0.167 HD
ATOM     56  C   UNL     1       8.920  10.955   4.434  1.00  0.00     0.074 A 
ATOM     57  C   UNL     1       7.790  11.832   4.662  1.00  0.00     0.031 C 
ATOM     58  C   UNL     1      10.086  11.027   5.123  1.00  0.00     0.034 A 
BRANCH  45  59
ATOM     59  C   UNL     1      14.354   6.880   3.364  1.00  0.00     0.023 A 
ATOM     60  C   UNL     1      15.336   6.946   2.360  1.00  0.00     0.031 A 
ATOM     61  C   UNL     1      14.674   6.200   4.552  1.00  0.00     0.131 A 
ATOM     62  C   UNL     1      16.555   6.274   2.526  1.00  0.00     0.055 A 
ATOM     63  C   UNL     1      15.924   5.606   4.746  1.00  0.00     0.041 A 
ATOM     64  F   UNL     1      13.772   6.086   5.540  1.00  0.00    -0.206 F 
ATOM     65  C   UNL     1      16.867   5.627   3.723  1.00  0.00     0.022 A 
BRANCH  62  66
ATOM     66  S   UNL     1      17.668   6.141   1.101  1.00  0.00     0.124 S 
ATOM     67  O   UNL     1      16.852   5.371   0.164  1.00  0.00    -0.237 OA
ATOM     68  O   UNL     1      17.899   7.537   0.748  1.00  0.00    -0.237 OA
ATOM     69  O   UNL     1      18.828   5.432   1.637  1.00  0.00    -0.744 OA
ENDBRANCH  62  66
ENDBRANCH  45  59
BRANCH  46  70
ATOM     70  C   UNL     1       5.022  10.298   1.865  1.00  0.00     0.023 A 
ATOM     71  C   UNL     1       4.746  11.621   1.485  1.00  0.00     0.031 A 
ATOM     72  C   UNL     1       3.934   9.451   2.139  1.00  0.00     0.131 A 
ATOM     73  C   UNL     1       3.420  12.079   1.450  1.00  0.00     0.055 A 
ATOM     74  C   UNL     1       2.613   9.896   2.048  1.00  0.00     0.041 A 
ATOM     75  F   UNL     1       4.139   8.173   2.494  1.00  0.00    -0.206 F 
ATOM     76  C   UNL     1       2.351  11.222   1.718  1.00  0.00     0.022 A 
BRANCH  73  77
ATOM     77  S   UNL     1       3.120  13.842   1.151  1.00  0.00     0.124 S 
ATOM     78  O   UNL     1       3.931  14.463   2.191  1.00  0.00    -0.237 OA
ATOM     79  O   UNL     1       3.600  14.001  -0.218  1.00  0.00    -0.237 OA
ATOM     80  O   UNL     1       1.675  13.975   1.322  1.00  0.00    -0.744 OA
ENDBRANCH  73  77
ENDBRANCH  46  70
BRANCH  58  81
ATOM     81  C   UNL     1      10.208  12.130   6.142  1.00  0.00     0.023 A 
ATOM     82  C   UNL     1       9.454  12.126   7.327  1.00  0.00     0.031 A 
ATOM     83  C   UNL     1      11.087  13.203   5.914  1.00  0.00     0.131 A 
ATOM     84  C   UNL     1       9.554  13.204   8.218  1.00  0.00     0.055 A 
ATOM     85  C   UNL     1      11.223  14.245   6.831  1.00  0.00     0.041 A 
ATOM     86  F   UNL     1      11.830  13.252   4.796  1.00  0.00    -0.206 F 
ATOM     87  C   UNL     1      10.445  14.255   7.985  1.00  0.00     0.022 A 
BRANCH  84  88
ATOM     88  S   UNL     1       8.443  13.252   9.650  1.00  0.00     0.124 S 
ATOM     89  O   UNL     1       7.129  13.243   9.015  1.00  0.00    -0.237 OA
ATOM     90  O   UNL     1       8.811  12.038  10.372  1.00  0.00    -0.237 OA
ATOM     91  O   UNL     1       8.800  14.502  10.319  1.00  0.00    -0.744 OA
ENDBRANCH  84  88
ENDBRANCH  58  81
ENDBRANCH  32  33
ENDBRANCH  24  27
ENDBRANCH  22  23
ENDBRANCH  21  22
ENDBRANCH  20  21
ENDBRANCH   3  20
TORSDOF 20
