REMARK SMILES Cc1ccc(S(=O)(=O)N2CCN(C(=O)[C@H]3CCCC[C@@H]3C(=O)NCCCNC(=O)c3ccc(-c4c5nc(c(-c6cc(S(=O)(=O)[O-])ccc6F)c6ccc([nH]6)c(-c6cc(S(=O)(=O)[O-])ccc6F)c6nc(c(-c7cc(S(=O)(=O)[O-])ccc7F)c7ccc4[nH]7)C=C6)C=C5)cc3)CC2)cc1C
REMARK SMILES IDX 25 1 24 2 23 3 21 4 22 5 20 7 15 8 16 9 17 10 19 11 18 12
REMARK SMILES IDX 13 13 9 14 10 15 94 16 11 17 93 18 12 19 14 20 6 21 7 22
REMARK SMILES IDX 8 23 5 24 1 25 2 26 3 27 96 28 4 29 95 30 97 31 26 32 27 33
REMARK SMILES IDX 28 34 29 36 30 37 31 38 92 39 32 40 91 41 33 42 34 43 35 44
REMARK SMILES IDX 85 45 36 46 90 47 84 48 86 49 37 50 89 51 83 52 82 53 38 55
REMARK SMILES IDX 70 56 50 57 69 58 51 59 54 60 68 61 87 62 52 63 53 64 67 66
REMARK SMILES IDX 88 67 55 68 39 69 40 70 48 71 41 72 47 73 49 74 46 75 42 76
REMARK SMILES IDX 43 77 44 78 45 79 71 80 72 81 80 82 73 83 79 84 81 85 78 86
REMARK SMILES IDX 74 87 75 88 76 89 77 90 56 91 57 92 65 93 58 94 64 95 66 96
REMARK SMILES IDX 63 97 59 98 60 99 61 100 62 101
REMARK H PARENT 23 6 27 35 86 54 54 65
REMARK Flexibility Score: inf
ROOT
ATOM      1  C   UNL     1      -1.958   5.989  -3.458  1.00  0.00     0.042 C 
ENDROOT
BRANCH   1   2
ATOM      2  C   UNL     1      -3.362   5.798  -2.933  1.00  0.00     0.117 C 
BRANCH   2   3
ATOM      3  N   UNL     1      -3.613   4.473  -2.409  1.00  0.00    -0.356 N 
ATOM      4  C   UNL     1      -4.401   4.103  -1.368  1.00  0.00     0.223 C 
ATOM      5  O   UNL     1      -4.438   2.902  -1.090  1.00  0.00    -0.275 OA
ATOM      6  H   UNL     1      -3.147   3.739  -2.870  1.00  0.00     0.163 HD
BRANCH   4   7
ATOM      7  C   UNL     1      -5.133   5.159  -0.544  1.00  0.00     0.091 C 
ATOM      8  C   UNL     1      -6.030   4.463   0.532  1.00  0.00     0.091 C 
ATOM      9  C   UNL     1      -7.255   3.837  -0.179  1.00  0.00     0.014 C 
ATOM     10  C   UNL     1      -8.063   4.825  -1.004  1.00  0.00     0.001 C 
ATOM     11  C   UNL     1      -5.999   6.173  -1.332  1.00  0.00     0.014 C 
ATOM     12  C   UNL     1      -7.183   5.521  -2.023  1.00  0.00     0.001 C 
BRANCH   8  13
ATOM     13  C   UNL     1      -6.293   5.510   1.623  1.00  0.00     0.226 C 
ATOM     14  N   UNL     1      -9.492   5.357   4.402  1.00  0.00    -0.194 NA
ATOM     15  C   UNL     1      -9.104   6.624   3.757  1.00  0.00     0.124 C 
ATOM     16  C   UNL     1      -9.257   4.148   3.582  1.00  0.00     0.124 C 
ATOM     17  C   UNL     1      -7.651   6.566   3.306  1.00  0.00     0.136 C 
ATOM     18  C   UNL     1      -7.831   4.086   3.015  1.00  0.00     0.136 C 
ATOM     19  N   UNL     1      -7.347   5.372   2.499  1.00  0.00    -0.340 N 
ATOM     20  O   UNL     1      -5.546   6.490   1.737  1.00  0.00    -0.275 OA
BRANCH  14  21
ATOM     21  S   UNL     1      -9.881   5.291   6.030  1.00  0.00     0.243 S 
ATOM     22  O   UNL     1     -10.471   3.999   6.298  1.00  0.00    -0.207 OA
ATOM     23  O   UNL     1     -10.586   6.520   6.345  1.00  0.00    -0.207 OA
BRANCH  21  24
ATOM     24  C   UNL     1      -8.354   5.346   6.945  1.00  0.00     0.082 A 
ATOM     25  C   UNL     1      -4.663   5.397   9.191  1.00  0.00     0.044 C 
ATOM     26  C   UNL     1      -5.968   5.410   8.445  1.00  0.00    -0.048 A 
ATOM     27  C   UNL     1      -5.965   4.993   7.114  1.00  0.00     0.005 A 
ATOM     28  C   UNL     1      -7.187   5.804   9.035  1.00  0.00    -0.047 A 
ATOM     29  C   UNL     1      -7.149   4.956   6.386  1.00  0.00     0.022 A 
ATOM     30  C   UNL     1      -8.373   5.782   8.270  1.00  0.00     0.025 A 
ATOM     31  C   UNL     1      -7.289   6.245  10.467  1.00  0.00     0.044 C 
ENDBRANCH  21  24
ENDBRANCH  14  21
ENDBRANCH   8  13
ENDBRANCH   4   7
ENDBRANCH   2   3
ENDBRANCH   1   2
BRANCH   1  32
ATOM     32  C   UNL     1      -1.537   4.981  -4.507  1.00  0.00     0.118 C 
BRANCH  32  33
ATOM     33  N   UNL     1      -2.319   5.056  -5.731  1.00  0.00    -0.352 N 
ATOM     34  C   UNL     1      -1.932   5.413  -7.003  1.00  0.00     0.251 C 
ATOM     35  H   UNL     1      -3.269   4.816  -5.636  1.00  0.00     0.163 HD
ATOM     36  O   UNL     1      -2.785   5.565  -7.872  1.00  0.00    -0.269 OA
BRANCH  34  37
ATOM     37  C   UNL     1      -0.503   5.656  -7.302  1.00  0.00     0.039 A 
ATOM     38  C   UNL     1      -0.153   6.730  -8.122  1.00  0.00     0.014 A 
ATOM     39  C   UNL     1       0.495   4.848  -6.756  1.00  0.00     0.014 A 
ATOM     40  C   UNL     1       1.196   7.034  -8.324  1.00  0.00     0.010 A 
ATOM     41  C   UNL     1       1.827   5.235  -6.840  1.00  0.00     0.010 A 
ATOM     42  C   UNL     1       2.198   6.319  -7.646  1.00  0.00    -0.014 A 
BRANCH  42  43
ATOM     43  C   UNL     1       3.637   6.660  -7.803  1.00  0.00     0.031 A 
ATOM     44  C   UNL     1       4.601   5.628  -8.333  1.00  0.00     0.074 A 
ATOM     45  C   UNL     1       4.085   7.875  -7.427  1.00  0.00     0.049 A 
ATOM     46  N   UNL     1       5.896   5.713  -8.501  1.00  0.00    -0.248 NA
ATOM     47  C   UNL     1       4.040   4.314  -8.685  1.00  0.00     0.031 C 
ATOM     48  C   UNL     1       3.260   8.940  -6.849  1.00  0.00     0.029 A 
ATOM     49  N   UNL     1       5.342   8.425  -7.476  1.00  0.00    -0.354 N 
ATOM     50  C   UNL     1       6.301   4.464  -8.962  1.00  0.00     0.074 A 
ATOM     51  C   UNL     1       5.129   3.618  -8.965  1.00  0.00     0.031 C 
ATOM     52  C   UNL     1       4.023  10.025  -6.642  1.00  0.00     0.029 A 
ATOM     53  C   UNL     1       5.399   9.722  -7.019  1.00  0.00     0.049 A 
ATOM     54  H   UNL     1       6.129   7.936  -7.808  1.00  0.00     0.167 HD
ATOM     55  C   UNL     1       7.529   4.068  -9.378  1.00  0.00     0.034 A 
ATOM     56  C   UNL     1       6.443  10.568  -6.910  1.00  0.00     0.034 A 
ATOM     57  C   UNL     1       8.683   4.932  -9.386  1.00  0.00     0.049 A 
ATOM     58  C   UNL     1       7.804  10.100  -7.360  1.00  0.00     0.074 A 
ATOM     59  C   UNL     1       9.962   4.656  -9.837  1.00  0.00     0.029 A 
ATOM     60  N   UNL     1       8.703   6.238  -8.912  1.00  0.00    -0.354 N 
ATOM     61  N   UNL     1       8.158   8.934  -7.852  1.00  0.00    -0.248 NA
ATOM     62  C   UNL     1       8.904  11.066  -7.255  1.00  0.00     0.031 C 
ATOM     63  C   UNL     1      10.771   5.763  -9.563  1.00  0.00     0.029 A 
ATOM     64  C   UNL     1       9.979   6.767  -9.027  1.00  0.00     0.049 A 
ATOM     65  H   UNL     1       7.925   6.718  -8.547  1.00  0.00     0.167 HD
ATOM     66  C   UNL     1       9.515   9.041  -8.146  1.00  0.00     0.074 A 
ATOM     67  C   UNL     1       9.907  10.391  -7.794  1.00  0.00     0.031 C 
ATOM     68  C   UNL     1      10.360   8.112  -8.662  1.00  0.00     0.034 A 
BRANCH  55  69
ATOM     69  C   UNL     1       7.681   2.635  -9.836  1.00  0.00     0.023 A 
ATOM     70  C   UNL     1       6.959   2.127 -10.932  1.00  0.00     0.031 A 
ATOM     71  C   UNL     1       8.537   1.756  -9.151  1.00  0.00     0.131 A 
ATOM     72  C   UNL     1       7.043   0.764 -11.256  1.00  0.00     0.055 A 
ATOM     73  C   UNL     1       8.686   0.421  -9.537  1.00  0.00     0.041 A 
ATOM     74  F   UNL     1       9.234   2.173  -8.083  1.00  0.00    -0.206 F 
ATOM     75  C   UNL     1       7.923  -0.086 -10.584  1.00  0.00     0.022 A 
BRANCH  72  76
ATOM     76  S   UNL     1       5.866   0.087 -12.459  1.00  0.00     0.124 S 
ATOM     77  O   UNL     1       4.586   0.414 -11.835  1.00  0.00    -0.237 OA
ATOM     78  O   UNL     1       6.193   0.828 -13.672  1.00  0.00    -0.237 OA
ATOM     79  O   UNL     1       6.189  -1.338 -12.491  1.00  0.00    -0.744 OA
ENDBRANCH  72  76
ENDBRANCH  55  69
BRANCH  56  80
ATOM     80  C   UNL     1       6.253  11.939  -6.352  1.00  0.00     0.023 A 
ATOM     81  C   UNL     1       6.498  13.082  -7.131  1.00  0.00     0.031 A 
ATOM     82  C   UNL     1       5.867  12.129  -5.012  1.00  0.00     0.131 A 
ATOM     83  C   UNL     1       6.408  14.358  -6.553  1.00  0.00     0.055 A 
ATOM     84  C   UNL     1       5.719  13.402  -4.459  1.00  0.00     0.041 A 
ATOM     85  F   UNL     1       5.617  11.073  -4.221  1.00  0.00    -0.206 F 
ATOM     86  C   UNL     1       6.005  14.526  -5.226  1.00  0.00     0.022 A 
BRANCH  83  87
ATOM     87  S   UNL     1       6.923  15.795  -7.533  1.00  0.00     0.124 S 
ATOM     88  O   UNL     1       8.300  15.449  -7.864  1.00  0.00    -0.237 OA
ATOM     89  O   UNL     1       5.970  15.765  -8.637  1.00  0.00    -0.237 OA
ATOM     90  O   UNL     1       6.765  16.913  -6.605  1.00  0.00    -0.744 OA
ENDBRANCH  83  87
ENDBRANCH  56  80
BRANCH  68  91
ATOM     91  C   UNL     1      11.783   8.547  -8.924  1.00  0.00     0.023 A 
ATOM     92  C   UNL     1      12.648   8.922  -7.882  1.00  0.00     0.031 A 
ATOM     93  C   UNL     1      12.273   8.602 -10.242  1.00  0.00     0.131 A 
ATOM     94  C   UNL     1      13.932   9.402  -8.180  1.00  0.00     0.055 A 
ATOM     95  C   UNL     1      13.577   9.009 -10.525  1.00  0.00     0.041 A 
ATOM     96  F   UNL     1      11.491   8.259 -11.278  1.00  0.00    -0.206 F 
ATOM     97  C   UNL     1      14.409   9.429  -9.492  1.00  0.00     0.022 A 
BRANCH  94  98
ATOM     98  S   UNL     1      14.930  10.105  -6.837  1.00  0.00     0.124 S 
ATOM     99  O   UNL     1      14.054  11.155  -6.327  1.00  0.00    -0.237 OA
ATOM    100  O   UNL     1      15.126   8.956  -5.960  1.00  0.00    -0.237 OA
ATOM    101  O   UNL     1      16.134  10.578  -7.517  1.00  0.00    -0.744 OA
ENDBRANCH  94  98
ENDBRANCH  68  91
ENDBRANCH  42  43
ENDBRANCH  34  37
ENDBRANCH  32  33
ENDBRANCH   1  32
TORSDOF 16
