REMARK SMILES O=C(NCCCNC(=O)[C@@H](CCO)NC(=O)c1nc(C2CC2)n[nH]1)c1ccc(-c2c3nc(c(-c4cc(S(=O)(=O)[O-])ccc4F)c4ccc([nH]4)c(-c4cc(S(=O)(=O)[O-])ccc4F)c4nc(c(-c5cc(S(=O)(=O)[O-])ccc5F)c5ccc2[nH]5)C=C4)C=C3)cc1
REMARK SMILES IDX 5 1 4 2 3 3 1 4 2 5 25 7 26 8 87 9 27 10 86 11 28 12 29 13
REMARK SMILES IDX 30 14 80 15 31 16 85 17 79 18 81 19 32 20 84 21 78 22 77 23
REMARK SMILES IDX 33 25 65 26 45 27 64 28 46 29 49 30 63 31 82 32 47 33 48 34
REMARK SMILES IDX 62 36 83 37 50 38 34 39 35 40 43 41 36 42 42 43 44 44 41 45
REMARK SMILES IDX 37 46 38 47 39 48 40 49 66 50 67 51 75 52 68 53 74 54 76 55
REMARK SMILES IDX 73 56 69 57 70 58 71 59 72 60 51 61 52 62 60 63 53 64 59 65
REMARK SMILES IDX 61 66 58 67 54 68 55 69 56 70 57 71 6 72 7 73 8 74 9 76
REMARK SMILES IDX 10 77 11 78 12 79 13 80 14 82 15 83 16 85 17 86 18 87 24 88
REMARK SMILES IDX 19 89 23 90 20 92 21 93 22 94
REMARK H PARENT 3 6 81 24 49 35 7 75 13 81 14 84 24 91
REMARK Flexibility Score: inf
ROOT
ATOM      1  C   UNL     1       4.469   2.473   0.137  1.00  0.00     0.042 C 
ENDROOT
BRANCH   1   2
ATOM      2  C   UNL     1       4.173   1.157   0.840  1.00  0.00     0.118 C 
BRANCH   2   3
ATOM      3  N   UNL     1       2.776   0.776   0.720  1.00  0.00    -0.352 N 
ATOM      4  O   UNL     1       0.981  -0.219  -0.190  1.00  0.00    -0.269 OA
ATOM      5  C   UNL     1       2.201  -0.212  -0.044  1.00  0.00     0.251 C 
ATOM      6  H   UNL     1       2.149   1.303   1.266  1.00  0.00     0.163 HD
BRANCH   5   7
ATOM      7  C   UNL     1       3.033  -1.257  -0.689  1.00  0.00     0.039 A 
ATOM      8  C   UNL     1       4.125  -1.821  -0.026  1.00  0.00     0.014 A 
ATOM      9  C   UNL     1       2.669  -1.738  -1.952  1.00  0.00     0.014 A 
ATOM     10  C   UNL     1       4.919  -2.768  -0.663  1.00  0.00     0.010 A 
ATOM     11  C   UNL     1       3.405  -2.768  -2.549  1.00  0.00     0.010 A 
ATOM     12  C   UNL     1       4.538  -3.291  -1.908  1.00  0.00    -0.014 A 
BRANCH  12  13
ATOM     13  C   UNL     1       5.253  -4.482  -2.436  1.00  0.00     0.031 A 
ATOM     14  C   UNL     1       6.028  -4.432  -3.721  1.00  0.00     0.074 A 
ATOM     15  C   UNL     1       5.191  -5.623  -1.717  1.00  0.00     0.049 A 
ATOM     16  N   UNL     1       6.690  -5.390  -4.316  1.00  0.00    -0.248 NA
ATOM     17  C   UNL     1       6.058  -3.148  -4.437  1.00  0.00     0.031 C 
ATOM     18  C   UNL     1       4.449  -5.784  -0.461  1.00  0.00     0.029 A 
ATOM     19  N   UNL     1       5.761  -6.854  -1.918  1.00  0.00    -0.354 N 
ATOM     20  C   UNL     1       7.199  -4.838  -5.486  1.00  0.00     0.074 A 
ATOM     21  C   UNL     1       6.755  -3.459  -5.523  1.00  0.00     0.031 C 
ATOM     22  C   UNL     1       4.645  -7.021   0.015  1.00  0.00     0.029 A 
ATOM     23  C   UNL     1       5.453  -7.769  -0.937  1.00  0.00     0.049 A 
ATOM     24  H   UNL     1       6.334  -7.063  -2.690  1.00  0.00     0.167 HD
ATOM     25  C   UNL     1       7.962  -5.433  -6.436  1.00  0.00     0.034 A 
ATOM     26  C   UNL     1       5.754  -9.078  -0.830  1.00  0.00     0.034 A 
ATOM     27  C   UNL     1       8.403  -6.806  -6.370  1.00  0.00     0.049 A 
ATOM     28  C   UNL     1       6.577  -9.712  -1.917  1.00  0.00     0.074 A 
ATOM     29  C   UNL     1       9.234  -7.486  -7.245  1.00  0.00     0.029 A 
ATOM     30  N   UNL     1       8.039  -7.715  -5.385  1.00  0.00    -0.354 N 
ATOM     31  N   UNL     1       7.083  -9.158  -2.994  1.00  0.00    -0.248 NA
ATOM     32  C   UNL     1       6.865 -11.143  -1.777  1.00  0.00     0.031 C 
ATOM     33  C   UNL     1       9.316  -8.819  -6.827  1.00  0.00     0.029 A 
ATOM     34  C   UNL     1       8.593  -8.958  -5.654  1.00  0.00     0.049 A 
ATOM     35  H   UNL     1       7.471  -7.508  -4.608  1.00  0.00     0.167 HD
ATOM     36  C   UNL     1       7.756 -10.177  -3.658  1.00  0.00     0.074 A 
ATOM     37  C   UNL     1       7.620 -11.366  -2.841  1.00  0.00     0.031 C 
ATOM     38  C   UNL     1       8.422 -10.138  -4.840  1.00  0.00     0.034 A 
BRANCH  25  39
ATOM     39  C   UNL     1       8.333  -4.624  -7.655  1.00  0.00     0.023 A 
ATOM     40  C   UNL     1       9.220  -3.537  -7.589  1.00  0.00     0.031 A 
ATOM     41  C   UNL     1       7.810  -4.975  -8.913  1.00  0.00     0.131 A 
ATOM     42  C   UNL     1       9.530  -2.816  -8.754  1.00  0.00     0.055 A 
ATOM     43  C   UNL     1       8.167  -4.291 -10.076  1.00  0.00     0.041 A 
ATOM     44  F   UNL     1       6.944  -5.994  -9.032  1.00  0.00    -0.206 F 
ATOM     45  C   UNL     1       9.027  -3.200 -10.000  1.00  0.00     0.022 A 
BRANCH  42  46
ATOM     46  S   UNL     1      10.538  -1.315  -8.609  1.00  0.00     0.124 S 
ATOM     47  O   UNL     1       9.704  -0.479  -7.748  1.00  0.00    -0.237 OA
ATOM     48  O   UNL     1      11.770  -1.817  -8.012  1.00  0.00    -0.237 OA
ATOM     49  O   UNL     1      10.659  -0.848  -9.989  1.00  0.00    -0.744 OA
ENDBRANCH  42  46
ENDBRANCH  25  39
BRANCH  26  50
ATOM     50  C   UNL     1       5.225  -9.885   0.307  1.00  0.00     0.023 A 
ATOM     51  C   UNL     1       6.089 -10.509   1.219  1.00  0.00     0.031 A 
ATOM     52  C   UNL     1       3.841 -10.081   0.470  1.00  0.00     0.131 A 
ATOM     53  C   UNL     1       5.564 -11.337   2.224  1.00  0.00     0.055 A 
ATOM     54  C   UNL     1       3.321 -10.856   1.507  1.00  0.00     0.041 A 
ATOM     55  F   UNL     1       2.969  -9.507  -0.374  1.00  0.00    -0.206 F 
ATOM     56  C   UNL     1       4.186 -11.503   2.382  1.00  0.00     0.022 A 
BRANCH  53  57
ATOM     57  S   UNL     1       6.715 -12.285   3.256  1.00  0.00     0.124 S 
ATOM     58  O   UNL     1       7.518 -12.974   2.252  1.00  0.00    -0.237 OA
ATOM     59  O   UNL     1       7.390 -11.228   4.002  1.00  0.00    -0.237 OA
ATOM     60  O   UNL     1       5.835 -13.142   4.048  1.00  0.00    -0.744 OA
ENDBRANCH  53  57
ENDBRANCH  26  50
BRANCH  38  61
ATOM     61  C   UNL     1       9.058 -11.426  -5.293  1.00  0.00     0.023 A 
ATOM     62  C   UNL     1       8.278 -12.530  -5.678  1.00  0.00     0.031 A 
ATOM     63  C   UNL     1      10.456 -11.565  -5.300  1.00  0.00     0.131 A 
ATOM     64  C   UNL     1       8.899 -13.745  -5.997  1.00  0.00     0.055 A 
ATOM     65  C   UNL     1      11.071 -12.759  -5.676  1.00  0.00     0.041 A 
ATOM     66  F   UNL     1      11.247 -10.542  -4.936  1.00  0.00    -0.206 F 
ATOM     67  C   UNL     1      10.291 -13.863  -6.014  1.00  0.00     0.022 A 
BRANCH  64  68
ATOM     68  S   UNL     1       7.859 -15.200  -6.300  1.00  0.00     0.124 S 
ATOM     69  O   UNL     1       7.151 -15.335  -5.032  1.00  0.00    -0.237 OA
ATOM     70  O   UNL     1       7.051 -14.775  -7.439  1.00  0.00    -0.237 OA
ATOM     71  O   UNL     1       8.825 -16.258  -6.588  1.00  0.00    -0.744 OA
ENDBRANCH  64  68
ENDBRANCH  38  61
ENDBRANCH  12  13
ENDBRANCH   5   7
ENDBRANCH   2   3
ENDBRANCH   1   2
BRANCH   1  72
ATOM     72  C   UNL     1       4.063   3.698   0.948  1.00  0.00     0.117 C 
BRANCH  72  73
ATOM     73  N   UNL     1       4.942   3.880   2.089  1.00  0.00    -0.354 N 
ATOM     74  C   UNL     1       5.963   4.736   2.342  1.00  0.00     0.242 C 
ATOM     75  H   UNL     1       4.761   3.255   2.828  1.00  0.00     0.163 HD
ATOM     76  O   UNL     1       6.717   4.407   3.267  1.00  0.00    -0.273 OA
BRANCH  74  77
ATOM     77  C   UNL     1       6.272   6.011   1.526  1.00  0.00     0.174 C 
BRANCH  77  78
ATOM     78  C   UNL     1       7.274   5.840   0.379  1.00  0.00     0.063 C 
BRANCH  78  79
ATOM     79  C   UNL     1       6.795   5.114  -0.866  1.00  0.00     0.158 C 
BRANCH  79  80
ATOM     80  O   UNL     1       5.564   5.635  -1.341  1.00  0.00    -0.396 OA
ATOM     81  H   UNL     1       4.881   5.523  -0.661  1.00  0.00     0.210 HD
ENDBRANCH  79  80
ENDBRANCH  78  79
ENDBRANCH  77  78
BRANCH  77  82
ATOM     82  N   UNL     1       5.104   6.821   1.171  1.00  0.00    -0.337 N 
ATOM     83  C   UNL     1       4.757   8.056   1.667  1.00  0.00     0.289 C 
ATOM     84  H   UNL     1       4.497   6.437   0.498  1.00  0.00     0.164 HD
ATOM     85  O   UNL     1       3.599   8.445   1.534  1.00  0.00    -0.266 OA
BRANCH  83  86
ATOM     86  C   UNL     1       5.761   8.840   2.342  1.00  0.00     0.214 A 
ATOM     87  N   UNL     1       7.050   8.880   2.067  1.00  0.00    -0.207 NA
ATOM     88  N   UNL     1       5.509   9.687   3.379  1.00  0.00    -0.255 N 
ATOM     89  C   UNL     1       7.560   9.677   3.057  1.00  0.00     0.154 A 
ATOM     90  N   UNL     1       6.648  10.186   3.892  1.00  0.00    -0.158 NA
ATOM     91  H   UNL     1       4.608   9.905   3.710  1.00  0.00     0.192 HD
BRANCH  89  92
ATOM     92  C   UNL     1       9.049   9.932   3.217  1.00  0.00     0.060 C 
ATOM     93  C   UNL     1      10.020   8.932   2.615  1.00  0.00     0.012 C 
ATOM     94  C   UNL     1       9.867  10.276   1.990  1.00  0.00     0.012 C 
ENDBRANCH  89  92
ENDBRANCH  83  86
ENDBRANCH  77  82
ENDBRANCH  74  77
ENDBRANCH  72  73
ENDBRANCH   1  72
TORSDOF 19
