REMARK SMILES C#CC[N@H+](CC(=O)NCCCNC(=O)c1ccc(-c2c3nc(c(-c4cc(S(=O)(=O)[O-])ccc4F)c4ccc([nH]4)c(-c4cc(S(=O)(=O)[O-])ccc4F)c4nc(c(-c5cc(S(=O)(=O)[O-])ccc5F)c5ccc2[nH]5)C=C4)C=C3)cc1)[C@H](C)c1ccccc1[N+](=O)[O-]
REMARK SMILES IDX 9 1 8 2 6 3 7 4 5 6 4 7 3 9 2 10 1 11 78 12 79 13 80 14
REMARK SMILES IDX 81 15 85 16 82 17 84 18 83 19 86 20 87 21 88 22 10 23 11 24
REMARK SMILES IDX 12 25 13 26 14 28 15 29 16 30 77 31 17 32 76 33 18 34 19 35
REMARK SMILES IDX 20 36 70 37 21 38 75 39 69 40 71 41 22 42 74 43 68 44 67 45
REMARK SMILES IDX 23 47 55 48 35 49 54 50 36 51 39 52 53 53 72 54 37 55 38 56
REMARK SMILES IDX 52 58 73 59 40 60 24 61 25 62 33 63 26 64 32 65 34 66 31 67
REMARK SMILES IDX 27 68 28 69 29 70 30 71 56 72 57 73 65 74 58 75 64 76 66 77
REMARK SMILES IDX 63 78 59 79 60 80 61 81 62 82 41 83 42 84 50 85 43 86 49 87
REMARK SMILES IDX 51 88 48 89 44 90 45 91 46 92 47 93
REMARK H PARENT 8 5 4 8 12 27 71 46 39 57
REMARK Flexibility Score: inf
ROOT
ATOM      1  C   UNL     1      -3.668  -2.443   2.396  1.00  0.00     0.118 C 
ENDROOT
BRANCH   1   2
ATOM      2  N   UNL     1      -4.134  -1.562   3.468  1.00  0.00    -0.351 N 
ATOM      3  C   UNL     1      -4.097  -0.194   3.614  1.00  0.00     0.275 C 
ATOM      4  O   UNL     1      -4.558   0.281   4.654  1.00  0.00    -0.269 OA
ATOM      5  H   UNL     1      -4.551  -2.036   4.224  1.00  0.00     0.163 HD
BRANCH   3   6
ATOM      6  C   UNL     1      -3.533   0.708   2.494  1.00  0.00     0.364 C 
BRANCH   6   7
ATOM      7  N   UNL     1      -2.051   1.012   2.561  1.00  0.00    -0.311 N 
ATOM      8  H   UNL     1      -1.795   1.608   3.348  1.00  0.00     0.349 HD
BRANCH   7   9
ATOM      9  C   UNL     1      -1.339  -0.243   2.785  1.00  0.00     0.354 C 
BRANCH   9  10
ATOM     10  C   UNL     1       0.048  -0.298   3.248  1.00  0.00    -0.047 C 
ATOM     11  C   UNL     1       1.156  -0.634   3.582  1.00  0.00     0.010 C 
ENDBRANCH   9  10
ENDBRANCH   7   9
BRANCH   7  12
ATOM     12  C   UNL     1      -1.653   1.816   1.352  1.00  0.00     0.220 C 
ATOM     13  C   UNL     1      -2.209   1.345  -0.010  1.00  0.00     0.081 C 
BRANCH  12  14
ATOM     14  C   UNL     1      -0.149   2.089   1.217  1.00  0.00     0.087 A 
ATOM     15  C   UNL     1       0.701   1.057   0.761  1.00  0.00     0.017 A 
ATOM     16  C   UNL     1       0.477   3.299   1.583  1.00  0.00     0.278 A 
ATOM     17  C   UNL     1       2.091   1.142   0.882  1.00  0.00     0.001 A 
ATOM     18  C   UNL     1       1.877   3.385   1.712  1.00  0.00     0.086 A 
ATOM     19  C   UNL     1       2.676   2.286   1.407  1.00  0.00     0.007 A 
BRANCH  16  20
ATOM     20  N   UNL     1      -0.267   4.559   1.687  1.00  0.00     0.063 N 
ATOM     21  O   UNL     1       0.162   5.420   2.469  1.00  0.00    -0.258 OA
ATOM     22  O   UNL     1      -1.219   4.732   0.911  1.00  0.00    -0.258 OA
ENDBRANCH  16  20
ENDBRANCH  12  14
ENDBRANCH   7  12
ENDBRANCH   6   7
ENDBRANCH   3   6
ENDBRANCH   1   2
BRANCH   1  23
ATOM     23  C   UNL     1      -2.419  -3.256   2.763  1.00  0.00     0.042 C 
BRANCH  23  24
ATOM     24  C   UNL     1      -2.630  -4.301   3.842  1.00  0.00     0.118 C 
BRANCH  24  25
ATOM     25  N   UNL     1      -3.158  -5.525   3.278  1.00  0.00    -0.352 N 
ATOM     26  C   UNL     1      -2.514  -6.713   3.026  1.00  0.00     0.251 C 
ATOM     27  H   UNL     1      -4.114  -5.504   3.043  1.00  0.00     0.163 HD
ATOM     28  O   UNL     1      -3.022  -7.496   2.227  1.00  0.00    -0.269 OA
BRANCH  26  29
ATOM     29  C   UNL     1      -1.222  -7.045   3.681  1.00  0.00     0.039 A 
ATOM     30  C   UNL     1      -0.296  -7.821   2.978  1.00  0.00     0.014 A 
ATOM     31  C   UNL     1      -0.935  -6.657   4.993  1.00  0.00     0.014 A 
ATOM     32  C   UNL     1       0.917  -8.175   3.576  1.00  0.00     0.010 A 
ATOM     33  C   UNL     1       0.318  -6.918   5.548  1.00  0.00     0.010 A 
ATOM     34  C   UNL     1       1.250  -7.704   4.856  1.00  0.00    -0.014 A 
BRANCH  34  35
ATOM     35  C   UNL     1       2.554  -8.054   5.485  1.00  0.00     0.031 A 
ATOM     36  C   UNL     1       2.595  -8.834   6.773  1.00  0.00     0.074 A 
ATOM     37  C   UNL     1       3.702  -7.646   4.909  1.00  0.00     0.049 A 
ATOM     38  N   UNL     1       3.631  -9.219   7.476  1.00  0.00    -0.248 NA
ATOM     39  C   UNL     1       1.302  -9.205   7.364  1.00  0.00     0.031 C 
ATOM     40  C   UNL     1       3.791  -6.851   3.683  1.00  0.00     0.029 A 
ATOM     41  N   UNL     1       5.011  -7.843   5.271  1.00  0.00    -0.354 N 
ATOM     42  C   UNL     1       3.114  -9.864   8.595  1.00  0.00     0.074 A 
ATOM     43  C   UNL     1       1.674  -9.753   8.510  1.00  0.00     0.031 C 
ATOM     44  C   UNL     1       5.082  -6.662   3.374  1.00  0.00     0.029 A 
ATOM     45  C   UNL     1       5.915  -7.266   4.410  1.00  0.00     0.049 A 
ATOM     46  H   UNL     1       5.278  -8.349   6.072  1.00  0.00     0.167 HD
ATOM     47  C   UNL     1       3.777 -10.506   9.590  1.00  0.00     0.034 A 
ATOM     48  C   UNL     1       7.261  -7.208   4.454  1.00  0.00     0.034 A 
ATOM     49  C   UNL     1       5.216 -10.600   9.657  1.00  0.00     0.049 A 
ATOM     50  C   UNL     1       7.980  -7.891   5.588  1.00  0.00     0.074 A 
ATOM     51  C   UNL     1       5.992 -11.276  10.582  1.00  0.00     0.029 A 
ATOM     52  N   UNL     1       6.099  -9.979   8.780  1.00  0.00    -0.354 N 
ATOM     53  N   UNL     1       7.478  -8.553   6.605  1.00  0.00    -0.248 NA
ATOM     54  C   UNL     1       9.446  -7.828   5.574  1.00  0.00     0.031 C 
ATOM     55  C   UNL     1       7.335 -10.979  10.329  1.00  0.00     0.029 A 
ATOM     56  C   UNL     1       7.409 -10.212   9.177  1.00  0.00     0.049 A 
ATOM     57  H   UNL     1       5.834  -9.452   7.993  1.00  0.00     0.167 HD
ATOM     58  C   UNL     1       8.569  -9.008   7.339  1.00  0.00     0.074 A 
ATOM     59  C   UNL     1       9.754  -8.558   6.637  1.00  0.00     0.031 C 
ATOM     60  C   UNL     1       8.588  -9.738   8.485  1.00  0.00     0.034 A 
BRANCH  47  61
ATOM     61  C   UNL     1       2.949 -11.108  10.705  1.00  0.00     0.023 A 
ATOM     62  C   UNL     1       1.971 -12.089  10.460  1.00  0.00     0.031 A 
ATOM     63  C   UNL     1       3.105 -10.659  12.029  1.00  0.00     0.131 A 
ATOM     64  C   UNL     1       1.122 -12.508  11.496  1.00  0.00     0.055 A 
ATOM     65  C   UNL     1       2.326 -11.158  13.075  1.00  0.00     0.041 A 
ATOM     66  F   UNL     1       4.004  -9.708  12.328  1.00  0.00    -0.206 F 
ATOM     67  C   UNL     1       1.312 -12.072  12.809  1.00  0.00     0.022 A 
BRANCH  64  68
ATOM     68  S   UNL     1      -0.355 -13.471  11.065  1.00  0.00     0.124 S 
ATOM     69  O   UNL     1      -1.000 -12.598  10.086  1.00  0.00    -0.237 OA
ATOM     70  O   UNL     1       0.215 -14.706  10.542  1.00  0.00    -0.237 OA
ATOM     71  O   UNL     1      -1.065 -13.597  12.337  1.00  0.00    -0.744 OA
ENDBRANCH  64  68
ENDBRANCH  47  61
BRANCH  48  72
ATOM     72  C   UNL     1       8.007  -6.453   3.406  1.00  0.00     0.023 A 
ATOM     73  C   UNL     1       8.883  -7.097   2.519  1.00  0.00     0.031 A 
ATOM     74  C   UNL     1       7.852  -5.059   3.283  1.00  0.00     0.131 A 
ATOM     75  C   UNL     1       9.591  -6.345   1.567  1.00  0.00     0.055 A 
ATOM     76  C   UNL     1       8.513  -4.325   2.298  1.00  0.00     0.041 A 
ATOM     77  F   UNL     1       7.027  -4.393   4.107  1.00  0.00    -0.206 F 
ATOM     78  C   UNL     1       9.396  -4.968   1.438  1.00  0.00     0.022 A 
BRANCH  75  79
ATOM     79  S   UNL     1      10.831  -7.181   0.539  1.00  0.00     0.124 S 
ATOM     80  O   UNL     1      11.744  -7.707   1.547  1.00  0.00    -0.237 OA
ATOM     81  O   UNL     1      10.022  -8.165  -0.172  1.00  0.00    -0.237 OA
ATOM     82  O   UNL     1      11.367  -6.103  -0.289  1.00  0.00    -0.744 OA
ENDBRANCH  75  79
ENDBRANCH  48  72
BRANCH  60  83
ATOM     83  C   UNL     1       9.942 -10.130   9.032  1.00  0.00     0.023 A 
ATOM     84  C   UNL     1      10.871  -9.174   9.478  1.00  0.00     0.031 A 
ATOM     85  C   UNL     1      10.312 -11.487   9.097  1.00  0.00     0.131 A 
ATOM     86  C   UNL     1      12.144  -9.582   9.903  1.00  0.00     0.055 A 
ATOM     87  C   UNL     1      11.550 -11.891   9.598  1.00  0.00     0.041 A 
ATOM     88  F   UNL     1       9.471 -12.446   8.677  1.00  0.00    -0.206 F 
ATOM     89  C   UNL     1      12.481 -10.935   9.990  1.00  0.00     0.022 A 
BRANCH  86  90
ATOM     90  S   UNL     1      13.402  -8.313  10.220  1.00  0.00     0.124 S 
ATOM     91  O   UNL     1      13.446  -7.608   8.943  1.00  0.00    -0.237 OA
ATOM     92  O   UNL     1      12.826  -7.574  11.338  1.00  0.00    -0.237 OA
ATOM     93  O   UNL     1      14.598  -9.090  10.540  1.00  0.00    -0.744 OA
ENDBRANCH  86  90
ENDBRANCH  60  83
ENDBRANCH  34  35
ENDBRANCH  26  29
ENDBRANCH  24  25
ENDBRANCH  23  24
ENDBRANCH   1  23
TORSDOF 19
