REMARK SMILES CCCc1cc(OC(F)(F)F)cc2c1O[C@@H](C(F)(F)F)C(C(=O)NCCCNC(=O)c1ccc(-c3c4nc(c(-c5cc(S(=O)(=O)[O-])ccc5F)c5ccc([nH]5)c(-c5cc(S(=O)(=O)[O-])ccc5F)c5nc(c(-c6cc(S(=O)(=O)[O-])ccc6F)c6ccc3[nH]6)C=C5)C=C4)cc1)=C2
REMARK SMILES IDX 26 1 25 2 24 3 22 4 23 5 21 7 4 8 5 9 14 10 6 11 13 12 15 13
REMARK SMILES IDX 12 14 94 15 16 16 3 17 2 18 1 19 7 20 8 21 9 22 10 23 11 24
REMARK SMILES IDX 17 25 18 26 19 27 20 28 27 29 28 30 29 31 30 33 31 34 32 35
REMARK SMILES IDX 93 36 33 37 92 38 34 39 35 40 36 41 86 42 37 43 91 44 85 45
REMARK SMILES IDX 87 46 38 47 90 48 84 49 83 50 39 52 71 53 51 54 70 55 52 56
REMARK SMILES IDX 55 57 69 58 88 59 53 60 54 61 68 63 89 64 56 65 40 66 41 67
REMARK SMILES IDX 49 68 42 69 48 70 50 71 47 72 43 73 44 74 45 75 46 76 72 77
REMARK SMILES IDX 73 78 81 79 74 80 80 81 82 82 79 83 75 84 76 85 77 86 78 87
REMARK SMILES IDX 57 88 58 89 66 90 59 91 65 92 67 93 64 94 60 95 61 96 62 97
REMARK SMILES IDX 63 98
REMARK H PARENT 24 6 28 32 87 51 55 62
REMARK Flexibility Score: inf
ROOT
ATOM      1  C   UNL     1      -3.053   5.761  -3.792  1.00  0.00     0.042 C 
ENDROOT
BRANCH   1   2
ATOM      2  C   UNL     1      -3.813   4.803  -2.871  1.00  0.00     0.118 C 
BRANCH   2   3
ATOM      3  N   UNL     1      -3.662   3.436  -3.338  1.00  0.00    -0.352 N 
ATOM      4  C   UNL     1      -2.763   2.463  -3.049  1.00  0.00     0.251 C 
ATOM      5  O   UNL     1      -2.774   1.448  -3.740  1.00  0.00    -0.270 OA
ATOM      6  H   UNL     1      -4.345   3.163  -3.993  1.00  0.00     0.163 HD
BRANCH   4   7
ATOM      7  C   UNL     1      -1.836   2.544  -1.893  1.00  0.00     0.067 C 
ATOM      8  C   UNL     1       0.645   2.440   1.502  1.00  0.00    -0.002 A 
ATOM      9  C   UNL     1       1.235   3.648   1.939  1.00  0.00     0.054 A 
ATOM     10  C   UNL     1      -0.229   2.493   0.408  1.00  0.00     0.131 A 
ATOM     11  C   UNL     1       1.005   4.854   1.273  1.00  0.00     0.130 A 
ATOM     12  C   UNL     1      -0.402   3.677  -0.312  1.00  0.00     0.021 A 
ATOM     13  O   UNL     1      -0.983   1.394   0.115  1.00  0.00    -0.475 OA
ATOM     14  C   UNL     1       0.211   4.853   0.127  1.00  0.00     0.058 A 
ATOM     15  C   UNL     1      -1.272   3.689  -1.479  1.00  0.00     0.025 C 
ATOM     16  C   UNL     1      -1.404   1.225  -1.268  1.00  0.00     0.314 C 
BRANCH   8  17
ATOM     17  C   UNL     1       0.991   1.178   2.271  1.00  0.00     0.039 C 
BRANCH  17  18
ATOM     18  C   UNL     1       0.808  -0.196   1.610  1.00  0.00     0.001 C 
ATOM     19  C   UNL     1       1.599  -0.388   0.321  1.00  0.00     0.004 C 
ENDBRANCH  17  18
ENDBRANCH   8  17
BRANCH  11  20
ATOM     20  O   UNL     1       1.484   6.084   1.619  1.00  0.00    -0.406 OA
BRANCH  20  21
ATOM     21  C   UNL     1       2.238   6.194   2.813  1.00  0.00     0.573 C 
ATOM     22  F   UNL     1       1.525   5.780   3.883  1.00  0.00    -0.132 F 
ATOM     23  F   UNL     1       3.381   5.479   2.731  1.00  0.00    -0.132 F 
ATOM     24  F   UNL     1       2.564   7.491   3.005  1.00  0.00    -0.132 F 
ENDBRANCH  20  21
ENDBRANCH  11  20
BRANCH  16  25
ATOM     25  C   UNL     1      -2.406   0.047  -1.283  1.00  0.00     0.429 C 
ATOM     26  F   UNL     1      -2.399  -0.639  -2.446  1.00  0.00    -0.167 F 
ATOM     27  F   UNL     1      -2.078  -0.872  -0.330  1.00  0.00    -0.167 F 
ATOM     28  F   UNL     1      -3.673   0.437  -1.018  1.00  0.00    -0.167 F 
ENDBRANCH  16  25
ENDBRANCH   4   7
ENDBRANCH   2   3
ENDBRANCH   1   2
BRANCH   1  29
ATOM     29  C   UNL     1      -3.756   5.964  -5.130  1.00  0.00     0.118 C 
BRANCH  29  30
ATOM     30  N   UNL     1      -5.010   6.685  -4.964  1.00  0.00    -0.352 N 
ATOM     31  C   UNL     1      -5.378   7.912  -5.458  1.00  0.00     0.251 C 
ATOM     32  H   UNL     1      -5.691   6.227  -4.421  1.00  0.00     0.163 HD
ATOM     33  O   UNL     1      -6.342   8.494  -4.976  1.00  0.00    -0.269 OA
BRANCH  31  34
ATOM     34  C   UNL     1      -4.601   8.518  -6.559  1.00  0.00     0.039 A 
ATOM     35  C   UNL     1      -4.309   9.883  -6.519  1.00  0.00     0.014 A 
ATOM     36  C   UNL     1      -4.178   7.737  -7.637  1.00  0.00     0.014 A 
ATOM     37  C   UNL     1      -3.540  10.453  -7.535  1.00  0.00     0.010 A 
ATOM     38  C   UNL     1      -3.347   8.288  -8.605  1.00  0.00     0.010 A 
ATOM     39  C   UNL     1      -3.024   9.653  -8.568  1.00  0.00    -0.014 A 
BRANCH  39  40
ATOM     40  C   UNL     1      -2.157  10.216  -9.634  1.00  0.00     0.031 A 
ATOM     41  C   UNL     1      -2.615  10.172 -11.066  1.00  0.00     0.074 A 
ATOM     42  C   UNL     1      -0.932  10.684  -9.322  1.00  0.00     0.049 A 
ATOM     43  N   UNL     1      -1.959  10.476 -12.155  1.00  0.00    -0.248 NA
ATOM     44  C   UNL     1      -3.984   9.688 -11.304  1.00  0.00     0.031 C 
ATOM     45  C   UNL     1      -0.372  10.751  -7.970  1.00  0.00     0.029 A 
ATOM     46  N   UNL     1       0.071  11.175 -10.119  1.00  0.00    -0.354 N 
ATOM     47  C   UNL     1      -2.826  10.203 -13.208  1.00  0.00     0.074 A 
ATOM     48  C   UNL     1      -4.032   9.652 -12.627  1.00  0.00     0.031 C 
ATOM     49  C   UNL     1       0.865  11.269  -8.031  1.00  0.00     0.029 A 
ATOM     50  C   UNL     1       1.211  11.515  -9.427  1.00  0.00     0.049 A 
ATOM     51  H   UNL     1      -0.016  11.274 -11.095  1.00  0.00     0.167 HD
ATOM     52  C   UNL     1      -2.639  10.412 -14.534  1.00  0.00     0.034 A 
ATOM     53  C   UNL     1       2.407  11.951  -9.870  1.00  0.00     0.034 A 
ATOM     54  C   UNL     1      -1.433  10.975 -15.090  1.00  0.00     0.049 A 
ATOM     55  C   UNL     1       2.606  12.137 -11.355  1.00  0.00     0.074 A 
ATOM     56  C   UNL     1      -1.154  11.279 -16.410  1.00  0.00     0.029 A 
ATOM     57  N   UNL     1      -0.301  11.311 -14.357  1.00  0.00    -0.354 N 
ATOM     58  N   UNL     1       1.762  11.913 -12.335  1.00  0.00    -0.248 NA
ATOM     59  C   UNL     1       3.914  12.641 -11.792  1.00  0.00     0.031 C 
ATOM     60  C   UNL     1       0.170  11.723 -16.487  1.00  0.00     0.029 A 
ATOM     61  C   UNL     1       0.689  11.785 -15.204  1.00  0.00     0.049 A 
ATOM     62  H   UNL     1      -0.214  11.224 -13.381  1.00  0.00     0.167 HD
ATOM     63  C   UNL     1       2.426  12.287 -13.501  1.00  0.00     0.074 A 
ATOM     64  C   UNL     1       3.735  12.758 -13.099  1.00  0.00     0.031 C 
ATOM     65  C   UNL     1       1.991  12.252 -14.786  1.00  0.00     0.034 A 
BRANCH  52  66
ATOM     66  C   UNL     1      -3.751  10.004 -15.471  1.00  0.00     0.023 A 
ATOM     67  C   UNL     1      -5.027  10.592 -15.407  1.00  0.00     0.031 A 
ATOM     68  C   UNL     1      -3.540   8.999 -16.431  1.00  0.00     0.131 A 
ATOM     69  C   UNL     1      -6.059  10.121 -16.232  1.00  0.00     0.055 A 
ATOM     70  C   UNL     1      -4.548   8.595 -17.310  1.00  0.00     0.041 A 
ATOM     71  F   UNL     1      -2.352   8.382 -16.526  1.00  0.00    -0.206 F 
ATOM     72  C   UNL     1      -5.821   9.146 -17.203  1.00  0.00     0.022 A 
BRANCH  69  73
ATOM     73  S   UNL     1      -7.749  10.697 -15.916  1.00  0.00     0.124 S 
ATOM     74  O   UNL     1      -7.949  10.279 -14.531  1.00  0.00    -0.237 OA
ATOM     75  O   UNL     1      -7.640  12.134 -16.141  1.00  0.00    -0.237 OA
ATOM     76  O   UNL     1      -8.549   9.970 -16.900  1.00  0.00    -0.744 OA
ENDBRANCH  69  73
ENDBRANCH  52  66
BRANCH  53  77
ATOM     77  C   UNL     1       3.518  12.224  -8.912  1.00  0.00     0.023 A 
ATOM     78  C   UNL     1       4.055  13.514  -8.776  1.00  0.00     0.031 A 
ATOM     79  C   UNL     1       4.095  11.189  -8.153  1.00  0.00     0.131 A 
ATOM     80  C   UNL     1       5.168  13.726  -7.948  1.00  0.00     0.055 A 
ATOM     81  C   UNL     1       5.162  11.417  -7.283  1.00  0.00     0.041 A 
ATOM     82  F   UNL     1       3.620   9.936  -8.240  1.00  0.00    -0.206 F 
ATOM     83  C   UNL     1       5.716  12.690  -7.189  1.00  0.00     0.022 A 
BRANCH  80  84
ATOM     84  S   UNL     1       5.958  15.358  -7.960  1.00  0.00     0.124 S 
ATOM     85  O   UNL     1       6.284  15.518  -9.373  1.00  0.00    -0.237 OA
ATOM     86  O   UNL     1       4.894  16.213  -7.445  1.00  0.00    -0.237 OA
ATOM     87  O   UNL     1       7.105  15.187  -7.070  1.00  0.00    -0.744 OA
ENDBRANCH  80  84
ENDBRANCH  53  77
BRANCH  65  88
ATOM     88  C   UNL     1       2.917  12.797 -15.846  1.00  0.00     0.023 A 
ATOM     89  C   UNL     1       4.129  12.165 -16.173  1.00  0.00     0.031 A 
ATOM     90  C   UNL     1       2.567  13.964 -16.550  1.00  0.00     0.131 A 
ATOM     91  C   UNL     1       4.969  12.729 -17.145  1.00  0.00     0.055 A 
ATOM     92  C   UNL     1       3.377  14.484 -17.559  1.00  0.00     0.041 A 
ATOM     93  F   UNL     1       1.423  14.611 -16.275  1.00  0.00    -0.206 F 
ATOM     94  C   UNL     1       4.591  13.873 -17.854  1.00  0.00     0.022 A 
BRANCH  91  95
ATOM     95  S   UNL     1       6.606  11.995 -17.416  1.00  0.00     0.124 S 
ATOM     96  O   UNL     1       7.213  12.115 -16.094  1.00  0.00    -0.237 OA
ATOM     97  O   UNL     1       6.274  10.641 -17.845  1.00  0.00    -0.237 OA
ATOM     98  O   UNL     1       7.196  12.845 -18.449  1.00  0.00    -0.744 OA
ENDBRANCH  91  95
ENDBRANCH  65  88
ENDBRANCH  39  40
ENDBRANCH  31  34
ENDBRANCH  29  30
ENDBRANCH   1  29
TORSDOF 18
