REMARK SMILES COc1cccc(C(=O)Nc2ccc(NC(=O)[C@@H]3[C@@H](C(=O)NCCCNC(=O)c4ccc(-c5c6nc(c(-c7cc(S(=O)(=O)[O-])ccc7F)c7ccc([nH]7)c(-c7cc(S(=O)(=O)[O-])ccc7F)c7nc(c(-c8cc(S(=O)(=O)[O-])ccc8F)c8ccc5[nH]8)C=C7)C=C6)cc4)[C@@H]4C=C[C@H]3C4)cc2)c1
REMARK SMILES IDX 23 1 22 2 20 3 21 4 19 6 18 7 95 8 92 9 94 10 96 11 93 12
REMARK SMILES IDX 16 13 15 14 17 16 14 17 11 18 12 19 98 20 13 21 97 22 10 23
REMARK SMILES IDX 8 24 9 25 7 27 3 28 4 29 99 30 5 31 6 32 2 33 1 34 24 35
REMARK SMILES IDX 25 36 26 37 27 38 28 40 29 41 30 42 91 43 31 44 90 45 32 46
REMARK SMILES IDX 33 47 34 48 84 49 35 50 89 51 83 52 85 53 36 54 88 55 82 56
REMARK SMILES IDX 81 57 37 59 69 60 49 61 68 62 50 63 53 64 67 65 86 66 51 67
REMARK SMILES IDX 52 68 66 70 87 71 54 72 38 73 39 74 47 75 40 76 46 77 48 78
REMARK SMILES IDX 45 79 41 80 42 81 43 82 44 83 70 84 71 85 79 86 72 87 78 88
REMARK SMILES IDX 80 89 77 90 73 91 74 92 75 93 76 94 55 95 56 96 64 97 57 98
REMARK SMILES IDX 63 99 65 100 62 101 58 102 59 103 60 104 61 105
REMARK H PARENT 22 5 15 15 10 26 26 39 85 58 53 69
REMARK Flexibility Score: inf
ROOT
ATOM      1  C   UNL     1       6.245  -2.320   3.115  1.00  0.00     0.117 C 
ENDROOT
BRANCH   1   2
ATOM      2  N   UNL     1       7.044  -2.786   1.992  1.00  0.00    -0.356 N 
ATOM      3  C   UNL     1       6.785  -3.448   0.842  1.00  0.00     0.224 C 
ATOM      4  O   UNL     1       7.718  -3.465   0.028  1.00  0.00    -0.275 OA
ATOM      5  H   UNL     1       7.999  -2.569   2.094  1.00  0.00     0.163 HD
BRANCH   3   6
ATOM      6  C   UNL     1       5.511  -4.203   0.495  1.00  0.00     0.098 C 
ATOM      7  C   UNL     1       4.090  -3.631   0.789  1.00  0.00     0.099 C 
ATOM      8  C   UNL     1       3.422  -4.855   1.516  1.00  0.00     0.025 C 
ATOM      9  C   UNL     1       5.513  -5.582   1.211  1.00  0.00     0.025 C 
ATOM     10  C   UNL     1       3.355  -6.072   0.616  1.00  0.00    -0.027 C 
ATOM     11  C   UNL     1       4.575  -5.352   2.397  1.00  0.00     0.017 C 
ATOM     12  C   UNL     1       4.611  -6.501   0.423  1.00  0.00    -0.027 C 
BRANCH   7  13
ATOM     13  C   UNL     1       3.356  -3.180  -0.481  1.00  0.00     0.228 C 
ATOM     14  N   UNL     1       3.421  -1.911  -0.995  1.00  0.00    -0.326 N 
ATOM     15  H   UNL     1       2.967  -1.838  -1.866  1.00  0.00     0.169 HD
ATOM     16  O   UNL     1       2.604  -3.943  -1.099  1.00  0.00    -0.274 OA
BRANCH  14  17
ATOM     17  C   UNL     1       3.979  -0.690  -0.581  1.00  0.00     0.041 A 
ATOM     18  C   UNL     1       4.576   1.816   0.545  1.00  0.00     0.041 A 
ATOM     19  C   UNL     1       5.260   0.685   0.958  1.00  0.00     0.028 A 
ATOM     20  C   UNL     1       3.769   1.736  -0.588  1.00  0.00     0.028 A 
ATOM     21  C   UNL     1       4.939  -0.554   0.404  1.00  0.00     0.028 A 
ATOM     22  C   UNL     1       3.481   0.484  -1.156  1.00  0.00     0.028 A 
BRANCH  18  23
ATOM     23  N   UNL     1       4.685   2.946   1.364  1.00  0.00    -0.322 N 
ATOM     24  C   UNL     1       3.751   3.891   1.731  1.00  0.00     0.255 C 
ATOM     25  O   UNL     1       4.130   4.877   2.365  1.00  0.00    -0.269 OA
ATOM     26  H   UNL     1       5.582   3.090   1.743  1.00  0.00     0.170 HD
BRANCH  24  27
ATOM     27  C   UNL     1       2.292   3.741   1.457  1.00  0.00     0.043 A 
ATOM     28  C   UNL     1       0.302   2.429   0.988  1.00  0.00     0.119 A 
ATOM     29  C   UNL     1      -0.411   3.615   0.798  1.00  0.00     0.046 A 
ATOM     30  C   UNL     1       1.634   2.500   1.396  1.00  0.00     0.060 A 
ATOM     31  C   UNL     1       0.197   4.856   0.985  1.00  0.00     0.005 A 
ATOM     32  C   UNL     1       1.551   4.918   1.298  1.00  0.00     0.014 A 
BRANCH  28  33
ATOM     33  O   UNL     1      -0.418   1.298   0.732  1.00  0.00    -0.497 OA
ATOM     34  C   UNL     1       0.235   0.036   0.714  1.00  0.00     0.278 C 
ENDBRANCH  28  33
ENDBRANCH  24  27
ENDBRANCH  18  23
ENDBRANCH  14  17
ENDBRANCH   7  13
ENDBRANCH   3   6
ENDBRANCH   1   2
BRANCH   1  35
ATOM     35  C   UNL     1       6.785  -2.777   4.455  1.00  0.00     0.042 C 
BRANCH  35  36
ATOM     36  C   UNL     1       8.164  -2.215   4.771  1.00  0.00     0.118 C 
BRANCH  36  37
ATOM     37  N   UNL     1       8.167  -0.764   4.932  1.00  0.00    -0.352 N 
ATOM     38  C   UNL     1       8.396   0.005   6.050  1.00  0.00     0.251 C 
ATOM     39  H   UNL     1       7.977  -0.256   4.111  1.00  0.00     0.163 HD
ATOM     40  O   UNL     1       8.172   1.212   6.003  1.00  0.00    -0.269 OA
BRANCH  38  41
ATOM     41  C   UNL     1       8.868  -0.627   7.301  1.00  0.00     0.039 A 
ATOM     42  C   UNL     1       8.312  -0.234   8.521  1.00  0.00     0.014 A 
ATOM     43  C   UNL     1       9.838  -1.629   7.269  1.00  0.00     0.014 A 
ATOM     44  C   UNL     1       8.656  -0.919   9.689  1.00  0.00     0.010 A 
ATOM     45  C   UNL     1      10.089  -2.384   8.407  1.00  0.00     0.010 A 
ATOM     46  C   UNL     1       9.503  -2.038   9.633  1.00  0.00    -0.014 A 
BRANCH  46  47
ATOM     47  C   UNL     1       9.800  -2.861  10.836  1.00  0.00     0.031 A 
ATOM     48  C   UNL     1      11.224  -3.027  11.298  1.00  0.00     0.074 A 
ATOM     49  C   UNL     1       8.805  -3.529  11.454  1.00  0.00     0.049 A 
ATOM     50  N   UNL     1      11.706  -3.793  12.242  1.00  0.00    -0.248 NA
ATOM     51  C   UNL     1      12.247  -2.258  10.571  1.00  0.00     0.031 C 
ATOM     52  C   UNL     1       7.392  -3.494  11.068  1.00  0.00     0.029 A 
ATOM     53  N   UNL     1       8.829  -4.379  12.532  1.00  0.00    -0.354 N 
ATOM     54  C   UNL     1      13.085  -3.617  12.207  1.00  0.00     0.074 A 
ATOM     55  C   UNL     1      13.365  -2.728  11.100  1.00  0.00     0.031 C 
ATOM     56  C   UNL     1       6.684  -4.259  11.913  1.00  0.00     0.029 A 
ATOM     57  C   UNL     1       7.593  -4.882  12.869  1.00  0.00     0.049 A 
ATOM     58  H   UNL     1       9.653  -4.607  13.019  1.00  0.00     0.167 HD
ATOM     59  C   UNL     1      14.029  -4.125  13.038  1.00  0.00     0.034 A 
ATOM     60  C   UNL     1       7.234  -5.757  13.830  1.00  0.00     0.034 A 
ATOM     61  C   UNL     1      13.729  -4.989  14.153  1.00  0.00     0.049 A 
ATOM     62  C   UNL     1       8.300  -6.316  14.737  1.00  0.00     0.074 A 
ATOM     63  C   UNL     1      14.595  -5.509  15.098  1.00  0.00     0.029 A 
ATOM     64  N   UNL     1      12.463  -5.465  14.472  1.00  0.00    -0.354 N 
ATOM     65  N   UNL     1       9.595  -6.097  14.723  1.00  0.00    -0.248 NA
ATOM     66  C   UNL     1       7.856  -7.232  15.794  1.00  0.00     0.031 C 
ATOM     67  C   UNL     1      13.866  -6.349  15.947  1.00  0.00     0.029 A 
ATOM     68  C   UNL     1      12.531  -6.294  15.580  1.00  0.00     0.049 A 
ATOM     69  H   UNL     1      11.638  -5.244  13.982  1.00  0.00     0.167 HD
ATOM     70  C   UNL     1      10.114  -6.825  15.789  1.00  0.00     0.074 A 
ATOM     71  C   UNL     1       8.991  -7.476  16.433  1.00  0.00     0.031 C 
ATOM     72  C   UNL     1      11.402  -6.944  16.203  1.00  0.00     0.034 A 
BRANCH  59  73
ATOM     73  C   UNL     1      15.470  -3.770  12.754  1.00  0.00     0.023 A 
ATOM     74  C   UNL     1      15.923  -2.439  12.792  1.00  0.00     0.031 A 
ATOM     75  C   UNL     1      16.397  -4.768  12.407  1.00  0.00     0.131 A 
ATOM     76  C   UNL     1      17.238  -2.134  12.409  1.00  0.00     0.055 A 
ATOM     77  C   UNL     1      17.729  -4.467  12.113  1.00  0.00     0.041 A 
ATOM     78  F   UNL     1      16.021  -6.055  12.332  1.00  0.00    -0.206 F 
ATOM     79  C   UNL     1      18.152  -3.141  12.096  1.00  0.00     0.022 A 
BRANCH  76  80
ATOM     80  S   UNL     1      17.688  -0.392  12.179  1.00  0.00     0.124 S 
ATOM     81  O   UNL     1      16.735   0.025  11.153  1.00  0.00    -0.237 OA
ATOM     82  O   UNL     1      17.480   0.167  13.509  1.00  0.00    -0.237 OA
ATOM     83  O   UNL     1      19.080  -0.454  11.737  1.00  0.00    -0.744 OA
ENDBRANCH  76  80
ENDBRANCH  59  73
BRANCH  60  84
ATOM     84  C   UNL     1       5.808  -6.167  13.987  1.00  0.00     0.023 A 
ATOM     85  C   UNL     1       5.089  -5.847  15.150  1.00  0.00     0.031 A 
ATOM     86  C   UNL     1       5.154  -6.919  12.995  1.00  0.00     0.131 A 
ATOM     87  C   UNL     1       3.778  -6.318  15.315  1.00  0.00     0.055 A 
ATOM     88  C   UNL     1       3.831  -7.340  13.140  1.00  0.00     0.041 A 
ATOM     89  F   UNL     1       5.793  -7.246  11.860  1.00  0.00    -0.206 F 
ATOM     90  C   UNL     1       3.139  -7.052  14.312  1.00  0.00     0.022 A 
BRANCH  87  91
ATOM     91  S   UNL     1       2.944  -6.031  16.900  1.00  0.00     0.124 S 
ATOM     92  O   UNL     1       3.862  -6.668  17.837  1.00  0.00    -0.237 OA
ATOM     93  O   UNL     1       2.885  -4.574  16.949  1.00  0.00    -0.237 OA
ATOM     94  O   UNL     1       1.656  -6.700  16.733  1.00  0.00    -0.744 OA
ENDBRANCH  87  91
ENDBRANCH  60  84
BRANCH  72  95
ATOM     95  C   UNL     1      11.650  -7.776  17.437  1.00  0.00     0.023 A 
ATOM     96  C   UNL     1      11.438  -9.166  17.448  1.00  0.00     0.031 A 
ATOM     97  C   UNL     1      12.096  -7.165  18.622  1.00  0.00     0.131 A 
ATOM     98  C   UNL     1      11.618  -9.890  18.635  1.00  0.00     0.055 A 
ATOM     99  C   UNL     1      12.333  -7.900  19.784  1.00  0.00     0.041 A 
ATOM    100  F   UNL     1      12.312  -5.840  18.669  1.00  0.00    -0.206 F 
ATOM    101  C   UNL     1      12.081  -9.269  19.799  1.00  0.00     0.022 A 
BRANCH  98 102
ATOM    102  S   UNL     1      11.150 -11.642  18.666  1.00  0.00     0.124 S 
ATOM    103  O   UNL     1       9.737 -11.585  18.305  1.00  0.00    -0.237 OA
ATOM    104  O   UNL     1      12.041 -12.220  17.664  1.00  0.00    -0.237 OA
ATOM    105  O   UNL     1      11.423 -12.046  20.044  1.00  0.00    -0.744 OA
ENDBRANCH  98 102
ENDBRANCH  72  95
ENDBRANCH  46  47
ENDBRANCH  38  41
ENDBRANCH  36  37
ENDBRANCH  35  36
ENDBRANCH   1  35
TORSDOF 18
