REMARK SMILES O=C(NCCCNC(=O)[C@]12C[NH2+]C[C@H]1CN(C(=O)c1ccccc1-n1cncn1)C2)c1ccc(-c2c3nc(c(-c4cc(S(=O)(=O)[O-])ccc4F)c4ccc([nH]4)c(-c4cc(S(=O)(=O)[O-])ccc4F)c4nc(c(-c5cc(S(=O)(=O)[O-])ccc5F)c5ccc2[nH]5)C=C4)C=C3)cc1
REMARK SMILES IDX 5 1 4 2 3 3 1 4 2 5 31 7 32 8 93 9 33 10 92 11 34 12 35 13
REMARK SMILES IDX 36 14 86 15 37 16 91 17 85 18 87 19 38 20 90 21 84 22 83 23
REMARK SMILES IDX 39 25 71 26 51 27 70 28 52 29 55 30 69 31 88 32 53 33 54 34
REMARK SMILES IDX 68 36 89 37 56 38 40 39 41 40 49 41 42 42 48 43 50 44 47 45
REMARK SMILES IDX 43 46 44 47 45 48 46 49 72 50 73 51 81 52 74 53 80 54 82 55
REMARK SMILES IDX 79 56 75 57 76 58 77 59 78 60 57 61 58 62 66 63 59 64 65 65
REMARK SMILES IDX 67 66 64 67 60 68 61 69 62 70 63 71 6 72 7 73 8 74 9 76
REMARK SMILES IDX 10 77 11 78 14 79 30 80 12 81 13 82 15 83 16 84 17 87 18 88
REMARK SMILES IDX 19 89 20 90 24 91 21 92 23 93 22 94 25 95 26 96 29 97 27 98
REMARK SMILES IDX 28 99
REMARK H PARENT 3 6 87 24 55 35 7 75 12 85 12 86
REMARK Flexibility Score: inf
ROOT
ATOM      1  C   UNL     1       4.622  -1.841   0.993  1.00  0.00     0.042 C 
ENDROOT
BRANCH   1   2
ATOM      2  C   UNL     1       4.523  -0.887  -0.191  1.00  0.00     0.118 C 
BRANCH   2   3
ATOM      3  N   UNL     1       3.158  -0.574  -0.565  1.00  0.00    -0.352 N 
ATOM      4  O   UNL     1       1.113   0.229  -0.682  1.00  0.00    -0.269 OA
ATOM      5  C   UNL     1       2.171   0.218  -0.045  1.00  0.00     0.251 C 
ATOM      6  H   UNL     1       2.874  -1.040  -1.385  1.00  0.00     0.163 HD
BRANCH   5   7
ATOM      7  C   UNL     1       2.253   0.989   1.229  1.00  0.00     0.039 A 
ATOM      8  C   UNL     1       3.421   1.338   1.911  1.00  0.00     0.014 A 
ATOM      9  C   UNL     1       1.019   1.415   1.756  1.00  0.00     0.014 A 
ATOM     10  C   UNL     1       3.347   2.035   3.124  1.00  0.00     0.010 A 
ATOM     11  C   UNL     1       0.941   2.108   2.961  1.00  0.00     0.010 A 
ATOM     12  C   UNL     1       2.106   2.404   3.663  1.00  0.00    -0.014 A 
BRANCH  12  13
ATOM     13  C   UNL     1       2.054   3.388   4.758  1.00  0.00     0.031 A 
ATOM     14  C   UNL     1       2.583   4.715   4.321  1.00  0.00     0.074 A 
ATOM     15  C   UNL     1       1.423   3.213   5.944  1.00  0.00     0.049 A 
ATOM     16  N   UNL     1       3.664   5.304   4.714  1.00  0.00    -0.248 NA
ATOM     17  C   UNL     1       1.958   5.363   3.149  1.00  0.00     0.031 C 
ATOM     18  C   UNL     1       0.668   2.036   6.377  1.00  0.00     0.029 A 
ATOM     19  N   UNL     1       1.237   4.077   6.995  1.00  0.00    -0.354 N 
ATOM     20  C   UNL     1       3.675   6.533   4.058  1.00  0.00     0.074 A 
ATOM     21  C   UNL     1       2.785   6.388   2.942  1.00  0.00     0.031 C 
ATOM     22  C   UNL     1      -0.070   2.343   7.471  1.00  0.00     0.029 A 
ATOM     23  C   UNL     1       0.224   3.705   7.893  1.00  0.00     0.049 A 
ATOM     24  H   UNL     1       1.773   4.894   7.109  1.00  0.00     0.167 HD
ATOM     25  C   UNL     1       4.133   7.649   4.690  1.00  0.00     0.034 A 
ATOM     26  C   UNL     1      -0.363   4.456   8.878  1.00  0.00     0.034 A 
ATOM     27  C   UNL     1       4.982   7.287   5.809  1.00  0.00     0.049 A 
ATOM     28  C   UNL     1       0.573   5.563   9.189  1.00  0.00     0.074 A 
ATOM     29  C   UNL     1       6.107   6.496   5.959  1.00  0.00     0.029 A 
ATOM     30  N   UNL     1       4.482   7.450   7.082  1.00  0.00    -0.354 N 
ATOM     31  N   UNL     1       1.736   5.374   9.746  1.00  0.00    -0.248 NA
ATOM     32  C   UNL     1       0.445   6.788   8.416  1.00  0.00     0.031 C 
ATOM     33  C   UNL     1       5.918   5.818   7.200  1.00  0.00     0.029 A 
ATOM     34  C   UNL     1       4.754   6.310   7.792  1.00  0.00     0.049 A 
ATOM     35  H   UNL     1       4.012   8.245   7.422  1.00  0.00     0.167 HD
ATOM     36  C   UNL     1       2.604   6.176   9.024  1.00  0.00     0.074 A 
ATOM     37  C   UNL     1       1.739   7.086   8.270  1.00  0.00     0.031 C 
ATOM     38  C   UNL     1       3.918   5.832   8.875  1.00  0.00     0.034 A 
BRANCH  25  39
ATOM     39  C   UNL     1       3.438   9.005   4.618  1.00  0.00     0.023 A 
ATOM     40  C   UNL     1       3.946  10.009   5.462  1.00  0.00     0.031 A 
ATOM     41  C   UNL     1       2.158   9.264   4.072  1.00  0.00     0.131 A 
ATOM     42  C   UNL     1       3.136  11.078   5.883  1.00  0.00     0.055 A 
ATOM     43  C   UNL     1       1.384  10.370   4.438  1.00  0.00     0.041 A 
ATOM     44  F   UNL     1       1.541   8.444   3.216  1.00  0.00    -0.206 F 
ATOM     45  C   UNL     1       1.851  11.260   5.386  1.00  0.00     0.022 A 
BRANCH  42  46
ATOM     46  S   UNL     1       3.724  12.087   7.264  1.00  0.00     0.124 S 
ATOM     47  O   UNL     1       3.913  11.068   8.291  1.00  0.00    -0.237 OA
ATOM     48  O   UNL     1       4.937  12.676   6.708  1.00  0.00    -0.237 OA
ATOM     49  O   UNL     1       2.624  13.020   7.492  1.00  0.00    -0.744 OA
ENDBRANCH  42  46
ENDBRANCH  25  39
BRANCH  26  50
ATOM     50  C   UNL     1      -1.799   4.471   9.335  1.00  0.00     0.023 A 
ATOM     51  C   UNL     1      -2.257   5.102  10.526  1.00  0.00     0.031 A 
ATOM     52  C   UNL     1      -2.805   4.067   8.430  1.00  0.00     0.131 A 
ATOM     53  C   UNL     1      -3.649   5.297  10.755  1.00  0.00     0.055 A 
ATOM     54  C   UNL     1      -4.169   4.266   8.659  1.00  0.00     0.041 A 
ATOM     55  F   UNL     1      -2.494   3.539   7.236  1.00  0.00    -0.206 F 
ATOM     56  C   UNL     1      -4.598   4.891   9.816  1.00  0.00     0.022 A 
BRANCH  53  57
ATOM     57  S   UNL     1      -4.276   6.157  12.248  1.00  0.00     0.124 S 
ATOM     58  O   UNL     1      -3.962   5.210  13.312  1.00  0.00    -0.237 OA
ATOM     59  O   UNL     1      -3.521   7.404  12.241  1.00  0.00    -0.237 OA
ATOM     60  O   UNL     1      -5.708   6.314  11.978  1.00  0.00    -0.744 OA
ENDBRANCH  53  57
ENDBRANCH  26  50
BRANCH  38  61
ATOM     61  C   UNL     1       4.499   4.768   9.783  1.00  0.00     0.023 A 
ATOM     62  C   UNL     1       3.993   3.458   9.946  1.00  0.00     0.031 A 
ATOM     63  C   UNL     1       5.689   5.094  10.457  1.00  0.00     0.131 A 
ATOM     64  C   UNL     1       4.668   2.541  10.778  1.00  0.00     0.055 A 
ATOM     65  C   UNL     1       6.367   4.179  11.258  1.00  0.00     0.041 A 
ATOM     66  F   UNL     1       6.235   6.315  10.326  1.00  0.00    -0.206 F 
ATOM     67  C   UNL     1       5.853   2.900  11.430  1.00  0.00     0.022 A 
BRANCH  64  68
ATOM     68  S   UNL     1       4.001   0.869  11.064  1.00  0.00     0.124 S 
ATOM     69  O   UNL     1       2.584   1.101  11.315  1.00  0.00    -0.237 OA
ATOM     70  O   UNL     1       4.324   0.183   9.815  1.00  0.00    -0.237 OA
ATOM     71  O   UNL     1       4.757   0.397  12.226  1.00  0.00    -0.744 OA
ENDBRANCH  64  68
ENDBRANCH  38  61
ENDBRANCH  12  13
ENDBRANCH   5   7
ENDBRANCH   2   3
ENDBRANCH   1   2
BRANCH   1  72
ATOM     72  C   UNL     1       4.044  -3.230   0.664  1.00  0.00     0.117 C 
BRANCH  72  73
ATOM     73  N   UNL     1       5.090  -4.115   0.073  1.00  0.00    -0.355 N 
ATOM     74  C   UNL     1       6.221  -4.746   0.643  1.00  0.00     0.234 C 
ATOM     75  H   UNL     1       4.973  -4.291  -0.889  1.00  0.00     0.163 HD
ATOM     76  O   UNL     1       7.248  -4.730  -0.041  1.00  0.00    -0.274 OA
BRANCH  74  77
ATOM     77  C   UNL     1       5.992  -5.767   1.822  1.00  0.00     0.125 C 
ATOM     78  C   UNL     1       5.126  -4.947   2.769  1.00  0.00     0.280 C 
ATOM     79  C   UNL     1       6.728  -6.587   2.953  1.00  0.00     0.087 C 
ATOM     80  C   UNL     1       5.847  -6.994   0.832  1.00  0.00     0.143 C 
ATOM     81  N   UNL     1       5.840  -4.760   4.030  1.00  0.00    -0.345 N 
ATOM     82  C   UNL     1       6.384  -6.040   4.343  1.00  0.00     0.267 C 
ATOM     83  C   UNL     1       6.015  -7.963   2.937  1.00  0.00     0.130 C 
ATOM     84  N   UNL     1       5.818  -8.239   1.559  1.00  0.00    -0.337 N 
ATOM     85  H   UNL     1       5.200  -4.455   4.763  1.00  0.00     0.346 HD
ATOM     86  H   UNL     1       6.564  -4.045   3.957  1.00  0.00     0.346 HD
BRANCH  84  87
ATOM     87  C   UNL     1       5.684  -9.541   1.106  1.00  0.00     0.256 C 
ATOM     88  O   UNL     1       5.463 -10.493   1.827  1.00  0.00    -0.269 OA
BRANCH  87  89
ATOM     89  C   UNL     1       5.901  -9.815  -0.333  1.00  0.00     0.065 A 
ATOM     90  C   UNL     1       4.781 -10.233  -1.063  1.00  0.00     0.016 A 
ATOM     91  C   UNL     1       7.145  -9.686  -0.972  1.00  0.00     0.079 A 
ATOM     92  C   UNL     1       4.887 -10.476  -2.433  1.00  0.00     0.001 A 
ATOM     93  C   UNL     1       7.230  -9.881  -2.363  1.00  0.00     0.029 A 
ATOM     94  C   UNL     1       6.105 -10.288  -3.084  1.00  0.00     0.002 A 
BRANCH  91  95
ATOM     95  N   UNL     1       8.333  -9.379  -0.268  1.00  0.00    -0.220 N 
ATOM     96  C   UNL     1       8.700  -9.696   1.017  1.00  0.00     0.225 A 
ATOM     97  N   UNL     1       9.339  -8.681  -0.854  1.00  0.00    -0.155 NA
ATOM     98  N   UNL     1       9.819  -9.086   1.337  1.00  0.00    -0.223 NA
ATOM     99  C   UNL     1      10.144  -8.441   0.183  1.00  0.00     0.246 A 
ENDBRANCH  91  95
ENDBRANCH  87  89
ENDBRANCH  84  87
ENDBRANCH  74  77
ENDBRANCH  72  73
ENDBRANCH   1  72
TORSDOF 16
