REMARK SMILES C[C@@H]1CN([C@@H](CCS(C)(=O)=O)C(=O)NCCCNC(=O)c2ccc(-c3c4nc(c(-c5cc(S(=O)(=O)[O-])ccc5F)c5ccc([nH]5)c(-c5cc(S(=O)(=O)[O-])ccc5F)c5nc(c(-c6cc(S(=O)(=O)[O-])ccc6F)c6ccc3[nH]6)C=C5)C=C4)cc2)S(=O)(=O)C1
REMARK SMILES IDX 16 1 15 2 14 3 12 4 13 5 5 7 4 8 1 9 2 10 3 11 87 12 84 13
REMARK SMILES IDX 85 14 86 15 6 16 7 17 8 18 9 19 10 20 11 21 17 22 18 23
REMARK SMILES IDX 19 24 20 26 21 27 22 28 83 29 23 30 82 31 24 32 25 33 26 34
REMARK SMILES IDX 76 35 27 36 81 37 75 38 77 39 28 40 80 41 74 42 73 43 29 45
REMARK SMILES IDX 61 46 41 47 60 48 42 49 45 50 59 51 78 52 43 53 44 54 58 56
REMARK SMILES IDX 79 57 46 58 30 59 31 60 39 61 32 62 38 63 40 64 37 65 33 66
REMARK SMILES IDX 34 67 35 68 36 69 62 70 63 71 71 72 64 73 70 74 72 75 69 76
REMARK SMILES IDX 65 77 66 78 67 79 68 80 47 81 48 82 56 83 49 84 55 85 57 86
REMARK SMILES IDX 54 87 50 88 51 89 52 90 53 91
REMARK H PARENT 14 6 18 25 77 44 45 55
REMARK Flexibility Score: inf
ROOT
ATOM      1  C   UNL     1       2.626   3.182   5.227  1.00  0.00     0.042 C 
ENDROOT
BRANCH   1   2
ATOM      2  C   UNL     1       1.269   3.655   4.766  1.00  0.00     0.117 C 
BRANCH   2   3
ATOM      3  N   UNL     1       1.353   4.701   3.778  1.00  0.00    -0.355 N 
ATOM      4  C   UNL     1       0.721   4.819   2.589  1.00  0.00     0.238 C 
ATOM      5  O   UNL     1       0.816   5.910   2.010  1.00  0.00    -0.273 OA
ATOM      6  H   UNL     1       1.963   5.440   4.003  1.00  0.00     0.163 HD
BRANCH   4   7
ATOM      7  C   UNL     1      -0.181   3.742   1.997  1.00  0.00     0.163 C 
BRANCH   7   8
ATOM      8  N   UNL     1       0.203   2.321   1.702  1.00  0.00    -0.189 NA
ATOM      9  C   UNL     1       0.488  -0.240  -1.079  1.00  0.00     0.010 C 
ATOM     10  C   UNL     1       0.443   0.430   0.281  1.00  0.00     0.017 C 
ATOM     11  C   UNL     1       0.045   1.913   0.271  1.00  0.00     0.107 C 
ATOM     12  C   UNL     1       1.801   0.400   0.966  1.00  0.00     0.159 C 
ATOM     13  S   UNL     1       1.684   1.638   2.237  1.00  0.00     0.215 S 
ATOM     14  O   UNL     1       2.740   2.600   2.022  1.00  0.00    -0.212 OA
ATOM     15  O   UNL     1       1.437   0.957   3.481  1.00  0.00    -0.212 OA
ENDBRANCH   7   8
BRANCH   7  16
ATOM     16  C   UNL     1      -1.637   3.824   2.553  1.00  0.00     0.046 C 
BRANCH  16  17
ATOM     17  C   UNL     1      -1.969   3.180   3.898  1.00  0.00     0.139 C 
BRANCH  17  18
ATOM     18  S   UNL     1      -2.089   4.311   5.297  1.00  0.00     0.147 S 
ATOM     19  C   UNL     1      -3.638   5.141   5.119  1.00  0.00     0.158 C 
ATOM     20  O   UNL     1      -2.179   3.502   6.498  1.00  0.00    -0.229 OA
ATOM     21  O   UNL     1      -1.094   5.356   5.185  1.00  0.00    -0.229 OA
ENDBRANCH  17  18
ENDBRANCH  16  17
ENDBRANCH   7  16
ENDBRANCH   4   7
ENDBRANCH   2   3
ENDBRANCH   1   2
BRANCH   1  22
ATOM     22  C   UNL     1       2.987   3.893   6.513  1.00  0.00     0.118 C 
BRANCH  22  23
ATOM     23  N   UNL     1       2.119   3.484   7.627  1.00  0.00    -0.352 N 
ATOM     24  C   UNL     1       2.357   2.631   8.678  1.00  0.00     0.251 C 
ATOM     25  H   UNL     1       1.221   3.886   7.619  1.00  0.00     0.163 HD
ATOM     26  O   UNL     1       1.432   2.222   9.371  1.00  0.00    -0.269 OA
BRANCH  24  27
ATOM     27  C   UNL     1       3.739   2.193   8.940  1.00  0.00     0.039 A 
ATOM     28  C   UNL     1       3.999   0.876   9.314  1.00  0.00     0.014 A 
ATOM     29  C   UNL     1       4.784   3.090   8.743  1.00  0.00     0.014 A 
ATOM     30  C   UNL     1       5.323   0.445   9.393  1.00  0.00     0.010 A 
ATOM     31  C   UNL     1       6.071   2.610   8.617  1.00  0.00     0.010 A 
ATOM     32  C   UNL     1       6.366   1.294   8.985  1.00  0.00    -0.014 A 
BRANCH  32  33
ATOM     33  C   UNL     1       7.784   0.862   8.985  1.00  0.00     0.031 A 
ATOM     34  C   UNL     1       8.801   1.672   9.747  1.00  0.00     0.074 A 
ATOM     35  C   UNL     1       8.165  -0.191   8.237  1.00  0.00     0.049 A 
ATOM     36  N   UNL     1      10.102   1.545   9.786  1.00  0.00    -0.248 NA
ATOM     37  C   UNL     1       8.292   2.820  10.516  1.00  0.00     0.031 C 
ATOM     38  C   UNL     1       7.278  -0.998   7.395  1.00  0.00     0.029 A 
ATOM     39  N   UNL     1       9.398  -0.761   8.059  1.00  0.00    -0.354 N 
ATOM     40  C   UNL     1      10.558   2.611  10.556  1.00  0.00     0.074 A 
ATOM     41  C   UNL     1       9.411   3.434  10.858  1.00  0.00     0.031 C 
ATOM     42  C   UNL     1       7.988  -1.985   6.827  1.00  0.00     0.029 A 
ATOM     43  C   UNL     1       9.388  -1.844   7.212  1.00  0.00     0.049 A 
ATOM     44  H   UNL     1      10.214  -0.426   8.496  1.00  0.00     0.167 HD
ATOM     45  C   UNL     1      11.811   2.855  11.011  1.00  0.00     0.034 A 
ATOM     46  C   UNL     1      10.397  -2.625   6.782  1.00  0.00     0.034 A 
ATOM     47  C   UNL     1      12.932   2.003  10.709  1.00  0.00     0.049 A 
ATOM     48  C   UNL     1      11.787  -2.341   7.287  1.00  0.00     0.074 A 
ATOM     49  C   UNL     1      14.235   2.099  11.158  1.00  0.00     0.029 A 
ATOM     50  N   UNL     1      12.881   0.897   9.866  1.00  0.00    -0.354 N 
ATOM     51  N   UNL     1      12.197  -1.374   8.077  1.00  0.00    -0.248 NA
ATOM     52  C   UNL     1      12.846  -3.259   6.857  1.00  0.00     0.031 C 
ATOM     53  C   UNL     1      14.988   1.107  10.521  1.00  0.00     0.029 A 
ATOM     54  C   UNL     1      14.138   0.328   9.750  1.00  0.00     0.049 A 
ATOM     55  H   UNL     1      12.069   0.568   9.416  1.00  0.00     0.167 HD
ATOM     56  C   UNL     1      13.561  -1.580   8.256  1.00  0.00     0.074 A 
ATOM     57  C   UNL     1      13.896  -2.776   7.506  1.00  0.00     0.031 C 
ATOM     58  C   UNL     1      14.455  -0.855   8.978  1.00  0.00     0.034 A 
BRANCH  45  59
ATOM     59  C   UNL     1      12.010   4.099  11.851  1.00  0.00     0.023 A 
ATOM     60  C   UNL     1      11.283   4.315  13.037  1.00  0.00     0.031 A 
ATOM     61  C   UNL     1      12.871   5.122  11.420  1.00  0.00     0.131 A 
ATOM     62  C   UNL     1      11.335   5.563  13.677  1.00  0.00     0.055 A 
ATOM     63  C   UNL     1      13.003   6.321  12.125  1.00  0.00     0.041 A 
ATOM     64  F   UNL     1      13.577   4.991  10.286  1.00  0.00    -0.206 F 
ATOM     65  C   UNL     1      12.213   6.558  13.246  1.00  0.00     0.022 A 
BRANCH  62  66
ATOM     66  S   UNL     1      10.087   5.937  14.941  1.00  0.00     0.124 S 
ATOM     67  O   UNL     1       8.845   5.722  14.201  1.00  0.00    -0.237 OA
ATOM     68  O   UNL     1      10.388   4.960  15.981  1.00  0.00    -0.237 OA
ATOM     69  O   UNL     1      10.360   7.329  15.291  1.00  0.00    -0.744 OA
ENDBRANCH  62  66
ENDBRANCH  45  59
BRANCH  46  70
ATOM     70  C   UNL     1      10.124  -3.729   5.817  1.00  0.00     0.023 A 
ATOM     71  C   UNL     1      10.284  -5.076   6.178  1.00  0.00     0.031 A 
ATOM     72  C   UNL     1       9.683  -3.444   4.511  1.00  0.00     0.131 A 
ATOM     73  C   UNL     1      10.032  -6.086   5.235  1.00  0.00     0.055 A 
ATOM     74  C   UNL     1       9.382  -4.453   3.596  1.00  0.00     0.041 A 
ATOM     75  F   UNL     1       9.507  -2.173   4.117  1.00  0.00    -0.206 F 
ATOM     76  C   UNL     1       9.565  -5.784   3.954  1.00  0.00     0.022 A 
BRANCH  73  77
ATOM     77  S   UNL     1      10.380  -7.809   5.686  1.00  0.00     0.124 S 
ATOM     78  O   UNL     1      11.805  -7.755   5.991  1.00  0.00    -0.237 OA
ATOM     79  O   UNL     1       9.487  -8.014   6.821  1.00  0.00    -0.237 OA
ATOM     80  O   UNL     1      10.028  -8.554   4.478  1.00  0.00    -0.744 OA
ENDBRANCH  73  77
ENDBRANCH  46  70
BRANCH  58  81
ATOM     81  C   UNL     1      15.876  -1.361   9.020  1.00  0.00     0.023 A 
ATOM     82  C   UNL     1      16.683  -1.402   7.870  1.00  0.00     0.031 A 
ATOM     83  C   UNL     1      16.430  -1.809  10.233  1.00  0.00     0.131 A 
ATOM     84  C   UNL     1      17.979  -1.935   7.946  1.00  0.00     0.055 A 
ATOM     85  C   UNL     1      17.744  -2.269  10.317  1.00  0.00     0.041 A 
ATOM     86  F   UNL     1      15.702  -1.799  11.362  1.00  0.00    -0.206 F 
ATOM     87  C   UNL     1      18.521  -2.347   9.166  1.00  0.00     0.022 A 
BRANCH  84  88
ATOM     88  S   UNL     1      18.907  -2.186   6.409  1.00  0.00     0.124 S 
ATOM     89  O   UNL     1      18.010  -3.056   5.654  1.00  0.00    -0.237 OA
ATOM     90  O   UNL     1      19.050  -0.825   5.903  1.00  0.00    -0.237 OA
ATOM     91  O   UNL     1      20.148  -2.815   6.857  1.00  0.00    -0.744 OA
ENDBRANCH  84  88
ENDBRANCH  58  81
ENDBRANCH  32  33
ENDBRANCH  24  27
ENDBRANCH  22  23
ENDBRANCH   1  22
TORSDOF 17
