REMARK SMILES Cc1ccccc1NC(=O)NC[C@@H]1CC[C@@H](C(=O)NCCCNC(=O)c2ccc(-c3c4nc(c(-c5cc(S(=O)(=O)[O-])ccc5F)c5ccc([nH]5)c(-c5cc(S(=O)(=O)[O-])ccc5F)c5nc(c(-c6cc(S(=O)(=O)[O-])ccc6F)c6ccc3[nH]6)C=C5)C=C4)cc2)O1
REMARK SMILES IDX 21 1 20 2 19 3 17 4 18 5 16 7 13 8 14 9 89 10 15 11 12 12
REMARK SMILES IDX 11 13 8 14 9 15 10 17 7 19 1 20 2 21 3 22 4 23 6 24 5 25
REMARK SMILES IDX 22 26 23 27 24 28 25 30 26 31 27 32 88 33 28 34 87 35 29 36
REMARK SMILES IDX 30 37 31 38 81 39 32 40 86 41 80 42 82 43 33 44 85 45 79 46
REMARK SMILES IDX 78 47 34 49 66 50 46 51 65 52 47 53 50 54 64 55 83 56 48 57
REMARK SMILES IDX 49 58 63 60 84 61 51 62 35 63 36 64 44 65 37 66 43 67 45 68
REMARK SMILES IDX 42 69 38 70 39 71 40 72 41 73 67 74 68 75 76 76 69 77 75 78
REMARK SMILES IDX 77 79 74 80 70 81 71 82 72 83 73 84 52 85 53 86 61 87 54 88
REMARK SMILES IDX 60 89 62 90 59 91 55 92 56 93 57 94 58 95
REMARK H PARENT 19 6 8 16 11 18 23 29 82 48 50 59
REMARK Flexibility Score: inf
ROOT
ATOM      1  C   UNL     1      -7.062   0.970   3.868  1.00  0.00     0.042 C 
ENDROOT
BRANCH   1   2
ATOM      2  C   UNL     1      -7.575   2.233   3.172  1.00  0.00     0.117 C 
BRANCH   2   3
ATOM      3  N   UNL     1      -6.722   3.391   3.421  1.00  0.00    -0.354 N 
ATOM      4  C   UNL     1      -5.704   3.926   2.679  1.00  0.00     0.249 C 
ATOM      5  O   UNL     1      -5.147   4.941   3.105  1.00  0.00    -0.272 OA
ATOM      6  H   UNL     1      -6.910   3.865   4.263  1.00  0.00     0.163 HD
BRANCH   4   7
ATOM      7  C   UNL     1      -5.293   3.280   1.334  1.00  0.00     0.207 C 
ATOM      8  C   UNL     1      -3.091   2.834   0.664  1.00  0.00     0.138 C 
ATOM      9  C   UNL     1      -3.913   1.588   0.427  1.00  0.00     0.037 C 
ATOM     10  O   UNL     1      -4.094   3.867   0.746  1.00  0.00    -0.363 OA
ATOM     11  C   UNL     1      -4.993   1.793   1.448  1.00  0.00     0.045 C 
BRANCH   8  12
ATOM     12  C   UNL     1      -2.035   3.088  -0.427  1.00  0.00     0.149 C 
BRANCH  12  13
ATOM     13  N   UNL     1      -0.824   3.686   0.134  1.00  0.00    -0.335 N 
ATOM     14  N   UNL     1       1.018   2.136   0.131  1.00  0.00    -0.308 N 
ATOM     15  C   UNL     1       0.459   3.346   0.275  1.00  0.00     0.319 C 
ATOM     16  H   UNL     1       1.994   2.219   0.024  1.00  0.00     0.171 HD
ATOM     17  O   UNL     1       1.246   4.273   0.515  1.00  0.00    -0.249 OA
ATOM     18  H   UNL     1      -1.003   4.579   0.508  1.00  0.00     0.165 HD
BRANCH  14  19
ATOM     19  C   UNL     1       0.634   0.784   0.086  1.00  0.00     0.045 A 
ATOM     20  C   UNL     1       3.048   0.036  -0.439  1.00  0.00     0.046 C 
ATOM     21  C   UNL     1       1.570  -0.211  -0.280  1.00  0.00    -0.027 A 
ATOM     22  C   UNL     1       1.150  -1.555  -0.397  1.00  0.00     0.005 A 
ATOM     23  C   UNL     1      -0.164  -1.923  -0.135  1.00  0.00     0.000 A 
ATOM     24  C   UNL     1      -0.629   0.362   0.472  1.00  0.00     0.026 A 
ATOM     25  C   UNL     1      -1.048  -0.965   0.329  1.00  0.00     0.002 A 
ENDBRANCH  14  19
ENDBRANCH  12  13
ENDBRANCH   8  12
ENDBRANCH   4   7
ENDBRANCH   2   3
ENDBRANCH   1   2
BRANCH   1  26
ATOM     26  C   UNL     1      -7.565   0.829   5.301  1.00  0.00     0.118 C 
BRANCH  26  27
ATOM     27  N   UNL     1      -8.569  -0.220   5.486  1.00  0.00    -0.352 N 
ATOM     28  C   UNL     1      -9.143  -0.632   6.676  1.00  0.00     0.251 C 
ATOM     29  H   UNL     1      -8.869  -0.686   4.672  1.00  0.00     0.163 HD
ATOM     30  O   UNL     1      -9.970  -1.536   6.733  1.00  0.00    -0.269 OA
BRANCH  28  31
ATOM     31  C   UNL     1      -8.814   0.150   7.886  1.00  0.00     0.039 A 
ATOM     32  C   UNL     1      -9.821   0.975   8.395  1.00  0.00     0.014 A 
ATOM     33  C   UNL     1      -7.479   0.329   8.244  1.00  0.00     0.014 A 
ATOM     34  C   UNL     1      -9.461   2.137   9.067  1.00  0.00     0.010 A 
ATOM     35  C   UNL     1      -7.121   1.526   8.837  1.00  0.00     0.010 A 
ATOM     36  C   UNL     1      -8.108   2.464   9.173  1.00  0.00    -0.014 A 
BRANCH  36  37
ATOM     37  C   UNL     1      -7.657   3.826   9.454  1.00  0.00     0.031 A 
ATOM     38  C   UNL     1      -7.036   4.169  10.748  1.00  0.00     0.074 A 
ATOM     39  C   UNL     1      -7.795   4.790   8.516  1.00  0.00     0.049 A 
ATOM     40  N   UNL     1      -6.989   5.359  11.248  1.00  0.00    -0.248 NA
ATOM     41  C   UNL     1      -6.471   3.155  11.624  1.00  0.00     0.031 C 
ATOM     42  C   UNL     1      -7.207   6.125   8.522  1.00  0.00     0.029 A 
ATOM     43  N   UNL     1      -8.736   4.826   7.485  1.00  0.00    -0.354 N 
ATOM     44  C   UNL     1      -6.164   5.324  12.348  1.00  0.00     0.074 A 
ATOM     45  C   UNL     1      -5.939   3.917  12.584  1.00  0.00     0.031 C 
ATOM     46  C   UNL     1      -7.961   6.930   7.758  1.00  0.00     0.029 A 
ATOM     47  C   UNL     1      -9.127   6.173   7.340  1.00  0.00     0.049 A 
ATOM     48  H   UNL     1      -9.062   4.060   6.960  1.00  0.00     0.167 HD
ATOM     49  C   UNL     1      -5.669   6.493  12.852  1.00  0.00     0.034 A 
ATOM     50  C   UNL     1     -10.426   6.545   7.527  1.00  0.00     0.034 A 
ATOM     51  C   UNL     1      -6.279   7.666  12.213  1.00  0.00     0.049 A 
ATOM     52  C   UNL     1     -10.640   7.513   8.675  1.00  0.00     0.074 A 
ATOM     53  C   UNL     1      -5.871   8.581  11.256  1.00  0.00     0.029 A 
ATOM     54  N   UNL     1      -7.636   7.887  12.390  1.00  0.00    -0.354 N 
ATOM     55  N   UNL     1      -9.696   7.953   9.462  1.00  0.00    -0.248 NA
ATOM     56  C   UNL     1     -11.966   7.983   9.081  1.00  0.00     0.031 C 
ATOM     57  C   UNL     1      -7.015   9.322  10.832  1.00  0.00     0.029 A 
ATOM     58  C   UNL     1      -8.111   8.872  11.546  1.00  0.00     0.049 A 
ATOM     59  H   UNL     1      -8.193   7.401  13.039  1.00  0.00     0.167 HD
ATOM     60  C   UNL     1     -10.259   8.666  10.488  1.00  0.00     0.074 A 
ATOM     61  C   UNL     1     -11.682   8.667  10.201  1.00  0.00     0.031 C 
ATOM     62  C   UNL     1      -9.537   9.164  11.535  1.00  0.00     0.034 A 
BRANCH  49  63
ATOM     63  C   UNL     1      -4.447   6.588  13.749  1.00  0.00     0.023 A 
ATOM     64  C   UNL     1      -3.689   7.780  13.749  1.00  0.00     0.031 A 
ATOM     65  C   UNL     1      -3.932   5.561  14.565  1.00  0.00     0.131 A 
ATOM     66  C   UNL     1      -2.457   7.873  14.427  1.00  0.00     0.055 A 
ATOM     67  C   UNL     1      -2.678   5.628  15.187  1.00  0.00     0.041 A 
ATOM     68  F   UNL     1      -4.640   4.468  14.864  1.00  0.00    -0.206 F 
ATOM     69  C   UNL     1      -1.925   6.785  15.110  1.00  0.00     0.022 A 
BRANCH  66  70
ATOM     70  S   UNL     1      -1.554   9.445  14.411  1.00  0.00     0.124 S 
ATOM     71  O   UNL     1      -1.343   9.667  12.985  1.00  0.00    -0.237 OA
ATOM     72  O   UNL     1      -2.491  10.343  15.076  1.00  0.00    -0.237 OA
ATOM     73  O   UNL     1      -0.342   9.146  15.174  1.00  0.00    -0.744 OA
ENDBRANCH  66  70
ENDBRANCH  49  63
BRANCH  50  74
ATOM     74  C   UNL     1     -11.396   5.504   7.080  1.00  0.00     0.023 A 
ATOM     75  C   UNL     1     -11.355   5.113   5.723  1.00  0.00     0.031 A 
ATOM     76  C   UNL     1     -12.059   4.666   7.985  1.00  0.00     0.131 A 
ATOM     77  C   UNL     1     -11.832   3.853   5.337  1.00  0.00     0.055 A 
ATOM     78  C   UNL     1     -12.585   3.433   7.584  1.00  0.00     0.041 A 
ATOM     79  F   UNL     1     -12.099   4.964   9.293  1.00  0.00    -0.206 F 
ATOM     80  C   UNL     1     -12.434   3.002   6.266  1.00  0.00     0.022 A 
BRANCH  77  81
ATOM     81  S   UNL     1     -11.457   3.217   3.678  1.00  0.00     0.124 S 
ATOM     82  O   UNL     1     -12.737   3.352   2.994  1.00  0.00    -0.237 OA
ATOM     83  O   UNL     1     -10.392   4.099   3.210  1.00  0.00    -0.237 OA
ATOM     84  O   UNL     1     -11.021   1.846   3.944  1.00  0.00    -0.744 OA
ENDBRANCH  77  81
ENDBRANCH  50  74
BRANCH  62  85
ATOM     85  C   UNL     1     -10.170   9.950  12.650  1.00  0.00     0.023 A 
ATOM     86  C   UNL     1     -11.137  10.939  12.400  1.00  0.00     0.031 A 
ATOM     87  C   UNL     1      -9.779   9.777  13.995  1.00  0.00     0.131 A 
ATOM     88  C   UNL     1     -11.722  11.653  13.459  1.00  0.00     0.055 A 
ATOM     89  C   UNL     1     -10.299  10.552  15.036  1.00  0.00     0.041 A 
ATOM     90  F   UNL     1      -8.914   8.818  14.357  1.00  0.00    -0.206 F 
ATOM     91  C   UNL     1     -11.287  11.489  14.773  1.00  0.00     0.022 A 
BRANCH  88  92
ATOM     92  S   UNL     1     -13.130  12.736  13.101  1.00  0.00     0.124 S 
ATOM     93  O   UNL     1     -12.605  13.610  12.057  1.00  0.00    -0.237 OA
ATOM     94  O   UNL     1     -14.141  11.773  12.674  1.00  0.00    -0.237 OA
ATOM     95  O   UNL     1     -13.399  13.388  14.381  1.00  0.00    -0.744 OA
ENDBRANCH  88  92
ENDBRANCH  62  85
ENDBRANCH  36  37
ENDBRANCH  28  31
ENDBRANCH  26  27
ENDBRANCH   1  26
TORSDOF 16
