REMARK SMILES CCn1c(CC2CC[NH+](Cc3cn[nH]c3C(=O)NCCCNC(=O)c3ccc(-c4c5nc(c(-c6cc(S(=O)(=O)[O-])ccc6F)c6ccc([nH]6)c(-c6cc(S(=O)(=O)[O-])ccc6F)c6nc(c(-c7cc(S(=O)(=O)[O-])ccc7F)c7ccc4[nH]7)C=C6)C=C5)cc3)CC2)nn(C)c1=O
REMARK SMILES IDX 19 1 18 2 16 3 17 4 15 6 11 7 12 8 13 9 14 10 10 12 9 13
REMARK SMILES IDX 6 14 7 15 89 16 8 17 88 18 5 20 4 21 3 22 93 23 90 24 91 25
REMARK SMILES IDX 94 26 92 27 2 28 1 29 20 30 21 31 22 32 23 33 24 35 25 36
REMARK SMILES IDX 26 37 87 38 27 39 86 40 28 41 29 42 30 43 80 44 31 45 85 46
REMARK SMILES IDX 79 47 81 48 32 49 84 50 78 51 77 52 33 54 65 55 45 56 64 57
REMARK SMILES IDX 46 58 49 59 63 60 82 61 47 62 48 63 62 65 83 66 50 67 34 68
REMARK SMILES IDX 35 69 43 70 36 71 42 72 44 73 41 74 37 75 38 76 39 77 40 78
REMARK SMILES IDX 66 79 67 80 75 81 68 82 74 83 76 84 73 85 69 86 70 87 71 88
REMARK SMILES IDX 72 89 51 90 52 91 60 92 53 93 59 94 61 95 58 96 54 97 55 98
REMARK SMILES IDX 56 99 57 100
REMARK H PARENT 18 5 14 11 9 19 22 34 81 53 49 64
REMARK Flexibility Score: inf
ROOT
ATOM      1  C   UNL     1       6.107  -3.839   0.134  1.00  0.00     0.118 C 
ENDROOT
BRANCH   1   2
ATOM      2  N   UNL     1       4.926  -3.412   0.855  1.00  0.00    -0.351 N 
ATOM      3  C   UNL     1       3.587  -3.492   0.603  1.00  0.00     0.269 C 
ATOM      4  O   UNL     1       2.863  -3.037   1.493  1.00  0.00    -0.268 OA
ATOM      5  H   UNL     1       5.133  -2.970   1.709  1.00  0.00     0.163 HD
BRANCH   3   6
ATOM      6  C   UNL     1       2.989  -4.125  -0.551  1.00  0.00     0.131 A 
ATOM      7  C   UNL     1       3.267  -4.423  -1.888  1.00  0.00     0.057 A 
ATOM      8  C   UNL     1       2.125  -5.145  -2.323  1.00  0.00     0.145 A 
ATOM      9  N   UNL     1       1.174  -5.239  -1.403  1.00  0.00    -0.183 NA
ATOM     10  N   UNL     1       1.678  -4.534  -0.384  1.00  0.00    -0.272 N 
ATOM     11  H   UNL     1       1.156  -4.323   0.423  1.00  0.00     0.190 HD
BRANCH   7  12
ATOM     12  C   UNL     1       4.417  -4.158  -2.803  1.00  0.00     0.303 C 
BRANCH  12  13
ATOM     13  N   UNL     1       4.414  -2.848  -3.481  1.00  0.00    -0.331 N 
ATOM     14  C   UNL     1       3.410  -0.357  -4.738  1.00  0.00     0.008 C 
ATOM     15  C   UNL     1       3.814  -1.589  -5.560  1.00  0.00     0.065 C 
ATOM     16  C   UNL     1       4.112  -0.396  -3.381  1.00  0.00     0.065 C 
ATOM     17  C   UNL     1       3.777  -2.918  -4.798  1.00  0.00     0.262 C 
ATOM     18  C   UNL     1       3.925  -1.733  -2.674  1.00  0.00     0.262 C 
ATOM     19  H   UNL     1       5.399  -2.627  -3.625  1.00  0.00     0.348 HD
BRANCH  14  20
ATOM     20  C   UNL     1       1.895  -0.069  -4.663  1.00  0.00     0.081 C 
BRANCH  20  21
ATOM     21  C   UNL     1       1.004  -1.069  -3.965  1.00  0.00     0.133 A 
ATOM     22  N   UNL     1       0.500  -0.900  -2.724  1.00  0.00    -0.279 N 
ATOM     23  C   UNL     1      -0.287  -2.010  -2.487  1.00  0.00     0.345 A 
ATOM     24  N   UNL     1       0.635  -2.173  -4.554  1.00  0.00    -0.155 NA
ATOM     25  N   UNL     1      -0.159  -2.797  -3.628  1.00  0.00    -0.216 N 
ATOM     26  O   UNL     1      -0.988  -2.224  -1.511  1.00  0.00    -0.246 OA
ATOM     27  C   UNL     1      -0.811  -4.052  -3.875  1.00  0.00     0.179 C 
BRANCH  22  28
ATOM     28  C   UNL     1       0.530   0.234  -1.814  1.00  0.00     0.125 C 
ATOM     29  C   UNL     1       1.155  -0.079  -0.462  1.00  0.00     0.028 C 
ENDBRANCH  22  28
ENDBRANCH  20  21
ENDBRANCH  14  20
ENDBRANCH  12  13
ENDBRANCH   7  12
ENDBRANCH   3   6
ENDBRANCH   1   2
BRANCH   1  30
ATOM     30  C   UNL     1       6.686  -2.679  -0.686  1.00  0.00     0.042 C 
BRANCH  30  31
ATOM     31  C   UNL     1       8.058  -2.221  -0.247  1.00  0.00     0.118 C 
BRANCH  31  32
ATOM     32  N   UNL     1       9.088  -3.223  -0.489  1.00  0.00    -0.352 N 
ATOM     33  C   UNL     1      10.327  -3.319   0.130  1.00  0.00     0.251 C 
ATOM     34  H   UNL     1       8.883  -3.907  -1.167  1.00  0.00     0.163 HD
ATOM     35  O   UNL     1      11.234  -3.945  -0.366  1.00  0.00    -0.269 OA
BRANCH  33  36
ATOM     36  C   UNL     1      10.482  -2.597   1.409  1.00  0.00     0.039 A 
ATOM     37  C   UNL     1      11.487  -1.642   1.563  1.00  0.00     0.014 A 
ATOM     38  C   UNL     1       9.471  -2.749   2.354  1.00  0.00     0.014 A 
ATOM     39  C   UNL     1      11.392  -0.744   2.623  1.00  0.00     0.010 A 
ATOM     40  C   UNL     1       9.301  -1.768   3.302  1.00  0.00     0.010 A 
ATOM     41  C   UNL     1      10.265  -0.773   3.464  1.00  0.00    -0.014 A 
BRANCH  41  42
ATOM     42  C   UNL     1      10.002   0.327   4.396  1.00  0.00     0.031 A 
ATOM     43  C   UNL     1      10.117   1.693   3.814  1.00  0.00     0.074 A 
ATOM     44  C   UNL     1       9.466   0.170   5.625  1.00  0.00     0.049 A 
ATOM     45  N   UNL     1      11.080   2.538   3.979  1.00  0.00    -0.248 NA
ATOM     46  C   UNL     1       9.132   2.116   2.806  1.00  0.00     0.031 C 
ATOM     47  C   UNL     1       8.996  -1.069   6.253  1.00  0.00     0.029 A 
ATOM     48  N   UNL     1       9.115   1.119   6.539  1.00  0.00    -0.354 N 
ATOM     49  C   UNL     1      10.674   3.707   3.342  1.00  0.00     0.074 A 
ATOM     50  C   UNL     1       9.627   3.303   2.444  1.00  0.00     0.031 C 
ATOM     51  C   UNL     1       8.213  -0.774   7.311  1.00  0.00     0.029 A 
ATOM     52  C   UNL     1       8.284   0.654   7.554  1.00  0.00     0.049 A 
ATOM     53  H   UNL     1       9.423   2.053   6.486  1.00  0.00     0.167 HD
ATOM     54  C   UNL     1      11.033   4.931   3.829  1.00  0.00     0.034 A 
ATOM     55  C   UNL     1       7.688   1.375   8.538  1.00  0.00     0.034 A 
ATOM     56  C   UNL     1      12.100   4.798   4.809  1.00  0.00     0.049 A 
ATOM     57  C   UNL     1       8.499   2.603   8.715  1.00  0.00     0.074 A 
ATOM     58  C   UNL     1      13.345   4.192   4.815  1.00  0.00     0.029 A 
ATOM     59  N   UNL     1      11.793   4.991   6.141  1.00  0.00    -0.354 N 
ATOM     60  N   UNL     1       9.734   2.587   9.138  1.00  0.00    -0.248 NA
ATOM     61  C   UNL     1       8.116   3.799   7.981  1.00  0.00     0.031 C 
ATOM     62  C   UNL     1      13.450   3.584   6.103  1.00  0.00     0.029 A 
ATOM     63  C   UNL     1      12.322   3.939   6.845  1.00  0.00     0.049 A 
ATOM     64  H   UNL     1      11.286   5.746   6.518  1.00  0.00     0.167 HD
ATOM     65  C   UNL     1      10.392   3.519   8.351  1.00  0.00     0.074 A 
ATOM     66  C   UNL     1       9.325   4.317   7.749  1.00  0.00     0.031 C 
ATOM     67  C   UNL     1      11.714   3.372   8.035  1.00  0.00     0.034 A 
BRANCH  54  68
ATOM     68  C   UNL     1      10.169   6.185   3.771  1.00  0.00     0.023 A 
ATOM     69  C   UNL     1      10.663   7.316   4.451  1.00  0.00     0.031 A 
ATOM     70  C   UNL     1       8.810   6.258   3.393  1.00  0.00     0.131 A 
ATOM     71  C   UNL     1       9.800   8.331   4.897  1.00  0.00     0.055 A 
ATOM     72  C   UNL     1       7.970   7.312   3.771  1.00  0.00     0.041 A 
ATOM     73  F   UNL     1       8.189   5.298   2.702  1.00  0.00    -0.206 F 
ATOM     74  C   UNL     1       8.450   8.332   4.572  1.00  0.00     0.022 A 
BRANCH  71  75
ATOM     75  S   UNL     1      10.445   9.512   6.107  1.00  0.00     0.124 S 
ATOM     76  O   UNL     1      10.932   8.609   7.145  1.00  0.00    -0.237 OA
ATOM     77  O   UNL     1      11.462  10.211   5.329  1.00  0.00    -0.237 OA
ATOM     78  O   UNL     1       9.272  10.306   6.462  1.00  0.00    -0.744 OA
ENDBRANCH  71  75
ENDBRANCH  54  68
BRANCH  55  79
ATOM     79  C   UNL     1       6.350   1.150   9.145  1.00  0.00     0.023 A 
ATOM     80  C   UNL     1       5.965   1.719  10.376  1.00  0.00     0.031 A 
ATOM     81  C   UNL     1       5.327   0.542   8.380  1.00  0.00     0.131 A 
ATOM     82  C   UNL     1       4.613   1.671  10.790  1.00  0.00     0.055 A 
ATOM     83  C   UNL     1       3.995   0.490   8.798  1.00  0.00     0.041 A 
ATOM     84  F   UNL     1       5.572   0.050   7.155  1.00  0.00    -0.206 F 
ATOM     85  C   UNL     1       3.631   1.067  10.003  1.00  0.00     0.022 A 
BRANCH  82  86
ATOM     86  S   UNL     1       4.090   2.503  12.325  1.00  0.00     0.124 S 
ATOM     87  O   UNL     1       4.664   1.645  13.354  1.00  0.00    -0.237 OA
ATOM     88  O   UNL     1       4.681   3.829  12.180  1.00  0.00    -0.237 OA
ATOM     89  O   UNL     1       2.629   2.476  12.246  1.00  0.00    -0.744 OA
ENDBRANCH  82  86
ENDBRANCH  55  79
BRANCH  67  90
ATOM     90  C   UNL     1      12.555   2.400   8.839  1.00  0.00     0.023 A 
ATOM     91  C   UNL     1      12.273   1.026   9.012  1.00  0.00     0.031 A 
ATOM     92  C   UNL     1      13.765   2.886   9.367  1.00  0.00     0.131 A 
ATOM     93  C   UNL     1      13.182   0.201   9.706  1.00  0.00     0.055 A 
ATOM     94  C   UNL     1      14.671   2.064  10.035  1.00  0.00     0.041 A 
ATOM     95  F   UNL     1      14.107   4.177   9.214  1.00  0.00    -0.206 F 
ATOM     96  C   UNL     1      14.379   0.718  10.214  1.00  0.00     0.022 A 
BRANCH  93  97
ATOM     97  S   UNL     1      12.817  -1.562   9.985  1.00  0.00     0.124 S 
ATOM     98  O   UNL     1      11.424  -1.563  10.416  1.00  0.00    -0.237 OA
ATOM     99  O   UNL     1      13.081  -2.150   8.674  1.00  0.00    -0.237 OA
ATOM    100  O   UNL     1      13.776  -1.946  11.024  1.00  0.00    -0.744 OA
ENDBRANCH  93  97
ENDBRANCH  67  90
ENDBRANCH  41  42
ENDBRANCH  33  36
ENDBRANCH  31  32
ENDBRANCH  30  31
ENDBRANCH   1  30
TORSDOF 18
