REMARK SMILES CC1(C)CN(CC(=O)NCCCNC(=O)c2ccc(-c3c4nc(c(-c5cc(S(=O)(=O)[O-])ccc5F)c5ccc([nH]5)c(-c5cc(S(=O)(=O)[O-])ccc5F)c5nc(c(-c6cc(S(=O)(=O)[O-])ccc6F)c6ccc3[nH]6)C=C5)C=C4)cc2)c2ccc(S(=O)(=O)N3CCCCC3)cc21
REMARK SMILES IDX 11 1 10 2 9 3 7 4 8 5 6 7 5 8 1 9 2 10 3 11 4 12 93 13 79 14
REMARK SMILES IDX 92 15 80 16 82 17 81 18 83 19 84 20 85 21 86 22 87 23 91 24
REMARK SMILES IDX 88 25 90 26 89 27 12 28 13 29 14 30 15 32 16 33 17 34 78 35
REMARK SMILES IDX 18 36 77 37 19 38 20 39 21 40 71 41 22 42 76 43 70 44 72 45
REMARK SMILES IDX 23 46 75 47 69 48 68 49 24 51 56 52 36 53 55 54 37 55 40 56
REMARK SMILES IDX 54 57 73 58 38 59 39 60 53 62 74 63 41 64 25 65 26 66 34 67
REMARK SMILES IDX 27 68 33 69 35 70 32 71 28 72 29 73 30 74 31 75 57 76 58 77
REMARK SMILES IDX 66 78 59 79 65 80 67 81 64 82 60 83 61 84 62 85 63 86 42 87
REMARK SMILES IDX 43 88 51 89 44 90 50 91 52 92 49 93 45 94 46 95 47 96 48 97
REMARK H PARENT 9 6 13 31 72 50 40 61
REMARK Flexibility Score: inf
ROOT
ATOM      1  C   UNL     1       3.521  -2.950   2.211  1.00  0.00     0.042 C 
ENDROOT
BRANCH   1   2
ATOM      2  C   UNL     1       3.265  -4.446   2.073  1.00  0.00     0.117 C 
BRANCH   2   3
ATOM      3  N   UNL     1       2.202  -4.909   2.943  1.00  0.00    -0.354 N 
ATOM      4  C   UNL     1       0.873  -5.059   2.654  1.00  0.00     0.239 C 
ATOM      5  O   UNL     1       0.124  -5.456   3.552  1.00  0.00    -0.273 OA
ATOM      6  H   UNL     1       2.471  -5.146   3.860  1.00  0.00     0.163 HD
BRANCH   4   7
ATOM      7  C   UNL     1       0.360  -4.802   1.230  1.00  0.00     0.216 C 
BRANCH   7   8
ATOM      8  N   UNL     1       0.377  -3.396   0.856  1.00  0.00    -0.361 N 
ATOM      9  C   UNL     1       1.676  -0.456  -0.486  1.00  0.00     0.018 C 
ATOM     10  C   UNL     1       0.508  -1.441  -0.604  1.00  0.00     0.009 C 
ATOM     11  C   UNL     1      -0.186  -1.293  -1.961  1.00  0.00     0.018 C 
ATOM     12  C   UNL     1       0.970  -2.917  -0.393  1.00  0.00     0.128 C 
ATOM     13  C   UNL     1      -0.452  -1.265   0.547  1.00  0.00    -0.016 A 
ATOM     14  C   UNL     1      -0.487  -2.426   1.324  1.00  0.00     0.041 A 
ATOM     15  C   UNL     1      -1.196  -0.138   0.878  1.00  0.00     0.028 A 
ATOM     16  C   UNL     1      -1.311  -2.476   2.434  1.00  0.00     0.027 A 
ATOM     17  C   UNL     1      -2.005  -0.180   2.019  1.00  0.00     0.083 A 
ATOM     18  C   UNL     1      -2.071  -1.352   2.784  1.00  0.00     0.024 A 
BRANCH  17  19
ATOM     19  S   UNL     1      -2.883   1.323   2.422  1.00  0.00     0.243 S 
ATOM     20  O   UNL     1      -1.859   2.313   2.703  1.00  0.00    -0.207 OA
ATOM     21  O   UNL     1      -3.847   1.513   1.364  1.00  0.00    -0.207 OA
BRANCH  19  22
ATOM     22  N   UNL     1      -3.748   1.061   3.869  1.00  0.00    -0.198 NA
ATOM     23  C   UNL     1      -4.967   0.230   3.764  1.00  0.00     0.102 C 
ATOM     24  C   UNL     1      -2.953   0.984   5.119  1.00  0.00     0.102 C 
ATOM     25  C   UNL     1      -5.807   0.299   5.032  1.00  0.00     0.017 C 
ATOM     26  C   UNL     1      -3.838   1.012   6.359  1.00  0.00     0.017 C 
ATOM     27  C   UNL     1      -4.967  -0.004   6.263  1.00  0.00     0.003 C 
ENDBRANCH  19  22
ENDBRANCH  17  19
ENDBRANCH   7   8
ENDBRANCH   4   7
ENDBRANCH   2   3
ENDBRANCH   1   2
BRANCH   1  28
ATOM     28  C   UNL     1       4.112  -2.544   3.554  1.00  0.00     0.118 C 
BRANCH  28  29
ATOM     29  N   UNL     1       5.485  -3.002   3.728  1.00  0.00    -0.352 N 
ATOM     30  C   UNL     1       6.640  -2.283   3.933  1.00  0.00     0.251 C 
ATOM     31  H   UNL     1       5.605  -3.979   3.694  1.00  0.00     0.163 HD
ATOM     32  O   UNL     1       7.723  -2.861   3.880  1.00  0.00    -0.269 OA
BRANCH  30  33
ATOM     33  C   UNL     1       6.585  -0.824   4.180  1.00  0.00     0.039 A 
ATOM     34  C   UNL     1       5.614  -0.270   5.016  1.00  0.00     0.014 A 
ATOM     35  C   UNL     1       7.525   0.008   3.563  1.00  0.00     0.014 A 
ATOM     36  C   UNL     1       5.467   1.111   5.087  1.00  0.00     0.010 A 
ATOM     37  C   UNL     1       7.433   1.397   3.710  1.00  0.00     0.010 A 
ATOM     38  C   UNL     1       6.370   1.963   4.430  1.00  0.00    -0.014 A 
BRANCH  38  39
ATOM     39  C   UNL     1       6.180   3.437   4.513  1.00  0.00     0.031 A 
ATOM     40  C   UNL     1       5.865   4.244   3.283  1.00  0.00     0.074 A 
ATOM     41  C   UNL     1       6.240   4.040   5.717  1.00  0.00     0.049 A 
ATOM     42  N   UNL     1       5.633   5.528   3.179  1.00  0.00    -0.248 NA
ATOM     43  C   UNL     1       5.807   3.523   2.001  1.00  0.00     0.031 C 
ATOM     44  C   UNL     1       6.537   3.357   6.977  1.00  0.00     0.029 A 
ATOM     45  N   UNL     1       6.033   5.346   6.088  1.00  0.00    -0.354 N 
ATOM     46  C   UNL     1       5.414   5.770   1.827  1.00  0.00     0.074 A 
ATOM     47  C   UNL     1       5.581   4.508   1.142  1.00  0.00     0.031 C 
ATOM     48  C   UNL     1       6.436   4.234   7.985  1.00  0.00     0.029 A 
ATOM     49  C   UNL     1       6.137   5.557   7.443  1.00  0.00     0.049 A 
ATOM     50  H   UNL     1       5.829   6.062   5.444  1.00  0.00     0.167 HD
ATOM     51  C   UNL     1       5.085   6.935   1.218  1.00  0.00     0.034 A 
ATOM     52  C   UNL     1       6.015   6.685   8.173  1.00  0.00     0.034 A 
ATOM     53  C   UNL     1       4.896   8.181   1.918  1.00  0.00     0.049 A 
ATOM     54  C   UNL     1       5.669   7.972   7.469  1.00  0.00     0.074 A 
ATOM     55  C   UNL     1       4.539   9.410   1.390  1.00  0.00     0.029 A 
ATOM     56  N   UNL     1       5.034   8.360   3.287  1.00  0.00    -0.354 N 
ATOM     57  N   UNL     1       5.427   8.173   6.195  1.00  0.00    -0.248 NA
ATOM     58  C   UNL     1       5.574   9.184   8.294  1.00  0.00     0.031 C 
ATOM     59  C   UNL     1       4.519  10.342   2.428  1.00  0.00     0.029 A 
ATOM     60  C   UNL     1       4.793   9.684   3.617  1.00  0.00     0.049 A 
ATOM     61  H   UNL     1       5.268   7.651   3.929  1.00  0.00     0.167 HD
ATOM     62  C   UNL     1       5.132   9.527   6.069  1.00  0.00     0.074 A 
ATOM     63  C   UNL     1       5.200  10.092   7.401  1.00  0.00     0.031 C 
ATOM     64  C   UNL     1       4.842  10.237   4.950  1.00  0.00     0.034 A 
BRANCH  51  65
ATOM     65  C   UNL     1       4.885   6.941  -0.279  1.00  0.00     0.023 A 
ATOM     66  C   UNL     1       5.728   7.715  -1.099  1.00  0.00     0.031 A 
ATOM     67  C   UNL     1       3.787   6.298  -0.875  1.00  0.00     0.131 A 
ATOM     68  C   UNL     1       5.438   7.855  -2.462  1.00  0.00     0.055 A 
ATOM     69  C   UNL     1       3.524   6.408  -2.241  1.00  0.00     0.041 A 
ATOM     70  F   UNL     1       2.955   5.545  -0.137  1.00  0.00    -0.206 F 
ATOM     71  C   UNL     1       4.344   7.201  -3.038  1.00  0.00     0.022 A 
BRANCH  68  72
ATOM     72  S   UNL     1       6.428   8.938  -3.528  1.00  0.00     0.124 S 
ATOM     73  O   UNL     1       6.911   8.000  -4.541  1.00  0.00    -0.237 OA
ATOM     74  O   UNL     1       5.435   9.901  -3.994  1.00  0.00    -0.237 OA
ATOM     75  O   UNL     1       7.454   9.467  -2.636  1.00  0.00    -0.744 OA
ENDBRANCH  68  72
ENDBRANCH  51  65
BRANCH  52  76
ATOM     76  C   UNL     1       6.175   6.611   9.655  1.00  0.00     0.023 A 
ATOM     77  C   UNL     1       7.381   6.170  10.231  1.00  0.00     0.031 A 
ATOM     78  C   UNL     1       5.090   6.862  10.511  1.00  0.00     0.131 A 
ATOM     79  C   UNL     1       7.448   5.918  11.607  1.00  0.00     0.055 A 
ATOM     80  C   UNL     1       5.184   6.684  11.893  1.00  0.00     0.041 A 
ATOM     81  F   UNL     1       3.914   7.272  10.010  1.00  0.00    -0.206 F 
ATOM     82  C   UNL     1       6.362   6.189  12.445  1.00  0.00     0.022 A 
BRANCH  79  83
ATOM     83  S   UNL     1       8.890   5.087  12.330  1.00  0.00     0.124 S 
ATOM     84  O   UNL     1       9.381   6.091  13.268  1.00  0.00    -0.237 OA
ATOM     85  O   UNL     1       8.281   3.904  12.934  1.00  0.00    -0.237 OA
ATOM     86  O   UNL     1       9.747   4.822  11.180  1.00  0.00    -0.744 OA
ENDBRANCH  79  83
ENDBRANCH  52  76
BRANCH  64  87
ATOM     87  C   UNL     1       4.562  11.715   5.081  1.00  0.00     0.023 A 
ATOM     88  C   UNL     1       3.300  12.227   4.721  1.00  0.00     0.031 A 
ATOM     89  C   UNL     1       5.583  12.626   5.402  1.00  0.00     0.131 A 
ATOM     90  C   UNL     1       3.105  13.612   4.647  1.00  0.00     0.055 A 
ATOM     91  C   UNL     1       5.370  14.005   5.372  1.00  0.00     0.041 A 
ATOM     92  F   UNL     1       6.806  12.187   5.740  1.00  0.00    -0.206 F 
ATOM     93  C   UNL     1       4.131  14.503   4.978  1.00  0.00     0.022 A 
BRANCH  90  94
ATOM     94  S   UNL     1       1.548  14.309   4.029  1.00  0.00     0.124 S 
ATOM     95  O   UNL     1       1.087  15.083   5.180  1.00  0.00    -0.237 OA
ATOM     96  O   UNL     1       1.997  15.100   2.886  1.00  0.00    -0.237 OA
ATOM     97  O   UNL     1       0.741  13.138   3.705  1.00  0.00    -0.744 OA
ENDBRANCH  90  94
ENDBRANCH  64  87
ENDBRANCH  38  39
ENDBRANCH  30  33
ENDBRANCH  28  29
ENDBRANCH   1  28
TORSDOF 16
