REMARK SMILES O=C1C[C@H](C(=O)NCCCNC(=O)c2ccc(-c3c4nc(c(-c5cc(S(=O)(=O)[O-])ccc5F)c5ccc([nH]5)c(-c5cc(S(=O)(=O)[O-])ccc5F)c5nc(c(-c6cc(S(=O)(=O)[O-])ccc6F)c6ccc3[nH]6)C=C5)C=C4)cc2)c2c(nc(Nc3ccc(Oc4ccccc4)cc3)[nH]c2=O)N1
REMARK SMILES IDX 8 1 7 2 5 3 6 4 4 6 1 7 2 8 3 9 98 10 78 11 77 13 79 14
REMARK SMILES IDX 96 15 80 16 95 17 97 18 81 20 82 22 83 23 94 24 84 25 93 26
REMARK SMILES IDX 85 27 86 28 87 29 88 30 92 31 89 32 91 33 90 34 9 35 10 36
REMARK SMILES IDX 11 37 12 38 13 40 14 41 15 42 76 43 16 44 75 45 17 46 18 47
REMARK SMILES IDX 19 48 69 49 20 50 74 51 68 52 70 53 21 54 73 55 67 56 66 57
REMARK SMILES IDX 22 59 54 60 34 61 53 62 35 63 38 64 52 65 71 66 36 67 37 68
REMARK SMILES IDX 51 70 72 71 39 72 23 73 24 74 32 75 25 76 31 77 33 78 30 79
REMARK SMILES IDX 26 80 27 81 28 82 29 83 55 84 56 85 64 86 57 87 63 88 65 89
REMARK SMILES IDX 62 90 58 91 59 92 60 93 61 94 40 95 41 96 49 97 42 98 48 99
REMARK SMILES IDX 50 100 47 101 43 102 44 103 45 104 46 105
REMARK H PARENT 7 5 98 12 95 19 81 21 11 39 70 58 38 69
REMARK Flexibility Score: inf
ROOT
ATOM      1  C   UNL     1       6.272  -1.078   0.675  1.00  0.00     0.117 C 
ENDROOT
BRANCH   1   2
ATOM      2  N   UNL     1       5.949  -2.318  -0.014  1.00  0.00    -0.355 N 
ATOM      3  C   UNL     1       4.904  -2.663  -0.815  1.00  0.00     0.228 C 
ATOM      4  O   UNL     1       4.824  -3.842  -1.170  1.00  0.00    -0.274 OA
ATOM      5  H   UNL     1       6.605  -3.039   0.125  1.00  0.00     0.163 HD
BRANCH   3   6
ATOM      6  C   UNL     1       3.834  -1.655  -1.234  1.00  0.00     0.127 C 
ATOM      7  O   UNL     1       1.418   0.346   0.715  1.00  0.00    -0.275 OA
ATOM      8  C   UNL     1       2.393   0.047   0.030  1.00  0.00     0.226 C 
ATOM      9  C   UNL     1       2.916  -1.367  -0.041  1.00  0.00     0.119 C 
ATOM     10  N   UNL     1       3.093   1.004  -0.639  1.00  0.00    -0.310 N 
ATOM     11  C   UNL     1       4.096   0.795  -1.529  1.00  0.00     0.146 A 
ATOM     12  H   UNL     1       2.848   1.940  -0.460  1.00  0.00     0.171 HD
ATOM     13  C   UNL     1       4.447  -0.447  -1.869  1.00  0.00     0.073 A 
ATOM     14  N   UNL     1       4.655   1.930  -2.013  1.00  0.00    -0.196 NA
ATOM     15  C   UNL     1       5.497  -0.563  -2.896  1.00  0.00     0.258 A 
ATOM     16  C   UNL     1       5.611   1.835  -2.884  1.00  0.00     0.209 A 
ATOM     17  N   UNL     1       6.037   0.614  -3.324  1.00  0.00    -0.292 N 
ATOM     18  O   UNL     1       5.868  -1.636  -3.355  1.00  0.00    -0.269 OA
ATOM     19  H   UNL     1       6.769   0.582  -3.982  1.00  0.00     0.173 HD
BRANCH  16  20
ATOM     20  N   UNL     1       6.226   2.928  -3.437  1.00  0.00    -0.326 N 
ATOM     21  H   UNL     1       6.829   2.793  -4.203  1.00  0.00     0.170 HD
BRANCH  20  22
ATOM     22  C   UNL     1       6.030   4.234  -2.956  1.00  0.00     0.041 A 
ATOM     23  C   UNL     1       5.511   5.223  -3.797  1.00  0.00     0.030 A 
ATOM     24  C   UNL     1       6.208   4.529  -1.599  1.00  0.00     0.030 A 
ATOM     25  C   UNL     1       5.164   6.477  -3.285  1.00  0.00     0.049 A 
ATOM     26  C   UNL     1       5.877   5.782  -1.089  1.00  0.00     0.049 A 
ATOM     27  C   UNL     1       5.349   6.764  -1.930  1.00  0.00     0.127 A 
BRANCH  27  28
ATOM     28  O   UNL     1       4.942   8.019  -1.520  1.00  0.00    -0.457 OA
BRANCH  28  29
ATOM     29  C   UNL     1       5.309   8.408  -0.256  1.00  0.00     0.127 A 
ATOM     30  C   UNL     1       4.351   8.399   0.758  1.00  0.00     0.047 A 
ATOM     31  C   UNL     1       6.624   8.799   0.004  1.00  0.00     0.047 A 
ATOM     32  C   UNL     1       4.730   8.727   2.059  1.00  0.00     0.004 A 
ATOM     33  C   UNL     1       6.999   9.121   1.307  1.00  0.00     0.004 A 
ATOM     34  C   UNL     1       6.054   9.076   2.334  1.00  0.00     0.000 A 
ENDBRANCH  28  29
ENDBRANCH  27  28
ENDBRANCH  20  22
ENDBRANCH  16  20
ENDBRANCH   3   6
ENDBRANCH   1   2
BRANCH   1  35
ATOM     35  C   UNL     1       6.265  -1.250   2.186  1.00  0.00     0.042 C 
BRANCH  35  36
ATOM     36  C   UNL     1       7.322  -2.223   2.688  1.00  0.00     0.118 C 
BRANCH  36  37
ATOM     37  N   UNL     1       8.674  -1.712   2.503  1.00  0.00    -0.352 N 
ATOM     38  C   UNL     1       9.571  -1.286   3.453  1.00  0.00     0.251 C 
ATOM     39  H   UNL     1       8.988  -1.667   1.571  1.00  0.00     0.163 HD
ATOM     40  O   UNL     1      10.591  -0.691   3.119  1.00  0.00    -0.269 OA
BRANCH  38  41
ATOM     41  C   UNL     1       9.281  -1.538   4.878  1.00  0.00     0.039 A 
ATOM     42  C   UNL     1       9.362  -0.483   5.789  1.00  0.00     0.014 A 
ATOM     43  C   UNL     1       8.902  -2.816   5.300  1.00  0.00     0.014 A 
ATOM     44  C   UNL     1       9.000  -0.699   7.120  1.00  0.00     0.010 A 
ATOM     45  C   UNL     1       8.469  -3.009   6.606  1.00  0.00     0.010 A 
ATOM     46  C   UNL     1       8.527  -1.957   7.531  1.00  0.00    -0.014 A 
BRANCH  46  47
ATOM     47  C   UNL     1       8.122  -2.200   8.935  1.00  0.00     0.031 A 
ATOM     48  C   UNL     1       8.931  -3.131   9.793  1.00  0.00     0.074 A 
ATOM     49  C   UNL     1       7.005  -1.625   9.421  1.00  0.00     0.049 A 
ATOM     50  N   UNL     1       8.741  -3.472  11.040  1.00  0.00    -0.248 NA
ATOM     51  C   UNL     1      10.094  -3.779   9.163  1.00  0.00     0.031 C 
ATOM     52  C   UNL     1       6.110  -0.751   8.662  1.00  0.00     0.029 A 
ATOM     53  N   UNL     1       6.427  -1.697  10.664  1.00  0.00    -0.354 N 
ATOM     54  C   UNL     1       9.755  -4.371  11.342  1.00  0.00     0.074 A 
ATOM     55  C   UNL     1      10.521  -4.573  10.134  1.00  0.00     0.031 C 
ATOM     56  C   UNL     1       5.107  -0.353   9.460  1.00  0.00     0.029 A 
ATOM     57  C   UNL     1       5.271  -0.962  10.780  1.00  0.00     0.049 A 
ATOM     58  H   UNL     1       6.804  -2.226  11.403  1.00  0.00     0.167 HD
ATOM     59  C   UNL     1      10.041  -4.949  12.531  1.00  0.00     0.034 A 
ATOM     60  C   UNL     1       4.441  -0.791  11.829  1.00  0.00     0.034 A 
ATOM     61  C   UNL     1       9.285  -4.725  13.733  1.00  0.00     0.049 A 
ATOM     62  C   UNL     1       4.783  -1.440  13.146  1.00  0.00     0.074 A 
ATOM     63  C   UNL     1       9.534  -5.217  15.001  1.00  0.00     0.029 A 
ATOM     64  N   UNL     1       8.140  -3.948  13.820  1.00  0.00    -0.354 N 
ATOM     65  N   UNL     1       5.808  -2.203  13.445  1.00  0.00    -0.248 NA
ATOM     66  C   UNL     1       3.873  -1.193  14.274  1.00  0.00     0.031 C 
ATOM     67  C   UNL     1       8.512  -4.781  15.844  1.00  0.00     0.029 A 
ATOM     68  C   UNL     1       7.660  -3.964  15.118  1.00  0.00     0.049 A 
ATOM     69  H   UNL     1       7.730  -3.458  13.071  1.00  0.00     0.167 HD
ATOM     70  C   UNL     1       5.684  -2.500  14.799  1.00  0.00     0.074 A 
ATOM     71  C   UNL     1       4.491  -1.824  15.265  1.00  0.00     0.031 C 
ATOM     72  C   UNL     1       6.486  -3.265  15.582  1.00  0.00     0.034 A 
BRANCH  59  73
ATOM     73  C   UNL     1      11.241  -5.854  12.616  1.00  0.00     0.023 A 
ATOM     74  C   UNL     1      11.075  -7.217  12.921  1.00  0.00     0.031 A 
ATOM     75  C   UNL     1      12.547  -5.343  12.519  1.00  0.00     0.131 A 
ATOM     76  C   UNL     1      12.200  -8.016  13.153  1.00  0.00     0.055 A 
ATOM     77  C   UNL     1      13.665  -6.153  12.713  1.00  0.00     0.041 A 
ATOM     78  F   UNL     1      12.753  -4.049  12.226  1.00  0.00    -0.206 F 
ATOM     79  C   UNL     1      13.494  -7.494  13.044  1.00  0.00     0.022 A 
BRANCH  76  80
ATOM     80  S   UNL     1      12.028  -9.751  13.648  1.00  0.00     0.124 S 
ATOM     81  O   UNL     1      12.862 -10.431  12.659  1.00  0.00    -0.237 OA
ATOM     82  O   UNL     1      12.559  -9.733  15.007  1.00  0.00    -0.237 OA
ATOM     83  O   UNL     1      10.597 -10.008  13.529  1.00  0.00    -0.744 OA
ENDBRANCH  76  80
ENDBRANCH  59  73
BRANCH  60  84
ATOM     84  C   UNL     1       3.253   0.096  11.679  1.00  0.00     0.023 A 
ATOM     85  C   UNL     1       2.204  -0.240  10.804  1.00  0.00     0.031 A 
ATOM     86  C   UNL     1       3.198   1.337  12.335  1.00  0.00     0.131 A 
ATOM     87  C   UNL     1       1.173   0.679  10.570  1.00  0.00     0.055 A 
ATOM     88  C   UNL     1       2.138   2.224  12.144  1.00  0.00     0.041 A 
ATOM     89  F   UNL     1       4.183   1.704  13.169  1.00  0.00    -0.206 F 
ATOM     90  C   UNL     1       1.124   1.902  11.247  1.00  0.00     0.022 A 
BRANCH  87  91
ATOM     91  S   UNL     1      -0.088   0.359   9.307  1.00  0.00     0.124 S 
ATOM     92  O   UNL     1      -1.327   0.532  10.059  1.00  0.00    -0.237 OA
ATOM     93  O   UNL     1       0.208   1.402   8.328  1.00  0.00    -0.237 OA
ATOM     94  O   UNL     1       0.199  -1.004   8.873  1.00  0.00    -0.744 OA
ENDBRANCH  87  91
ENDBRANCH  60  84
BRANCH  72  95
ATOM     95  C   UNL     1       6.146  -3.417  17.043  1.00  0.00     0.023 A 
ATOM     96  C   UNL     1       7.035  -2.930  18.020  1.00  0.00     0.031 A 
ATOM     97  C   UNL     1       5.046  -4.183  17.463  1.00  0.00     0.131 A 
ATOM     98  C   UNL     1       6.835  -3.255  19.367  1.00  0.00     0.055 A 
ATOM     99  C   UNL     1       4.826  -4.465  18.812  1.00  0.00     0.041 A 
ATOM    100  F   UNL     1       4.178  -4.678  16.566  1.00  0.00    -0.206 F 
ATOM    101  C   UNL     1       5.731  -4.013  19.769  1.00  0.00     0.022 A 
BRANCH  98 102
ATOM    102  S   UNL     1       8.040  -2.772  20.634  1.00  0.00     0.124 S 
ATOM    103  O   UNL     1       7.210  -2.019  21.571  1.00  0.00    -0.237 OA
ATOM    104  O   UNL     1       8.510  -4.067  21.118  1.00  0.00    -0.237 OA
ATOM    105  O   UNL     1       9.023  -1.980  19.902  1.00  0.00    -0.744 OA
ENDBRANCH  98 102
ENDBRANCH  72  95
ENDBRANCH  46  47
ENDBRANCH  38  41
ENDBRANCH  36  37
ENDBRANCH  35  36
ENDBRANCH   1  35
TORSDOF 17
