REMARK SMILES C=CCn1c(=S)[nH]c2cc(C(=O)NCCCNC(=O)c3ccc(-c4c5nc(c(-c6cc(S(=O)(=O)[O-])ccc6F)c6ccc([nH]6)c(-c6cc(S(=O)(=O)[O-])ccc6F)c6nc(c(-c7cc(S(=O)(=O)[O-])ccc7F)c7ccc4[nH]7)C=C6)C=C5)cc3)ccc2c1=O
REMARK SMILES IDX 15 1 14 2 13 3 11 4 12 5 10 7 4 8 5 9 86 10 6 11 7 12 85 13
REMARK SMILES IDX 87 14 8 15 84 17 9 18 83 19 3 20 2 21 1 22 16 23 17 24 18 25
REMARK SMILES IDX 19 27 20 28 21 29 82 30 22 31 81 32 23 33 24 34 25 35 75 36
REMARK SMILES IDX 26 37 80 38 74 39 76 40 27 41 79 42 73 43 72 44 28 46 60 47
REMARK SMILES IDX 40 48 59 49 41 50 44 51 58 52 77 53 42 54 43 55 57 57 78 58
REMARK SMILES IDX 45 59 29 60 30 61 38 62 31 63 37 64 39 65 36 66 32 67 33 68
REMARK SMILES IDX 34 69 35 70 61 71 62 72 70 73 63 74 69 75 71 76 68 77 64 78
REMARK SMILES IDX 65 79 66 80 67 81 46 82 47 83 55 84 48 85 54 86 56 87 53 88
REMARK SMILES IDX 49 89 50 90 51 91 52 92
REMARK H PARENT 13 6 7 16 17 26 76 45 44 56
REMARK Flexibility Score: inf
ROOT
ATOM      1  C   UNL     1       0.062   9.938  -1.837  1.00  0.00     0.042 C 
ENDROOT
BRANCH   1   2
ATOM      2  C   UNL     1      -0.549   9.599  -0.480  1.00  0.00     0.118 C 
BRANCH   2   3
ATOM      3  N   UNL     1      -1.980   9.370  -0.588  1.00  0.00    -0.352 N 
ATOM      4  C   UNL     1      -2.729   8.232  -0.744  1.00  0.00     0.251 C 
ATOM      5  O   UNL     1      -3.955   8.356  -0.743  1.00  0.00    -0.269 OA
ATOM      6  H   UNL     1      -2.517  10.194  -0.540  1.00  0.00     0.163 HD
BRANCH   4   7
ATOM      7  C   UNL     1      -2.149   6.863  -0.862  1.00  0.00     0.041 A 
ATOM      8  N   UNL     1      -1.649   1.812  -0.714  1.00  0.00    -0.281 N 
ATOM      9  C   UNL     1      -3.002   2.086  -0.455  1.00  0.00     0.180 A 
ATOM     10  C   UNL     1      -0.717   2.833  -0.952  1.00  0.00     0.262 A 
ATOM     11  S   UNL     1      -4.244   0.971  -0.242  1.00  0.00    -0.040 S 
ATOM     12  N   UNL     1      -3.374   3.401  -0.367  1.00  0.00    -0.332 N 
ATOM     13  C   UNL     1      -1.208   4.219  -0.952  1.00  0.00     0.064 A 
ATOM     14  O   UNL     1       0.485   2.695  -1.164  1.00  0.00    -0.269 OA
ATOM     15  C   UNL     1      -2.522   4.471  -0.610  1.00  0.00     0.054 A 
ATOM     16  H   UNL     1      -4.305   3.600  -0.115  1.00  0.00     0.169 HD
ATOM     17  C   UNL     1      -0.370   5.272  -1.314  1.00  0.00     0.017 A 
ATOM     18  C   UNL     1      -2.995   5.783  -0.544  1.00  0.00     0.040 A 
ATOM     19  C   UNL     1      -0.852   6.582  -1.300  1.00  0.00     0.015 A 
BRANCH   8  20
ATOM     20  C   UNL     1      -1.240   0.394  -0.815  1.00  0.00     0.155 C 
BRANCH  20  21
ATOM     21  C   UNL     1       0.228   0.100  -0.849  1.00  0.00    -0.013 C 
ATOM     22  C   UNL     1       0.939  -0.431   0.154  1.00  0.00     0.006 C 
ENDBRANCH  20  21
ENDBRANCH   8  20
ENDBRANCH   4   7
ENDBRANCH   2   3
ENDBRANCH   1   2
BRANCH   1  23
ATOM     23  C   UNL     1      -0.221  11.368  -2.280  1.00  0.00     0.118 C 
BRANCH  23  24
ATOM     24  N   UNL     1       0.552  12.340  -1.520  1.00  0.00    -0.352 N 
ATOM     25  C   UNL     1       1.439  13.294  -1.965  1.00  0.00     0.251 C 
ATOM     26  H   UNL     1       0.421  12.310  -0.544  1.00  0.00     0.163 HD
ATOM     27  O   UNL     1       2.147  13.882  -1.159  1.00  0.00    -0.269 OA
BRANCH  25  28
ATOM     28  C   UNL     1       1.550  13.577  -3.415  1.00  0.00     0.039 A 
ATOM     29  C   UNL     1       0.408  13.674  -4.212  1.00  0.00     0.014 A 
ATOM     30  C   UNL     1       2.817  13.739  -3.983  1.00  0.00     0.014 A 
ATOM     31  C   UNL     1       0.537  13.759  -5.594  1.00  0.00     0.010 A 
ATOM     32  C   UNL     1       2.940  13.916  -5.364  1.00  0.00     0.010 A 
ATOM     33  C   UNL     1       1.804  13.877  -6.188  1.00  0.00    -0.014 A 
BRANCH  33  34
ATOM     34  C   UNL     1       1.913  13.965  -7.668  1.00  0.00     0.031 A 
ATOM     35  C   UNL     1       2.602  12.882  -8.453  1.00  0.00     0.074 A 
ATOM     36  C   UNL     1       1.345  15.006  -8.306  1.00  0.00     0.049 A 
ATOM     37  N   UNL     1       2.764  12.783  -9.748  1.00  0.00    -0.248 NA
ATOM     38  C   UNL     1       3.188  11.767  -7.692  1.00  0.00     0.031 C 
ATOM     39  C   UNL     1       0.649  16.109  -7.643  1.00  0.00     0.029 A 
ATOM     40  N   UNL     1       1.240  15.302  -9.642  1.00  0.00    -0.354 N 
ATOM     41  C   UNL     1       3.482  11.610  -9.955  1.00  0.00     0.074 A 
ATOM     42  C   UNL     1       3.756  11.049  -8.651  1.00  0.00     0.031 C 
ATOM     43  C   UNL     1       0.145  16.932  -8.572  1.00  0.00     0.029 A 
ATOM     44  C   UNL     1       0.543  16.461  -9.896  1.00  0.00     0.049 A 
ATOM     45  H   UNL     1       1.626  14.739 -10.351  1.00  0.00     0.167 HD
ATOM     46  C   UNL     1       3.860  11.048 -11.128  1.00  0.00     0.034 A 
ATOM     47  C   UNL     1       0.265  17.087 -11.059  1.00  0.00     0.034 A 
ATOM     48  C   UNL     1       3.558  11.611 -12.420  1.00  0.00     0.049 A 
ATOM     49  C   UNL     1       0.722  16.456 -12.348  1.00  0.00     0.074 A 
ATOM     50  C   UNL     1       3.869  11.099 -13.667  1.00  0.00     0.029 A 
ATOM     51  N   UNL     1       2.879  12.802 -12.636  1.00  0.00    -0.354 N 
ATOM     52  N   UNL     1       1.357  15.321 -12.527  1.00  0.00    -0.248 NA
ATOM     53  C   UNL     1       0.429  17.180 -13.591  1.00  0.00     0.031 C 
ATOM     54  C   UNL     1       3.438  12.008 -14.633  1.00  0.00     0.029 A 
ATOM     55  C   UNL     1       2.788  13.054 -13.996  1.00  0.00     0.049 A 
ATOM     56  H   UNL     1       2.515  13.382 -11.929  1.00  0.00     0.167 HD
ATOM     57  C   UNL     1       1.525  15.188 -13.902  1.00  0.00     0.074 A 
ATOM     58  C   UNL     1       0.898  16.344 -14.509  1.00  0.00     0.031 C 
ATOM     59  C   UNL     1       2.149  14.202 -14.595  1.00  0.00     0.034 A 
BRANCH  46  60
ATOM     60  C   UNL     1       4.634   9.752 -11.098  1.00  0.00     0.023 A 
ATOM     61  C   UNL     1       5.941   9.701 -11.618  1.00  0.00     0.031 A 
ATOM     62  C   UNL     1       4.036   8.548 -10.686  1.00  0.00     0.131 A 
ATOM     63  C   UNL     1       6.593   8.468 -11.748  1.00  0.00     0.055 A 
ATOM     64  C   UNL     1       4.705   7.327 -10.779  1.00  0.00     0.041 A 
ATOM     65  F   UNL     1       2.790   8.542 -10.183  1.00  0.00    -0.206 F 
ATOM     66  C   UNL     1       5.985   7.282 -11.325  1.00  0.00     0.022 A 
BRANCH  63  67
ATOM     67  S   UNL     1       8.224   8.345 -12.532  1.00  0.00     0.124 S 
ATOM     68  O   UNL     1       9.025   7.751 -11.464  1.00  0.00    -0.237 OA
ATOM     69  O   UNL     1       7.951   7.470 -13.668  1.00  0.00    -0.237 OA
ATOM     70  O   UNL     1       8.559   9.726 -12.863  1.00  0.00    -0.744 OA
ENDBRANCH  63  67
ENDBRANCH  46  60
BRANCH  47  71
ATOM     71  C   UNL     1      -0.520  18.356 -11.028  1.00  0.00     0.023 A 
ATOM     72  C   UNL     1      -0.042  19.482 -10.332  1.00  0.00     0.031 A 
ATOM     73  C   UNL     1      -1.809  18.421 -11.581  1.00  0.00     0.131 A 
ATOM     74  C   UNL     1      -0.878  20.588 -10.135  1.00  0.00     0.055 A 
ATOM     75  C   UNL     1      -2.610  19.558 -11.451  1.00  0.00     0.041 A 
ATOM     76  F   UNL     1      -2.315  17.369 -12.243  1.00  0.00    -0.206 F 
ATOM     77  C   UNL     1      -2.153  20.641 -10.706  1.00  0.00     0.022 A 
BRANCH  74  78
ATOM     78  S   UNL     1      -0.399  21.924  -9.003  1.00  0.00     0.124 S 
ATOM     79  O   UNL     1      -0.379  23.082  -9.890  1.00  0.00    -0.237 OA
ATOM     80  O   UNL     1      -1.487  21.893  -8.029  1.00  0.00    -0.237 OA
ATOM     81  O   UNL     1       0.899  21.494  -8.494  1.00  0.00    -0.744 OA
ENDBRANCH  74  78
ENDBRANCH  47  71
BRANCH  59  82
ATOM     82  C   UNL     1       2.204  14.299 -16.101  1.00  0.00     0.023 A 
ATOM     83  C   UNL     1       1.589  13.308 -16.892  1.00  0.00     0.031 A 
ATOM     84  C   UNL     1       2.996  15.266 -16.742  1.00  0.00     0.131 A 
ATOM     85  C   UNL     1       1.819  13.277 -18.272  1.00  0.00     0.055 A 
ATOM     86  C   UNL     1       3.180  15.261 -18.126  1.00  0.00     0.041 A 
ATOM     87  F   UNL     1       3.611  16.224 -16.031  1.00  0.00    -0.206 F 
ATOM     88  C   UNL     1       2.604  14.253 -18.895  1.00  0.00     0.022 A 
BRANCH  85  89
ATOM     89  S   UNL     1       1.191  11.917 -19.296  1.00  0.00     0.124 S 
ATOM     90  O   UNL     1       0.332  12.624 -20.243  1.00  0.00    -0.237 OA
ATOM     91  O   UNL     1       2.419  11.364 -19.859  1.00  0.00    -0.237 OA
ATOM     92  O   UNL     1       0.491  11.056 -18.347  1.00  0.00    -0.744 OA
ENDBRANCH  85  89
ENDBRANCH  59  82
ENDBRANCH  33  34
ENDBRANCH  25  28
ENDBRANCH  23  24
ENDBRANCH   1  23
TORSDOF 15
