REMARK SMILES O=C(NCCCNC(=O)c1ccc(S(=O)(=O)Cc2ncccn2)c(F)c1)c1ccc(-c2c3nc(c(-c4cc(S(=O)(=O)[O-])ccc4F)c4ccc([nH]4)c(-c4cc(S(=O)(=O)[O-])ccc4F)c4nc(c(-c5cc(S(=O)(=O)[O-])ccc5F)c5ccc2[nH]5)C=C4)C=C3)cc1
REMARK SMILES IDX 5 1 4 2 3 3 1 4 2 5 27 7 28 8 89 9 29 10 88 11 30 12 31 13
REMARK SMILES IDX 32 14 82 15 33 16 87 17 81 18 83 19 34 20 86 21 80 22 79 23
REMARK SMILES IDX 35 25 67 26 47 27 66 28 48 29 51 30 65 31 84 32 49 33 50 34
REMARK SMILES IDX 64 36 85 37 52 38 36 39 37 40 45 41 38 42 44 43 46 44 43 45
REMARK SMILES IDX 39 46 40 47 41 48 42 49 68 50 69 51 77 52 70 53 76 54 78 55
REMARK SMILES IDX 75 56 71 57 72 58 73 59 74 60 53 61 54 62 62 63 55 64 61 65
REMARK SMILES IDX 63 66 60 67 56 68 57 69 58 70 59 71 6 72 7 73 8 74 9 76
REMARK SMILES IDX 10 77 11 78 26 79 12 80 24 81 13 82 25 83 14 84 15 85 16 86
REMARK SMILES IDX 17 87 18 88 19 89 23 90 20 91 22 92 21 93
REMARK H PARENT 3 6 83 24 51 35 7 75
REMARK Flexibility Score: inf
ROOT
ATOM      1  C   UNL     1       4.868  -2.205  -1.436  1.00  0.00     0.042 C 
ENDROOT
BRANCH   1   2
ATOM      2  C   UNL     1       4.575  -0.714  -1.319  1.00  0.00     0.118 C 
BRANCH   2   3
ATOM      3  N   UNL     1       3.154  -0.424  -1.165  1.00  0.00    -0.352 N 
ATOM      4  O   UNL     1       1.224   0.076  -0.125  1.00  0.00    -0.269 OA
ATOM      5  C   UNL     1       2.453   0.077  -0.094  1.00  0.00     0.251 C 
ATOM      6  H   UNL     1       2.606  -0.618  -1.960  1.00  0.00     0.163 HD
BRANCH   5   7
ATOM      7  C   UNL     1       3.164   0.594   1.096  1.00  0.00     0.039 A 
ATOM      8  C   UNL     1       4.316   1.368   0.957  1.00  0.00     0.014 A 
ATOM      9  C   UNL     1       2.663   0.317   2.373  1.00  0.00     0.014 A 
ATOM     10  C   UNL     1       5.064   1.702   2.079  1.00  0.00     0.010 A 
ATOM     11  C   UNL     1       3.361   0.750   3.506  1.00  0.00     0.010 A 
ATOM     12  C   UNL     1       4.591   1.412   3.369  1.00  0.00    -0.014 A 
BRANCH  12  13
ATOM     13  C   UNL     1       5.391   1.851   4.544  1.00  0.00     0.031 A 
ATOM     14  C   UNL     1       5.975   0.850   5.505  1.00  0.00     0.074 A 
ATOM     15  C   UNL     1       5.646   3.167   4.698  1.00  0.00     0.049 A 
ATOM     16  N   UNL     1       6.722   1.066   6.559  1.00  0.00    -0.248 NA
ATOM     17  C   UNL     1       5.685  -0.572   5.262  1.00  0.00     0.031 C 
ATOM     18  C   UNL     1       5.136   4.229   3.824  1.00  0.00     0.029 A 
ATOM     19  N   UNL     1       6.420   3.837   5.610  1.00  0.00    -0.354 N 
ATOM     20  C   UNL     1       6.977  -0.184   7.112  1.00  0.00     0.074 A 
ATOM     21  C   UNL     1       6.286  -1.155   6.292  1.00  0.00     0.031 C 
ATOM     22  C   UNL     1       5.666   5.401   4.199  1.00  0.00     0.029 A 
ATOM     23  C   UNL     1       6.487   5.194   5.386  1.00  0.00     0.049 A 
ATOM     24  H   UNL     1       6.885   3.391   6.354  1.00  0.00     0.167 HD
ATOM     25  C   UNL     1       7.728  -0.490   8.197  1.00  0.00     0.034 A 
ATOM     26  C   UNL     1       7.117   6.170   6.067  1.00  0.00     0.034 A 
ATOM     27  C   UNL     1       8.435   0.484   8.990  1.00  0.00     0.049 A 
ATOM     28  C   UNL     1       7.910   5.804   7.290  1.00  0.00     0.074 A 
ATOM     29  C   UNL     1       9.250   0.267  10.088  1.00  0.00     0.029 A 
ATOM     30  N   UNL     1       8.416   1.854   8.773  1.00  0.00    -0.354 N 
ATOM     31  N   UNL     1       8.122   4.615   7.804  1.00  0.00    -0.248 NA
ATOM     32  C   UNL     1       8.535   6.905   8.034  1.00  0.00     0.031 C 
ATOM     33  C   UNL     1       9.674   1.508  10.571  1.00  0.00     0.029 A 
ATOM     34  C   UNL     1       9.179   2.496   9.736  1.00  0.00     0.049 A 
ATOM     35  H   UNL     1       7.932   2.304   8.044  1.00  0.00     0.167 HD
ATOM     36  C   UNL     1       8.910   4.826   8.930  1.00  0.00     0.074 A 
ATOM     37  C   UNL     1       9.149   6.253   9.012  1.00  0.00     0.031 C 
ATOM     38  C   UNL     1       9.392   3.919   9.814  1.00  0.00     0.034 A 
BRANCH  25  39
ATOM     39  C   UNL     1       7.811  -1.932   8.621  1.00  0.00     0.023 A 
ATOM     40  C   UNL     1       8.546  -2.876   7.886  1.00  0.00     0.031 A 
ATOM     41  C   UNL     1       7.202  -2.350   9.818  1.00  0.00     0.131 A 
ATOM     42  C   UNL     1       8.635  -4.199   8.345  1.00  0.00     0.055 A 
ATOM     43  C   UNL     1       7.338  -3.654  10.296  1.00  0.00     0.041 A 
ATOM     44  F   UNL     1       6.477  -1.488  10.550  1.00  0.00    -0.206 F 
ATOM     45  C   UNL     1       8.057  -4.588   9.557  1.00  0.00     0.022 A 
BRANCH  42  46
ATOM     46  S   UNL     1       9.485  -5.425   7.314  1.00  0.00     0.124 S 
ATOM     47  O   UNL     1       8.600  -5.497   6.154  1.00  0.00    -0.237 OA
ATOM     48  O   UNL     1      10.785  -4.804   7.086  1.00  0.00    -0.237 OA
ATOM     49  O   UNL     1       9.506  -6.623   8.151  1.00  0.00    -0.744 OA
ENDBRANCH  42  46
ENDBRANCH  25  39
BRANCH  26  50
ATOM     50  C   UNL     1       6.981   7.587   5.631  1.00  0.00     0.023 A 
ATOM     51  C   UNL     1       8.079   8.305   5.134  1.00  0.00     0.031 A 
ATOM     52  C   UNL     1       5.737   8.241   5.699  1.00  0.00     0.131 A 
ATOM     53  C   UNL     1       7.916   9.643   4.742  1.00  0.00     0.055 A 
ATOM     54  C   UNL     1       5.570   9.556   5.265  1.00  0.00     0.041 A 
ATOM     55  F   UNL     1       4.655   7.593   6.160  1.00  0.00    -0.206 F 
ATOM     56  C   UNL     1       6.666  10.267   4.789  1.00  0.00     0.022 A 
BRANCH  53  57
ATOM     57  S   UNL     1       9.373  10.576   4.199  1.00  0.00     0.124 S 
ATOM     58  O   UNL     1      10.194  10.570   5.404  1.00  0.00    -0.237 OA
ATOM     59  O   UNL     1       9.857   9.765   3.087  1.00  0.00    -0.237 OA
ATOM     60  O   UNL     1       8.823  11.877   3.824  1.00  0.00    -0.744 OA
ENDBRANCH  53  57
ENDBRANCH  26  50
BRANCH  38  61
ATOM     61  C   UNL     1      10.240   4.437  10.941  1.00  0.00     0.023 A 
ATOM     62  C   UNL     1       9.673   5.132  12.021  1.00  0.00     0.031 A 
ATOM     63  C   UNL     1      11.623   4.185  10.959  1.00  0.00     0.131 A 
ATOM     64  C   UNL     1      10.492   5.573  13.070  1.00  0.00     0.055 A 
ATOM     65  C   UNL     1      12.426   4.588  12.025  1.00  0.00     0.041 A 
ATOM     66  F   UNL     1      12.208   3.521   9.949  1.00  0.00    -0.206 F 
ATOM     67  C   UNL     1      11.861   5.289  13.088  1.00  0.00     0.022 A 
BRANCH  64  68
ATOM     68  S   UNL     1       9.749   6.540  14.412  1.00  0.00     0.124 S 
ATOM     69  O   UNL     1       9.371   7.769  13.723  1.00  0.00    -0.237 OA
ATOM     70  O   UNL     1       8.647   5.687  14.846  1.00  0.00    -0.237 OA
ATOM     71  O   UNL     1      10.838   6.679  15.377  1.00  0.00    -0.744 OA
ENDBRANCH  64  68
ENDBRANCH  38  61
ENDBRANCH  12  13
ENDBRANCH   5   7
ENDBRANCH   2   3
ENDBRANCH   1   2
BRANCH   1  72
ATOM     72  C   UNL     1       4.246  -2.857  -2.663  1.00  0.00     0.118 C 
BRANCH  72  73
ATOM     73  N   UNL     1       4.764  -2.293  -3.902  1.00  0.00    -0.352 N 
ATOM     74  C   UNL     1       5.727  -2.795  -4.735  1.00  0.00     0.251 C 
ATOM     75  H   UNL     1       4.368  -1.435  -4.177  1.00  0.00     0.163 HD
ATOM     76  O   UNL     1       6.192  -2.123  -5.651  1.00  0.00    -0.269 OA
BRANCH  74  77
ATOM     77  C   UNL     1       6.200  -4.172  -4.536  1.00  0.00     0.042 A 
ATOM     78  C   UNL     1       5.314  -5.241  -4.710  1.00  0.00     0.015 A 
ATOM     79  C   UNL     1       7.538  -4.394  -4.209  1.00  0.00     0.054 A 
ATOM     80  C   UNL     1       5.771  -6.546  -4.543  1.00  0.00     0.024 A 
ATOM     81  C   UNL     1       7.979  -5.700  -4.020  1.00  0.00     0.142 A 
ATOM     82  C   UNL     1       7.113  -6.771  -4.208  1.00  0.00     0.103 A 
ATOM     83  F   UNL     1       9.252  -5.891  -3.654  1.00  0.00    -0.206 F 
BRANCH  82  84
ATOM     84  S   UNL     1       7.667  -8.440  -4.037  1.00  0.00     0.188 S 
ATOM     85  O   UNL     1       7.615  -8.709  -2.609  1.00  0.00    -0.223 OA
ATOM     86  O   UNL     1       6.838  -9.240  -4.928  1.00  0.00    -0.223 OA
BRANCH  84  87
ATOM     87  C   UNL     1       9.344  -8.602  -4.549  1.00  0.00     0.219 C 
BRANCH  87  88
ATOM     88  C   UNL     1       9.453  -8.270  -5.999  1.00  0.00     0.143 A 
ATOM     89  N   UNL     1       9.380  -6.976  -6.366  1.00  0.00    -0.240 NA
ATOM     90  N   UNL     1       9.751  -9.271  -6.851  1.00  0.00    -0.240 NA
ATOM     91  C   UNL     1       9.590  -6.691  -7.664  1.00  0.00     0.115 A 
ATOM     92  C   UNL     1       9.949  -8.933  -8.140  1.00  0.00     0.115 A 
ATOM     93  C   UNL     1       9.883  -7.643  -8.607  1.00  0.00     0.040 A 
ENDBRANCH  87  88
ENDBRANCH  84  87
ENDBRANCH  82  84
ENDBRANCH  74  77
ENDBRANCH  72  73
ENDBRANCH   1  72
TORSDOF 16
