REMARK SMILES Cc1c(CC(=O)NCCCNC(=O)c2ccc(-c3c4nc(c(-c5cc(S(=O)(=O)[O-])ccc5F)c5ccc([nH]5)c(-c5cc(S(=O)(=O)[O-])ccc5F)c5nc(c(-c6cc(S(=O)(=O)[O-])ccc6F)c6ccc3[nH]6)C=C5)C=C4)cc2)cc(-c2ccc(S(C)(=O)=O)cc2)n1-c1cccc(F)c1
REMARK SMILES IDX 9 1 8 2 7 3 5 4 6 5 4 7 3 8 1 9 2 10 89 11 77 12 78 13 90 14
REMARK SMILES IDX 91 15 96 16 92 17 94 18 93 19 95 20 79 21 80 22 88 23 81 24
REMARK SMILES IDX 87 25 82 26 83 27 84 28 85 29 86 30 10 31 11 32 12 33 13 35
REMARK SMILES IDX 14 36 15 37 76 38 16 39 75 40 17 41 18 42 19 43 69 44 20 45
REMARK SMILES IDX 74 46 68 47 70 48 21 49 73 50 67 51 66 52 22 54 54 55 34 56
REMARK SMILES IDX 53 57 35 58 38 59 52 60 71 61 36 62 37 63 51 65 72 66 39 67
REMARK SMILES IDX 23 68 24 69 32 70 25 71 31 72 33 73 30 74 26 75 27 76 28 77
REMARK SMILES IDX 29 78 55 79 56 80 64 81 57 82 63 83 65 84 62 85 58 86 59 87
REMARK SMILES IDX 60 88 61 89 40 90 41 91 49 92 42 93 48 94 50 95 47 96 43 97
REMARK SMILES IDX 44 98 45 99 46 100
REMARK H PARENT 7 6 11 34 70 53 38 64
REMARK Flexibility Score: inf
ROOT
ATOM      1  C   UNL     1       1.908  -2.801  -3.499  1.00  0.00     0.042 C 
ENDROOT
BRANCH   1   2
ATOM      2  C   UNL     1       3.061  -3.369  -2.648  1.00  0.00     0.117 C 
BRANCH   2   3
ATOM      3  N   UNL     1       3.791  -2.375  -1.880  1.00  0.00    -0.356 N 
ATOM      4  C   UNL     1       3.708  -2.004  -0.572  1.00  0.00     0.224 C 
ATOM      5  O   UNL     1       4.485  -1.128  -0.178  1.00  0.00    -0.275 OA
ATOM      6  H   UNL     1       4.466  -1.881  -2.398  1.00  0.00     0.163 HD
BRANCH   4   7
ATOM      7  C   UNL     1       2.763  -2.687   0.402  1.00  0.00     0.137 C 
BRANCH   7   8
ATOM      8  C   UNL     1       1.310  -2.551   0.068  1.00  0.00    -0.017 A 
ATOM      9  C   UNL     1       1.002   0.031   0.057  1.00  0.00     0.065 C 
ATOM     10  C   UNL     1       0.572  -1.390  -0.131  1.00  0.00     0.024 A 
ATOM     11  N   UNL     1      -0.733  -1.754  -0.460  1.00  0.00    -0.313 N 
ATOM     12  C   UNL     1       0.402  -3.635  -0.040  1.00  0.00     0.033 A 
ATOM     13  C   UNL     1      -0.841  -3.143  -0.393  1.00  0.00     0.053 A 
BRANCH  11  14
ATOM     14  C   UNL     1      -1.787  -0.866  -0.803  1.00  0.00     0.049 A 
ATOM     15  C   UNL     1      -3.025  -0.970  -0.151  1.00  0.00     0.027 A 
ATOM     16  C   UNL     1      -1.611   0.050  -1.844  1.00  0.00     0.065 A 
ATOM     17  C   UNL     1      -4.085  -0.148  -0.538  1.00  0.00     0.005 A 
ATOM     18  C   UNL     1      -2.682   0.848  -2.225  1.00  0.00     0.125 A 
ATOM     19  C   UNL     1      -3.913   0.760  -1.581  1.00  0.00     0.039 A 
ATOM     20  F   UNL     1      -2.536   1.700  -3.247  1.00  0.00    -0.207 F 
ENDBRANCH  11  14
BRANCH  13  21
ATOM     21  C   UNL     1      -2.027  -3.925  -0.758  1.00  0.00    -0.001 A 
ATOM     22  C   UNL     1      -2.606  -3.804  -2.031  1.00  0.00     0.011 A 
ATOM     23  C   UNL     1      -2.580  -4.828   0.161  1.00  0.00     0.011 A 
ATOM     24  C   UNL     1      -3.741  -4.543  -2.371  1.00  0.00     0.021 A 
ATOM     25  C   UNL     1      -3.715  -5.570  -0.172  1.00  0.00     0.021 A 
ATOM     26  C   UNL     1      -4.297  -5.414  -1.431  1.00  0.00     0.067 A 
BRANCH  26  27
ATOM     27  S   UNL     1      -5.732  -6.362  -1.878  1.00  0.00     0.175 S 
ATOM     28  C   UNL     1      -7.001  -5.149  -2.127  1.00  0.00     0.163 C 
ATOM     29  O   UNL     1      -5.451  -7.006  -3.131  1.00  0.00    -0.224 OA
ATOM     30  O   UNL     1      -6.117  -7.147  -0.703  1.00  0.00    -0.224 OA
ENDBRANCH  26  27
ENDBRANCH  13  21
ENDBRANCH   7   8
ENDBRANCH   4   7
ENDBRANCH   2   3
ENDBRANCH   1   2
BRANCH   1  31
ATOM     31  C   UNL     1       2.183  -1.516  -4.317  1.00  0.00     0.118 C 
BRANCH  31  32
ATOM     32  N   UNL     1       2.352  -1.732  -5.741  1.00  0.00    -0.352 N 
ATOM     33  C   UNL     1       2.057  -0.904  -6.818  1.00  0.00     0.251 C 
ATOM     34  H   UNL     1       2.738  -2.605  -5.984  1.00  0.00     0.163 HD
ATOM     35  O   UNL     1       2.301  -1.365  -7.934  1.00  0.00    -0.269 OA
BRANCH  33  36
ATOM     36  C   UNL     1       1.354   0.441  -6.698  1.00  0.00     0.039 A 
ATOM     37  C   UNL     1       0.007   0.496  -7.022  1.00  0.00     0.014 A 
ATOM     38  C   UNL     1       1.976   1.698  -6.558  1.00  0.00     0.014 A 
ATOM     39  C   UNL     1      -0.698   1.750  -7.101  1.00  0.00     0.010 A 
ATOM     40  C   UNL     1       1.261   2.988  -6.729  1.00  0.00     0.010 A 
ATOM     41  C   UNL     1      -0.124   3.079  -7.002  1.00  0.00    -0.014 A 
BRANCH  41  42
ATOM     42  C   UNL     1      -0.995   4.316  -7.745  1.00  0.00     0.031 A 
ATOM     43  C   UNL     1      -1.321   3.638  -9.036  1.00  0.00     0.074 A 
ATOM     44  C   UNL     1      -1.371   5.685  -7.722  1.00  0.00     0.049 A 
ATOM     45  N   UNL     1      -0.328   3.188  -9.752  1.00  0.00    -0.248 NA
ATOM     46  C   UNL     1      -2.614   3.025  -9.347  1.00  0.00     0.031 C 
ATOM     47  C   UNL     1      -0.879   6.752  -6.826  1.00  0.00     0.029 A 
ATOM     48  N   UNL     1      -2.289   6.500  -8.516  1.00  0.00    -0.354 N 
ATOM     49  C   UNL     1      -0.874   2.494 -10.799  1.00  0.00     0.074 A 
ATOM     50  C   UNL     1      -2.239   2.225 -10.355  1.00  0.00     0.031 C 
ATOM     51  C   UNL     1      -1.565   7.932  -6.972  1.00  0.00     0.029 A 
ATOM     52  C   UNL     1      -2.590   7.857  -8.022  1.00  0.00     0.049 A 
ATOM     53  H   UNL     1      -2.691   6.156  -9.347  1.00  0.00     0.167 HD
ATOM     54  C   UNL     1      -0.467   2.938 -12.026  1.00  0.00     0.034 A 
ATOM     55  C   UNL     1      -3.491   8.866  -8.459  1.00  0.00     0.034 A 
ATOM     56  C   UNL     1      -1.388   3.914 -12.549  1.00  0.00     0.049 A 
ATOM     57  C   UNL     1      -3.587   8.681  -9.902  1.00  0.00     0.074 A 
ATOM     58  C   UNL     1      -2.767   3.933 -12.626  1.00  0.00     0.029 A 
ATOM     59  N   UNL     1      -0.966   5.225 -12.602  1.00  0.00    -0.354 N 
ATOM     60  N   UNL     1      -2.645   9.060 -10.706  1.00  0.00    -0.248 NA
ATOM     61  C   UNL     1      -4.758   8.076 -10.515  1.00  0.00     0.031 C 
ATOM     62  C   UNL     1      -3.123   5.228 -12.201  1.00  0.00     0.029 A 
ATOM     63  C   UNL     1      -2.031   6.071 -12.365  1.00  0.00     0.049 A 
ATOM     64  H   UNL     1      -0.043   5.515 -12.782  1.00  0.00     0.167 HD
ATOM     65  C   UNL     1      -2.839   8.239 -11.772  1.00  0.00     0.074 A 
ATOM     66  C   UNL     1      -4.249   7.879 -11.731  1.00  0.00     0.031 C 
ATOM     67  C   UNL     1      -1.780   7.480 -12.150  1.00  0.00     0.034 A 
BRANCH  54  68
ATOM     68  C   UNL     1       1.034   3.008 -12.157  1.00  0.00     0.023 A 
ATOM     69  C   UNL     1       1.681   2.039 -12.932  1.00  0.00     0.031 A 
ATOM     70  C   UNL     1       1.843   3.897 -11.412  1.00  0.00     0.131 A 
ATOM     71  C   UNL     1       3.081   1.931 -12.892  1.00  0.00     0.055 A 
ATOM     72  C   UNL     1       3.227   3.751 -11.330  1.00  0.00     0.041 A 
ATOM     73  F   UNL     1       1.299   4.924 -10.738  1.00  0.00    -0.206 F 
ATOM     74  C   UNL     1       3.855   2.754 -12.068  1.00  0.00     0.022 A 
BRANCH  71  75
ATOM     75  S   UNL     1       3.882   0.700 -13.952  1.00  0.00     0.124 S 
ATOM     76  O   UNL     1       3.409  -0.559 -13.385  1.00  0.00    -0.237 OA
ATOM     77  O   UNL     1       3.351   1.033 -15.272  1.00  0.00    -0.237 OA
ATOM     78  O   UNL     1       5.309   0.964 -13.778  1.00  0.00    -0.744 OA
ENDBRANCH  71  75
ENDBRANCH  54  68
BRANCH  55  79
ATOM     79  C   UNL     1      -4.281  10.218  -8.108  1.00  0.00     0.023 A 
ATOM     80  C   UNL     1      -4.807  11.151  -9.120  1.00  0.00     0.031 A 
ATOM     81  C   UNL     1      -4.874  10.388  -6.850  1.00  0.00     0.131 A 
ATOM     82  C   UNL     1      -5.855  12.104  -8.855  1.00  0.00     0.055 A 
ATOM     83  C   UNL     1      -5.910  11.332  -6.597  1.00  0.00     0.041 A 
ATOM     84  F   UNL     1      -4.547   9.572  -5.838  1.00  0.00    -0.206 F 
ATOM     85  C   UNL     1      -6.415  12.172  -7.589  1.00  0.00     0.022 A 
BRANCH  82  86
ATOM     86  S   UNL     1      -6.663  13.160 -10.164  1.00  0.00     0.124 S 
ATOM     87  O   UNL     1      -5.690  14.223 -10.381  1.00  0.00    -0.237 OA
ATOM     88  O   UNL     1      -6.865  12.225 -11.265  1.00  0.00    -0.237 OA
ATOM     89  O   UNL     1      -7.908  13.605  -9.529  1.00  0.00    -0.744 OA
ENDBRANCH  82  86
ENDBRANCH  55  79
BRANCH  67  90
ATOM     90  C   UNL     1      -0.408   8.143 -12.205  1.00  0.00     0.023 A 
ATOM     91  C   UNL     1       0.175   8.991 -11.227  1.00  0.00     0.031 A 
ATOM     92  C   UNL     1       0.339   7.939 -13.379  1.00  0.00     0.131 A 
ATOM     93  C   UNL     1       1.434   9.591 -11.451  1.00  0.00     0.055 A 
ATOM     94  C   UNL     1       1.602   8.494 -13.579  1.00  0.00     0.041 A 
ATOM     95  F   UNL     1      -0.158   7.184 -14.373  1.00  0.00    -0.206 F 
ATOM     96  C   UNL     1       2.151   9.332 -12.620  1.00  0.00     0.022 A 
BRANCH  93  97
ATOM     97  S   UNL     1       2.129  10.789 -10.259  1.00  0.00     0.124 S 
ATOM     98  O   UNL     1       1.008  11.678  -9.979  1.00  0.00    -0.237 OA
ATOM     99  O   UNL     1       2.553   9.930  -9.156  1.00  0.00    -0.237 OA
ATOM    100  O   UNL     1       3.225  11.412 -11.004  1.00  0.00    -0.744 OA
ENDBRANCH  93  97
ENDBRANCH  67  90
ENDBRANCH  41  42
ENDBRANCH  33  36
ENDBRANCH  31  32
ENDBRANCH   1  31
TORSDOF 17
