REMARK SMILES C[C@@H](C(=O)NCCCNC(=O)c1ccc(-c2c3nc(c(-c4cc(S(=O)(=O)[O-])ccc4F)c4ccc([nH]4)c(-c4cc(S(=O)(=O)[O-])ccc4F)c4nc(c(-c5cc(S(=O)(=O)[O-])ccc5F)c5ccc2[nH]5)C=C4)C=C3)cc1)n1ccc(C(=O)N2CC[NH+](Cc3cccc(F)c3)CC2)n1
REMARK SMILES IDX 6 1 5 2 3 3 4 4 2 6 1 7 75 8 76 9 95 10 77 11 78 12 79 13
REMARK SMILES IDX 80 14 81 15 82 16 94 17 83 18 93 19 84 20 85 22 86 23 87 24
REMARK SMILES IDX 92 25 88 26 90 27 89 28 91 29 7 30 8 31 9 32 10 33 11 35
REMARK SMILES IDX 12 36 13 37 74 38 14 39 73 40 15 41 16 42 17 43 67 44 18 45
REMARK SMILES IDX 72 46 66 47 68 48 19 49 71 50 65 51 64 52 20 54 52 55 32 56
REMARK SMILES IDX 51 57 33 58 36 59 50 60 69 61 34 62 35 63 49 65 70 66 37 67
REMARK SMILES IDX 21 68 22 69 30 70 23 71 29 72 31 73 28 74 24 75 25 76 26 77
REMARK SMILES IDX 27 78 53 79 54 80 62 81 55 82 61 83 63 84 60 85 56 86 57 87
REMARK SMILES IDX 58 88 59 89 38 90 39 91 47 92 40 93 46 94 48 95 45 96 41 97
REMARK SMILES IDX 42 98 43 99 44 100
REMARK H PARENT 5 5 84 21 9 34 68 53 36 64
REMARK Flexibility Score: inf
ROOT
ATOM      1  C   UNL     1       3.493   0.155   1.988  1.00  0.00     0.117 C 
ENDROOT
BRANCH   1   2
ATOM      2  N   UNL     1       2.412   0.985   2.476  1.00  0.00    -0.354 N 
ATOM      3  C   UNL     1       1.062   0.904   2.286  1.00  0.00     0.244 C 
ATOM      4  O   UNL     1       0.402   1.695   2.963  1.00  0.00    -0.273 OA
ATOM      5  H   UNL     1       2.700   1.736   3.043  1.00  0.00     0.163 HD
BRANCH   3   6
ATOM      6  C   UNL     1       0.466  -0.158   1.344  1.00  0.00     0.193 C 
ATOM      7  C   UNL     1       0.846   0.039  -0.121  1.00  0.00     0.044 C 
BRANCH   6   8
ATOM      8  N   UNL     1      -0.995  -0.208   1.453  1.00  0.00    -0.260 N 
ATOM      9  C   UNL     1      -1.778  -1.308   1.654  1.00  0.00     0.110 A 
ATOM     10  N   UNL     1      -1.712   0.905   1.255  1.00  0.00    -0.167 NA
ATOM     11  C   UNL     1      -3.055  -0.820   1.819  1.00  0.00     0.056 A 
ATOM     12  C   UNL     1      -2.951   0.592   1.663  1.00  0.00     0.150 A 
BRANCH  12  13
ATOM     13  C   UNL     1      -3.985   1.589   2.005  1.00  0.00     0.274 C 
ATOM     14  O   UNL     1      -5.023   1.217   2.564  1.00  0.00    -0.267 OA
ATOM     15  N   UNL     1      -3.737   2.956   1.789  1.00  0.00    -0.326 N 
ATOM     16  C   UNL     1      -4.622   3.881   2.484  1.00  0.00     0.181 C 
ATOM     17  C   UNL     1      -3.052   3.458   0.592  1.00  0.00     0.181 C 
ATOM     18  C   UNL     1      -4.178   5.353   2.466  1.00  0.00     0.284 C 
ATOM     19  C   UNL     1      -2.656   4.945   0.648  1.00  0.00     0.284 C 
ATOM     20  N   UNL     1      -3.659   5.864   1.194  1.00  0.00    -0.328 N 
ATOM     21  H   UNL     1      -3.177   6.735   1.414  1.00  0.00     0.348 HD
BRANCH  20  22
ATOM     22  C   UNL     1      -4.637   6.399   0.245  1.00  0.00     0.299 C 
BRANCH  22  23
ATOM     23  C   UNL     1      -5.620   5.432  -0.373  1.00  0.00     0.009 A 
ATOM     24  C   UNL     1      -5.340   4.806  -1.599  1.00  0.00     0.010 A 
ATOM     25  C   UNL     1      -6.817   5.115   0.282  1.00  0.00     0.048 A 
ATOM     26  C   UNL     1      -6.192   3.823  -2.110  1.00  0.00     0.004 A 
ATOM     27  C   UNL     1      -7.652   4.126  -0.228  1.00  0.00     0.123 A 
ATOM     28  C   UNL     1      -7.343   3.467  -1.411  1.00  0.00     0.039 A 
ATOM     29  F   UNL     1      -8.758   3.787   0.448  1.00  0.00    -0.207 F 
ENDBRANCH  22  23
ENDBRANCH  20  22
ENDBRANCH  12  13
ENDBRANCH   6   8
ENDBRANCH   3   6
ENDBRANCH   1   2
BRANCH   1  30
ATOM     30  C   UNL     1       4.322   0.856   0.918  1.00  0.00     0.042 C 
BRANCH  30  31
ATOM     31  C   UNL     1       4.981   2.152   1.380  1.00  0.00     0.118 C 
BRANCH  31  32
ATOM     32  N   UNL     1       5.986   1.937   2.411  1.00  0.00    -0.352 N 
ATOM     33  C   UNL     1       7.342   2.155   2.372  1.00  0.00     0.251 C 
ATOM     34  H   UNL     1       5.643   1.582   3.263  1.00  0.00     0.163 HD
ATOM     35  O   UNL     1       8.049   1.725   3.284  1.00  0.00    -0.269 OA
BRANCH  33  36
ATOM     36  C   UNL     1       7.951   2.873   1.232  1.00  0.00     0.039 A 
ATOM     37  C   UNL     1       9.115   2.364   0.648  1.00  0.00     0.014 A 
ATOM     38  C   UNL     1       7.378   4.048   0.740  1.00  0.00     0.014 A 
ATOM     39  C   UNL     1       9.658   2.987  -0.479  1.00  0.00     0.010 A 
ATOM     40  C   UNL     1       7.877   4.625  -0.424  1.00  0.00     0.010 A 
ATOM     41  C   UNL     1       9.019   4.099  -1.049  1.00  0.00    -0.014 A 
BRANCH  41  42
ATOM     42  C   UNL     1       9.517   4.745  -2.292  1.00  0.00     0.031 A 
ATOM     43  C   UNL     1       9.970   6.177  -2.255  1.00  0.00     0.074 A 
ATOM     44  C   UNL     1       9.447   4.087  -3.466  1.00  0.00     0.049 A 
ATOM     45  N   UNL     1      10.249   6.987  -3.244  1.00  0.00    -0.248 NA
ATOM     46  C   UNL     1      10.082   6.787  -0.923  1.00  0.00     0.031 C 
ATOM     47  C   UNL     1       8.989   2.707  -3.636  1.00  0.00     0.029 A 
ATOM     48  N   UNL     1       9.725   4.506  -4.744  1.00  0.00    -0.354 N 
ATOM     49  C   UNL     1      10.541   8.214  -2.655  1.00  0.00     0.074 A 
ATOM     50  C   UNL     1      10.348   8.047  -1.229  1.00  0.00     0.031 C 
ATOM     51  C   UNL     1       9.006   2.397  -4.942  1.00  0.00     0.029 A 
ATOM     52  C   UNL     1       9.426   3.569  -5.706  1.00  0.00     0.049 A 
ATOM     53  H   UNL     1      10.101   5.391  -4.952  1.00  0.00     0.167 HD
ATOM     54  C   UNL     1      10.947   9.365  -3.249  1.00  0.00     0.034 A 
ATOM     55  C   UNL     1       9.452   3.652  -7.051  1.00  0.00     0.034 A 
ATOM     56  C   UNL     1      11.145   9.504  -4.671  1.00  0.00     0.049 A 
ATOM     57  C   UNL     1       9.891   4.939  -7.697  1.00  0.00     0.074 A 
ATOM     58  C   UNL     1      11.618  10.598  -5.375  1.00  0.00     0.029 A 
ATOM     59  N   UNL     1      10.871   8.517  -5.611  1.00  0.00    -0.354 N 
ATOM     60  N   UNL     1      10.208   6.079  -7.128  1.00  0.00    -0.248 NA
ATOM     61  C   UNL     1       9.984   4.950  -9.163  1.00  0.00     0.031 C 
ATOM     62  C   UNL     1      11.570  10.295  -6.741  1.00  0.00     0.029 A 
ATOM     63  C   UNL     1      11.136   8.987  -6.888  1.00  0.00     0.049 A 
ATOM     64  H   UNL     1      10.538   7.615  -5.401  1.00  0.00     0.167 HD
ATOM     65  C   UNL     1      10.564   6.935  -8.166  1.00  0.00     0.074 A 
ATOM     66  C   UNL     1      10.423   6.180  -9.395  1.00  0.00     0.031 C 
ATOM     67  C   UNL     1      10.981   8.225  -8.105  1.00  0.00     0.034 A 
BRANCH  54  68
ATOM     68  C   UNL     1      11.162  10.562  -2.353  1.00  0.00     0.023 A 
ATOM     69  C   UNL     1      12.113  10.546  -1.316  1.00  0.00     0.031 A 
ATOM     70  C   UNL     1      10.365  11.712  -2.492  1.00  0.00     0.131 A 
ATOM     71  C   UNL     1      12.166  11.604  -0.397  1.00  0.00     0.055 A 
ATOM     72  C   UNL     1      10.490  12.804  -1.630  1.00  0.00     0.041 A 
ATOM     73  F   UNL     1       9.428  11.783  -3.451  1.00  0.00    -0.206 F 
ATOM     74  C   UNL     1      11.378  12.745  -0.560  1.00  0.00     0.022 A 
BRANCH  71  75
ATOM     75  S   UNL     1      13.139  11.379   1.118  1.00  0.00     0.124 S 
ATOM     76  O   UNL     1      12.554  10.157   1.666  1.00  0.00    -0.237 OA
ATOM     77  O   UNL     1      14.499  11.260   0.603  1.00  0.00    -0.237 OA
ATOM     78  O   UNL     1      12.864  12.591   1.886  1.00  0.00    -0.744 OA
ENDBRANCH  71  75
ENDBRANCH  54  68
BRANCH  55  79
ATOM     79  C   UNL     1       9.013   2.490  -7.872  1.00  0.00     0.023 A 
ATOM     80  C   UNL     1       9.929   1.749  -8.632  1.00  0.00     0.031 A 
ATOM     81  C   UNL     1       7.661   2.100  -7.896  1.00  0.00     0.131 A 
ATOM     82  C   UNL     1       9.479   0.669  -9.408  1.00  0.00     0.055 A 
ATOM     83  C   UNL     1       7.225   1.001  -8.637  1.00  0.00     0.041 A 
ATOM     84  F   UNL     1       6.749   2.769  -7.173  1.00  0.00    -0.206 F 
ATOM     85  C   UNL     1       8.136   0.282  -9.405  1.00  0.00     0.022 A 
BRANCH  82  86
ATOM     86  S   UNL     1      10.672  -0.208 -10.455  1.00  0.00     0.124 S 
ATOM     87  O   UNL     1      11.114   0.852 -11.353  1.00  0.00    -0.237 OA
ATOM     88  O   UNL     1      11.650  -0.672  -9.476  1.00  0.00    -0.237 OA
ATOM     89  O   UNL     1       9.870  -1.260 -11.076  1.00  0.00    -0.744 OA
ENDBRANCH  82  86
ENDBRANCH  55  79
BRANCH  67  90
ATOM     90  C   UNL     1      11.367   8.887  -9.403  1.00  0.00     0.023 A 
ATOM     91  C   UNL     1      10.410   9.255 -10.364  1.00  0.00     0.031 A 
ATOM     92  C   UNL     1      12.719   9.177  -9.665  1.00  0.00     0.131 A 
ATOM     93  C   UNL     1      10.822   9.866 -11.558  1.00  0.00     0.055 A 
ATOM     94  C   UNL     1      13.117   9.826 -10.834  1.00  0.00     0.041 A 
ATOM     95  F   UNL     1      13.672   8.844  -8.780  1.00  0.00    -0.206 F 
ATOM     96  C   UNL     1      12.167  10.169 -11.791  1.00  0.00     0.022 A 
BRANCH  93  97
ATOM     97  S   UNL     1       9.581  10.226 -12.832  1.00  0.00     0.124 S 
ATOM     98  O   UNL     1       9.104   8.890 -13.174  1.00  0.00    -0.237 OA
ATOM     99  O   UNL     1       8.635  11.077 -12.117  1.00  0.00    -0.237 OA
ATOM    100  O   UNL     1      10.348  10.898 -13.879  1.00  0.00    -0.744 OA
ENDBRANCH  93  97
ENDBRANCH  67  90
ENDBRANCH  41  42
ENDBRANCH  33  36
ENDBRANCH  31  32
ENDBRANCH  30  31
ENDBRANCH   1  30
TORSDOF 17
