REMARK SMILES O=C(NCCCNC(=O)[C@H]1CCc2[nH]nc(C(F)(F)F)c2C1)c1ccc(-c2c3nc(c(-c4cc(S(=O)(=O)[O-])ccc4F)c4ccc([nH]4)c(-c4cc(S(=O)(=O)[O-])ccc4F)c4nc(c(-c5cc(S(=O)(=O)[O-])ccc5F)c5ccc2[nH]5)C=C4)C=C3)cc1
REMARK SMILES IDX 4 1 3 2 1 3 2 4 23 6 24 7 85 8 25 9 84 10 26 11 27 12 28 13
REMARK SMILES IDX 78 14 29 15 83 16 77 17 79 18 30 19 82 20 76 21 75 22 31 24
REMARK SMILES IDX 63 25 43 26 62 27 44 28 47 29 61 30 80 31 45 32 46 33 60 35
REMARK SMILES IDX 81 36 48 37 32 38 33 39 41 40 34 41 40 42 42 43 39 44 35 45
REMARK SMILES IDX 36 46 37 47 38 48 64 49 65 50 73 51 66 52 72 53 74 54 71 55
REMARK SMILES IDX 67 56 68 57 69 58 70 59 49 60 50 61 58 62 51 63 57 64 59 65
REMARK SMILES IDX 56 66 52 67 53 68 54 69 55 70 5 71 6 72 7 73 8 74 9 76 10 77
REMARK SMILES IDX 11 78 22 79 12 80 21 81 13 82 16 83 14 84 15 85 17 87 18 88
REMARK SMILES IDX 19 89 20 90
REMARK H PARENT 3 5 79 23 47 34 7 75 14 86
REMARK Flexibility Score: inf
ROOT
ATOM      1  C   UNL     1       6.384  -1.265  -0.784  1.00  0.00     0.118 C 
ENDROOT
BRANCH   1   2
ATOM      2  N   UNL     1       7.424  -0.449  -0.169  1.00  0.00    -0.352 N 
ATOM      3  O   UNL     1       8.391   0.881   1.365  1.00  0.00    -0.269 OA
ATOM      4  C   UNL     1       7.495   0.085   1.094  1.00  0.00     0.251 C 
ATOM      5  H   UNL     1       8.195  -0.251  -0.749  1.00  0.00     0.163 HD
BRANCH   4   6
ATOM      6  C   UNL     1       6.489  -0.279   2.114  1.00  0.00     0.039 A 
ATOM      7  C   UNL     1       6.094  -1.607   2.283  1.00  0.00     0.014 A 
ATOM      8  C   UNL     1       5.947   0.722   2.926  1.00  0.00     0.014 A 
ATOM      9  C   UNL     1       5.054  -1.913   3.152  1.00  0.00     0.010 A 
ATOM     10  C   UNL     1       4.964   0.398   3.865  1.00  0.00     0.010 A 
ATOM     11  C   UNL     1       4.487  -0.918   3.965  1.00  0.00    -0.014 A 
BRANCH  11  12
ATOM     12  C   UNL     1       3.442  -1.295   4.950  1.00  0.00     0.031 A 
ATOM     13  C   UNL     1       2.038  -0.768   4.835  1.00  0.00     0.074 A 
ATOM     14  C   UNL     1       3.770  -2.145   5.943  1.00  0.00     0.049 A 
ATOM     15  N   UNL     1       1.005  -1.001   5.603  1.00  0.00    -0.248 NA
ATOM     16  C   UNL     1       1.761   0.147   3.719  1.00  0.00     0.031 C 
ATOM     17  C   UNL     1       5.106  -2.711   6.155  1.00  0.00     0.029 A 
ATOM     18  N   UNL     1       3.016  -2.696   6.946  1.00  0.00    -0.354 N 
ATOM     19  C   UNL     1      -0.041  -0.250   5.078  1.00  0.00     0.074 A 
ATOM     20  C   UNL     1       0.495   0.471   3.941  1.00  0.00     0.031 C 
ATOM     21  C   UNL     1       5.065  -3.559   7.192  1.00  0.00     0.029 A 
ATOM     22  C   UNL     1       3.724  -3.546   7.763  1.00  0.00     0.049 A 
ATOM     23  H   UNL     1       2.058  -2.501   7.069  1.00  0.00     0.167 HD
ATOM     24  C   UNL     1      -1.328  -0.176   5.504  1.00  0.00     0.034 A 
ATOM     25  C   UNL     1       3.346  -4.222   8.864  1.00  0.00     0.034 A 
ATOM     26  C   UNL     1      -1.841  -0.909   6.638  1.00  0.00     0.049 A 
ATOM     27  C   UNL     1       1.922  -4.101   9.331  1.00  0.00     0.074 A 
ATOM     28  C   UNL     1      -3.135  -0.939   7.132  1.00  0.00     0.029 A 
ATOM     29  N   UNL     1      -1.086  -1.733   7.465  1.00  0.00    -0.354 N 
ATOM     30  N   UNL     1       0.941  -3.401   8.809  1.00  0.00    -0.248 NA
ATOM     31  C   UNL     1       1.554  -4.862  10.529  1.00  0.00     0.031 C 
ATOM     32  C   UNL     1      -3.147  -1.723   8.292  1.00  0.00     0.029 A 
ATOM     33  C   UNL     1      -1.878  -2.246   8.483  1.00  0.00     0.049 A 
ATOM     34  H   UNL     1      -0.128  -1.925   7.346  1.00  0.00     0.167 HD
ATOM     35  C   UNL     1      -0.168  -3.650   9.612  1.00  0.00     0.074 A 
ATOM     36  C   UNL     1       0.263  -4.583  10.635  1.00  0.00     0.031 C 
ATOM     37  C   UNL     1      -1.427  -3.155   9.512  1.00  0.00     0.034 A 
BRANCH  24  38
ATOM     38  C   UNL     1      -2.255   0.764   4.769  1.00  0.00     0.023 A 
ATOM     39  C   UNL     1      -2.604   0.566   3.422  1.00  0.00     0.031 A 
ATOM     40  C   UNL     1      -2.788   1.888   5.427  1.00  0.00     0.131 A 
ATOM     41  C   UNL     1      -3.407   1.508   2.759  1.00  0.00     0.055 A 
ATOM     42  C   UNL     1      -3.648   2.781   4.784  1.00  0.00     0.041 A 
ATOM     43  F   UNL     1      -2.475   2.142   6.707  1.00  0.00    -0.206 F 
ATOM     44  C   UNL     1      -3.951   2.602   3.438  1.00  0.00     0.022 A 
BRANCH  41  45
ATOM     45  S   UNL     1      -3.624   1.358   0.964  1.00  0.00     0.124 S 
ATOM     46  O   UNL     1      -2.241   1.403   0.494  1.00  0.00    -0.237 OA
ATOM     47  O   UNL     1      -4.302   0.073   0.835  1.00  0.00    -0.237 OA
ATOM     48  O   UNL     1      -4.429   2.527   0.616  1.00  0.00    -0.744 OA
ENDBRANCH  41  45
ENDBRANCH  24  38
BRANCH  25  49
ATOM     49  C   UNL     1       4.340  -5.038   9.615  1.00  0.00     0.023 A 
ATOM     50  C   UNL     1       4.217  -6.432   9.709  1.00  0.00     0.031 A 
ATOM     51  C   UNL     1       5.429  -4.425  10.262  1.00  0.00     0.131 A 
ATOM     52  C   UNL     1       5.149  -7.165  10.461  1.00  0.00     0.055 A 
ATOM     53  C   UNL     1       6.382  -5.163  10.964  1.00  0.00     0.041 A 
ATOM     54  F   UNL     1       5.596  -3.094  10.197  1.00  0.00    -0.206 F 
ATOM     55  C   UNL     1       6.238  -6.542  11.076  1.00  0.00     0.022 A 
BRANCH  52  56
ATOM     56  S   UNL     1       4.878  -8.944  10.683  1.00  0.00     0.124 S 
ATOM     57  O   UNL     1       3.559  -8.970  11.306  1.00  0.00    -0.237 OA
ATOM     58  O   UNL     1       4.950  -9.434   9.311  1.00  0.00    -0.237 OA
ATOM     59  O   UNL     1       5.985  -9.351  11.547  1.00  0.00    -0.744 OA
ENDBRANCH  52  56
ENDBRANCH  25  49
BRANCH  37  60
ATOM     60  C   UNL     1      -2.429  -3.643  10.528  1.00  0.00     0.023 A 
ATOM     61  C   UNL     1      -2.321  -3.308  11.889  1.00  0.00     0.031 A 
ATOM     62  C   UNL     1      -3.488  -4.479  10.133  1.00  0.00     0.131 A 
ATOM     63  C   UNL     1      -3.221  -3.853  12.816  1.00  0.00     0.055 A 
ATOM     64  C   UNL     1      -4.416  -4.971  11.051  1.00  0.00     0.041 A 
ATOM     65  F   UNL     1      -3.635  -4.833   8.847  1.00  0.00    -0.206 F 
ATOM     66  C   UNL     1      -4.278  -4.670  12.403  1.00  0.00     0.022 A 
BRANCH  63  67
ATOM     67  S   UNL     1      -2.938  -3.559  14.583  1.00  0.00     0.124 S 
ATOM     68  O   UNL     1      -1.604  -4.119  14.774  1.00  0.00    -0.237 OA
ATOM     69  O   UNL     1      -3.040  -2.106  14.678  1.00  0.00    -0.237 OA
ATOM     70  O   UNL     1      -4.019  -4.299  15.232  1.00  0.00    -0.744 OA
ENDBRANCH  63  67
ENDBRANCH  37  60
ENDBRANCH  11  12
ENDBRANCH   4   6
ENDBRANCH   1   2
BRANCH   1  71
ATOM     71  C   UNL     1       5.738  -0.600  -1.997  1.00  0.00     0.042 C 
BRANCH  71  72
ATOM     72  C   UNL     1       6.712  -0.254  -3.115  1.00  0.00     0.117 C 
BRANCH  72  73
ATOM     73  N   UNL     1       7.503  -1.399  -3.522  1.00  0.00    -0.356 N 
ATOM     74  C   UNL     1       7.470  -2.174  -4.635  1.00  0.00     0.223 C 
ATOM     75  H   UNL     1       8.192  -1.664  -2.870  1.00  0.00     0.163 HD
ATOM     76  O   UNL     1       8.289  -3.093  -4.690  1.00  0.00    -0.275 OA
BRANCH  74  77
ATOM     77  C   UNL     1       6.463  -1.899  -5.749  1.00  0.00     0.083 C 
ATOM     78  C   UNL     1       7.156  -2.010  -7.132  1.00  0.00     0.020 C 
ATOM     79  C   UNL     1       5.235  -2.834  -5.624  1.00  0.00     0.053 C 
ATOM     80  C   UNL     1       7.579  -3.439  -7.530  1.00  0.00     0.057 C 
ATOM     81  C   UNL     1       5.509  -4.175  -6.216  1.00  0.00     0.006 A 
ATOM     82  C   UNL     1       6.562  -4.411  -7.068  1.00  0.00     0.039 A 
ATOM     83  C   UNL     1       4.848  -5.430  -6.088  1.00  0.00     0.169 A 
ATOM     84  N   UNL     1       6.560  -5.743  -7.326  1.00  0.00    -0.282 N 
ATOM     85  N   UNL     1       5.506  -6.381  -6.792  1.00  0.00    -0.171 NA
ATOM     86  H   UNL     1       7.259  -6.196  -7.851  1.00  0.00     0.190 HD
BRANCH  83  87
ATOM     87  C   UNL     1       3.598  -5.733  -5.299  1.00  0.00     0.435 C 
ATOM     88  F   UNL     1       2.703  -6.479  -6.003  1.00  0.00    -0.164 F 
ATOM     89  F   UNL     1       3.864  -6.410  -4.151  1.00  0.00    -0.164 F 
ATOM     90  F   UNL     1       2.940  -4.598  -4.934  1.00  0.00    -0.164 F 
ENDBRANCH  83  87
ENDBRANCH  74  77
ENDBRANCH  72  73
ENDBRANCH  71  72
ENDBRANCH   1  71
TORSDOF 14
