REMARK SMILES C=CC[N@@H+](CC(=O)NCCCNC(=O)c1ccc(-c2c3nc(c(-c4cc(S(=O)(=O)[O-])ccc4F)c4ccc([nH]4)c(-c4cc(S(=O)(=O)[O-])ccc4F)c4nc(c(-c5cc(S(=O)(=O)[O-])ccc5F)c5ccc2[nH]5)C=C4)C=C3)cc1)[C@@H]1CCC[C@H](C(C)(C)C)CC1
REMARK SMILES IDX 6 1 7 2 8 3 5 5 4 6 3 8 2 9 1 10 78 11 79 12 80 13 81 14
REMARK SMILES IDX 82 15 83 17 84 18 85 19 86 20 88 21 87 22 9 24 10 25 11 26
REMARK SMILES IDX 12 27 13 28 14 30 15 31 16 32 77 33 17 34 76 35 18 36 19 37
REMARK SMILES IDX 20 38 70 39 21 40 75 41 69 42 71 43 22 44 74 45 68 46 67 47
REMARK SMILES IDX 23 49 55 50 35 51 54 52 36 53 39 54 53 55 72 56 37 57 38 58
REMARK SMILES IDX 52 60 73 61 40 62 24 63 25 64 33 65 26 66 32 67 34 68 31 69
REMARK SMILES IDX 27 70 28 71 29 72 30 73 56 74 57 75 65 76 58 77 64 78 66 79
REMARK SMILES IDX 63 80 59 81 60 82 61 83 62 84 41 85 42 86 50 87 43 88 49 89
REMARK SMILES IDX 51 90 48 91 44 92 45 93 46 94 47 95
REMARK H PARENT 8 4 4 7 12 29 71 48 39 59
REMARK Flexibility Score: 80.00
ROOT
ATOM      1  C   UNL     1      -3.725   0.535  -1.161  1.00  0.00     0.275 C 
ATOM      2  O   UNL     1      -4.487   1.472  -1.425  1.00  0.00    -0.269 OA
ATOM      3  N   UNL     1      -3.706   0.142   0.141  1.00  0.00    -0.351 N 
ATOM      4  H   UNL     1      -4.181   0.749   0.754  1.00  0.00     0.163 HD
ENDROOT
BRANCH   1   5
ATOM      5  C   UNL     1      -2.965  -0.192  -2.272  1.00  0.00     0.364 C 
BRANCH   5   6
ATOM      6  N   UNL     1      -1.515   0.041  -2.400  1.00  0.00    -0.321 N 
ATOM      7  H   UNL     1      -1.398  -0.054  -3.409  1.00  0.00     0.349 HD
BRANCH   6   8
ATOM      8  C   UNL     1      -0.702  -1.017  -1.806  1.00  0.00     0.291 C 
BRANCH   8   9
ATOM      9  C   UNL     1       0.787  -0.919  -1.980  1.00  0.00     0.025 C 
ATOM     10  C   UNL     1       1.651  -0.776  -0.964  1.00  0.00     0.010 C 
ENDBRANCH   8   9
ENDBRANCH   6   8
BRANCH   6  11
ATOM     11  C   UNL     1      -0.964   1.409  -2.440  1.00  0.00     0.184 C 
BRANCH  11  12
ATOM     12  C   UNL     1      -0.733   2.048  -1.066  1.00  0.00     0.065 C 
BRANCH  12  13
ATOM     13  C   UNL     1       0.040   3.360  -1.182  1.00  0.00     0.006 C 
BRANCH  13  14
ATOM     14  C   UNL     1      -0.865   4.582  -1.216  1.00  0.00     0.004 C 
BRANCH  14  15
ATOM     15  C   UNL     1      -1.760   4.785  -2.464  1.00  0.00    -0.005 CG0
ATOM     16  G   UNL     1      -2.497   3.501  -2.923  1.00  0.00     0.000 G0
BRANCH  15  17
ATOM     17  C   UNL     1      -2.768   5.999  -2.243  1.00  0.00    -0.035 C 
ATOM     18  C   UNL     1      -2.015   7.263  -1.769  1.00  0.00     0.011 C 
ATOM     19  C   UNL     1      -3.479   6.372  -3.563  1.00  0.00     0.011 C 
ATOM     20  C   UNL     1      -3.857   5.675  -1.196  1.00  0.00     0.011 C 
ENDBRANCH  15  17
ENDBRANCH  14  15
ENDBRANCH  13  14
ENDBRANCH  12  13
ENDBRANCH  11  12
BRANCH  11  21
ATOM     21  C   UNL     1      -1.625   2.364  -3.465  1.00  0.00     0.065 C 
BRANCH  21  22
ATOM     22  C   UNL     1      -2.497   3.501  -2.923  1.00  0.00     0.010 CG0
ATOM     23  G   UNL     1      -1.760   4.785  -2.464  1.00  0.00     0.000 G0
ENDBRANCH  21  22
ENDBRANCH  11  21
ENDBRANCH   6  11
ENDBRANCH   5   6
ENDBRANCH   1   5
BRANCH   3  24
ATOM     24  C   UNL     1      -3.111  -1.010   0.788  1.00  0.00     0.118 C 
BRANCH  24  25
ATOM     25  C   UNL     1      -1.869  -0.641   1.594  1.00  0.00     0.042 C 
BRANCH  25  26
ATOM     26  C   UNL     1      -2.142   0.218   2.821  1.00  0.00     0.118 C 
BRANCH  26  27
ATOM     27  N   UNL     1      -2.628  -0.564   3.944  1.00  0.00    -0.352 N 
ATOM     28  C   UNL     1      -1.998  -0.942   5.105  1.00  0.00     0.251 C 
ATOM     29  H   UNL     1      -3.559  -0.873   3.860  1.00  0.00     0.163 HD
ATOM     30  O   UNL     1      -2.532  -1.808   5.802  1.00  0.00    -0.269 OA
BRANCH  28  31
ATOM     31  C   UNL     1      -0.698  -0.358   5.522  1.00  0.00     0.039 A 
ATOM     32  C   UNL     1       0.219  -1.173   6.196  1.00  0.00     0.014 A 
ATOM     33  C   UNL     1      -0.394   0.993   5.330  1.00  0.00     0.014 A 
ATOM     34  C   UNL     1       1.442  -0.650   6.633  1.00  0.00     0.010 A 
ATOM     35  C   UNL     1       0.862   1.491   5.683  1.00  0.00     0.010 A 
ATOM     36  C   UNL     1       1.786   0.683   6.360  1.00  0.00    -0.014 A 
BRANCH  36  37
ATOM     37  C   UNL     1       3.077   1.261   6.827  1.00  0.00     0.031 A 
ATOM     38  C   UNL     1       3.081   2.395   7.822  1.00  0.00     0.074 A 
ATOM     39  C   UNL     1       4.244   0.801   6.336  1.00  0.00     0.049 A 
ATOM     40  N   UNL     1       4.090   3.075   8.306  1.00  0.00    -0.248 NA
ATOM     41  C   UNL     1       1.769   2.841   8.309  1.00  0.00     0.031 C 
ATOM     42  C   UNL     1       4.382  -0.274   5.351  1.00  0.00     0.029 A 
ATOM     43  N   UNL     1       5.538   1.178   6.598  1.00  0.00    -0.354 N 
ATOM     44  C   UNL     1       3.533   4.037   9.144  1.00  0.00     0.074 A 
ATOM     45  C   UNL     1       2.096   3.898   9.035  1.00  0.00     0.031 C 
ATOM     46  C   UNL     1       5.686  -0.494   5.121  1.00  0.00     0.029 A 
ATOM     47  C   UNL     1       6.477   0.451   5.905  1.00  0.00     0.049 A 
ATOM     48  H   UNL     1       5.772   1.901   7.224  1.00  0.00     0.167 HD
ATOM     49  C   UNL     1       4.157   4.932   9.953  1.00  0.00     0.034 A 
ATOM     50  C   UNL     1       7.822   0.536   5.898  1.00  0.00     0.034 A 
ATOM     51  C   UNL     1       5.591   5.055  10.059  1.00  0.00     0.049 A 
ATOM     52  C   UNL     1       8.497   1.565   6.768  1.00  0.00     0.074 A 
ATOM     53  C   UNL     1       6.330   5.898  10.871  1.00  0.00     0.029 A 
ATOM     54  N   UNL     1       6.509   4.315   9.322  1.00  0.00    -0.354 N 
ATOM     55  N   UNL     1       7.958   2.447   7.577  1.00  0.00    -0.248 NA
ATOM     56  C   UNL     1       9.965   1.602   6.727  1.00  0.00     0.031 C 
ATOM     57  C   UNL     1       7.688   5.713  10.580  1.00  0.00     0.029 A 
ATOM     58  C   UNL     1       7.802   4.702   9.640  1.00  0.00     0.049 A 
ATOM     59  H   UNL     1       6.274   3.617   8.669  1.00  0.00     0.167 HD
ATOM     60  C   UNL     1       9.024   3.121   8.167  1.00  0.00     0.074 A 
ATOM     61  C   UNL     1      10.235   2.538   7.625  1.00  0.00     0.031 C 
ATOM     62  C   UNL     1       9.003   4.125   9.081  1.00  0.00     0.034 A 
BRANCH  49  63
ATOM     63  C   UNL     1       3.273   5.859  10.760  1.00  0.00     0.023 A 
ATOM     64  C   UNL     1       2.348   5.363  11.696  1.00  0.00     0.031 A 
ATOM     65  C   UNL     1       3.304   7.248  10.544  1.00  0.00     0.131 A 
ATOM     66  C   UNL     1       1.420   6.228  12.293  1.00  0.00     0.055 A 
ATOM     67  C   UNL     1       2.442   8.117  11.218  1.00  0.00     0.041 A 
ATOM     68  F   UNL     1       4.152   7.785   9.653  1.00  0.00    -0.206 F 
ATOM     69  C   UNL     1       1.477   7.607  12.081  1.00  0.00     0.022 A 
BRANCH  66  70
ATOM     70  S   UNL     1       0.019   5.504  13.192  1.00  0.00     0.124 S 
ATOM     71  O   UNL     1      -0.574   4.646  12.169  1.00  0.00    -0.237 OA
ATOM     72  O   UNL     1       0.677   4.818  14.299  1.00  0.00    -0.237 OA
ATOM     73  O   UNL     1      -0.786   6.664  13.565  1.00  0.00    -0.744 OA
ENDBRANCH  66  70
ENDBRANCH  49  63
BRANCH  50  74
ATOM     74  C   UNL     1       8.628  -0.386   5.049  1.00  0.00     0.023 A 
ATOM     75  C   UNL     1       9.459  -1.355   5.632  1.00  0.00     0.031 A 
ATOM     76  C   UNL     1       8.597  -0.298   3.647  1.00  0.00     0.131 A 
ATOM     77  C   UNL     1      10.253  -2.177   4.818  1.00  0.00     0.055 A 
ATOM     78  C   UNL     1       9.355  -1.147   2.839  1.00  0.00     0.041 A 
ATOM     79  F   UNL     1       7.812   0.607   3.041  1.00  0.00    -0.206 F 
ATOM     80  C   UNL     1      10.198  -2.087   3.425  1.00  0.00     0.022 A 
BRANCH  77  81
ATOM     81  S   UNL     1      11.406  -3.331   5.609  1.00  0.00     0.124 S 
ATOM     82  O   UNL     1      12.269  -2.424   6.357  1.00  0.00    -0.237 OA
ATOM     83  O   UNL     1      10.507  -4.162   6.403  1.00  0.00    -0.237 OA
ATOM     84  O   UNL     1      12.040  -4.008   4.479  1.00  0.00    -0.744 OA
ENDBRANCH  77  81
ENDBRANCH  50  74
BRANCH  62  85
ATOM     85  C   UNL     1      10.338   4.619   9.585  1.00  0.00     0.023 A 
ATOM     86  C   UNL     1      11.238   5.306   8.752  1.00  0.00     0.031 A 
ATOM     87  C   UNL     1      10.721   4.378  10.917  1.00  0.00     0.131 A 
ATOM     88  C   UNL     1      12.499   5.679   9.243  1.00  0.00     0.055 A 
ATOM     89  C   UNL     1      11.953   4.803  11.416  1.00  0.00     0.041 A 
ATOM     90  F   UNL     1       9.902   3.724  11.756  1.00  0.00    -0.206 F 
ATOM     91  C   UNL     1      12.856   5.446  10.574  1.00  0.00     0.022 A 
BRANCH  88  92
ATOM     92  S   UNL     1      13.706   6.394   8.093  1.00  0.00     0.124 S 
ATOM     93  O   UNL     1      13.830   5.341   7.090  1.00  0.00    -0.237 OA
ATOM     94  O   UNL     1      13.037   7.615   7.657  1.00  0.00    -0.237 OA
ATOM     95  O   UNL     1      14.891   6.601   8.924  1.00  0.00    -0.744 OA
ENDBRANCH  88  92
ENDBRANCH  62  85
ENDBRANCH  36  37
ENDBRANCH  28  31
ENDBRANCH  26  27
ENDBRANCH  25  26
ENDBRANCH  24  25
ENDBRANCH   3  24
TORSDOF 18
