REMARK SMILES CCOC(=O)[C@H](C)NC(=O)N1CC[C@H](C(=O)NCCCNC(=O)c2ccc(-c3c4nc(c(-c5cc(S(=O)(=O)[O-])ccc5F)c5ccc([nH]5)c(-c5cc(S(=O)(=O)[O-])ccc5F)c5nc(c(-c6cc(S(=O)(=O)[O-])ccc6F)c6ccc3[nH]6)C=C5)C=C4)cc2)[C@@H]1C
REMARK SMILES IDX 18 1 17 2 15 3 16 4 14 6 11 7 12 8 87 9 13 10 88 11 9 12
REMARK SMILES IDX 8 13 10 15 6 16 7 17 4 18 5 19 3 20 2 21 1 22 19 23 20 24
REMARK SMILES IDX 21 25 22 26 23 28 24 29 25 30 86 31 26 32 85 33 27 34 28 35
REMARK SMILES IDX 29 36 79 37 30 38 84 39 78 40 80 41 31 42 83 43 77 44 76 45
REMARK SMILES IDX 32 47 64 48 44 49 63 50 45 51 48 52 62 53 81 54 46 55 47 56
REMARK SMILES IDX 61 58 82 59 49 60 33 61 34 62 42 63 35 64 41 65 43 66 40 67
REMARK SMILES IDX 36 68 37 69 38 70 39 71 65 72 66 73 74 74 67 75 73 76 75 77
REMARK SMILES IDX 72 78 68 79 69 80 70 81 71 82 50 83 51 84 59 85 52 86 58 87
REMARK SMILES IDX 60 88 57 89 53 90 54 91 55 92 56 93
REMARK H PARENT 17 5 8 14 21 27 80 46 48 57
REMARK Flexibility Score: inf
ROOT
ATOM      1  C   UNL     1       9.978  -3.979   2.250  1.00  0.00     0.117 C 
ENDROOT
BRANCH   1   2
ATOM      2  N   UNL     1       9.428  -5.164   2.887  1.00  0.00    -0.356 N 
ATOM      3  C   UNL     1       8.135  -5.602   2.957  1.00  0.00     0.225 C 
ATOM      4  O   UNL     1       7.922  -6.670   3.524  1.00  0.00    -0.275 OA
ATOM      5  H   UNL     1      10.088  -5.740   3.336  1.00  0.00     0.163 HD
BRANCH   3   6
ATOM      6  C   UNL     1       7.064  -4.795   2.243  1.00  0.00     0.102 C 
ATOM      7  N   UNL     1       4.870  -5.462   1.570  1.00  0.00    -0.321 N 
ATOM      8  C   UNL     1       5.804  -6.135   0.698  1.00  0.00     0.122 C 
ATOM      9  C   UNL     1       5.594  -4.901   2.721  1.00  0.00     0.096 C 
ATOM     10  C   UNL     1       7.026  -5.241   0.769  1.00  0.00     0.037 C 
ATOM     11  C   UNL     1       5.327  -5.689   3.999  1.00  0.00     0.032 C 
BRANCH   7  12
ATOM     12  C   UNL     1       3.536  -5.654   1.399  1.00  0.00     0.318 C 
ATOM     13  N   UNL     1       2.652  -4.747   1.855  1.00  0.00    -0.325 N 
ATOM     14  H   UNL     1       1.770  -5.113   2.097  1.00  0.00     0.166 HD
ATOM     15  O   UNL     1       3.084  -6.626   0.791  1.00  0.00    -0.249 OA
BRANCH  13  16
ATOM     16  C   UNL     1       2.793  -3.307   2.049  1.00  0.00     0.190 C 
ATOM     17  C   UNL     1       2.148  -2.547   0.889  1.00  0.00     0.043 C 
BRANCH  16  18
ATOM     18  C   UNL     1       2.150  -2.947   3.382  1.00  0.00     0.328 C 
ATOM     19  O   UNL     1       0.954  -2.705   3.544  1.00  0.00    -0.250 OA
BRANCH  18  20
ATOM     20  O   UNL     1       3.074  -3.054   4.378  1.00  0.00    -0.464 OA
BRANCH  20  21
ATOM     21  C   UNL     1       2.599  -2.876   5.719  1.00  0.00     0.229 C 
ATOM     22  C   UNL     1       2.856  -1.444   6.142  1.00  0.00     0.049 C 
ENDBRANCH  20  21
ENDBRANCH  18  20
ENDBRANCH  16  18
ENDBRANCH  13  16
ENDBRANCH   7  12
ENDBRANCH   3   6
ENDBRANCH   1   2
BRANCH   1  23
ATOM     23  C   UNL     1      10.349  -2.898   3.261  1.00  0.00     0.042 C 
BRANCH  23  24
ATOM     24  C   UNL     1      11.396  -3.328   4.287  1.00  0.00     0.118 C 
BRANCH  24  25
ATOM     25  N   UNL     1      12.636  -3.783   3.675  1.00  0.00    -0.352 N 
ATOM     26  C   UNL     1      13.932  -3.373   3.867  1.00  0.00     0.251 C 
ATOM     27  H   UNL     1      12.526  -4.504   3.014  1.00  0.00     0.163 HD
ATOM     28  O   UNL     1      14.801  -3.789   3.104  1.00  0.00    -0.269 OA
BRANCH  26  29
ATOM     29  C   UNL     1      14.284  -2.427   4.949  1.00  0.00     0.039 A 
ATOM     30  C   UNL     1      15.231  -1.434   4.684  1.00  0.00     0.014 A 
ATOM     31  C   UNL     1      13.720  -2.526   6.224  1.00  0.00     0.014 A 
ATOM     32  C   UNL     1      15.558  -0.502   5.672  1.00  0.00     0.010 A 
ATOM     33  C   UNL     1      13.991  -1.551   7.184  1.00  0.00     0.010 A 
ATOM     34  C   UNL     1      14.911  -0.526   6.918  1.00  0.00    -0.014 A 
BRANCH  34  35
ATOM     35  C   UNL     1      15.175   0.526   7.937  1.00  0.00     0.031 A 
ATOM     36  C   UNL     1      15.791   0.170   9.263  1.00  0.00     0.074 A 
ATOM     37  C   UNL     1      14.815   1.800   7.681  1.00  0.00     0.049 A 
ATOM     38  N   UNL     1      16.055   0.943  10.286  1.00  0.00    -0.248 NA
ATOM     39  C   UNL     1      16.131  -1.244   9.475  1.00  0.00     0.031 C 
ATOM     40  C   UNL     1      14.172   2.262   6.448  1.00  0.00     0.029 A 
ATOM     41  N   UNL     1      14.931   2.938   8.438  1.00  0.00    -0.354 N 
ATOM     42  C   UNL     1      16.585   0.110  11.266  1.00  0.00     0.074 A 
ATOM     43  C   UNL     1      16.544  -1.237  10.734  1.00  0.00     0.031 C 
ATOM     44  C   UNL     1      13.981   3.589   6.522  1.00  0.00     0.029 A 
ATOM     45  C   UNL     1      14.439   4.066   7.822  1.00  0.00     0.049 A 
ATOM     46  H   UNL     1      15.330   2.947   9.338  1.00  0.00     0.167 HD
ATOM     47  C   UNL     1      17.081   0.440  12.485  1.00  0.00     0.034 A 
ATOM     48  C   UNL     1      14.355   5.339   8.258  1.00  0.00     0.034 A 
ATOM     49  C   UNL     1      17.119   1.789  13.000  1.00  0.00     0.049 A 
ATOM     50  C   UNL     1      14.884   5.676   9.629  1.00  0.00     0.074 A 
ATOM     51  C   UNL     1      17.645   2.240  14.198  1.00  0.00     0.029 A 
ATOM     52  N   UNL     1      16.600   2.904  12.353  1.00  0.00    -0.354 N 
ATOM     53  N   UNL     1      15.432   4.883  10.521  1.00  0.00    -0.248 NA
ATOM     54  C   UNL     1      14.793   7.081  10.045  1.00  0.00     0.031 C 
ATOM     55  C   UNL     1      17.380   3.609  14.309  1.00  0.00     0.029 A 
ATOM     56  C   UNL     1      16.762   4.033  13.143  1.00  0.00     0.049 A 
ATOM     57  H   UNL     1      16.179   2.894  11.463  1.00  0.00     0.167 HD
ATOM     58  C   UNL     1      15.777   5.702  11.593  1.00  0.00     0.074 A 
ATOM     59  C   UNL     1      15.395   7.050  11.224  1.00  0.00     0.031 C 
ATOM     60  C   UNL     1      16.360   5.371  12.774  1.00  0.00     0.034 A 
BRANCH  47  61
ATOM     61  C   UNL     1      17.599  -0.684  13.354  1.00  0.00     0.023 A 
ATOM     62  C   UNL     1      18.688  -1.482  12.960  1.00  0.00     0.031 A 
ATOM     63  C   UNL     1      16.984  -0.977  14.585  1.00  0.00     0.131 A 
ATOM     64  C   UNL     1      19.078  -2.576  13.746  1.00  0.00     0.055 A 
ATOM     65  C   UNL     1      17.433  -2.015  15.405  1.00  0.00     0.041 A 
ATOM     66  F   UNL     1      15.927  -0.265  15.008  1.00  0.00    -0.206 F 
ATOM     67  C   UNL     1      18.476  -2.832  14.979  1.00  0.00     0.022 A 
BRANCH  64  68
ATOM     68  S   UNL     1      20.285  -3.746  13.063  1.00  0.00     0.124 S 
ATOM     69  O   UNL     1      19.615  -4.177  11.838  1.00  0.00    -0.237 OA
ATOM     70  O   UNL     1      21.467  -2.912  12.886  1.00  0.00    -0.237 OA
ATOM     71  O   UNL     1      20.392  -4.771  14.100  1.00  0.00    -0.744 OA
ENDBRANCH  64  68
ENDBRANCH  47  61
BRANCH  48  72
ATOM     72  C   UNL     1      13.739   6.393   7.399  1.00  0.00     0.023 A 
ATOM     73  C   UNL     1      14.495   7.481   6.935  1.00  0.00     0.031 A 
ATOM     74  C   UNL     1      12.373   6.350   7.067  1.00  0.00     0.131 A 
ATOM     75  C   UNL     1      13.871   8.507   6.208  1.00  0.00     0.055 A 
ATOM     76  C   UNL     1      11.770   7.343   6.295  1.00  0.00     0.041 A 
ATOM     77  F   UNL     1      11.605   5.329   7.481  1.00  0.00    -0.206 F 
ATOM     78  C   UNL     1      12.517   8.438   5.873  1.00  0.00     0.022 A 
BRANCH  75  79
ATOM     79  S   UNL     1      14.838   9.981   5.783  1.00  0.00     0.124 S 
ATOM     80  O   UNL     1      15.267  10.443   7.098  1.00  0.00    -0.237 OA
ATOM     81  O   UNL     1      15.879   9.423   4.926  1.00  0.00    -0.237 OA
ATOM     82  O   UNL     1      13.868  10.839   5.104  1.00  0.00    -0.744 OA
ENDBRANCH  75  79
ENDBRANCH  48  72
BRANCH  60  83
ATOM     83  C   UNL     1      16.653   6.501  13.733  1.00  0.00     0.023 A 
ATOM     84  C   UNL     1      15.623   7.251  14.329  1.00  0.00     0.031 A 
ATOM     85  C   UNL     1      17.982   6.848  14.035  1.00  0.00     0.131 A 
ATOM     86  C   UNL     1      15.939   8.351  15.142  1.00  0.00     0.055 A 
ATOM     87  C   UNL     1      18.289   7.900  14.899  1.00  0.00     0.041 A 
ATOM     88  F   UNL     1      19.006   6.170  13.493  1.00  0.00    -0.206 F 
ATOM     89  C   UNL     1      17.265   8.668  15.446  1.00  0.00     0.022 A 
BRANCH  86  90
ATOM     90  S   UNL     1      14.595   9.428  15.710  1.00  0.00     0.124 S 
ATOM     91  O   UNL     1      13.991   9.848  14.449  1.00  0.00    -0.237 OA
ATOM     92  O   UNL     1      13.795   8.523  16.529  1.00  0.00    -0.237 OA
ATOM     93  O   UNL     1      15.288  10.482  16.447  1.00  0.00    -0.744 OA
ENDBRANCH  86  90
ENDBRANCH  60  83
ENDBRANCH  34  35
ENDBRANCH  26  29
ENDBRANCH  24  25
ENDBRANCH  23  24
ENDBRANCH   1  23
TORSDOF 18
