REMARK SMILES O=C(NCCCNC(=O)c1cn(C2C[NH+](CCC[C@@H]3CCCO3)C2)nn1)c1ccc(-c2c3nc(c(-c4cc(S(=O)(=O)[O-])ccc4F)c4ccc([nH]4)c(-c4cc(S(=O)(=O)[O-])ccc4F)c4nc(c(-c5cc(S(=O)(=O)[O-])ccc5F)c5ccc2[nH]5)C=C4)C=C3)cc1
REMARK SMILES IDX 6 1 5 2 4 3 3 4 1 5 2 6 27 8 28 9 89 10 29 11 88 12 30 13
REMARK SMILES IDX 31 14 32 15 82 16 33 17 87 18 81 19 83 20 34 21 86 22 80 23
REMARK SMILES IDX 79 24 35 26 67 27 47 28 66 29 48 30 51 31 65 32 84 33 49 34
REMARK SMILES IDX 50 35 64 37 85 38 52 39 36 40 37 41 45 42 38 43 44 44 46 45
REMARK SMILES IDX 43 46 39 47 40 48 41 49 42 50 68 51 69 52 77 53 70 54 76 55
REMARK SMILES IDX 78 56 75 57 71 58 72 59 73 60 74 61 53 62 54 63 62 64 55 65
REMARK SMILES IDX 61 66 63 67 60 68 56 69 57 70 58 71 59 72 7 73 8 74 9 76
REMARK SMILES IDX 10 77 11 78 26 79 12 80 25 81 13 82 14 83 24 84 15 85 16 87
REMARK SMILES IDX 17 88 18 89 19 90 20 91 23 92 21 93 22 94
REMARK H PARENT 3 7 83 25 51 36 7 75 15 86
REMARK Flexibility Score: inf
ROOT
ATOM      1  C   UNL     1       4.366  -3.594   0.271  1.00  0.00     0.118 C 
ENDROOT
BRANCH   1   2
ATOM      2  C   UNL     1       4.899  -2.212   0.656  1.00  0.00     0.042 C 
BRANCH   2   3
ATOM      3  C   UNL     1       4.620  -1.103  -0.357  1.00  0.00     0.118 C 
BRANCH   3   4
ATOM      4  N   UNL     1       3.224  -0.892  -0.680  1.00  0.00    -0.352 N 
ATOM      5  O   UNL     1       1.178  -0.078  -0.778  1.00  0.00    -0.269 OA
ATOM      6  C   UNL     1       2.199  -0.201  -0.096  1.00  0.00     0.251 C 
ATOM      7  H   UNL     1       2.952  -1.351  -1.508  1.00  0.00     0.163 HD
BRANCH   6   8
ATOM      8  C   UNL     1       2.205   0.332   1.294  1.00  0.00     0.039 A 
ATOM      9  C   UNL     1       3.334   0.527   2.092  1.00  0.00     0.014 A 
ATOM     10  C   UNL     1       0.942   0.649   1.830  1.00  0.00     0.014 A 
ATOM     11  C   UNL     1       3.200   0.956   3.413  1.00  0.00     0.010 A 
ATOM     12  C   UNL     1       0.803   1.086   3.143  1.00  0.00     0.010 A 
ATOM     13  C   UNL     1       1.934   1.219   3.944  1.00  0.00    -0.014 A 
BRANCH  13  14
ATOM     14  C   UNL     1       1.845   1.871   5.253  1.00  0.00     0.031 A 
ATOM     15  C   UNL     1       2.366   3.266   5.261  1.00  0.00     0.074 A 
ATOM     16  C   UNL     1       1.183   1.373   6.317  1.00  0.00     0.049 A 
ATOM     17  N   UNL     1       3.362   3.745   5.933  1.00  0.00    -0.248 NA
ATOM     18  C   UNL     1       1.799   4.213   4.286  1.00  0.00     0.031 C 
ATOM     19  C   UNL     1       0.389   0.146   6.361  1.00  0.00     0.029 A 
ATOM     20  N   UNL     1       0.977   1.919   7.556  1.00  0.00    -0.354 N 
ATOM     21  C   UNL     1       3.378   5.111   5.659  1.00  0.00     0.074 A 
ATOM     22  C   UNL     1       2.558   5.287   4.493  1.00  0.00     0.031 C 
ATOM     23  C   UNL     1      -0.383   0.155   7.471  1.00  0.00     0.029 A 
ATOM     24  C   UNL     1      -0.069   1.332   8.267  1.00  0.00     0.049 A 
ATOM     25  H   UNL     1       1.519   2.661   7.912  1.00  0.00     0.167 HD
ATOM     26  C   UNL     1       3.829   6.010   6.579  1.00  0.00     0.034 A 
ATOM     27  C   UNL     1      -0.690   1.805   9.384  1.00  0.00     0.034 A 
ATOM     28  C   UNL     1       4.672   5.362   7.566  1.00  0.00     0.049 A 
ATOM     29  C   UNL     1       0.239   2.758  10.037  1.00  0.00     0.074 A 
ATOM     30  C   UNL     1       5.801   4.564   7.503  1.00  0.00     0.029 A 
ATOM     31  N   UNL     1       4.193   5.202   8.849  1.00  0.00    -0.354 N 
ATOM     32  N   UNL     1       1.366   2.400  10.587  1.00  0.00    -0.248 NA
ATOM     33  C   UNL     1       0.140   4.168   9.692  1.00  0.00     0.031 C 
ATOM     34  C   UNL     1       5.632   3.600   8.542  1.00  0.00     0.029 A 
ATOM     35  C   UNL     1       4.458   3.912   9.227  1.00  0.00     0.049 A 
ATOM     36  H   UNL     1       3.744   5.889   9.393  1.00  0.00     0.167 HD
ATOM     37  C   UNL     1       2.260   3.403  10.249  1.00  0.00     0.074 A 
ATOM     38  C   UNL     1       1.425   4.515   9.799  1.00  0.00     0.031 C 
ATOM     39  C   UNL     1       3.591   3.137  10.092  1.00  0.00     0.034 A 
BRANCH  26  40
ATOM     40  C   UNL     1       3.157   7.352   6.847  1.00  0.00     0.023 A 
ATOM     41  C   UNL     1       3.643   8.078   7.949  1.00  0.00     0.031 A 
ATOM     42  C   UNL     1       1.903   7.777   6.349  1.00  0.00     0.131 A 
ATOM     43  C   UNL     1       2.818   8.983   8.636  1.00  0.00     0.055 A 
ATOM     44  C   UNL     1       1.121   8.746   6.987  1.00  0.00     0.041 A 
ATOM     45  F   UNL     1       1.321   7.245   5.271  1.00  0.00    -0.206 F 
ATOM     46  C   UNL     1       1.552   9.315   8.171  1.00  0.00     0.022 A 
BRANCH  43  47
ATOM     47  S   UNL     1       3.345   9.502  10.287  1.00  0.00     0.124 S 
ATOM     48  O   UNL     1       3.539   8.206  10.931  1.00  0.00    -0.237 OA
ATOM     49  O   UNL     1       4.554  10.262   9.988  1.00  0.00    -0.237 OA
ATOM     50  O   UNL     1       2.214  10.286  10.772  1.00  0.00    -0.744 OA
ENDBRANCH  43  47
ENDBRANCH  26  40
BRANCH  27  51
ATOM     51  C   UNL     1      -2.131   1.678   9.758  1.00  0.00     0.023 A 
ATOM     52  C   UNL     1      -2.617   1.919  11.064  1.00  0.00     0.031 A 
ATOM     53  C   UNL     1      -3.106   1.536   8.745  1.00  0.00     0.131 A 
ATOM     54  C   UNL     1      -4.012   2.001  11.306  1.00  0.00     0.055 A 
ATOM     55  C   UNL     1      -4.478   1.606   8.990  1.00  0.00     0.041 A 
ATOM     56  F   UNL     1      -2.758   1.412   7.454  1.00  0.00    -0.206 F 
ATOM     57  C   UNL     1      -4.938   1.848  10.272  1.00  0.00     0.022 A 
BRANCH  54  58
ATOM     58  S   UNL     1      -4.655   2.412  12.964  1.00  0.00     0.124 S 
ATOM     59  O   UNL     1      -4.359   1.202  13.722  1.00  0.00    -0.237 OA
ATOM     60  O   UNL     1      -3.890   3.603  13.313  1.00  0.00    -0.237 OA
ATOM     61  O   UNL     1      -6.080   2.653  12.727  1.00  0.00    -0.744 OA
ENDBRANCH  54  58
ENDBRANCH  27  51
BRANCH  39  62
ATOM     62  C   UNL     1       4.150   1.852  10.662  1.00  0.00     0.023 A 
ATOM     63  C   UNL     1       3.668   0.556  10.371  1.00  0.00     0.031 A 
ATOM     64  C   UNL     1       5.295   1.955  11.472  1.00  0.00     0.131 A 
ATOM     65  C   UNL     1       4.320  -0.574  10.903  1.00  0.00     0.055 A 
ATOM     66  C   UNL     1       5.947   0.835  11.984  1.00  0.00     0.041 A 
ATOM     67  F   UNL     1       5.823   3.157  11.760  1.00  0.00    -0.206 F 
ATOM     68  C   UNL     1       5.455  -0.435  11.709  1.00  0.00     0.022 A 
BRANCH  65  69
ATOM     69  S   UNL     1       3.691  -2.252  10.578  1.00  0.00     0.124 S 
ATOM     70  O   UNL     1       2.251  -2.127  10.764  1.00  0.00    -0.237 OA
ATOM     71  O   UNL     1       4.138  -2.499   9.208  1.00  0.00    -0.237 OA
ATOM     72  O   UNL     1       4.367  -3.070  11.587  1.00  0.00    -0.744 OA
ENDBRANCH  65  69
ENDBRANCH  39  62
ENDBRANCH  13  14
ENDBRANCH   6   8
ENDBRANCH   3   4
ENDBRANCH   2   3
ENDBRANCH   1   2
BRANCH   1  73
ATOM     73  N   UNL     1       4.864  -4.045  -1.021  1.00  0.00    -0.351 N 
ATOM     74  C   UNL     1       5.664  -5.113  -1.356  1.00  0.00     0.273 C 
ATOM     75  H   UNL     1       4.580  -3.493  -1.784  1.00  0.00     0.163 HD
ATOM     76  O   UNL     1       6.124  -5.149  -2.496  1.00  0.00    -0.267 OA
BRANCH  74  77
ATOM     77  C   UNL     1       5.929  -6.155  -0.380  1.00  0.00     0.170 A 
ATOM     78  C   UNL     1       5.056  -6.760   0.503  1.00  0.00     0.145 A 
ATOM     79  N   UNL     1       7.159  -6.755  -0.261  1.00  0.00    -0.125 NA
ATOM     80  N   UNL     1       5.849  -7.604   1.227  1.00  0.00    -0.237 N 
ATOM     81  N   UNL     1       7.099  -7.634   0.730  1.00  0.00    -0.066 NA
BRANCH  80  82
ATOM     82  C   UNL     1       5.538  -8.276   2.449  1.00  0.00     0.218 C 
ATOM     83  C   UNL     1       4.665  -7.423   3.408  1.00  0.00     0.295 C 
ATOM     84  C   UNL     1       4.313  -9.214   2.420  1.00  0.00     0.295 C 
ATOM     85  N   UNL     1       3.835  -8.603   3.675  1.00  0.00    -0.331 N 
ATOM     86  H   UNL     1       2.836  -8.501   3.853  1.00  0.00     0.348 HD
BRANCH  85  87
ATOM     87  C   UNL     1       4.168  -9.345   4.901  1.00  0.00     0.262 C 
BRANCH  87  88
ATOM     88  C   UNL     1       5.595  -9.757   5.320  1.00  0.00     0.064 C 
BRANCH  88  89
ATOM     89  C   UNL     1       6.637  -8.691   5.680  1.00  0.00     0.038 C 
BRANCH  89  90
ATOM     90  C   UNL     1       6.455  -7.859   6.954  1.00  0.00     0.118 C 
ATOM     91  C   UNL     1       5.152  -7.097   7.140  1.00  0.00     0.034 C 
ATOM     92  O   UNL     1       7.515  -6.872   6.947  1.00  0.00    -0.378 OA
ATOM     93  C   UNL     1       5.589  -5.787   7.748  1.00  0.00     0.031 C 
ATOM     94  C   UNL     1       6.925  -5.569   7.085  1.00  0.00     0.160 C 
ENDBRANCH  89  90
ENDBRANCH  88  89
ENDBRANCH  87  88
ENDBRANCH  85  87
ENDBRANCH  80  82
ENDBRANCH  74  77
ENDBRANCH   1  73
TORSDOF 18
