REMARK SMILES CN(CC(F)(F)F)C(=O)N1CC(n2cc(C(=O)NCCCNC(=O)c3ccc(-c4c5nc(c(-c6cc(S(=O)(=O)[O-])ccc6F)c6ccc([nH]6)c(-c6cc(S(=O)(=O)[O-])ccc6F)c6nc(c(-c7cc(S(=O)(=O)[O-])ccc7F)c7ccc4[nH]7)C=C6)C=C5)cc3)nn2)C1
REMARK SMILES IDX 19 1 18 2 16 3 17 4 15 6 13 7 14 8 89 9 88 10 12 11 8 12
REMARK SMILES IDX 9 13 10 14 11 15 90 16 2 17 1 18 3 19 4 20 5 21 6 22 7 23
REMARK SMILES IDX 20 24 21 25 22 26 23 27 24 29 25 30 26 31 87 32 27 33 86 34
REMARK SMILES IDX 28 35 29 36 30 37 80 38 31 39 85 40 79 41 81 42 32 43 84 44
REMARK SMILES IDX 78 45 77 46 33 48 65 49 45 50 64 51 46 52 49 53 63 54 82 55
REMARK SMILES IDX 47 56 48 57 62 59 83 60 50 61 34 62 35 63 43 64 36 65 42 66
REMARK SMILES IDX 44 67 41 68 37 69 38 70 39 71 40 72 66 73 67 74 75 75 68 76
REMARK SMILES IDX 74 77 76 78 73 79 69 80 70 81 71 82 72 83 51 84 52 85 60 86
REMARK SMILES IDX 53 87 59 88 61 89 58 90 54 91 55 92 56 93 57 94
REMARK H PARENT 18 5 22 28 81 47 49 58
REMARK Flexibility Score: inf
ROOT
ATOM      1  C   UNL     1      -4.981   2.420   7.383  1.00  0.00     0.118 C 
ENDROOT
BRANCH   1   2
ATOM      2  N   UNL     1      -4.439   2.929   8.635  1.00  0.00    -0.351 N 
ATOM      3  C   UNL     1      -3.138   3.175   9.013  1.00  0.00     0.273 C 
ATOM      4  O   UNL     1      -2.957   3.819  10.051  1.00  0.00    -0.267 OA
ATOM      5  H   UNL     1      -5.113   3.131   9.323  1.00  0.00     0.163 HD
BRANCH   3   6
ATOM      6  C   UNL     1      -2.022   2.709   8.200  1.00  0.00     0.170 A 
ATOM      7  N   UNL     1      -0.676   1.702   6.827  1.00  0.00    -0.245 N 
ATOM      8  C   UNL     1      -1.927   1.612   7.366  1.00  0.00     0.145 A 
ATOM      9  N   UNL     1      -0.005   2.749   7.321  1.00  0.00    -0.066 NA
ATOM     10  N   UNL     1      -0.803   3.356   8.190  1.00  0.00    -0.125 NA
BRANCH   7  11
ATOM     11  C   UNL     1      -0.194   0.821   5.813  1.00  0.00     0.148 C 
ATOM     12  C   UNL     1       0.926   0.343   2.808  1.00  0.00     0.320 C 
ATOM     13  O   UNL     1       1.798  -0.518   2.915  1.00  0.00    -0.248 OA
ATOM     14  N   UNL     1       0.514   1.077   3.888  1.00  0.00    -0.320 N 
ATOM     15  C   UNL     1       1.165   1.144   5.203  1.00  0.00     0.150 C 
ATOM     16  C   UNL     1      -0.829   1.152   4.456  1.00  0.00     0.150 C 
BRANCH  12  17
ATOM     17  N   UNL     1       0.350   0.655   1.586  1.00  0.00    -0.319 N 
ATOM     18  C   UNL     1       0.749  -0.147   0.441  1.00  0.00     0.149 C 
BRANCH  17  19
ATOM     19  C   UNL     1      -0.527   1.814   1.331  1.00  0.00     0.236 C 
BRANCH  19  20
ATOM     20  C   UNL     1      -2.010   1.495   1.135  1.00  0.00     0.406 C 
ATOM     21  F   UNL     1      -2.520   0.757   2.143  1.00  0.00    -0.169 F 
ATOM     22  F   UNL     1      -2.730   2.641   1.076  1.00  0.00    -0.169 F 
ATOM     23  F   UNL     1      -2.224   0.823  -0.018  1.00  0.00    -0.169 F 
ENDBRANCH  19  20
ENDBRANCH  17  19
ENDBRANCH  12  17
ENDBRANCH   7  11
ENDBRANCH   3   6
ENDBRANCH   1   2
BRANCH   1  24
ATOM     24  C   UNL     1      -5.406   0.950   7.469  1.00  0.00     0.042 C 
BRANCH  24  25
ATOM     25  C   UNL     1      -6.781   0.776   8.098  1.00  0.00     0.118 C 
BRANCH  25  26
ATOM     26  N   UNL     1      -7.870   1.262   7.238  1.00  0.00    -0.352 N 
ATOM     27  C   UNL     1      -9.229   1.321   7.505  1.00  0.00     0.251 C 
ATOM     28  H   UNL     1      -7.596   1.591   6.352  1.00  0.00     0.163 HD
ATOM     29  O   UNL     1     -10.034   1.393   6.578  1.00  0.00    -0.269 OA
BRANCH  27  30
ATOM     30  C   UNL     1      -9.688   1.298   8.906  1.00  0.00     0.039 A 
ATOM     31  C   UNL     1     -10.872   0.676   9.316  1.00  0.00     0.014 A 
ATOM     32  C   UNL     1      -8.858   1.903   9.838  1.00  0.00     0.014 A 
ATOM     33  C   UNL     1     -11.156   0.615  10.683  1.00  0.00     0.010 A 
ATOM     34  C   UNL     1      -9.001   1.613  11.161  1.00  0.00     0.010 A 
ATOM     35  C   UNL     1     -10.200   1.078  11.600  1.00  0.00    -0.014 A 
BRANCH  35  36
ATOM     36  C   UNL     1     -10.328   0.928  13.044  1.00  0.00     0.031 A 
ATOM     37  C   UNL     1     -10.425  -0.486  13.475  1.00  0.00     0.074 A 
ATOM     38  C   UNL     1     -10.052   1.937  13.904  1.00  0.00     0.049 A 
ATOM     39  N   UNL     1     -11.484  -1.121  13.852  1.00  0.00    -0.248 NA
ATOM     40  C   UNL     1      -9.265  -1.364  13.236  1.00  0.00     0.031 C 
ATOM     41  C   UNL     1      -9.602   3.300  13.588  1.00  0.00     0.029 A 
ATOM     42  N   UNL     1      -9.990   1.924  15.263  1.00  0.00    -0.354 N 
ATOM     43  C   UNL     1     -11.039  -2.390  14.207  1.00  0.00     0.074 A 
ATOM     44  C   UNL     1      -9.790  -2.557  13.519  1.00  0.00     0.031 C 
ATOM     45  C   UNL     1      -9.098   3.887  14.697  1.00  0.00     0.029 A 
ATOM     46  C   UNL     1      -9.338   3.018  15.835  1.00  0.00     0.049 A 
ATOM     47  H   UNL     1     -10.377   1.197  15.802  1.00  0.00     0.167 HD
ATOM     48  C   UNL     1     -11.559  -3.029  15.294  1.00  0.00     0.034 A 
ATOM     49  C   UNL     1      -9.001   3.188  17.146  1.00  0.00     0.034 A 
ATOM     50  C   UNL     1     -12.760  -2.347  15.750  1.00  0.00     0.049 A 
ATOM     51  C   UNL     1      -9.880   2.276  17.920  1.00  0.00     0.074 A 
ATOM     52  C   UNL     1     -13.957  -1.987  15.158  1.00  0.00     0.029 A 
ATOM     53  N   UNL     1     -12.662  -1.559  16.880  1.00  0.00    -0.354 N 
ATOM     54  N   UNL     1     -11.178   2.412  17.972  1.00  0.00    -0.248 NA
ATOM     55  C   UNL     1      -9.391   0.933  18.197  1.00  0.00     0.031 C 
ATOM     56  C   UNL     1     -14.243  -0.684  15.668  1.00  0.00     0.029 A 
ATOM     57  C   UNL     1     -13.275  -0.360  16.621  1.00  0.00     0.049 A 
ATOM     58  H   UNL     1     -12.227  -1.815  17.726  1.00  0.00     0.167 HD
ATOM     59  C   UNL     1     -11.679   1.126  17.831  1.00  0.00     0.074 A 
ATOM     60  C   UNL     1     -10.534   0.249  18.080  1.00  0.00     0.031 C 
ATOM     61  C   UNL     1     -12.886   0.901  17.229  1.00  0.00     0.034 A 
BRANCH  48  62
ATOM     62  C   UNL     1     -10.782  -3.959  16.215  1.00  0.00     0.023 A 
ATOM     63  C   UNL     1     -11.463  -4.392  17.368  1.00  0.00     0.031 A 
ATOM     64  C   UNL     1      -9.390  -4.203  16.212  1.00  0.00     0.131 A 
ATOM     65  C   UNL     1     -10.765  -4.838  18.500  1.00  0.00     0.055 A 
ATOM     66  C   UNL     1      -8.704  -4.712  17.320  1.00  0.00     0.041 A 
ATOM     67  F   UNL     1      -8.593  -3.914  15.181  1.00  0.00    -0.206 F 
ATOM     68  C   UNL     1      -9.384  -4.989  18.492  1.00  0.00     0.022 A 
BRANCH  65  69
ATOM     69  S   UNL     1     -11.690  -5.006  20.045  1.00  0.00     0.124 S 
ATOM     70  O   UNL     1     -12.292  -3.682  20.158  1.00  0.00    -0.237 OA
ATOM     71  O   UNL     1     -12.597  -6.105  19.729  1.00  0.00    -0.237 OA
ATOM     72  O   UNL     1     -10.653  -5.312  21.026  1.00  0.00    -0.744 OA
ENDBRANCH  65  69
ENDBRANCH  48  62
BRANCH  49  73
ATOM     73  C   UNL     1      -7.780   3.837  17.716  1.00  0.00     0.023 A 
ATOM     74  C   UNL     1      -7.682   4.270  19.061  1.00  0.00     0.031 A 
ATOM     75  C   UNL     1      -6.574   3.804  16.980  1.00  0.00     0.131 A 
ATOM     76  C   UNL     1      -6.424   4.638  19.607  1.00  0.00     0.055 A 
ATOM     77  C   UNL     1      -5.338   4.165  17.524  1.00  0.00     0.041 A 
ATOM     78  F   UNL     1      -6.543   3.332  15.723  1.00  0.00    -0.206 F 
ATOM     79  C   UNL     1      -5.256   4.574  18.845  1.00  0.00     0.022 A 
BRANCH  76  80
ATOM     80  S   UNL     1      -6.266   5.131  21.360  1.00  0.00     0.124 S 
ATOM     81  O   UNL     1      -6.971   6.407  21.390  1.00  0.00    -0.237 OA
ATOM     82  O   UNL     1      -6.901   4.020  22.059  1.00  0.00    -0.237 OA
ATOM     83  O   UNL     1      -4.819   5.229  21.560  1.00  0.00    -0.744 OA
ENDBRANCH  76  80
ENDBRANCH  49  73
BRANCH  61  84
ATOM     84  C   UNL     1     -13.816   2.081  17.012  1.00  0.00     0.023 A 
ATOM     85  C   UNL     1     -13.514   3.236  16.251  1.00  0.00     0.031 A 
ATOM     86  C   UNL     1     -15.123   1.957  17.515  1.00  0.00     0.131 A 
ATOM     87  C   UNL     1     -14.508   4.213  16.031  1.00  0.00     0.055 A 
ATOM     88  C   UNL     1     -16.107   2.914  17.276  1.00  0.00     0.041 A 
ATOM     89  F   UNL     1     -15.479   0.872  18.223  1.00  0.00    -0.206 F 
ATOM     90  C   UNL     1     -15.801   4.049  16.538  1.00  0.00     0.022 A 
BRANCH  87  91
ATOM     91  S   UNL     1     -14.137   5.733  15.094  1.00  0.00     0.124 S 
ATOM     92  O   UNL     1     -12.888   6.202  15.681  1.00  0.00    -0.237 OA
ATOM     93  O   UNL     1     -14.054   5.246  13.719  1.00  0.00    -0.237 OA
ATOM     94  O   UNL     1     -15.294   6.590  15.362  1.00  0.00    -0.744 OA
ENDBRANCH  87  91
ENDBRANCH  61  84
ENDBRANCH  35  36
ENDBRANCH  27  30
ENDBRANCH  25  26
ENDBRANCH  24  25
ENDBRANCH   1  24
TORSDOF 17
