REMARK SMILES O=C(NCCCNC(=O)[C@H]1Cc2c([nH]c3ccccc23)[C@@H](c2ccc(OC(F)(F)F)cc2)[NH2+]1)c1ccc(-c2c3nc(c(-c4cc(S(=O)(=O)[O-])ccc4F)c4ccc([nH]4)c(-c4cc(S(=O)(=O)[O-])ccc4F)c4nc(c(-c5cc(S(=O)(=O)[O-])ccc5F)c5ccc2[nH]5)C=C4)C=C3)cc1
REMARK SMILES IDX 5 1 4 2 3 3 1 4 2 5 34 7 35 8 96 9 36 10 95 11 37 12 38 13
REMARK SMILES IDX 39 14 89 15 40 16 94 17 88 18 90 19 41 20 93 21 87 22 86 23
REMARK SMILES IDX 42 25 74 26 54 27 73 28 55 29 58 30 72 31 91 32 56 33 57 34
REMARK SMILES IDX 71 36 92 37 59 38 43 39 44 40 52 41 45 42 51 43 53 44 50 45
REMARK SMILES IDX 46 46 47 47 48 48 49 49 75 50 76 51 84 52 77 53 83 54 85 55
REMARK SMILES IDX 82 56 78 57 79 58 80 59 81 60 60 61 61 62 69 63 62 64 68 65
REMARK SMILES IDX 70 66 67 67 63 68 64 69 65 70 66 71 6 72 7 73 8 74 9 76
REMARK SMILES IDX 10 77 11 78 33 79 12 80 21 81 13 84 20 85 14 86 15 87 19 88
REMARK SMILES IDX 16 90 18 91 17 92 22 93 23 94 32 95 24 96 31 97 25 98 26 99
REMARK SMILES IDX 27 100 28 101 29 102 30 103
REMARK H PARENT 3 6 90 24 58 35 7 75 33 82 33 83 14 89
REMARK Flexibility Score: inf
ROOT
ATOM      1  C   UNL     1       4.660  -1.381   2.050  1.00  0.00     0.042 C 
ENDROOT
BRANCH   1   2
ATOM      2  C   UNL     1       4.415  -1.224   0.554  1.00  0.00     0.118 C 
BRANCH   2   3
ATOM      3  N   UNL     1       3.000  -1.121   0.234  1.00  0.00    -0.352 N 
ATOM      4  O   UNL     1       1.054  -0.118  -0.263  1.00  0.00    -0.269 OA
ATOM      5  C   UNL     1       2.285  -0.064  -0.270  1.00  0.00     0.251 C 
ATOM      6  H   UNL     1       2.474  -1.935   0.405  1.00  0.00     0.163 HD
BRANCH   5   7
ATOM      7  C   UNL     1       2.969   1.134  -0.808  1.00  0.00     0.039 A 
ATOM      8  C   UNL     1       4.101   1.024  -1.620  1.00  0.00     0.014 A 
ATOM      9  C   UNL     1       2.427   2.396  -0.541  1.00  0.00     0.014 A 
ATOM     10  C   UNL     1       4.758   2.171  -2.064  1.00  0.00     0.010 A 
ATOM     11  C   UNL     1       3.044   3.542  -1.049  1.00  0.00     0.010 A 
ATOM     12  C   UNL     1       4.229   3.441  -1.796  1.00  0.00    -0.014 A 
BRANCH  12  13
ATOM     13  C   UNL     1       4.893   4.660  -2.329  1.00  0.00     0.031 A 
ATOM     14  C   UNL     1       5.484   5.679  -1.395  1.00  0.00     0.074 A 
ATOM     15  C   UNL     1       4.943   4.856  -3.660  1.00  0.00     0.049 A 
ATOM     16  N   UNL     1       6.024   6.839  -1.669  1.00  0.00    -0.248 NA
ATOM     17  C   UNL     1       5.447   5.353   0.037  1.00  0.00     0.031 C 
ATOM     18  C   UNL     1       4.409   3.936  -4.667  1.00  0.00     0.029 A 
ATOM     19  N   UNL     1       5.457   5.893  -4.398  1.00  0.00    -0.354 N 
ATOM     20  C   UNL     1       6.379   7.393  -0.443  1.00  0.00     0.074 A 
ATOM     21  C   UNL     1       5.949   6.455   0.575  1.00  0.00     0.031 C 
ATOM     22  C   UNL     1       4.635   4.442  -5.888  1.00  0.00     0.029 A 
ATOM     23  C   UNL     1       5.266   5.750  -5.752  1.00  0.00     0.049 A 
ATOM     24  H   UNL     1       5.918   6.664  -3.996  1.00  0.00     0.167 HD
ATOM     25  C   UNL     1       7.012   8.569  -0.194  1.00  0.00     0.034 A 
ATOM     26  C   UNL     1       5.533   6.591  -6.770  1.00  0.00     0.034 A 
ATOM     27  C   UNL     1       7.421   9.493  -1.226  1.00  0.00     0.049 A 
ATOM     28  C   UNL     1       6.173   7.920  -6.470  1.00  0.00     0.074 A 
ATOM     29  C   UNL     1       8.089  10.699  -1.089  1.00  0.00     0.029 A 
ATOM     30  N   UNL     1       7.189   9.325  -2.586  1.00  0.00    -0.354 N 
ATOM     31  N   UNL     1       6.513   8.427  -5.308  1.00  0.00    -0.248 NA
ATOM     32  C   UNL     1       6.471   8.786  -7.617  1.00  0.00     0.031 C 
ATOM     33  C   UNL     1       8.191  11.292  -2.353  1.00  0.00     0.029 A 
ATOM     34  C   UNL     1       7.668  10.419  -3.293  1.00  0.00     0.049 A 
ATOM     35  H   UNL     1       6.748   8.543  -2.990  1.00  0.00     0.167 HD
ATOM     36  C   UNL     1       7.095   9.660  -5.588  1.00  0.00     0.074 A 
ATOM     37  C   UNL     1       7.062   9.816  -7.028  1.00  0.00     0.031 C 
ATOM     38  C   UNL     1       7.621  10.571  -4.730  1.00  0.00     0.034 A 
BRANCH  25  39
ATOM     39  C   UNL     1       7.247   8.934   1.254  1.00  0.00     0.023 A 
ATOM     40  C   UNL     1       8.033   8.132   2.100  1.00  0.00     0.031 A 
ATOM     41  C   UNL     1       6.633  10.069   1.814  1.00  0.00     0.131 A 
ATOM     42  C   UNL     1       8.101   8.416   3.473  1.00  0.00     0.055 A 
ATOM     43  C   UNL     1       6.787  10.402   3.162  1.00  0.00     0.041 A 
ATOM     44  F   UNL     1       5.853  10.864   1.065  1.00  0.00    -0.206 F 
ATOM     45  C   UNL     1       7.507   9.562   4.005  1.00  0.00     0.022 A 
BRANCH  42  46
ATOM     46  S   UNL     1       8.808   7.159   4.575  1.00  0.00     0.124 S 
ATOM     47  O   UNL     1       7.974   5.999   4.267  1.00  0.00    -0.237 OA
ATOM     48  O   UNL     1      10.193   7.087   4.125  1.00  0.00    -0.237 OA
ATOM     49  O   UNL     1       8.609   7.724   5.909  1.00  0.00    -0.744 OA
ENDBRANCH  42  46
ENDBRANCH  25  39
BRANCH  26  50
ATOM     50  C   UNL     1       5.157   6.211  -8.161  1.00  0.00     0.023 A 
ATOM     51  C   UNL     1       6.133   5.975  -9.140  1.00  0.00     0.031 A 
ATOM     52  C   UNL     1       3.805   6.076  -8.527  1.00  0.00     0.131 A 
ATOM     53  C   UNL     1       5.742   5.642 -10.447  1.00  0.00     0.055 A 
ATOM     54  C   UNL     1       3.423   5.697  -9.814  1.00  0.00     0.041 A 
ATOM     55  F   UNL     1       2.833   6.285  -7.624  1.00  0.00    -0.206 F 
ATOM     56  C   UNL     1       4.396   5.486 -10.786  1.00  0.00     0.022 A 
BRANCH  53  57
ATOM     57  S   UNL     1       7.023   5.470 -11.719  1.00  0.00     0.124 S 
ATOM     58  O   UNL     1       7.629   6.796 -11.711  1.00  0.00    -0.237 OA
ATOM     59  O   UNL     1       7.841   4.387 -11.181  1.00  0.00    -0.237 OA
ATOM     60  O   UNL     1       6.264   5.136 -12.922  1.00  0.00    -0.744 OA
ENDBRANCH  53  57
ENDBRANCH  26  50
BRANCH  38  61
ATOM     61  C   UNL     1       8.262  11.797  -5.335  1.00  0.00     0.023 A 
ATOM     62  C   UNL     1       7.511  12.785  -5.995  1.00  0.00     0.031 A 
ATOM     63  C   UNL     1       9.654  11.978  -5.239  1.00  0.00     0.131 A 
ATOM     64  C   UNL     1       8.162  13.888  -6.570  1.00  0.00     0.055 A 
ATOM     65  C   UNL     1      10.288  13.104  -5.763  1.00  0.00     0.041 A 
ATOM     66  F   UNL     1      10.420  11.063  -4.623  1.00  0.00    -0.206 F 
ATOM     67  C   UNL     1       9.543  14.062  -6.442  1.00  0.00     0.022 A 
BRANCH  64  68
ATOM     68  S   UNL     1       7.190  15.061  -7.556  1.00  0.00     0.124 S 
ATOM     69  O   UNL     1       6.651  14.202  -8.605  1.00  0.00    -0.237 OA
ATOM     70  O   UNL     1       6.225  15.563  -6.584  1.00  0.00    -0.237 OA
ATOM     71  O   UNL     1       8.182  16.037  -8.004  1.00  0.00    -0.744 OA
ENDBRANCH  64  68
ENDBRANCH  38  61
ENDBRANCH  12  13
ENDBRANCH   5   7
ENDBRANCH   2   3
ENDBRANCH   1   2
BRANCH   1  72
ATOM     72  C   UNL     1       4.171  -2.706   2.632  1.00  0.00     0.118 C 
BRANCH  72  73
ATOM     73  N   UNL     1       4.864  -3.853   2.071  1.00  0.00    -0.351 N 
ATOM     74  C   UNL     1       5.808  -4.678   2.625  1.00  0.00     0.278 C 
ATOM     75  H   UNL     1       4.615  -4.074   1.144  1.00  0.00     0.163 HD
ATOM     76  O   UNL     1       6.171  -5.650   1.960  1.00  0.00    -0.268 OA
BRANCH  74  77
ATOM     77  C   UNL     1       6.317  -4.397   4.050  1.00  0.00     0.277 C 
ATOM     78  C   UNL     1       7.227  -5.557   4.533  1.00  0.00     0.114 C 
ATOM     79  N   UNL     1       7.079  -3.124   4.077  1.00  0.00    -0.325 N 
ATOM     80  C   UNL     1       7.840  -5.181   5.840  1.00  0.00    -0.006 A 
ATOM     81  C   UNL     1       7.409  -2.675   5.446  1.00  0.00     0.262 C 
ATOM     82  H   UNL     1       6.520  -2.401   3.625  1.00  0.00     0.347 HD
ATOM     83  H   UNL     1       7.960  -3.285   3.589  1.00  0.00     0.347 HD
ATOM     84  C   UNL     1       7.890  -3.858   6.240  1.00  0.00     0.083 A 
ATOM     85  C   UNL     1       8.504  -5.958   6.821  1.00  0.00     0.003 A 
ATOM     86  N   UNL     1       8.424  -3.824   7.500  1.00  0.00    -0.353 N 
ATOM     87  C   UNL     1       8.862  -5.085   7.853  1.00  0.00     0.046 A 
ATOM     88  C   UNL     1       8.857  -7.317   6.925  1.00  0.00     0.010 A 
ATOM     89  H   UNL     1       8.486  -3.023   8.069  1.00  0.00     0.166 HD
ATOM     90  C   UNL     1       9.557  -5.513   8.990  1.00  0.00     0.026 A 
ATOM     91  C   UNL     1       9.567  -7.755   8.048  1.00  0.00     0.001 A 
ATOM     92  C   UNL     1       9.909  -6.865   9.064  1.00  0.00     0.002 A 
BRANCH  81  93
ATOM     93  C   UNL     1       8.386  -1.508   5.333  1.00  0.00     0.016 A 
ATOM     94  C   UNL     1       9.767  -1.644   5.537  1.00  0.00     0.014 A 
ATOM     95  C   UNL     1       7.910  -0.253   4.908  1.00  0.00     0.014 A 
ATOM     96  C   UNL     1      10.630  -0.562   5.346  1.00  0.00     0.047 A 
ATOM     97  C   UNL     1       8.782   0.822   4.685  1.00  0.00     0.047 A 
ATOM     98  C   UNL     1      10.150   0.669   4.897  1.00  0.00     0.129 A 
BRANCH  98  99
ATOM     99  O   UNL     1      11.117   1.612   4.704  1.00  0.00    -0.406 OA
BRANCH  99 100
ATOM    100  C   UNL     1      10.742   2.825   4.059  1.00  0.00     0.573 C 
ATOM    101  F   UNL     1      10.208   2.562   2.846  1.00  0.00    -0.132 F 
ATOM    102  F   UNL     1       9.872   3.505   4.822  1.00  0.00    -0.132 F 
ATOM    103  F   UNL     1      11.860   3.559   3.882  1.00  0.00    -0.132 F 
ENDBRANCH  99 100
ENDBRANCH  98  99
ENDBRANCH  81  93
ENDBRANCH  74  77
ENDBRANCH  72  73
ENDBRANCH   1  72
TORSDOF 16
