REMARK SMILES C[C@@H]1C(=O)NC(=O)CN1C(=O)NC1(CC(=O)NCCCNC(=O)c2ccc(-c3c4nc(c(-c5cc(S(=O)(=O)[O-])ccc5F)c5ccc([nH]5)c(-c5cc(S(=O)(=O)[O-])ccc5F)c5nc(c(-c6cc(S(=O)(=O)[O-])ccc6F)c6ccc3[nH]6)C=C5)C=C4)cc2)CCC1
REMARK SMILES IDX 19 1 18 2 17 3 15 4 16 5 14 7 13 8 87 9 89 10 88 11 12 12
REMARK SMILES IDX 10 13 11 14 9 16 1 17 2 18 3 19 4 20 5 21 8 22 6 23 7 25
REMARK SMILES IDX 20 26 21 27 22 28 23 30 24 31 25 32 86 33 26 34 85 35 27 36
REMARK SMILES IDX 28 37 29 38 79 39 30 40 84 41 78 42 80 43 31 44 83 45 77 46
REMARK SMILES IDX 76 47 32 49 64 50 44 51 63 52 45 53 48 54 62 55 81 56 46 57
REMARK SMILES IDX 47 58 61 60 82 61 49 62 33 63 34 64 42 65 35 66 41 67 43 68
REMARK SMILES IDX 40 69 36 70 37 71 38 72 39 73 65 74 66 75 74 76 67 77 73 78
REMARK SMILES IDX 75 79 72 80 68 81 69 82 70 83 71 84 50 85 51 86 59 87 52 88
REMARK SMILES IDX 58 89 60 90 57 91 53 92 54 93 55 94 56 95
REMARK H PARENT 17 6 12 15 5 24 21 29 80 48 48 59
REMARK Flexibility Score: inf
ROOT
ATOM      1  C   UNL     1      -0.983   1.471   1.653  1.00  0.00     0.042 C 
ENDROOT
BRANCH   1   2
ATOM      2  C   UNL     1      -2.466   1.832   1.674  1.00  0.00     0.117 C 
BRANCH   2   3
ATOM      3  N   UNL     1      -2.779   2.870   0.711  1.00  0.00    -0.356 N 
ATOM      4  C   UNL     1      -3.112   2.772  -0.603  1.00  0.00     0.222 C 
ATOM      5  O   UNL     1      -3.236   3.817  -1.248  1.00  0.00    -0.275 OA
ATOM      6  H   UNL     1      -2.745   3.788   1.064  1.00  0.00     0.163 HD
BRANCH   4   7
ATOM      7  C   UNL     1      -3.333   1.433  -1.286  1.00  0.00     0.128 C 
BRANCH   7   8
ATOM      8  C   UNL     1      -2.064   0.650  -1.730  1.00  0.00     0.051 C 
ATOM      9  C   UNL     1      -2.361  -0.398  -2.842  1.00  0.00     0.029 C 
ATOM     10  C   UNL     1      -1.814  -0.515  -0.751  1.00  0.00     0.029 C 
ATOM     11  C   UNL     1      -2.214  -1.532  -1.827  1.00  0.00     0.005 C 
BRANCH   8  12
ATOM     12  N   UNL     1      -1.036   1.623  -2.172  1.00  0.00    -0.332 N 
ATOM     13  C   UNL     1       0.258   1.840  -2.449  1.00  0.00     0.318 C 
ATOM     14  O   UNL     1       0.455   2.985  -2.878  1.00  0.00    -0.249 OA
ATOM     15  H   UNL     1      -1.504   2.475  -2.329  1.00  0.00     0.165 HD
BRANCH  13  16
ATOM     16  N   UNL     1       1.295   0.981  -2.304  1.00  0.00    -0.304 N 
ATOM     17  C   UNL     1       1.736  -0.439  -0.342  1.00  0.00     0.042 C 
ATOM     18  C   UNL     1       1.287  -0.387  -1.803  1.00  0.00     0.174 C 
ATOM     19  C   UNL     1       2.178  -1.330  -2.616  1.00  0.00     0.249 C 
ATOM     20  O   UNL     1       2.043  -2.553  -2.568  1.00  0.00    -0.272 OA
ATOM     21  N   UNL     1       3.235  -0.769  -3.280  1.00  0.00    -0.293 N 
ATOM     22  C   UNL     1       2.641   1.519  -2.573  1.00  0.00     0.222 C 
ATOM     23  C   UNL     1       3.553   0.563  -3.332  1.00  0.00     0.246 C 
ATOM     24  H   UNL     1       3.827  -1.385  -3.769  1.00  0.00     0.173 HD
ATOM     25  O   UNL     1       4.593   0.929  -3.874  1.00  0.00    -0.273 OA
ENDBRANCH  13  16
ENDBRANCH   8  12
ENDBRANCH   7   8
ENDBRANCH   4   7
ENDBRANCH   2   3
ENDBRANCH   1   2
BRANCH   1  26
ATOM     26  C   UNL     1      -0.096   2.355   2.524  1.00  0.00     0.118 C 
BRANCH  26  27
ATOM     27  N   UNL     1      -0.242   2.037   3.934  1.00  0.00    -0.352 N 
ATOM     28  C   UNL     1       0.680   1.626   4.867  1.00  0.00     0.251 C 
ATOM     29  H   UNL     1      -1.158   2.134   4.281  1.00  0.00     0.163 HD
ATOM     30  O   UNL     1       0.258   1.193   5.938  1.00  0.00    -0.269 OA
BRANCH  28  31
ATOM     31  C   UNL     1       2.145   1.675   4.617  1.00  0.00     0.039 A 
ATOM     32  C   UNL     1       2.953   0.711   5.236  1.00  0.00     0.014 A 
ATOM     33  C   UNL     1       2.751   2.687   3.868  1.00  0.00     0.014 A 
ATOM     34  C   UNL     1       4.343   0.741   5.075  1.00  0.00     0.010 A 
ATOM     35  C   UNL     1       4.133   2.674   3.649  1.00  0.00     0.010 A 
ATOM     36  C   UNL     1       4.947   1.709   4.260  1.00  0.00    -0.014 A 
BRANCH  36  37
ATOM     37  C   UNL     1       6.424   1.735   4.060  1.00  0.00     0.031 A 
ATOM     38  C   UNL     1       7.239   2.907   4.544  1.00  0.00     0.074 A 
ATOM     39  C   UNL     1       7.031   0.724   3.406  1.00  0.00     0.049 A 
ATOM     40  N   UNL     1       8.518   3.145   4.400  1.00  0.00    -0.248 NA
ATOM     41  C   UNL     1       6.511   3.960   5.266  1.00  0.00     0.031 C 
ATOM     42  C   UNL     1       6.355  -0.457   2.867  1.00  0.00     0.029 A 
ATOM     43  N   UNL     1       8.350   0.530   3.075  1.00  0.00    -0.354 N 
ATOM     44  C   UNL     1       8.748   4.378   5.003  1.00  0.00     0.074 A 
ATOM     45  C   UNL     1       7.461   4.862   5.458  1.00  0.00     0.031 C 
ATOM     46  C   UNL     1       7.263  -1.257   2.285  1.00  0.00     0.029 A 
ATOM     47  C   UNL     1       8.578  -0.628   2.367  1.00  0.00     0.049 A 
ATOM     48  H   UNL     1       9.065   1.160   3.321  1.00  0.00     0.167 HD
ATOM     49  C   UNL     1       9.923   5.035   5.183  1.00  0.00     0.034 A 
ATOM     50  C   UNL     1       9.711  -1.121   1.828  1.00  0.00     0.034 A 
ATOM     51  C   UNL     1      11.201   4.540   4.727  1.00  0.00     0.049 A 
ATOM     52  C   UNL     1      11.000  -0.358   2.006  1.00  0.00     0.074 A 
ATOM     53  C   UNL     1      12.454   5.106   4.888  1.00  0.00     0.029 A 
ATOM     54  N   UNL     1      11.390   3.364   4.010  1.00  0.00    -0.354 N 
ATOM     55  N   UNL     1      11.204   0.788   2.612  1.00  0.00    -0.248 NA
ATOM     56  C   UNL     1      12.212  -0.963   1.438  1.00  0.00     0.031 C 
ATOM     57  C   UNL     1      13.388   4.312   4.214  1.00  0.00     0.029 A 
ATOM     58  C   UNL     1      12.733   3.205   3.698  1.00  0.00     0.049 A 
ATOM     59  H   UNL     1      10.675   2.735   3.760  1.00  0.00     0.167 HD
ATOM     60  C   UNL     1      12.573   1.027   2.521  1.00  0.00     0.074 A 
ATOM     61  C   UNL     1      13.145  -0.103   1.817  1.00  0.00     0.031 C 
ATOM     62  C   UNL     1      13.293   2.082   2.982  1.00  0.00     0.034 A 
BRANCH  49  63
ATOM     63  C   UNL     1       9.868   6.374   5.883  1.00  0.00     0.023 A 
ATOM     64  C   UNL     1       9.415   6.496   7.209  1.00  0.00     0.031 A 
ATOM     65  C   UNL     1      10.242   7.551   5.208  1.00  0.00     0.131 A 
ATOM     66  C   UNL     1       9.266   7.766   7.787  1.00  0.00     0.055 A 
ATOM     67  C   UNL     1      10.174   8.805   5.820  1.00  0.00     0.041 A 
ATOM     68  F   UNL     1      10.665   7.504   3.936  1.00  0.00    -0.206 F 
ATOM     69  C   UNL     1       9.667   8.920   7.111  1.00  0.00     0.022 A 
BRANCH  66  70
ATOM     70  S   UNL     1       8.392   7.897   9.371  1.00  0.00     0.124 S 
ATOM     71  O   UNL     1       7.102   7.293   9.047  1.00  0.00    -0.237 OA
ATOM     72  O   UNL     1       9.249   7.131  10.268  1.00  0.00    -0.237 OA
ATOM     73  O   UNL     1       8.352   9.336   9.622  1.00  0.00    -0.744 OA
ENDBRANCH  66  70
ENDBRANCH  49  63
BRANCH  50  74
ATOM     74  C   UNL     1       9.680  -2.392   1.048  1.00  0.00     0.023 A 
ATOM     75  C   UNL     1      10.359  -3.536   1.494  1.00  0.00     0.031 A 
ATOM     76  C   UNL     1       8.991  -2.469  -0.176  1.00  0.00     0.131 A 
ATOM     77  C   UNL     1      10.372  -4.695   0.701  1.00  0.00     0.055 A 
ATOM     78  C   UNL     1       8.964  -3.639  -0.936  1.00  0.00     0.041 A 
ATOM     79  F   UNL     1       8.316  -1.406  -0.644  1.00  0.00    -0.206 F 
ATOM     80  C   UNL     1       9.668  -4.758  -0.504  1.00  0.00     0.022 A 
BRANCH  77  81
ATOM     81  S   UNL     1      11.386  -6.101   1.233  1.00  0.00     0.124 S 
ATOM     82  O   UNL     1      12.714  -5.500   1.302  1.00  0.00    -0.237 OA
ATOM     83  O   UNL     1      10.773  -6.451   2.510  1.00  0.00    -0.237 OA
ATOM     84  O   UNL     1      11.198  -7.080   0.165  1.00  0.00    -0.744 OA
ENDBRANCH  77  81
ENDBRANCH  50  74
BRANCH  62  85
ATOM     85  C   UNL     1      14.788   2.037   2.775  1.00  0.00     0.023 A 
ATOM     86  C   UNL     1      15.363   2.105   1.493  1.00  0.00     0.031 A 
ATOM     87  C   UNL     1      15.651   1.911   3.879  1.00  0.00     0.131 A 
ATOM     88  C   UNL     1      16.754   1.990   1.343  1.00  0.00     0.055 A 
ATOM     89  C   UNL     1      17.037   1.858   3.728  1.00  0.00     0.041 A 
ATOM     90  F   UNL     1      15.158   1.838   5.126  1.00  0.00    -0.206 F 
ATOM     91  C   UNL     1      17.595   1.885   2.454  1.00  0.00     0.022 A 
BRANCH  88  92
ATOM     92  S   UNL     1      17.446   1.888  -0.331  1.00  0.00     0.124 S 
ATOM     93  O   UNL     1      16.767   0.713  -0.868  1.00  0.00    -0.237 OA
ATOM     94  O   UNL     1      17.056   3.170  -0.909  1.00  0.00    -0.237 OA
ATOM     95  O   UNL     1      18.880   1.724  -0.100  1.00  0.00    -0.744 OA
ENDBRANCH  88  92
ENDBRANCH  62  85
ENDBRANCH  36  37
ENDBRANCH  28  31
ENDBRANCH  26  27
ENDBRANCH   1  26
TORSDOF 16
