REMARK SMILES C[C@H]1[C@@H](C(=O)NCCCNC(=O)c2ccc(-c3c4nc(c(-c5cc(S(=O)(=O)[O-])ccc5F)c5ccc([nH]5)c(-c5cc(S(=O)(=O)[O-])ccc5F)c5nc(c(-c6cc(S(=O)(=O)[O-])ccc6F)c6ccc3[nH]6)C=C5)C=C4)cc2)CC[N@@H+]1CC(=O)NNc1ccccn1
REMARK SMILES IDX 7 1 6 2 4 3 5 4 3 6 1 7 2 8 78 9 76 10 77 11 79 13 80 14
REMARK SMILES IDX 81 15 82 16 83 18 84 20 85 21 89 22 86 23 88 24 87 25 8 26
REMARK SMILES IDX 9 27 10 28 11 29 12 31 13 32 14 33 75 34 15 35 74 36 16 37
REMARK SMILES IDX 17 38 18 39 68 40 19 41 73 42 67 43 69 44 20 45 72 46 66 47
REMARK SMILES IDX 65 48 21 50 53 51 33 52 52 53 34 54 37 55 51 56 70 57 35 58
REMARK SMILES IDX 36 59 50 61 71 62 38 63 22 64 23 65 31 66 24 67 30 68 32 69
REMARK SMILES IDX 29 70 25 71 26 72 27 73 28 74 54 75 55 76 63 77 56 78 62 79
REMARK SMILES IDX 64 80 61 81 57 82 58 83 59 84 60 85 39 86 40 87 48 88 41 89
REMARK SMILES IDX 47 90 49 91 46 92 42 93 43 94 44 95 45 96
REMARK H PARENT 6 5 78 12 82 17 83 19 10 30 69 49 37 60
REMARK Flexibility Score: inf
ROOT
ATOM      1  C   UNL     1       2.888   1.654  -1.074  1.00  0.00     0.117 C 
ENDROOT
BRANCH   1   2
ATOM      2  N   UNL     1       1.664   1.860  -1.826  1.00  0.00    -0.356 N 
ATOM      3  C   UNL     1       0.399   1.411  -1.613  1.00  0.00     0.229 C 
ATOM      4  O   UNL     1      -0.399   1.585  -2.538  1.00  0.00    -0.275 OA
ATOM      5  H   UNL     1       1.768   2.421  -2.629  1.00  0.00     0.163 HD
BRANCH   3   6
ATOM      6  C   UNL     1      -0.028   0.847  -0.260  1.00  0.00     0.142 C 
ATOM      7  C   UNL     1       1.243  -1.400  -0.794  1.00  0.00     0.076 C 
ATOM      8  C   UNL     1       0.522  -0.513   0.217  1.00  0.00     0.194 C 
ATOM      9  N   UNL     1      -0.631  -1.302   0.681  1.00  0.00    -0.324 N 
ATOM     10  C   UNL     1      -1.558   0.698  -0.170  1.00  0.00     0.081 C 
ATOM     11  C   UNL     1      -1.801  -0.791  -0.022  1.00  0.00     0.263 C 
ATOM     12  H   UNL     1      -0.507  -2.285   0.439  1.00  0.00     0.348 HD
BRANCH   9  13
ATOM     13  C   UNL     1      -0.749  -1.442   2.140  1.00  0.00     0.365 C 
BRANCH  13  14
ATOM     14  C   UNL     1      -1.355  -0.248   2.876  1.00  0.00     0.293 C 
ATOM     15  O   UNL     1      -2.577  -0.121   3.010  1.00  0.00    -0.267 OA
ATOM     16  N   UNL     1      -0.538   0.706   3.428  1.00  0.00    -0.264 N 
ATOM     17  H   UNL     1      -0.961   1.445   3.922  1.00  0.00     0.191 HD
BRANCH  16  18
ATOM     18  N   UNL     1       0.852   0.693   3.333  1.00  0.00    -0.282 N 
ATOM     19  H   UNL     1       1.375  -0.135   3.235  1.00  0.00     0.190 HD
BRANCH  18  20
ATOM     20  C   UNL     1       1.440   1.971   3.392  1.00  0.00     0.144 A 
ATOM     21  C   UNL     1       1.451   2.673   4.597  1.00  0.00     0.048 A 
ATOM     22  N   UNL     1       1.987   2.481   2.270  1.00  0.00    -0.238 NA
ATOM     23  C   UNL     1       2.029   3.940   4.645  1.00  0.00     0.005 A 
ATOM     24  C   UNL     1       2.547   3.709   2.341  1.00  0.00     0.113 A 
ATOM     25  C   UNL     1       2.591   4.471   3.494  1.00  0.00     0.020 A 
ENDBRANCH  18  20
ENDBRANCH  16  18
ENDBRANCH  13  14
ENDBRANCH   9  13
ENDBRANCH   3   6
ENDBRANCH   1   2
BRANCH   1  26
ATOM     26  C   UNL     1       3.798   0.663  -1.799  1.00  0.00     0.042 C 
BRANCH  26  27
ATOM     27  C   UNL     1       4.357   1.175  -3.119  1.00  0.00     0.118 C 
BRANCH  27  28
ATOM     28  N   UNL     1       5.630   1.846  -2.953  1.00  0.00    -0.352 N 
ATOM     29  C   UNL     1       6.909   1.409  -3.208  1.00  0.00     0.251 C 
ATOM     30  H   UNL     1       5.570   2.763  -2.601  1.00  0.00     0.163 HD
ATOM     31  O   UNL     1       7.846   2.066  -2.762  1.00  0.00    -0.269 OA
BRANCH  29  32
ATOM     32  C   UNL     1       7.178   0.163  -3.977  1.00  0.00     0.039 A 
ATOM     33  C   UNL     1       8.304  -0.596  -3.637  1.00  0.00     0.014 A 
ATOM     34  C   UNL     1       6.397  -0.237  -5.064  1.00  0.00     0.014 A 
ATOM     35  C   UNL     1       8.617  -1.756  -4.355  1.00  0.00     0.010 A 
ATOM     36  C   UNL     1       6.647  -1.450  -5.710  1.00  0.00     0.010 A 
ATOM     37  C   UNL     1       7.778  -2.211  -5.384  1.00  0.00    -0.014 A 
BRANCH  37  38
ATOM     38  C   UNL     1       8.107  -3.442  -6.159  1.00  0.00     0.031 A 
ATOM     39  C   UNL     1       8.358  -3.360  -7.646  1.00  0.00     0.074 A 
ATOM     40  C   UNL     1       8.154  -4.637  -5.538  1.00  0.00     0.049 A 
ATOM     41  N   UNL     1       8.622  -4.319  -8.498  1.00  0.00    -0.248 NA
ATOM     42  C   UNL     1       8.267  -2.026  -8.259  1.00  0.00     0.031 C 
ATOM     43  C   UNL     1       7.882  -4.862  -4.117  1.00  0.00     0.029 A 
ATOM     44  N   UNL     1       8.445  -5.890  -6.019  1.00  0.00    -0.354 N 
ATOM     45  C   UNL     1       8.713  -3.706  -9.745  1.00  0.00     0.074 A 
ATOM     46  C   UNL     1       8.402  -2.307  -9.545  1.00  0.00     0.031 C 
ATOM     47  C   UNL     1       8.050  -6.164  -3.836  1.00  0.00     0.029 A 
ATOM     48  C   UNL     1       8.400  -6.877  -5.061  1.00  0.00     0.049 A 
ATOM     49  H   UNL     1       8.667  -6.066  -6.963  1.00  0.00     0.167 HD
ATOM     50  C   UNL     1       9.056  -4.249 -10.941  1.00  0.00     0.034 A 
ATOM     51  C   UNL     1       8.610  -8.205  -5.156  1.00  0.00     0.034 A 
ATOM     52  C   UNL     1       9.381  -5.643 -11.126  1.00  0.00     0.049 A 
ATOM     53  C   UNL     1       8.988  -8.789  -6.493  1.00  0.00     0.074 A 
ATOM     54  C   UNL     1       9.787  -6.291 -12.280  1.00  0.00     0.029 A 
ATOM     55  N   UNL     1       9.334  -6.609 -10.127  1.00  0.00    -0.354 N 
ATOM     56  N   UNL     1       9.120  -8.185  -7.652  1.00  0.00    -0.248 NA
ATOM     57  C   UNL     1       9.263 -10.230  -6.530  1.00  0.00     0.031 C 
ATOM     58  C   UNL     1       9.924  -7.654 -11.995  1.00  0.00     0.029 A 
ATOM     59  C   UNL     1       9.678  -7.849 -10.645  1.00  0.00     0.049 A 
ATOM     60  H   UNL     1       9.091  -6.438  -9.189  1.00  0.00     0.167 HD
ATOM     61  C   UNL     1       9.514  -9.172  -8.551  1.00  0.00     0.074 A 
ATOM     62  C   UNL     1       9.624 -10.402  -7.793  1.00  0.00     0.031 C 
ATOM     63  C   UNL     1       9.764  -9.073  -9.883  1.00  0.00     0.034 A 
BRANCH  50  64
ATOM     64  C   UNL     1       9.076  -3.327 -12.141  1.00  0.00     0.023 A 
ATOM     65  C   UNL     1       9.943  -2.221 -12.207  1.00  0.00     0.031 A 
ATOM     66  C   UNL     1       8.192  -3.530 -13.216  1.00  0.00     0.131 A 
ATOM     67  C   UNL     1       9.847  -1.315 -13.275  1.00  0.00     0.055 A 
ATOM     68  C   UNL     1       8.163  -2.674 -14.319  1.00  0.00     0.041 A 
ATOM     69  F   UNL     1       7.327  -4.557 -13.205  1.00  0.00    -0.206 F 
ATOM     70  C   UNL     1       8.980  -1.548 -14.345  1.00  0.00     0.022 A 
BRANCH  67  71
ATOM     71  S   UNL     1      10.757   0.251 -13.166  1.00  0.00     0.124 S 
ATOM     72  O   UNL     1      10.210   0.824 -11.938  1.00  0.00    -0.237 OA
ATOM     73  O   UNL     1      12.143  -0.193 -13.101  1.00  0.00    -0.237 OA
ATOM     74  O   UNL     1      10.381   0.952 -14.392  1.00  0.00    -0.744 OA
ENDBRANCH  67  71
ENDBRANCH  50  64
BRANCH  51  75
ATOM     75  C   UNL     1       8.461  -9.079  -3.957  1.00  0.00     0.023 A 
ATOM     76  C   UNL     1       9.560  -9.759  -3.410  1.00  0.00     0.031 A 
ATOM     77  C   UNL     1       7.203  -9.271  -3.357  1.00  0.00     0.131 A 
ATOM     78  C   UNL     1       9.375 -10.632  -2.326  1.00  0.00     0.055 A 
ATOM     79  C   UNL     1       7.032 -10.100  -2.248  1.00  0.00     0.041 A 
ATOM     80  F   UNL     1       6.119  -8.639  -3.836  1.00  0.00    -0.206 F 
ATOM     81  C   UNL     1       8.121 -10.797  -1.734  1.00  0.00     0.022 A 
BRANCH  78  82
ATOM     82  S   UNL     1      10.788 -11.611  -1.746  1.00  0.00     0.124 S 
ATOM     83  O   UNL     1      11.159 -12.344  -2.951  1.00  0.00    -0.237 OA
ATOM     84  O   UNL     1      11.719 -10.573  -1.314  1.00  0.00    -0.237 OA
ATOM     85  O   UNL     1      10.222 -12.422  -0.670  1.00  0.00    -0.744 OA
ENDBRANCH  78  82
ENDBRANCH  51  75
BRANCH  63  86
ATOM     86  C   UNL     1      10.212 -10.330 -10.588  1.00  0.00     0.023 A 
ATOM     87  C   UNL     1       9.362 -11.442 -10.727  1.00  0.00     0.031 A 
ATOM     88  C   UNL     1      11.517 -10.428 -11.102  1.00  0.00     0.131 A 
ATOM     89  C   UNL     1       9.847 -12.625 -11.304  1.00  0.00     0.055 A 
ATOM     90  C   UNL     1      11.974 -11.586 -11.733  1.00  0.00     0.041 A 
ATOM     91  F   UNL     1      12.373  -9.399 -10.996  1.00  0.00    -0.206 F 
ATOM     92  C   UNL     1      11.143 -12.699 -11.822  1.00  0.00     0.022 A 
BRANCH  89  93
ATOM     93  S   UNL     1       8.798 -14.105 -11.267  1.00  0.00     0.124 S 
ATOM     94  O   UNL     1       8.540 -14.259  -9.839  1.00  0.00    -0.237 OA
ATOM     95  O   UNL     1       7.658 -13.698 -12.081  1.00  0.00    -0.237 OA
ATOM     96  O   UNL     1       9.644 -15.140 -11.859  1.00  0.00    -0.744 OA
ENDBRANCH  89  93
ENDBRANCH  63  86
ENDBRANCH  37  38
ENDBRANCH  29  32
ENDBRANCH  27  28
ENDBRANCH  26  27
ENDBRANCH   1  26
TORSDOF 17
