REMARK SMILES Cc1ccc(-c2cc(C(=O)NCCCNC(=O)c3ccc(-c4c5nc(c(-c6cc(S(=O)(=O)[O-])ccc6F)c6ccc([nH]6)c(-c6cc(S(=O)(=O)[O-])ccc6F)c6nc(c(-c7cc(S(=O)(=O)[O-])ccc7F)c7ccc4[nH]7)C=C6)C=C5)cc3)c3c(-c4cccc([N+](=O)[O-])c4)[nH]nc3n2)cc1
REMARK SMILES IDX 13 1 12 2 11 3 9 4 10 5 8 7 6 8 7 9 95 10 94 11 81 12 93 13
REMARK SMILES IDX 82 14 92 15 5 17 1 18 2 19 3 20 97 21 4 22 96 23 83 24 84 25
REMARK SMILES IDX 91 26 85 27 87 28 86 29 88 30 89 31 90 32 14 33 15 34 16 35
REMARK SMILES IDX 17 37 18 38 19 39 80 40 20 41 79 42 21 43 22 44 23 45 73 46
REMARK SMILES IDX 24 47 78 48 72 49 74 50 25 51 77 52 71 53 70 54 26 56 58 57
REMARK SMILES IDX 38 58 57 59 39 60 42 61 56 62 75 63 40 64 41 65 55 67 76 68
REMARK SMILES IDX 43 69 27 70 28 71 36 72 29 73 35 74 37 75 34 76 30 77 31 78
REMARK SMILES IDX 32 79 33 80 59 81 60 82 68 83 61 84 67 85 69 86 66 87 62 88
REMARK SMILES IDX 63 89 64 90 65 91 44 92 45 93 53 94 46 95 52 96 54 97 51 98
REMARK SMILES IDX 47 99 48 100 49 101 50 102
REMARK H PARENT 11 6 92 16 15 36 74 55 42 66
REMARK Flexibility Score: inf
ROOT
ATOM      1  C   UNL     1      -3.044   0.833  -4.489  1.00  0.00     0.042 C 
ENDROOT
BRANCH   1   2
ATOM      2  C   UNL     1      -3.332   1.459  -3.138  1.00  0.00     0.118 C 
BRANCH   2   3
ATOM      3  N   UNL     1      -4.696   1.969  -2.977  1.00  0.00    -0.352 N 
ATOM      4  C   UNL     1      -5.610   1.805  -1.952  1.00  0.00     0.252 C 
ATOM      5  O   UNL     1      -6.734   2.286  -2.023  1.00  0.00    -0.269 OA
ATOM      6  H   UNL     1      -5.017   2.521  -3.726  1.00  0.00     0.163 HD
BRANCH   4   7
ATOM      7  C   UNL     1      -5.215   1.064  -0.744  1.00  0.00     0.055 A 
ATOM      8  C   UNL     1      -3.373   0.297   0.709  1.00  0.00     0.074 A 
ATOM      9  C   UNL     1      -3.924   1.204  -0.224  1.00  0.00     0.043 A 
ATOM     10  N   UNL     1      -4.079  -0.650   1.392  1.00  0.00    -0.226 NA
ATOM     11  C   UNL     1      -5.399  -0.664   1.068  1.00  0.00     0.182 A 
ATOM     12  C   UNL     1      -5.948   0.148   0.015  1.00  0.00     0.059 A 
ATOM     13  N   UNL     1      -6.329  -1.438   1.631  1.00  0.00    -0.154 NA
ATOM     14  C   UNL     1      -7.285  -0.195  -0.045  1.00  0.00     0.076 A 
ATOM     15  N   UNL     1      -7.450  -1.115   0.964  1.00  0.00    -0.275 N 
ATOM     16  H   UNL     1      -8.326  -1.509   1.181  1.00  0.00     0.190 HD
BRANCH   8  17
ATOM     17  C   UNL     1      -1.895   0.191   0.761  1.00  0.00     0.000 A 
ATOM     18  C   UNL     1       2.366  -0.163   0.042  1.00  0.00     0.044 C 
ATOM     19  C   UNL     1       0.903  -0.037   0.344  1.00  0.00    -0.051 A 
ATOM     20  C   UNL     1       0.105  -1.180   0.453  1.00  0.00     0.004 A 
ATOM     21  C   UNL     1       0.308   1.218   0.489  1.00  0.00     0.004 A 
ATOM     22  C   UNL     1      -1.274  -1.066   0.661  1.00  0.00     0.010 A 
ATOM     23  C   UNL     1      -1.069   1.329   0.704  1.00  0.00     0.010 A 
ENDBRANCH   8  17
BRANCH  14  24
ATOM     24  C   UNL     1      -8.414   0.244  -0.849  1.00  0.00     0.007 A 
ATOM     25  C   UNL     1      -9.261   1.260  -0.380  1.00  0.00     0.011 A 
ATOM     26  C   UNL     1      -8.646  -0.326  -2.103  1.00  0.00     0.096 A 
ATOM     27  C   UNL     1     -10.315   1.727  -1.170  1.00  0.00     0.008 A 
ATOM     28  C   UNL     1      -9.704   0.149  -2.891  1.00  0.00     0.270 A 
ATOM     29  C   UNL     1     -10.539   1.175  -2.431  1.00  0.00     0.085 A 
BRANCH  28  30
ATOM     30  N   UNL     1      -9.952  -0.455  -4.205  1.00  0.00     0.062 N 
ATOM     31  O   UNL     1     -10.920  -0.039  -4.857  1.00  0.00    -0.258 OA
ATOM     32  O   UNL     1      -9.215  -1.389  -4.557  1.00  0.00    -0.258 OA
ENDBRANCH  28  30
ENDBRANCH  14  24
ENDBRANCH   4   7
ENDBRANCH   2   3
ENDBRANCH   1   2
BRANCH   1  33
ATOM     33  C   UNL     1      -2.833   1.851  -5.596  1.00  0.00     0.118 C 
BRANCH  33  34
ATOM     34  N   UNL     1      -1.418   2.198  -5.787  1.00  0.00    -0.352 N 
ATOM     35  C   UNL     1      -0.732   2.451  -6.969  1.00  0.00     0.251 C 
ATOM     36  H   UNL     1      -0.882   2.260  -4.964  1.00  0.00     0.163 HD
ATOM     37  O   UNL     1       0.426   2.802  -7.002  1.00  0.00    -0.269 OA
BRANCH  35  38
ATOM     38  C   UNL     1      -1.522   2.368  -8.217  1.00  0.00     0.039 A 
ATOM     39  C   UNL     1      -1.938   3.584  -8.767  1.00  0.00     0.014 A 
ATOM     40  C   UNL     1      -2.158   1.168  -8.522  1.00  0.00     0.014 A 
ATOM     41  C   UNL     1      -3.170   3.639  -9.407  1.00  0.00     0.010 A 
ATOM     42  C   UNL     1      -3.420   1.242  -9.088  1.00  0.00     0.010 A 
ATOM     43  C   UNL     1      -3.960   2.489  -9.443  1.00  0.00    -0.014 A 
BRANCH  43  44
ATOM     44  C   UNL     1      -5.404   2.547  -9.672  1.00  0.00     0.031 A 
ATOM     45  C   UNL     1      -5.985   2.001 -10.912  1.00  0.00     0.074 A 
ATOM     46  C   UNL     1      -6.237   3.093  -8.755  1.00  0.00     0.049 A 
ATOM     47  N   UNL     1      -7.091   2.408 -11.439  1.00  0.00    -0.248 NA
ATOM     48  C   UNL     1      -5.323   0.963 -11.688  1.00  0.00     0.031 C 
ATOM     49  C   UNL     1      -7.698   3.053  -8.755  1.00  0.00     0.029 A 
ATOM     50  N   UNL     1      -5.918   4.042  -7.783  1.00  0.00    -0.354 N 
ATOM     51  C   UNL     1      -7.436   1.515 -12.423  1.00  0.00     0.074 A 
ATOM     52  C   UNL     1      -6.273   0.670 -12.579  1.00  0.00     0.031 C 
ATOM     53  C   UNL     1      -8.158   4.120  -8.085  1.00  0.00     0.029 A 
ATOM     54  C   UNL     1      -7.015   4.931  -7.718  1.00  0.00     0.049 A 
ATOM     55  H   UNL     1      -5.092   4.084  -7.248  1.00  0.00     0.167 HD
ATOM     56  C   UNL     1      -8.708   1.501 -12.913  1.00  0.00     0.034 A 
ATOM     57  C   UNL     1      -6.854   6.263  -7.967  1.00  0.00     0.034 A 
ATOM     58  C   UNL     1      -9.535   2.574 -12.356  1.00  0.00     0.049 A 
ATOM     59  C   UNL     1      -7.640   6.765  -9.164  1.00  0.00     0.074 A 
ATOM     60  C   UNL     1     -10.555   2.644 -11.421  1.00  0.00     0.029 A 
ATOM     61  N   UNL     1      -9.164   3.887 -12.600  1.00  0.00    -0.354 N 
ATOM     62  N   UNL     1      -8.474   6.045  -9.867  1.00  0.00    -0.248 NA
ATOM     63  C   UNL     1      -7.460   8.104  -9.726  1.00  0.00     0.031 C 
ATOM     64  C   UNL     1     -10.781   4.019 -11.105  1.00  0.00     0.029 A 
ATOM     65  C   UNL     1      -9.912   4.784 -11.861  1.00  0.00     0.049 A 
ATOM     66  H   UNL     1      -8.452   4.150 -13.227  1.00  0.00     0.167 HD
ATOM     67  C   UNL     1      -8.849   6.745 -10.989  1.00  0.00     0.074 A 
ATOM     68  C   UNL     1      -8.194   8.033 -10.848  1.00  0.00     0.031 C 
ATOM     69  C   UNL     1      -9.612   6.203 -11.988  1.00  0.00     0.034 A 
BRANCH  56  70
ATOM     70  C   UNL     1      -9.254   0.340 -13.712  1.00  0.00     0.023 A 
ATOM     71  C   UNL     1     -10.613  -0.012 -13.597  1.00  0.00     0.031 A 
ATOM     72  C   UNL     1      -8.487  -0.482 -14.561  1.00  0.00     0.131 A 
ATOM     73  C   UNL     1     -11.116  -1.185 -14.191  1.00  0.00     0.055 A 
ATOM     74  C   UNL     1      -8.960  -1.695 -15.077  1.00  0.00     0.041 A 
ATOM     75  F   UNL     1      -7.265  -0.117 -14.973  1.00  0.00    -0.206 F 
ATOM     76  C   UNL     1     -10.281  -2.062 -14.879  1.00  0.00     0.022 A 
BRANCH  73  77
ATOM     77  S   UNL     1     -12.891  -1.540 -14.085  1.00  0.00     0.124 S 
ATOM     78  O   UNL     1     -13.125  -1.549 -12.646  1.00  0.00    -0.237 OA
ATOM     79  O   UNL     1     -13.469  -0.425 -14.828  1.00  0.00    -0.237 OA
ATOM     80  O   UNL     1     -13.016  -2.843 -14.738  1.00  0.00    -0.744 OA
ENDBRANCH  73  77
ENDBRANCH  56  70
BRANCH  57  81
ATOM     81  C   UNL     1      -5.528   6.764  -7.490  1.00  0.00     0.023 A 
ATOM     82  C   UNL     1      -5.222   6.534  -6.129  1.00  0.00     0.031 A 
ATOM     83  C   UNL     1      -4.466   7.040  -8.359  1.00  0.00     0.131 A 
ATOM     84  C   UNL     1      -3.891   6.369  -5.722  1.00  0.00     0.055 A 
ATOM     85  C   UNL     1      -3.136   6.982  -7.920  1.00  0.00     0.041 A 
ATOM     86  F   UNL     1      -4.679   7.227  -9.669  1.00  0.00    -0.206 F 
ATOM     87  C   UNL     1      -2.842   6.590  -6.613  1.00  0.00     0.022 A 
BRANCH  84  88
ATOM     88  S   UNL     1      -3.588   5.532  -4.136  1.00  0.00     0.124 S 
ATOM     89  O   UNL     1      -3.737   6.615  -3.174  1.00  0.00    -0.237 OA
ATOM     90  O   UNL     1      -4.632   4.506  -4.120  1.00  0.00    -0.237 OA
ATOM     91  O   UNL     1      -2.238   4.989  -4.269  1.00  0.00    -0.744 OA
ENDBRANCH  84  88
ENDBRANCH  57  81
BRANCH  69  92
ATOM     92  C   UNL     1     -10.070   6.973 -13.210  1.00  0.00     0.023 A 
ATOM     93  C   UNL     1     -10.344   8.351 -13.169  1.00  0.00     0.031 A 
ATOM     94  C   UNL     1     -10.314   6.338 -14.450  1.00  0.00     0.131 A 
ATOM     95  C   UNL     1     -10.721   9.053 -14.330  1.00  0.00     0.055 A 
ATOM     96  C   UNL     1     -10.767   7.023 -15.583  1.00  0.00     0.041 A 
ATOM     97  F   UNL     1     -10.099   5.028 -14.633  1.00  0.00    -0.206 F 
ATOM     98  C   UNL     1     -10.953   8.394 -15.534  1.00  0.00     0.022 A 
BRANCH  95  99
ATOM     99  S   UNL     1     -10.831  10.859 -14.252  1.00  0.00     0.124 S 
ATOM    100  O   UNL     1     -11.757  11.075 -13.146  1.00  0.00    -0.237 OA
ATOM    101  O   UNL     1      -9.441  11.229 -13.996  1.00  0.00    -0.237 OA
ATOM    102  O   UNL     1     -11.338  11.232 -15.571  1.00  0.00    -0.744 OA
ENDBRANCH  95  99
ENDBRANCH  69  92
ENDBRANCH  43  44
ENDBRANCH  35  38
ENDBRANCH  33  34
ENDBRANCH   1  33
TORSDOF 16
