REMARK SMILES CCC[C@@H](CNC(=O)N1C[C@@H](C)[C@H](C(=O)OC)C1)C(=O)NCCCNC(=O)c1ccc(-c2c3nc(c(-c4cc(S(=O)(=O)[O-])ccc4F)c4ccc([nH]4)c(-c4cc(S(=O)(=O)[O-])ccc4F)c4nc(c(-c5cc(S(=O)(=O)[O-])ccc5F)c5ccc2[nH]5)C=C4)C=C3)cc1
REMARK SMILES IDX 22 1 21 2 19 3 20 4 4 6 3 7 2 8 1 9 5 10 6 11 7 12 8 14 9 15
REMARK SMILES IDX 10 16 18 17 11 18 13 19 12 20 14 21 15 22 16 23 17 24 23 25
REMARK SMILES IDX 24 26 25 27 26 28 27 30 28 31 29 32 90 33 30 34 89 35 31 36
REMARK SMILES IDX 32 37 33 38 83 39 34 40 88 41 82 42 84 43 35 44 87 45 81 46
REMARK SMILES IDX 80 47 36 49 68 50 48 51 67 52 49 53 52 54 66 55 85 56 50 57
REMARK SMILES IDX 51 58 65 60 86 61 53 62 37 63 38 64 46 65 39 66 45 67 47 68
REMARK SMILES IDX 44 69 40 70 41 71 42 72 43 73 69 74 70 75 78 76 71 77 77 78
REMARK SMILES IDX 79 79 76 80 72 81 73 82 74 83 75 84 54 85 55 86 63 87 56 88
REMARK SMILES IDX 62 89 64 90 61 91 57 92 58 93 59 94 60 95
REMARK H PARENT 21 5 6 13 25 29 84 48 52 59
REMARK Flexibility Score: inf
ROOT
ATOM      1  C   UNL     1      -0.131  -4.800   2.358  1.00  0.00     0.117 C 
ENDROOT
BRANCH   1   2
ATOM      2  N   UNL     1       0.728  -3.861   3.056  1.00  0.00    -0.356 N 
ATOM      3  C   UNL     1       0.879  -2.521   2.933  1.00  0.00     0.224 C 
ATOM      4  O   UNL     1       1.612  -1.953   3.750  1.00  0.00    -0.275 OA
ATOM      5  H   UNL     1       1.304  -4.272   3.740  1.00  0.00     0.163 HD
BRANCH   3   6
ATOM      6  C   UNL     1       0.211  -1.703   1.837  1.00  0.00     0.097 C 
BRANCH   6   7
ATOM      7  C   UNL     1       0.600  -2.156   0.422  1.00  0.00     0.015 C 
BRANCH   7   8
ATOM      8  C   UNL     1       0.274  -1.163  -0.698  1.00  0.00    -0.003 C 
ATOM      9  C   UNL     1       0.884   0.218  -0.508  1.00  0.00     0.004 C 
ENDBRANCH   7   8
ENDBRANCH   6   7
BRANCH   6  10
ATOM     10  C   UNL     1      -1.262  -1.373   2.124  1.00  0.00     0.131 C 
BRANCH  10  11
ATOM     11  N   UNL     1      -2.226  -2.460   2.071  1.00  0.00    -0.337 N 
ATOM     12  C   UNL     1      -2.769  -3.172   3.098  1.00  0.00     0.317 C 
ATOM     13  H   UNL     1      -2.527  -2.717   1.170  1.00  0.00     0.165 HD
ATOM     14  O   UNL     1      -3.264  -4.272   2.865  1.00  0.00    -0.249 OA
BRANCH  12  15
ATOM     15  N   UNL     1      -2.638  -2.676   4.357  1.00  0.00    -0.324 N 
ATOM     16  C   UNL     1      -3.187  -1.411   4.783  1.00  0.00     0.125 C 
ATOM     17  C   UNL     1      -2.510  -3.538   5.515  1.00  0.00     0.137 C 
ATOM     18  C   UNL     1      -2.485  -1.162   6.112  1.00  0.00     0.021 C 
ATOM     19  C   UNL     1      -2.177  -2.580   6.661  1.00  0.00     0.123 C 
ATOM     20  C   UNL     1      -3.331  -0.323   7.056  1.00  0.00     0.010 C 
BRANCH  19  21
ATOM     21  C   UNL     1      -0.740  -2.643   7.144  1.00  0.00     0.310 C 
ATOM     22  O   UNL     1      -0.393  -2.165   8.220  1.00  0.00    -0.252 OA
BRANCH  21  23
ATOM     23  O   UNL     1       0.103  -3.218   6.251  1.00  0.00    -0.469 OA
ATOM     24  C   UNL     1       1.479  -3.207   6.641  1.00  0.00     0.282 C 
ENDBRANCH  21  23
ENDBRANCH  19  21
ENDBRANCH  12  15
ENDBRANCH  10  11
ENDBRANCH   6  10
ENDBRANCH   3   6
ENDBRANCH   1   2
BRANCH   1  25
ATOM     25  C   UNL     1       0.627  -6.005   1.832  1.00  0.00     0.042 C 
BRANCH  25  26
ATOM     26  C   UNL     1       1.067  -6.950   2.942  1.00  0.00     0.118 C 
BRANCH  26  27
ATOM     27  N   UNL     1      -0.057  -7.590   3.620  1.00  0.00    -0.352 N 
ATOM     28  C   UNL     1      -0.498  -8.893   3.589  1.00  0.00     0.251 C 
ATOM     29  H   UNL     1      -0.586  -6.990   4.194  1.00  0.00     0.163 HD
ATOM     30  O   UNL     1      -1.572  -9.184   4.096  1.00  0.00    -0.269 OA
BRANCH  28  31
ATOM     31  C   UNL     1       0.311  -9.927   2.910  1.00  0.00     0.039 A 
ATOM     32  C   UNL     1      -0.323 -10.838   2.062  1.00  0.00     0.014 A 
ATOM     33  C   UNL     1       1.694  -9.978   3.087  1.00  0.00     0.014 A 
ATOM     34  C   UNL     1       0.446 -11.728   1.309  1.00  0.00     0.010 A 
ATOM     35  C   UNL     1       2.463 -10.788   2.261  1.00  0.00     0.010 A 
ATOM     36  C   UNL     1       1.849 -11.665   1.355  1.00  0.00    -0.014 A 
BRANCH  36  37
ATOM     37  C   UNL     1       2.696 -12.482   0.449  1.00  0.00     0.031 A 
ATOM     38  C   UNL     1       3.681 -13.465   1.016  1.00  0.00     0.074 A 
ATOM     39  C   UNL     1       2.640 -12.270  -0.881  1.00  0.00     0.049 A 
ATOM     40  N   UNL     1       4.577 -14.191   0.399  1.00  0.00    -0.248 NA
ATOM     41  C   UNL     1       3.682 -13.621   2.477  1.00  0.00     0.031 C 
ATOM     42  C   UNL     1       1.754 -11.312  -1.548  1.00  0.00     0.029 A 
ATOM     43  N   UNL     1       3.347 -12.837  -1.911  1.00  0.00    -0.354 N 
ATOM     44  C   UNL     1       5.257 -14.882   1.396  1.00  0.00     0.074 A 
ATOM     45  C   UNL     1       4.719 -14.423   2.660  1.00  0.00     0.031 C 
ATOM     46  C   UNL     1       1.942 -11.388  -2.874  1.00  0.00     0.029 A 
ATOM     47  C   UNL     1       3.002 -12.351  -3.151  1.00  0.00     0.049 A 
ATOM     48  H   UNL     1       4.036 -13.526  -1.776  1.00  0.00     0.167 HD
ATOM     49  C   UNL     1       6.219 -15.830   1.269  1.00  0.00     0.034 A 
ATOM     50  C   UNL     1       3.494 -12.637  -4.372  1.00  0.00     0.034 A 
ATOM     51  C   UNL     1       6.742 -16.269  -0.002  1.00  0.00     0.049 A 
ATOM     52  C   UNL     1       4.609 -13.642  -4.489  1.00  0.00     0.074 A 
ATOM     53  C   UNL     1       7.671 -17.263  -0.257  1.00  0.00     0.029 A 
ATOM     54  N   UNL     1       6.395 -15.728  -1.235  1.00  0.00    -0.354 N 
ATOM     55  N   UNL     1       5.203 -14.331  -3.541  1.00  0.00    -0.248 NA
ATOM     56  C   UNL     1       5.120 -13.907  -5.839  1.00  0.00     0.031 C 
ATOM     57  C   UNL     1       7.946 -17.265  -1.629  1.00  0.00     0.029 A 
ATOM     58  C   UNL     1       7.128 -16.332  -2.247  1.00  0.00     0.049 A 
ATOM     59  H   UNL     1       5.727 -15.018  -1.371  1.00  0.00     0.167 HD
ATOM     60  C   UNL     1       6.145 -15.128  -4.185  1.00  0.00     0.074 A 
ATOM     61  C   UNL     1       6.027 -14.844  -5.602  1.00  0.00     0.031 C 
ATOM     62  C   UNL     1       7.023 -16.017  -3.654  1.00  0.00     0.034 A 
BRANCH  49  63
ATOM     63  C   UNL     1       6.778 -16.419   2.545  1.00  0.00     0.023 A 
ATOM     64  C   UNL     1       5.955 -17.085   3.471  1.00  0.00     0.031 A 
ATOM     65  C   UNL     1       8.135 -16.258   2.874  1.00  0.00     0.131 A 
ATOM     66  C   UNL     1       6.467 -17.464   4.721  1.00  0.00     0.055 A 
ATOM     67  C   UNL     1       8.662 -16.729   4.080  1.00  0.00     0.041 A 
ATOM     68  F   UNL     1       8.970 -15.615   2.043  1.00  0.00    -0.206 F 
ATOM     69  C   UNL     1       7.822 -17.315   5.022  1.00  0.00     0.022 A 
BRANCH  66  70
ATOM     70  S   UNL     1       5.298 -17.968   6.014  1.00  0.00     0.124 S 
ATOM     71  O   UNL     1       4.407 -16.811   6.072  1.00  0.00    -0.237 OA
ATOM     72  O   UNL     1       4.724 -19.189   5.461  1.00  0.00    -0.237 OA
ATOM     73  O   UNL     1       6.145 -18.151   7.190  1.00  0.00    -0.744 OA
ENDBRANCH  66  70
ENDBRANCH  49  63
BRANCH  50  74
ATOM     74  C   UNL     1       2.940 -11.962  -5.580  1.00  0.00     0.023 A 
ATOM     75  C   UNL     1       2.243 -12.694  -6.553  1.00  0.00     0.031 A 
ATOM     76  C   UNL     1       3.104 -10.580  -5.783  1.00  0.00     0.131 A 
ATOM     77  C   UNL     1       1.760 -12.047  -7.701  1.00  0.00     0.055 A 
ATOM     78  C   UNL     1       2.580  -9.933  -6.903  1.00  0.00     0.041 A 
ATOM     79  F   UNL     1       3.759  -9.834  -4.880  1.00  0.00    -0.206 F 
ATOM     80  C   UNL     1       1.910 -10.669  -7.875  1.00  0.00     0.022 A 
BRANCH  77  81
ATOM     81  S   UNL     1       0.979 -13.046  -8.997  1.00  0.00     0.124 S 
ATOM     82  O   UNL     1       2.064 -13.946  -9.373  1.00  0.00    -0.237 OA
ATOM     83  O   UNL     1      -0.139 -13.652  -8.282  1.00  0.00    -0.237 OA
ATOM     84  O   UNL     1       0.607 -12.060 -10.009  1.00  0.00    -0.744 OA
ENDBRANCH  77  81
ENDBRANCH  50  74
BRANCH  62  85
ATOM     85  C   UNL     1       7.910 -16.763  -4.621  1.00  0.00     0.023 A 
ATOM     86  C   UNL     1       8.904 -16.105  -5.367  1.00  0.00     0.031 A 
ATOM     87  C   UNL     1       7.756 -18.149  -4.802  1.00  0.00     0.131 A 
ATOM     88  C   UNL     1       9.672 -16.825  -6.295  1.00  0.00     0.055 A 
ATOM     89  C   UNL     1       8.566 -18.870  -5.680  1.00  0.00     0.041 A 
ATOM     90  F   UNL     1       6.819 -18.827  -4.120  1.00  0.00    -0.206 F 
ATOM     91  C   UNL     1       9.523 -18.206  -6.442  1.00  0.00     0.022 A 
BRANCH  88  92
ATOM     92  S   UNL     1      10.813 -15.916  -7.373  1.00  0.00     0.124 S 
ATOM     93  O   UNL     1       9.909 -15.015  -8.081  1.00  0.00    -0.237 OA
ATOM     94  O   UNL     1      11.717 -15.288  -6.415  1.00  0.00    -0.237 OA
ATOM     95  O   UNL     1      11.415 -16.963  -8.197  1.00  0.00    -0.744 OA
ENDBRANCH  88  92
ENDBRANCH  62  85
ENDBRANCH  36  37
ENDBRANCH  28  31
ENDBRANCH  26  27
ENDBRANCH  25  26
ENDBRANCH   1  25
TORSDOF 20
