REMARK SMILES O=C(CSc1nnnn1-c1ccc(C(=O)NCCCNC(=O)c2ccc(-c3c4nc(c(-c5cc(S(=O)(=O)[O-])ccc5F)c5ccc([nH]5)c(-c5cc(S(=O)(=O)[O-])ccc5F)c5nc(c(-c6cc(S(=O)(=O)[O-])ccc6F)c6ccc3[nH]6)C=C5)C=C4)cc2)cc1)Nc1nc(-c2ccccc2)cs1
REMARK SMILES IDX 14 1 15 2 16 3 13 5 10 6 11 7 87 8 12 9 86 10 9 11 5 12 6 13
REMARK SMILES IDX 7 14 8 15 4 16 3 17 2 18 1 19 88 20 89 22 90 23 99 24 91 25
REMARK SMILES IDX 98 26 92 27 93 28 97 29 94 30 96 31 95 32 17 33 18 34 19 35
REMARK SMILES IDX 20 36 21 37 22 39 23 40 24 41 85 42 25 43 84 44 26 45 27 46
REMARK SMILES IDX 28 47 78 48 29 49 83 50 77 51 79 52 30 53 82 54 76 55 75 56
REMARK SMILES IDX 31 58 63 59 43 60 62 61 44 62 47 63 61 64 80 65 45 66 46 67
REMARK SMILES IDX 60 69 81 70 48 71 32 72 33 73 41 74 34 75 40 76 42 77 39 78
REMARK SMILES IDX 35 79 36 80 37 81 38 82 64 83 65 84 73 85 66 86 72 87 74 88
REMARK SMILES IDX 71 89 67 90 68 91 69 92 70 93 49 94 50 95 58 96 51 97 57 98
REMARK SMILES IDX 59 99 56 100 52 101 53 102 54 103 55 104
REMARK H PARENT 16 4 88 21 20 38 79 57 47 68
REMARK Flexibility Score: inf
ROOT
ATOM      1  C   UNL     1      -2.064   1.128   0.672  1.00  0.00     0.251 C 
ATOM      2  O   UNL     1      -3.101   1.132   1.332  1.00  0.00    -0.269 OA
ATOM      3  N   UNL     1      -1.708   2.262  -0.014  1.00  0.00    -0.352 N 
ATOM      4  H   UNL     1      -2.383   2.979  -0.000  1.00  0.00     0.163 HD
ENDROOT
BRANCH   1   5
ATOM      5  C   UNL     1      -1.191  -0.076   0.719  1.00  0.00     0.039 A 
ATOM      6  C   UNL     1       0.602  -2.192   1.047  1.00  0.00     0.069 A 
ATOM      7  C   UNL     1      -0.260  -1.852   2.094  1.00  0.00     0.029 A 
ATOM      8  C   UNL     1       0.469  -1.588  -0.203  1.00  0.00     0.029 A 
ATOM      9  C   UNL     1      -1.135  -0.776   1.933  1.00  0.00     0.016 A 
ATOM     10  C   UNL     1      -0.449  -0.546  -0.368  1.00  0.00     0.016 A 
BRANCH   6  11
ATOM     11  N   UNL     1       1.590  -3.163   1.269  1.00  0.00    -0.187 N 
ATOM     12  C   UNL     1       2.943  -3.205   0.970  1.00  0.00     0.214 A 
ATOM     13  N   UNL     1       3.362  -4.441   1.158  1.00  0.00    -0.101 NA
ATOM     14  N   UNL     1       2.307  -5.134   1.681  1.00  0.00    -0.022 NA
ATOM     15  N   UNL     1       1.252  -4.350   1.829  1.00  0.00    -0.039 NA
BRANCH  12  16
ATOM     16  S   UNL     1       4.082  -1.949   0.608  1.00  0.00    -0.074 SA
BRANCH  16  17
ATOM     17  C   UNL     1       3.348  -0.317   0.897  1.00  0.00     0.178 C 
BRANCH  17  18
ATOM     18  C   UNL     1       3.000   0.417  -0.406  1.00  0.00     0.236 C 
ATOM     19  O   UNL     1       2.497   1.536  -0.366  1.00  0.00    -0.274 OA
ATOM     20  N   UNL     1       3.325  -0.270  -1.549  1.00  0.00    -0.301 N 
ATOM     21  H   UNL     1       4.076  -0.904  -1.498  1.00  0.00     0.172 HD
BRANCH  20  22
ATOM     22  C   UNL     1       2.690  -0.143  -2.751  1.00  0.00     0.189 A 
ATOM     23  N   UNL     1       1.632   0.545  -3.088  1.00  0.00    -0.220 NA
ATOM     24  S   UNL     1       3.302  -1.224  -3.926  1.00  0.00    -0.105 S 
ATOM     25  C   UNL     1       1.253   0.198  -4.382  1.00  0.00     0.084 A 
ATOM     26  C   UNL     1       2.041  -0.760  -4.987  1.00  0.00     0.097 A 
BRANCH  25  27
ATOM     27  C   UNL     1       0.102   0.782  -5.052  1.00  0.00     0.001 A 
ATOM     28  C   UNL     1       0.166   2.089  -5.550  1.00  0.00     0.010 A 
ATOM     29  C   UNL     1      -1.088   0.053  -5.192  1.00  0.00     0.010 A 
ATOM     30  C   UNL     1      -0.946   2.663  -6.173  1.00  0.00     0.001 A 
ATOM     31  C   UNL     1      -2.200   0.632  -5.814  1.00  0.00     0.001 A 
ATOM     32  C   UNL     1      -2.129   1.937  -6.301  1.00  0.00     0.000 A 
ENDBRANCH  25  27
ENDBRANCH  20  22
ENDBRANCH  17  18
ENDBRANCH  16  17
ENDBRANCH  12  16
ENDBRANCH   6  11
ENDBRANCH   1   5
BRANCH   3  33
ATOM     33  C   UNL     1      -0.499   2.579  -0.757  1.00  0.00     0.118 C 
BRANCH  33  34
ATOM     34  C   UNL     1      -0.724   2.509  -2.261  1.00  0.00     0.042 C 
BRANCH  34  35
ATOM     35  C   UNL     1      -1.438   3.730  -2.795  1.00  0.00     0.118 C 
BRANCH  35  36
ATOM     36  N   UNL     1      -0.514   4.798  -3.188  1.00  0.00    -0.352 N 
ATOM     37  C   UNL     1      -0.791   5.903  -3.979  1.00  0.00     0.251 C 
ATOM     38  H   UNL     1       0.408   4.723  -2.852  1.00  0.00     0.163 HD
ATOM     39  O   UNL     1       0.107   6.513  -4.532  1.00  0.00    -0.269 OA
BRANCH  37  40
ATOM     40  C   UNL     1      -2.209   6.292  -4.159  1.00  0.00     0.039 A 
ATOM     41  C   UNL     1      -2.689   6.775  -5.376  1.00  0.00     0.014 A 
ATOM     42  C   UNL     1      -3.081   6.092  -3.093  1.00  0.00     0.014 A 
ATOM     43  C   UNL     1      -4.066   6.946  -5.527  1.00  0.00     0.010 A 
ATOM     44  C   UNL     1      -4.435   6.066  -3.304  1.00  0.00     0.010 A 
ATOM     45  C   UNL     1      -4.944   6.545  -4.499  1.00  0.00    -0.014 A 
BRANCH  45  46
ATOM     46  C   UNL     1      -6.391   6.440  -4.721  1.00  0.00     0.031 A 
ATOM     47  C   UNL     1      -6.707   5.723  -5.982  1.00  0.00     0.074 A 
ATOM     48  C   UNL     1      -7.338   6.776  -3.809  1.00  0.00     0.049 A 
ATOM     49  N   UNL     1      -7.031   6.262  -7.110  1.00  0.00    -0.248 NA
ATOM     50  C   UNL     1      -6.381   4.289  -6.100  1.00  0.00     0.031 C 
ATOM     51  C   UNL     1      -7.124   7.255  -2.436  1.00  0.00     0.029 A 
ATOM     52  N   UNL     1      -8.704   6.690  -3.869  1.00  0.00    -0.354 N 
ATOM     53  C   UNL     1      -7.302   5.201  -7.965  1.00  0.00     0.074 A 
ATOM     54  C   UNL     1      -6.625   4.070  -7.396  1.00  0.00     0.031 C 
ATOM     55  C   UNL     1      -8.278   7.195  -1.732  1.00  0.00     0.029 A 
ATOM     56  C   UNL     1      -9.359   6.858  -2.641  1.00  0.00     0.049 A 
ATOM     57  H   UNL     1      -9.188   6.523  -4.710  1.00  0.00     0.167 HD
ATOM     58  C   UNL     1      -8.351   5.293  -8.831  1.00  0.00     0.034 A 
ATOM     59  C   UNL     1     -10.696   6.788  -2.378  1.00  0.00     0.034 A 
ATOM     60  C   UNL     1      -8.813   6.667  -8.888  1.00  0.00     0.049 A 
ATOM     61  C   UNL     1     -11.379   7.084  -3.653  1.00  0.00     0.074 A 
ATOM     62  C   UNL     1      -8.319   7.869  -9.345  1.00  0.00     0.029 A 
ATOM     63  N   UNL     1      -9.811   6.955  -7.986  1.00  0.00    -0.354 N 
ATOM     64  N   UNL     1     -11.307   8.251  -4.231  1.00  0.00    -0.248 NA
ATOM     65  C   UNL     1     -11.786   5.987  -4.520  1.00  0.00     0.031 C 
ATOM     66  C   UNL     1      -8.880   8.869  -8.494  1.00  0.00     0.029 A 
ATOM     67  C   UNL     1      -9.769   8.268  -7.601  1.00  0.00     0.049 A 
ATOM     68  H   UNL     1     -10.470   6.302  -7.659  1.00  0.00     0.167 HD
ATOM     69  C   UNL     1     -11.193   7.961  -5.576  1.00  0.00     0.074 A 
ATOM     70  C   UNL     1     -11.681   6.591  -5.708  1.00  0.00     0.031 C 
ATOM     71  C   UNL     1     -10.417   8.738  -6.388  1.00  0.00     0.034 A 
BRANCH  58  72
ATOM     72  C   UNL     1      -9.301   4.157  -9.190  1.00  0.00     0.023 A 
ATOM     73  C   UNL     1     -10.427   4.500  -9.971  1.00  0.00     0.031 A 
ATOM     74  C   UNL     1      -9.355   2.885  -8.578  1.00  0.00     0.131 A 
ATOM     75  C   UNL     1     -11.565   3.677 -10.012  1.00  0.00     0.055 A 
ATOM     76  C   UNL     1     -10.474   2.048  -8.660  1.00  0.00     0.041 A 
ATOM     77  F   UNL     1      -8.377   2.403  -7.806  1.00  0.00    -0.206 F 
ATOM     78  C   UNL     1     -11.600   2.455  -9.352  1.00  0.00     0.022 A 
BRANCH  75  79
ATOM     79  S   UNL     1     -13.063   4.312 -10.809  1.00  0.00     0.124 S 
ATOM     80  O   UNL     1     -13.300   5.537 -10.055  1.00  0.00    -0.237 OA
ATOM     81  O   UNL     1     -12.621   4.475 -12.190  1.00  0.00    -0.237 OA
ATOM     82  O   UNL     1     -14.038   3.245 -10.591  1.00  0.00    -0.744 OA
ENDBRANCH  75  79
ENDBRANCH  58  72
BRANCH  59  83
ATOM     83  C   UNL     1     -11.413   6.264  -1.175  1.00  0.00     0.023 A 
ATOM     84  C   UNL     1     -12.752   6.593  -0.839  1.00  0.00     0.031 A 
ATOM     85  C   UNL     1     -10.844   5.173  -0.484  1.00  0.00     0.131 A 
ATOM     86  C   UNL     1     -13.458   5.832   0.131  1.00  0.00     0.055 A 
ATOM     87  C   UNL     1     -11.548   4.420   0.460  1.00  0.00     0.041 A 
ATOM     88  F   UNL     1      -9.605   4.744  -0.777  1.00  0.00    -0.206 F 
ATOM     89  C   UNL     1     -12.862   4.738   0.763  1.00  0.00     0.022 A 
BRANCH  86  90
ATOM     90  S   UNL     1     -15.203   6.196   0.546  1.00  0.00     0.124 S 
ATOM     91  O   UNL     1     -15.120   7.532   1.124  1.00  0.00    -0.237 OA
ATOM     92  O   UNL     1     -15.865   6.086  -0.748  1.00  0.00    -0.237 OA
ATOM     93  O   UNL     1     -15.557   5.141   1.500  1.00  0.00    -0.744 OA
ENDBRANCH  86  90
ENDBRANCH  59  83
BRANCH  71  94
ATOM     94  C   UNL     1     -10.143  10.156  -5.938  1.00  0.00     0.023 A 
ATOM     95  C   UNL     1      -9.454  10.537  -4.765  1.00  0.00     0.031 A 
ATOM     96  C   UNL     1     -10.588  11.176  -6.797  1.00  0.00     0.131 A 
ATOM     97  C   UNL     1      -9.245  11.904  -4.489  1.00  0.00     0.055 A 
ATOM     98  C   UNL     1     -10.356  12.523  -6.534  1.00  0.00     0.041 A 
ATOM     99  F   UNL     1     -11.242  10.874  -7.931  1.00  0.00    -0.206 F 
ATOM    100  C   UNL     1      -9.690  12.892  -5.374  1.00  0.00     0.022 A 
BRANCH  97 101
ATOM    101  S   UNL     1      -8.420  12.433  -2.951  1.00  0.00     0.124 S 
ATOM    102  O   UNL     1      -9.098  11.663  -1.915  1.00  0.00    -0.237 OA
ATOM    103  O   UNL     1      -7.026  12.077  -3.201  1.00  0.00    -0.237 OA
ATOM    104  O   UNL     1      -8.678  13.874  -2.905  1.00  0.00    -0.744 OA
ENDBRANCH  97 101
ENDBRANCH  71  94
ENDBRANCH  45  46
ENDBRANCH  37  40
ENDBRANCH  35  36
ENDBRANCH  34  35
ENDBRANCH  33  34
ENDBRANCH   3  33
TORSDOF 19
