REMARK SMILES COc1ccc(CC(=O)N[C@H](C)C(=O)NCCCNC(=O)c2ccc(-c3c4nc(c(-c5cc(S(=O)(=O)[O-])ccc5F)c5ccc([nH]5)c(-c5cc(S(=O)(=O)[O-])ccc5F)c5nc(c(-c6cc(S(=O)(=O)[O-])ccc6F)c6ccc3[nH]6)C=C5)C=C4)cc2)cc1F
REMARK SMILES IDX 16 1 15 2 13 3 14 4 11 6 12 7 10 8 8 9 9 10 7 12 6 13 3 14
REMARK SMILES IDX 4 15 86 16 5 17 85 18 87 19 2 20 1 21 17 22 18 23 19 24
REMARK SMILES IDX 20 25 21 27 22 28 23 29 84 30 24 31 83 32 25 33 26 34 27 35
REMARK SMILES IDX 77 36 28 37 82 38 76 39 78 40 29 41 81 42 75 43 74 44 30 46
REMARK SMILES IDX 62 47 42 48 61 49 43 50 46 51 60 52 79 53 44 54 45 55 59 57
REMARK SMILES IDX 80 58 47 59 31 60 32 61 40 62 33 63 39 64 41 65 38 66 34 67
REMARK SMILES IDX 35 68 36 69 37 70 63 71 64 72 72 73 65 74 71 75 73 76 70 77
REMARK SMILES IDX 66 78 67 79 68 80 69 81 48 82 49 83 57 84 50 85 56 86 58 87
REMARK SMILES IDX 55 88 51 89 52 90 53 91 54 92
REMARK H PARENT 15 5 10 11 19 26 78 45 46 56
REMARK Flexibility Score: inf
ROOT
ATOM      1  C   UNL     1       3.711  -6.470   6.135  1.00  0.00     0.117 C 
ENDROOT
BRANCH   1   2
ATOM      2  N   UNL     1       4.733  -6.290   5.117  1.00  0.00    -0.354 N 
ATOM      3  C   UNL     1       4.616  -5.982   3.794  1.00  0.00     0.242 C 
ATOM      4  O   UNL     1       5.620  -6.086   3.086  1.00  0.00    -0.273 OA
ATOM      5  H   UNL     1       5.658  -6.410   5.434  1.00  0.00     0.163 HD
BRANCH   3   6
ATOM      6  C   UNL     1       3.257  -5.574   3.196  1.00  0.00     0.168 C 
ATOM      7  C   UNL     1       2.314  -6.771   3.126  1.00  0.00     0.041 C 
BRANCH   6   8
ATOM      8  N   UNL     1       2.720  -4.437   3.950  1.00  0.00    -0.344 N 
ATOM      9  C   UNL     1       1.716  -3.567   3.659  1.00  0.00     0.225 C 
ATOM     10  O   UNL     1       1.505  -2.641   4.445  1.00  0.00    -0.275 OA
ATOM     11  H   UNL     1       3.163  -4.275   4.814  1.00  0.00     0.164 HD
BRANCH   9  12
ATOM     12  C   UNL     1       0.869  -3.747   2.413  1.00  0.00     0.135 C 
BRANCH  12  13
ATOM     13  C   UNL     1       1.650  -3.604   1.130  1.00  0.00    -0.036 A 
ATOM     14  C   UNL     1       3.250  -3.433  -1.183  1.00  0.00     0.154 A 
ATOM     15  C   UNL     1       3.270  -2.412  -0.230  1.00  0.00     0.050 A 
ATOM     16  C   UNL     1       2.415  -4.532  -0.975  1.00  0.00     0.165 A 
ATOM     17  C   UNL     1       2.466  -2.486   0.910  1.00  0.00     0.008 A 
ATOM     18  C   UNL     1       1.609  -4.613   0.159  1.00  0.00     0.047 A 
ATOM     19  F   UNL     1       2.386  -5.563  -1.830  1.00  0.00    -0.203 F 
BRANCH  14  20
ATOM     20  O   UNL     1       4.106  -3.252  -2.235  1.00  0.00    -0.494 OA
ATOM     21  C   UNL     1       3.714  -3.874  -3.452  1.00  0.00     0.278 C 
ENDBRANCH  14  20
ENDBRANCH  12  13
ENDBRANCH   9  12
ENDBRANCH   6   8
ENDBRANCH   3   6
ENDBRANCH   1   2
BRANCH   1  22
ATOM     22  C   UNL     1       3.453  -7.943   6.423  1.00  0.00     0.042 C 
BRANCH  22  23
ATOM     23  C   UNL     1       4.653  -8.669   7.020  1.00  0.00     0.118 C 
BRANCH  23  24
ATOM     24  N   UNL     1       5.071  -8.094   8.291  1.00  0.00    -0.352 N 
ATOM     25  C   UNL     1       5.091  -8.647   9.545  1.00  0.00     0.251 C 
ATOM     26  H   UNL     1       5.387  -7.163   8.242  1.00  0.00     0.163 HD
ATOM     27  O   UNL     1       5.260  -7.915  10.521  1.00  0.00    -0.269 OA
BRANCH  25  28
ATOM     28  C   UNL     1       4.897 -10.100   9.727  1.00  0.00     0.039 A 
ATOM     29  C   UNL     1       4.110 -10.550  10.790  1.00  0.00     0.014 A 
ATOM     30  C   UNL     1       5.505 -11.020   8.868  1.00  0.00     0.014 A 
ATOM     31  C   UNL     1       3.880 -11.918  10.949  1.00  0.00     0.010 A 
ATOM     32  C   UNL     1       5.206 -12.375   8.978  1.00  0.00     0.010 A 
ATOM     33  C   UNL     1       4.393 -12.839  10.021  1.00  0.00    -0.014 A 
BRANCH  33  34
ATOM     34  C   UNL     1       4.089 -14.290  10.126  1.00  0.00     0.031 A 
ATOM     35  C   UNL     1       5.199 -15.280  10.354  1.00  0.00     0.074 A 
ATOM     36  C   UNL     1       2.820 -14.717   9.969  1.00  0.00     0.049 A 
ATOM     37  N   UNL     1       5.142 -16.586  10.394  1.00  0.00    -0.248 NA
ATOM     38  C   UNL     1       6.553 -14.733  10.538  1.00  0.00     0.031 C 
ATOM     39  C   UNL     1       1.663 -13.853   9.720  1.00  0.00     0.029 A 
ATOM     40  N   UNL     1       2.288 -15.981   9.997  1.00  0.00    -0.354 N 
ATOM     41  C   UNL     1       6.447 -17.017  10.600  1.00  0.00     0.074 A 
ATOM     42  C   UNL     1       7.283 -15.836  10.621  1.00  0.00     0.031 C 
ATOM     43  C   UNL     1       0.555 -14.609   9.657  1.00  0.00     0.029 A 
ATOM     44  C   UNL     1       0.925 -16.013   9.806  1.00  0.00     0.049 A 
ATOM     45  H   UNL     1       2.830 -16.791  10.140  1.00  0.00     0.167 HD
ATOM     46  C   UNL     1       6.902 -18.280  10.780  1.00  0.00     0.034 A 
ATOM     47  C   UNL     1       0.070 -17.053   9.746  1.00  0.00     0.034 A 
ATOM     48  C   UNL     1       6.057 -19.446  10.781  1.00  0.00     0.049 A 
ATOM     49  C   UNL     1       0.606 -18.450   9.907  1.00  0.00     0.074 A 
ATOM     50  C   UNL     1       6.415 -20.764  11.002  1.00  0.00     0.029 A 
ATOM     51  N   UNL     1       4.688 -19.438  10.550  1.00  0.00    -0.354 N 
ATOM     52  N   UNL     1       1.844 -18.837  10.109  1.00  0.00    -0.248 NA
ATOM     53  C   UNL     1      -0.365 -19.550   9.829  1.00  0.00     0.031 C 
ATOM     54  C   UNL     1       5.278 -21.559  10.840  1.00  0.00     0.029 A 
ATOM     55  C   UNL     1       4.194 -20.732  10.592  1.00  0.00     0.049 A 
ATOM     56  H   UNL     1       4.148 -18.632  10.382  1.00  0.00     0.167 HD
ATOM     57  C   UNL     1       1.796 -20.224  10.203  1.00  0.00     0.074 A 
ATOM     58  C   UNL     1       0.409 -20.607  10.041  1.00  0.00     0.031 C 
ATOM     59  C   UNL     1       2.811 -21.100  10.413  1.00  0.00     0.034 A 
BRANCH  46  60
ATOM     60  C   UNL     1       8.383 -18.472  10.981  1.00  0.00     0.023 A 
ATOM     61  C   UNL     1       9.031 -18.014  12.140  1.00  0.00     0.031 A 
ATOM     62  C   UNL     1       9.147 -19.155  10.019  1.00  0.00     0.131 A 
ATOM     63  C   UNL     1      10.412 -18.211  12.291  1.00  0.00     0.055 A 
ATOM     64  C   UNL     1      10.508 -19.404  10.204  1.00  0.00     0.041 A 
ATOM     65  F   UNL     1       8.581 -19.597   8.886  1.00  0.00    -0.206 F 
ATOM     66  C   UNL     1      11.149 -18.925  11.343  1.00  0.00     0.022 A 
BRANCH  63  67
ATOM     67  S   UNL     1      11.247 -17.456  13.712  1.00  0.00     0.124 S 
ATOM     68  O   UNL     1      11.061 -16.033  13.440  1.00  0.00    -0.237 OA
ATOM     69  O   UNL     1      10.499 -17.993  14.842  1.00  0.00    -0.237 OA
ATOM     70  O   UNL     1      12.624 -17.933  13.593  1.00  0.00    -0.744 OA
ENDBRANCH  63  67
ENDBRANCH  46  60
BRANCH  47  71
ATOM     71  C   UNL     1      -1.381 -16.809   9.514  1.00  0.00     0.023 A 
ATOM     72  C   UNL     1      -2.324 -17.050  10.524  1.00  0.00     0.031 A 
ATOM     73  C   UNL     1      -1.842 -16.318   8.279  1.00  0.00     0.131 A 
ATOM     74  C   UNL     1      -3.686 -16.817  10.277  1.00  0.00     0.055 A 
ATOM     75  C   UNL     1      -3.193 -16.050   8.052  1.00  0.00     0.041 A 
ATOM     76  F   UNL     1      -0.977 -16.061   7.285  1.00  0.00    -0.206 F 
ATOM     77  C   UNL     1      -4.125 -16.306   9.053  1.00  0.00     0.022 A 
BRANCH  74  78
ATOM     78  S   UNL     1      -4.888 -17.216  11.575  1.00  0.00     0.124 S 
ATOM     79  O   UNL     1      -4.737 -18.663  11.684  1.00  0.00    -0.237 OA
ATOM     80  O   UNL     1      -4.393 -16.431  12.701  1.00  0.00    -0.237 OA
ATOM     81  O   UNL     1      -6.158 -16.761  11.013  1.00  0.00    -0.744 OA
ENDBRANCH  74  78
ENDBRANCH  47  71
BRANCH  59  82
ATOM     82  C   UNL     1       2.462 -22.562  10.505  1.00  0.00     0.023 A 
ATOM     83  C   UNL     1       2.075 -23.298   9.373  1.00  0.00     0.031 A 
ATOM     84  C   UNL     1       2.580 -23.239  11.732  1.00  0.00     0.131 A 
ATOM     85  C   UNL     1       1.796 -24.667   9.496  1.00  0.00     0.055 A 
ATOM     86  C   UNL     1       2.348 -24.610  11.839  1.00  0.00     0.041 A 
ATOM     87  F   UNL     1       2.950 -22.580  12.842  1.00  0.00    -0.206 F 
ATOM     88  C   UNL     1       1.949 -25.331  10.717  1.00  0.00     0.022 A 
BRANCH  85  89
ATOM     89  S   UNL     1       1.201 -25.569   8.040  1.00  0.00     0.124 S 
ATOM     90  O   UNL     1      -0.082 -24.921   7.787  1.00  0.00    -0.237 OA
ATOM     91  O   UNL     1       2.249 -25.313   7.058  1.00  0.00    -0.237 OA
ATOM     92  O   UNL     1       1.115 -26.953   8.506  1.00  0.00    -0.744 OA
ENDBRANCH  85  89
ENDBRANCH  59  82
ENDBRANCH  33  34
ENDBRANCH  25  28
ENDBRANCH  23  24
ENDBRANCH  22  23
ENDBRANCH   1  22
TORSDOF 17
