REMARK SMILES Cc1nc(Nc2ccc(F)cc2)nc(OCC(=O)NCCCNC(=O)c2ccc(-c3c4nc(c(-c5cc(S(=O)(=O)[O-])ccc5F)c5ccc([nH]5)c(-c5cc(S(=O)(=O)[O-])ccc5F)c5nc(c(-c6cc(S(=O)(=O)[O-])ccc6F)c6ccc3[nH]6)C=C5)C=C4)cc2)c1CCO
REMARK SMILES IDX 20 1 19 2 17 3 18 4 16 6 15 7 14 8 1 9 2 10 3 11 89 12 4 13
REMARK SMILES IDX 13 14 90 15 91 16 92 17 5 19 6 21 7 22 12 23 8 24 11 25 9 26
REMARK SMILES IDX 10 27 21 28 22 29 23 30 24 31 25 33 26 34 27 35 88 36 28 37
REMARK SMILES IDX 87 38 29 39 30 40 31 41 81 42 32 43 86 44 80 45 82 46 33 47
REMARK SMILES IDX 85 48 79 49 78 50 34 52 66 53 46 54 65 55 47 56 50 57 64 58
REMARK SMILES IDX 83 59 48 60 49 61 63 63 84 64 51 65 35 66 36 67 44 68 37 69
REMARK SMILES IDX 43 70 45 71 42 72 38 73 39 74 40 75 41 76 67 77 68 78 76 79
REMARK SMILES IDX 69 80 75 81 77 82 74 83 70 84 71 85 72 86 73 87 52 88 53 89
REMARK SMILES IDX 61 90 54 91 60 92 62 93 59 94 55 95 56 96 57 97 58 98
REMARK H PARENT 19 5 92 18 5 20 23 32 82 51 50 62
REMARK Flexibility Score: inf
ROOT
ATOM      1  C   UNL     1       2.989  -3.421   2.866  1.00  0.00     0.117 C 
ENDROOT
BRANCH   1   2
ATOM      2  N   UNL     1       1.663  -3.977   2.700  1.00  0.00    -0.353 N 
ATOM      3  C   UNL     1       0.933  -4.111   1.564  1.00  0.00     0.258 C 
ATOM      4  O   UNL     1      -0.172  -4.651   1.654  1.00  0.00    -0.271 OA
ATOM      5  H   UNL     1       1.232  -4.301   3.524  1.00  0.00     0.163 HD
BRANCH   3   6
ATOM      6  C   UNL     1       1.526  -3.674   0.217  1.00  0.00     0.331 C 
BRANCH   6   7
ATOM      7  O   UNL     1       1.795  -2.321  -0.077  1.00  0.00    -0.467 OA
BRANCH   7   8
ATOM      8  C   UNL     1       0.870  -1.327  -0.029  1.00  0.00     0.222 A 
ATOM      9  C   UNL     1      -2.677  -0.047  -0.065  1.00  0.00     0.067 C 
ATOM     10  C   UNL     1      -1.187  -0.214  -0.005  1.00  0.00     0.050 A 
ATOM     11  N   UNL     1      -0.550   0.954   0.181  1.00  0.00    -0.218 NA
ATOM     12  C   UNL     1      -0.507  -1.413  -0.213  1.00  0.00     0.038 A 
ATOM     13  C   UNL     1       0.780   0.979   0.165  1.00  0.00     0.230 A 
ATOM     14  N   UNL     1       1.508  -0.137   0.102  1.00  0.00    -0.177 NA
BRANCH  12  15
ATOM     15  C   UNL     1      -1.245  -2.626  -0.714  1.00  0.00     0.071 C 
BRANCH  15  16
ATOM     16  C   UNL     1      -1.065  -2.920  -2.208  1.00  0.00     0.161 C 
BRANCH  16  17
ATOM     17  O   UNL     1       0.289  -3.086  -2.604  1.00  0.00    -0.396 OA
ATOM     18  H   UNL     1       0.776  -2.263  -2.442  1.00  0.00     0.210 HD
ENDBRANCH  16  17
ENDBRANCH  15  16
ENDBRANCH  12  15
BRANCH  13  19
ATOM     19  N   UNL     1       1.429   2.212   0.068  1.00  0.00    -0.324 N 
ATOM     20  H   UNL     1       2.410   2.186   0.003  1.00  0.00     0.170 HD
BRANCH  19  21
ATOM     21  C   UNL     1       0.835   3.483   0.054  1.00  0.00     0.041 A 
ATOM     22  C   UNL     1      -0.126   3.844   1.012  1.00  0.00     0.029 A 
ATOM     23  C   UNL     1       1.083   4.370  -1.005  1.00  0.00     0.029 A 
ATOM     24  C   UNL     1      -0.819   5.053   0.925  1.00  0.00     0.041 A 
ATOM     25  C   UNL     1       0.374   5.573  -1.109  1.00  0.00     0.041 A 
ATOM     26  C   UNL     1      -0.572   5.901  -0.144  1.00  0.00     0.123 A 
ATOM     27  F   UNL     1      -1.267   7.041  -0.260  1.00  0.00    -0.207 F 
ENDBRANCH  19  21
ENDBRANCH  13  19
ENDBRANCH   7   8
ENDBRANCH   6   7
ENDBRANCH   3   6
ENDBRANCH   1   2
BRANCH   1  28
ATOM     28  C   UNL     1       2.954  -2.063   3.549  1.00  0.00     0.042 C 
BRANCH  28  29
ATOM     29  C   UNL     1       2.182  -2.048   4.865  1.00  0.00     0.118 C 
BRANCH  29  30
ATOM     30  N   UNL     1       2.628  -3.080   5.795  1.00  0.00    -0.352 N 
ATOM     31  C   UNL     1       3.253  -2.971   7.010  1.00  0.00     0.251 C 
ATOM     32  H   UNL     1       2.450  -4.003   5.503  1.00  0.00     0.163 HD
ATOM     33  O   UNL     1       3.736  -3.978   7.529  1.00  0.00    -0.269 OA
BRANCH  31  34
ATOM     34  C   UNL     1       3.364  -1.660   7.677  1.00  0.00     0.039 A 
ATOM     35  C   UNL     1       4.563  -1.321   8.307  1.00  0.00     0.014 A 
ATOM     36  C   UNL     1       2.286  -0.771   7.695  1.00  0.00     0.014 A 
ATOM     37  C   UNL     1       4.700  -0.063   8.896  1.00  0.00     0.010 A 
ATOM     38  C   UNL     1       2.455   0.515   8.197  1.00  0.00     0.010 A 
ATOM     39  C   UNL     1       3.661   0.880   8.811  1.00  0.00    -0.014 A 
BRANCH  39  40
ATOM     40  C   UNL     1       3.817   2.244   9.377  1.00  0.00     0.031 A 
ATOM     41  C   UNL     1       2.922   2.700  10.498  1.00  0.00     0.074 A 
ATOM     42  C   UNL     1       4.743   3.076   8.861  1.00  0.00     0.049 A 
ATOM     43  N   UNL     1       2.880   3.863  11.095  1.00  0.00    -0.248 NA
ATOM     44  C   UNL     1       1.928   1.735  10.998  1.00  0.00     0.031 C 
ATOM     45  C   UNL     1       5.643   2.754   7.750  1.00  0.00     0.029 A 
ATOM     46  N   UNL     1       5.091   4.359   9.204  1.00  0.00    -0.354 N 
ATOM     47  C   UNL     1       1.859   3.770  12.033  1.00  0.00     0.074 A 
ATOM     48  C   UNL     1       1.263   2.462  11.884  1.00  0.00     0.031 C 
ATOM     49  C   UNL     1       6.470   3.789   7.538  1.00  0.00     0.029 A 
ATOM     50  C   UNL     1       6.130   4.869   8.460  1.00  0.00     0.049 A 
ATOM     51  H   UNL     1       4.639   4.867   9.916  1.00  0.00     0.167 HD
ATOM     52  C   UNL     1       1.475   4.683  12.956  1.00  0.00     0.034 A 
ATOM     53  C   UNL     1       6.738   6.071   8.509  1.00  0.00     0.034 A 
ATOM     54  C   UNL     1       2.097   5.970  13.115  1.00  0.00     0.049 A 
ATOM     55  C   UNL     1       6.266   7.083   9.519  1.00  0.00     0.074 A 
ATOM     56  C   UNL     1       1.820   6.945  14.056  1.00  0.00     0.029 A 
ATOM     57  N   UNL     1       3.119   6.463  12.316  1.00  0.00    -0.354 N 
ATOM     58  N   UNL     1       5.314   6.967  10.415  1.00  0.00    -0.248 NA
ATOM     59  C   UNL     1       6.943   8.387   9.526  1.00  0.00     0.031 C 
ATOM     60  C   UNL     1       2.627   8.052  13.787  1.00  0.00     0.029 A 
ATOM     61  C   UNL     1       3.459   7.742  12.722  1.00  0.00     0.049 A 
ATOM     62  H   UNL     1       3.540   5.975  11.572  1.00  0.00     0.167 HD
ATOM     63  C   UNL     1       5.290   8.175  11.103  1.00  0.00     0.074 A 
ATOM     64  C   UNL     1       6.326   9.007  10.524  1.00  0.00     0.031 C 
ATOM     65  C   UNL     1       4.487   8.559  12.126  1.00  0.00     0.034 A 
BRANCH  52  66
ATOM     66  C   UNL     1       0.331   4.326  13.867  1.00  0.00     0.023 A 
ATOM     67  C   UNL     1       0.455   3.318  14.838  1.00  0.00     0.031 A 
ATOM     68  C   UNL     1      -0.883   5.030  13.793  1.00  0.00     0.131 A 
ATOM     69  C   UNL     1      -0.630   3.017  15.674  1.00  0.00     0.055 A 
ATOM     70  C   UNL     1      -1.938   4.769  14.669  1.00  0.00     0.041 A 
ATOM     71  F   UNL     1      -1.060   5.990  12.872  1.00  0.00    -0.206 F 
ATOM     72  C   UNL     1      -1.816   3.753  15.614  1.00  0.00     0.022 A 
BRANCH  69  73
ATOM     73  S   UNL     1      -0.494   1.603  16.799  1.00  0.00     0.124 S 
ATOM     74  O   UNL     1      -0.387   0.489  15.860  1.00  0.00    -0.237 OA
ATOM     75  O   UNL     1       0.711   1.915  17.559  1.00  0.00    -0.237 OA
ATOM     76  O   UNL     1      -1.740   1.650  17.561  1.00  0.00    -0.744 OA
ENDBRANCH  69  73
ENDBRANCH  52  66
BRANCH  53  77
ATOM     77  C   UNL     1       7.853   6.381   7.572  1.00  0.00     0.023 A 
ATOM     78  C   UNL     1       9.167   6.537   8.038  1.00  0.00     0.031 A 
ATOM     79  C   UNL     1       7.621   6.513   6.191  1.00  0.00     0.131 A 
ATOM     80  C   UNL     1      10.198   6.836   7.134  1.00  0.00     0.055 A 
ATOM     81  C   UNL     1       8.656   6.771   5.290  1.00  0.00     0.041 A 
ATOM     82  F   UNL     1       6.383   6.364   5.694  1.00  0.00    -0.206 F 
ATOM     83  C   UNL     1       9.954   6.940   5.762  1.00  0.00     0.022 A 
BRANCH  80  84
ATOM     84  S   UNL     1      11.870   7.119   7.779  1.00  0.00     0.124 S 
ATOM     85  O   UNL     1      11.673   8.309   8.600  1.00  0.00    -0.237 OA
ATOM     86  O   UNL     1      12.134   5.878   8.498  1.00  0.00    -0.237 OA
ATOM     87  O   UNL     1      12.671   7.318   6.572  1.00  0.00    -0.744 OA
ENDBRANCH  80  84
ENDBRANCH  53  77
BRANCH  65  88
ATOM     88  C   UNL     1       4.699   9.928  12.710  1.00  0.00     0.023 A 
ATOM     89  C   UNL     1       4.290  11.084  12.026  1.00  0.00     0.031 A 
ATOM     90  C   UNL     1       5.229  10.068  14.005  1.00  0.00     0.131 A 
ATOM     91  C   UNL     1       4.425  12.338  12.640  1.00  0.00     0.055 A 
ATOM     92  C   UNL     1       5.321  11.312  14.627  1.00  0.00     0.041 A 
ATOM     93  F   UNL     1       5.626   8.990  14.699  1.00  0.00    -0.206 F 
ATOM     94  C   UNL     1       4.919  12.457  13.943  1.00  0.00     0.022 A 
BRANCH  91  95
ATOM     95  S   UNL     1       3.950  13.820  11.712  1.00  0.00     0.124 S 
ATOM     96  O   UNL     1       4.941  13.836  10.640  1.00  0.00    -0.237 OA
ATOM     97  O   UNL     1       2.580  13.517  11.309  1.00  0.00    -0.237 OA
ATOM     98  O   UNL     1       4.080  14.896  12.693  1.00  0.00    -0.744 OA
ENDBRANCH  91  95
ENDBRANCH  65  88
ENDBRANCH  39  40
ENDBRANCH  31  34
ENDBRANCH  29  30
ENDBRANCH  28  29
ENDBRANCH   1  28
TORSDOF 20
