REMARK SMILES CC1=C[C@H](C)[C@H](CN2C[C@@]34C=C[C@@H](O3)[C@H](C(=O)NCCCNC(=O)c3ccc(-c5c6nc(c(-c7cc(S(=O)(=O)[O-])ccc7F)c7ccc([nH]7)c(-c7cc(S(=O)(=O)[O-])ccc7F)c7nc(c(-c8cc(S(=O)(=O)[O-])ccc8F)c8ccc5[nH]8)C=C7)C=C6)cc3)[C@@H]4C2=O)[C@H](C)C1
REMARK SMILES IDX 20 1 19 2 18 3 16 4 17 5 15 7 8 8 9 9 89 10 10 11 88 12
REMARK SMILES IDX 90 13 11 14 14 15 12 16 13 17 7 18 6 19 1 20 2 21 3 22 93 23
REMARK SMILES IDX 4 24 91 25 5 26 92 27 21 28 22 29 23 30 24 32 25 33 26 34
REMARK SMILES IDX 87 35 27 36 86 37 28 38 29 39 30 40 80 41 31 42 85 43 79 44
REMARK SMILES IDX 81 45 32 46 84 47 78 48 77 49 33 51 65 52 45 53 64 54 46 55
REMARK SMILES IDX 49 56 63 57 82 58 47 59 48 60 62 62 83 63 50 64 34 65 35 66
REMARK SMILES IDX 43 67 36 68 42 69 44 70 41 71 37 72 38 73 39 74 40 75 66 76
REMARK SMILES IDX 67 77 75 78 68 79 74 80 76 81 73 82 69 83 70 84 71 85 72 86
REMARK SMILES IDX 51 87 52 88 60 89 53 90 59 91 61 92 58 93 54 94 55 95 56 96
REMARK SMILES IDX 57 97
REMARK H PARENT 18 6 22 31 81 50 49 61
REMARK Flexibility Score: inf
ROOT
ATOM      1  C   UNL     1      -4.406  -5.558   8.714  1.00  0.00     0.042 C 
ENDROOT
BRANCH   1   2
ATOM      2  C   UNL     1      -4.554  -4.607   7.533  1.00  0.00     0.117 C 
BRANCH   2   3
ATOM      3  N   UNL     1      -5.714  -3.746   7.660  1.00  0.00    -0.356 N 
ATOM      4  C   UNL     1      -5.961  -2.458   7.351  1.00  0.00     0.227 C 
ATOM      5  O   UNL     1      -7.125  -2.081   7.555  1.00  0.00    -0.275 OA
ATOM      6  H   UNL     1      -6.490  -4.201   8.059  1.00  0.00     0.163 HD
BRANCH   4   7
ATOM      7  C   UNL     1      -4.965  -1.425   6.876  1.00  0.00     0.127 C 
ATOM      8  N   UNL     1      -1.701  -2.369   5.232  1.00  0.00    -0.339 N 
ATOM      9  C   UNL     1      -1.318  -1.386   6.256  1.00  0.00     0.160 C 
ATOM     10  C   UNL     1      -3.055  -2.756   5.342  1.00  0.00     0.230 C 
ATOM     11  C   UNL     1      -2.589  -1.237   7.081  1.00  0.00     0.117 C 
ATOM     12  C   UNL     1      -3.692  -1.658   6.104  1.00  0.00     0.132 C 
ATOM     13  O   UNL     1      -3.623  -3.669   4.761  1.00  0.00    -0.274 OA
ATOM     14  C   UNL     1      -2.627  -1.850   8.454  1.00  0.00     0.009 C 
ATOM     15  O   UNL     1      -3.179   0.044   7.393  1.00  0.00    -0.360 OA
ATOM     16  C   UNL     1      -3.732  -1.378   9.045  1.00  0.00     0.004 C 
ATOM     17  C   UNL     1      -4.407  -0.529   8.016  1.00  0.00     0.155 C 
BRANCH   8  18
ATOM     18  C   UNL     1      -0.837  -2.929   4.205  1.00  0.00     0.124 C 
BRANCH  18  19
ATOM     19  C   UNL     1       0.072  -1.992   3.346  1.00  0.00     0.018 C 
ATOM     20  C   UNL     1       1.367   0.310  -0.279  1.00  0.00     0.039 C 
ATOM     21  C   UNL     1       0.951  -0.499   0.916  1.00  0.00    -0.077 C 
ATOM     22  C   UNL     1       1.014  -1.837   0.915  1.00  0.00    -0.025 C 
ATOM     23  C   UNL     1       0.478   0.258   2.116  1.00  0.00     0.034 C 
ATOM     24  C   UNL     1       0.576  -2.734   2.045  1.00  0.00     0.014 C 
ATOM     25  C   UNL     1      -0.427  -0.539   3.081  1.00  0.00    -0.005 C 
ATOM     26  C   UNL     1      -0.395  -3.755   1.430  1.00  0.00     0.012 C 
ATOM     27  C   UNL     1      -1.891  -0.423   2.661  1.00  0.00     0.008 C 
ENDBRANCH  18  19
ENDBRANCH   8  18
ENDBRANCH   4   7
ENDBRANCH   2   3
ENDBRANCH   1   2
BRANCH   1  28
ATOM     28  C   UNL     1      -5.506  -6.608   8.818  1.00  0.00     0.118 C 
BRANCH  28  29
ATOM     29  N   UNL     1      -5.438  -7.624   7.776  1.00  0.00    -0.352 N 
ATOM     30  C   UNL     1      -5.316  -8.992   7.891  1.00  0.00     0.251 C 
ATOM     31  H   UNL     1      -5.485  -7.283   6.853  1.00  0.00     0.163 HD
ATOM     32  O   UNL     1      -5.145  -9.677   6.887  1.00  0.00    -0.269 OA
BRANCH  30  33
ATOM     33  C   UNL     1      -5.346  -9.625   9.229  1.00  0.00     0.039 A 
ATOM     34  C   UNL     1      -4.381 -10.585   9.550  1.00  0.00     0.014 A 
ATOM     35  C   UNL     1      -6.297  -9.248  10.177  1.00  0.00     0.014 A 
ATOM     36  C   UNL     1      -4.313 -11.092  10.851  1.00  0.00     0.010 A 
ATOM     37  C   UNL     1      -6.167  -9.679  11.493  1.00  0.00     0.010 A 
ATOM     38  C   UNL     1      -5.172 -10.604  11.848  1.00  0.00    -0.014 A 
BRANCH  38  39
ATOM     39  C   UNL     1      -5.077 -11.052  13.264  1.00  0.00     0.031 A 
ATOM     40  C   UNL     1      -6.268 -11.705  13.915  1.00  0.00     0.074 A 
ATOM     41  C   UNL     1      -3.975 -10.781  13.991  1.00  0.00     0.049 A 
ATOM     42  N   UNL     1      -6.476 -11.990  15.175  1.00  0.00    -0.248 NA
ATOM     43  C   UNL     1      -7.396 -12.032  13.030  1.00  0.00     0.031 C 
ATOM     44  C   UNL     1      -2.770 -10.113  13.492  1.00  0.00     0.029 A 
ATOM     45  N   UNL     1      -3.695 -11.016  15.315  1.00  0.00    -0.354 N 
ATOM     46  C   UNL     1      -7.775 -12.485  15.240  1.00  0.00     0.074 A 
ATOM     47  C   UNL     1      -8.320 -12.406  13.901  1.00  0.00     0.031 C 
ATOM     48  C   UNL     1      -1.877 -10.011  14.490  1.00  0.00     0.029 A 
ATOM     49  C   UNL     1      -2.459 -10.559  15.711  1.00  0.00     0.049 A 
ATOM     50  H   UNL     1      -4.321 -11.470  15.924  1.00  0.00     0.167 HD
ATOM     51  C   UNL     1      -8.444 -12.980  16.312  1.00  0.00     0.034 A 
ATOM     52  C   UNL     1      -1.869 -10.565  16.922  1.00  0.00     0.034 A 
ATOM     53  C   UNL     1      -7.869 -13.097  17.628  1.00  0.00     0.049 A 
ATOM     54  C   UNL     1      -2.614 -11.154  18.093  1.00  0.00     0.074 A 
ATOM     55  C   UNL     1      -8.430 -13.635  18.774  1.00  0.00     0.029 A 
ATOM     56  N   UNL     1      -6.590 -12.676  17.974  1.00  0.00    -0.354 N 
ATOM     57  N   UNL     1      -3.834 -11.638  18.135  1.00  0.00    -0.248 NA
ATOM     58  C   UNL     1      -1.900 -11.207  19.375  1.00  0.00     0.031 C 
ATOM     59  C   UNL     1      -7.508 -13.502  19.819  1.00  0.00     0.029 A 
ATOM     60  C   UNL     1      -6.349 -12.934  19.314  1.00  0.00     0.049 A 
ATOM     61  H   UNL     1      -5.949 -12.255  17.357  1.00  0.00     0.167 HD
ATOM     62  C   UNL     1      -4.021 -12.081  19.441  1.00  0.00     0.074 A 
ATOM     63  C   UNL     1      -2.787 -11.813  20.151  1.00  0.00     0.031 C 
ATOM     64  C   UNL     1      -5.111 -12.662  20.002  1.00  0.00     0.034 A 
BRANCH  51  65
ATOM     65  C   UNL     1      -9.876 -13.408  16.093  1.00  0.00     0.023 A 
ATOM     66  C   UNL     1     -10.207 -14.448  15.207  1.00  0.00     0.031 A 
ATOM     67  C   UNL     1     -10.928 -12.732  16.735  1.00  0.00     0.131 A 
ATOM     68  C   UNL     1     -11.551 -14.715  14.911  1.00  0.00     0.055 A 
ATOM     69  C   UNL     1     -12.265 -13.065  16.505  1.00  0.00     0.041 A 
ATOM     70  F   UNL     1     -10.677 -11.720  17.580  1.00  0.00    -0.206 F 
ATOM     71  C   UNL     1     -12.584 -14.048  15.573  1.00  0.00     0.022 A 
BRANCH  68  72
ATOM     72  S   UNL     1     -11.924 -15.829  13.529  1.00  0.00     0.124 S 
ATOM     73  O   UNL     1     -11.295 -15.130  12.411  1.00  0.00    -0.237 OA
ATOM     74  O   UNL     1     -11.287 -17.073  13.945  1.00  0.00    -0.237 OA
ATOM     75  O   UNL     1     -13.385 -15.856  13.495  1.00  0.00    -0.744 OA
ENDBRANCH  68  72
ENDBRANCH  51  65
BRANCH  52  76
ATOM     76  C   UNL     1      -0.505  -9.993  17.102  1.00  0.00     0.023 A 
ATOM     77  C   UNL     1       0.586 -10.819  17.415  1.00  0.00     0.031 A 
ATOM     78  C   UNL     1      -0.278  -8.610  16.995  1.00  0.00     0.131 A 
ATOM     79  C   UNL     1       1.847 -10.251  17.654  1.00  0.00     0.055 A 
ATOM     80  C   UNL     1       0.988  -8.054  17.191  1.00  0.00     0.041 A 
ATOM     81  F   UNL     1      -1.286  -7.778  16.687  1.00  0.00    -0.206 F 
ATOM     82  C   UNL     1       2.057  -8.876  17.535  1.00  0.00     0.022 A 
BRANCH  79  83
ATOM     83  S   UNL     1       3.198 -11.334  18.195  1.00  0.00     0.124 S 
ATOM     84  O   UNL     1       2.646 -11.914  19.414  1.00  0.00    -0.237 OA
ATOM     85  O   UNL     1       3.333 -12.238  17.058  1.00  0.00    -0.237 OA
ATOM     86  O   UNL     1       4.315 -10.412  18.391  1.00  0.00    -0.744 OA
ENDBRANCH  79  83
ENDBRANCH  52  76
BRANCH  64  87
ATOM     87  C   UNL     1      -4.988 -13.100  21.438  1.00  0.00     0.023 A 
ATOM     88  C   UNL     1      -4.927 -12.173  22.492  1.00  0.00     0.031 A 
ATOM     89  C   UNL     1      -4.931 -14.470  21.750  1.00  0.00     0.131 A 
ATOM     90  C   UNL     1      -4.767 -12.628  23.809  1.00  0.00     0.055 A 
ATOM     91  C   UNL     1      -4.820 -14.917  23.066  1.00  0.00     0.041 A 
ATOM     92  F   UNL     1      -4.985 -15.394  20.777  1.00  0.00    -0.206 F 
ATOM     93  C   UNL     1      -4.727 -13.994  24.104  1.00  0.00     0.022 A 
BRANCH  90  94
ATOM     94  S   UNL     1      -4.546 -11.408  25.132  1.00  0.00     0.124 S 
ATOM     95  O   UNL     1      -3.333 -10.717  24.709  1.00  0.00    -0.237 OA
ATOM     96  O   UNL     1      -5.781 -10.633  25.053  1.00  0.00    -0.237 OA
ATOM     97  O   UNL     1      -4.406 -12.226  26.335  1.00  0.00    -0.744 OA
ENDBRANCH  90  94
ENDBRANCH  64  87
ENDBRANCH  38  39
ENDBRANCH  30  33
ENDBRANCH  28  29
ENDBRANCH   1  28
TORSDOF 15
