REMARK SMILES O=C(NCCCNC(=O)[C@@H](F)Oc1ccc(F)c(Cl)c1)c1ccc(-c2c3nc(c(-c4cc(S(=O)(=O)[O-])ccc4F)c4ccc([nH]4)c(-c4cc(S(=O)(=O)[O-])ccc4F)c4nc(c(-c5cc(S(=O)(=O)[O-])ccc5F)c5ccc2[nH]5)C=C4)C=C3)cc1
REMARK SMILES IDX 4 1 3 2 1 3 2 4 21 6 22 7 83 8 23 9 82 10 24 11 25 12 26 13
REMARK SMILES IDX 76 14 27 15 81 16 75 17 77 18 28 19 80 20 74 21 73 22 29 24
REMARK SMILES IDX 61 25 41 26 60 27 42 28 45 29 59 30 78 31 43 32 44 33 58 35
REMARK SMILES IDX 79 36 46 37 30 38 31 39 39 40 32 41 38 42 40 43 37 44 33 45
REMARK SMILES IDX 34 46 35 47 36 48 62 49 63 50 71 51 64 52 70 53 72 54 69 55
REMARK SMILES IDX 65 56 66 57 67 58 68 59 47 60 48 61 56 62 49 63 55 64 57 65
REMARK SMILES IDX 54 66 50 67 51 68 52 69 53 70 5 71 6 72 7 73 8 74 9 76 10 77
REMARK SMILES IDX 11 78 12 79 13 80 14 81 20 82 15 83 18 84 16 85 19 86 17 87
REMARK H PARENT 3 5 77 23 45 34 7 75
REMARK Flexibility Score: inf
ROOT
ATOM      1  C   UNL     1       4.916  -1.116   0.332  1.00  0.00     0.118 C 
ENDROOT
BRANCH   1   2
ATOM      2  N   UNL     1       3.458  -1.120   0.308  1.00  0.00    -0.352 N 
ATOM      3  O   UNL     1       1.365  -0.351   0.015  1.00  0.00    -0.269 OA
ATOM      4  C   UNL     1       2.562  -0.206  -0.201  1.00  0.00     0.251 C 
ATOM      5  H   UNL     1       3.044  -1.909   0.727  1.00  0.00     0.163 HD
BRANCH   4   6
ATOM      6  C   UNL     1       3.044   0.956  -0.982  1.00  0.00     0.039 A 
ATOM      7  C   UNL     1       4.039   0.805  -1.947  1.00  0.00     0.014 A 
ATOM      8  C   UNL     1       2.487   2.217  -0.749  1.00  0.00     0.014 A 
ATOM      9  C   UNL     1       4.617   1.927  -2.528  1.00  0.00     0.010 A 
ATOM     10  C   UNL     1       2.994   3.334  -1.421  1.00  0.00     0.010 A 
ATOM     11  C   UNL     1       4.095   3.205  -2.282  1.00  0.00    -0.014 A 
BRANCH  11  12
ATOM     12  C   UNL     1       4.700   4.387  -2.950  1.00  0.00     0.031 A 
ATOM     13  C   UNL     1       5.323   5.493  -2.142  1.00  0.00     0.074 A 
ATOM     14  C   UNL     1       4.702   4.450  -4.296  1.00  0.00     0.049 A 
ATOM     15  N   UNL     1       5.833   6.628  -2.547  1.00  0.00    -0.248 NA
ATOM     16  C   UNL     1       5.365   5.301  -0.686  1.00  0.00     0.031 C 
ATOM     17  C   UNL     1       4.142   3.429  -5.186  1.00  0.00     0.029 A 
ATOM     18  N   UNL     1       5.191   5.402  -5.153  1.00  0.00    -0.354 N 
ATOM     19  C   UNL     1       6.231   7.301  -1.396  1.00  0.00     0.074 A 
ATOM     20  C   UNL     1       5.871   6.455  -0.276  1.00  0.00     0.031 C 
ATOM     21  C   UNL     1       4.345   3.795  -6.459  1.00  0.00     0.029 A 
ATOM     22  C   UNL     1       4.969   5.112  -6.478  1.00  0.00     0.049 A 
ATOM     23  H   UNL     1       5.655   6.215  -4.848  1.00  0.00     0.167 HD
ATOM     24  C   UNL     1       6.843   8.508  -1.288  1.00  0.00     0.034 A 
ATOM     25  C   UNL     1       5.199   5.839  -7.588  1.00  0.00     0.034 A 
ATOM     26  C   UNL     1       7.194   9.331  -2.423  1.00  0.00     0.049 A 
ATOM     27  C   UNL     1       5.825   7.197  -7.447  1.00  0.00     0.074 A 
ATOM     28  C   UNL     1       7.834  10.559  -2.436  1.00  0.00     0.029 A 
ATOM     29  N   UNL     1       6.923   9.015  -3.750  1.00  0.00    -0.354 N 
ATOM     30  N   UNL     1       6.188   7.824  -6.352  1.00  0.00    -0.248 NA
ATOM     31  C   UNL     1       6.075   7.944  -8.684  1.00  0.00     0.031 C 
ATOM     32  C   UNL     1       7.886  11.015  -3.758  1.00  0.00     0.029 A 
ATOM     33  C   UNL     1       7.354  10.037  -4.583  1.00  0.00     0.049 A 
ATOM     34  H   UNL     1       6.488   8.186  -4.054  1.00  0.00     0.167 HD
ATOM     35  C   UNL     1       6.731   9.034  -6.771  1.00  0.00     0.074 A 
ATOM     36  C   UNL     1       6.652   9.043  -8.219  1.00  0.00     0.031 C 
ATOM     37  C   UNL     1       7.257  10.038  -6.026  1.00  0.00     0.034 A 
BRANCH  24  38
ATOM     38  C   UNL     1       7.109   9.028   0.107  1.00  0.00     0.023 A 
ATOM     39  C   UNL     1       7.953   8.351   1.006  1.00  0.00     0.031 A 
ATOM     40  C   UNL     1       6.467  10.193   0.566  1.00  0.00     0.131 A 
ATOM     41  C   UNL     1       8.057   8.787   2.337  1.00  0.00     0.055 A 
ATOM     42  C   UNL     1       6.645  10.673   1.866  1.00  0.00     0.041 A 
ATOM     43  F   UNL     1       5.634  10.875  -0.236  1.00  0.00    -0.206 F 
ATOM     44  C   UNL     1       7.427   9.957   2.767  1.00  0.00     0.022 A 
BRANCH  41  45
ATOM     45  S   UNL     1       8.879   7.705   3.539  1.00  0.00     0.124 S 
ATOM     46  O   UNL     1       8.139   6.456   3.371  1.00  0.00    -0.237 OA
ATOM     47  O   UNL     1      10.258   7.698   3.066  1.00  0.00    -0.237 OA
ATOM     48  O   UNL     1       8.659   8.381   4.816  1.00  0.00    -0.744 OA
ENDBRANCH  41  45
ENDBRANCH  24  38
BRANCH  25  49
ATOM     49  C   UNL     1       4.778   5.306  -8.913  1.00  0.00     0.023 A 
ATOM     50  C   UNL     1       5.719   4.943  -9.887  1.00  0.00     0.031 A 
ATOM     51  C   UNL     1       3.413   5.123  -9.208  1.00  0.00     0.131 A 
ATOM     52  C   UNL     1       5.282   4.429 -11.119  1.00  0.00     0.055 A 
ATOM     53  C   UNL     1       2.987   4.569 -10.415  1.00  0.00     0.041 A 
ATOM     54  F   UNL     1       2.475   5.445  -8.304  1.00  0.00    -0.206 F 
ATOM     55  C   UNL     1       3.925   4.225 -11.382  1.00  0.00     0.022 A 
BRANCH  52  56
ATOM     56  S   UNL     1       6.516   4.063 -12.396  1.00  0.00     0.124 S 
ATOM     57  O   UNL     1       7.119   5.374 -12.611  1.00  0.00    -0.237 OA
ATOM     58  O   UNL     1       7.356   3.072 -11.731  1.00  0.00    -0.237 OA
ATOM     59  O   UNL     1       5.716   3.553 -13.506  1.00  0.00    -0.744 OA
ENDBRANCH  52  56
ENDBRANCH  25  49
BRANCH  37  60
ATOM     60  C   UNL     1       7.842  11.210  -6.772  1.00  0.00     0.023 A 
ATOM     61  C   UNL     1       7.036  12.124  -7.472  1.00  0.00     0.031 A 
ATOM     62  C   UNL     1       9.233  11.414  -6.773  1.00  0.00     0.131 A 
ATOM     63  C   UNL     1       7.633  13.181  -8.177  1.00  0.00     0.055 A 
ATOM     64  C   UNL     1       9.816  12.496  -7.432  1.00  0.00     0.041 A 
ATOM     65  F   UNL     1      10.048  10.567  -6.123  1.00  0.00    -0.206 F 
ATOM     66  C   UNL     1       9.016  13.382  -8.146  1.00  0.00     0.022 A 
BRANCH  63  67
ATOM     67  S   UNL     1       6.584  14.259  -9.191  1.00  0.00     0.124 S 
ATOM     68  O   UNL     1       6.022  13.316 -10.153  1.00  0.00    -0.237 OA
ATOM     69  O   UNL     1       5.650  14.801  -8.210  1.00  0.00    -0.237 OA
ATOM     70  O   UNL     1       7.526  15.227  -9.750  1.00  0.00    -0.744 OA
ENDBRANCH  63  67
ENDBRANCH  37  60
ENDBRANCH  11  12
ENDBRANCH   4   6
ENDBRANCH   1   2
BRANCH   1  71
ATOM     71  C   UNL     1       5.507  -0.808   1.703  1.00  0.00     0.042 C 
BRANCH  71  72
ATOM     72  C   UNL     1       5.143  -1.814   2.782  1.00  0.00     0.118 C 
BRANCH  72  73
ATOM     73  N   UNL     1       5.593  -3.165   2.493  1.00  0.00    -0.350 N 
ATOM     74  C   UNL     1       5.762  -4.213   3.357  1.00  0.00     0.294 C 
ATOM     75  H   UNL     1       5.803  -3.352   1.550  1.00  0.00     0.163 HD
ATOM     76  O   UNL     1       5.959  -5.327   2.856  1.00  0.00    -0.267 OA
BRANCH  74  77
ATOM     77  C   UNL     1       5.659  -4.034   4.889  1.00  0.00     0.440 C 
ATOM     78  F   UNL     1       6.066  -2.813   5.344  1.00  0.00    -0.191 F 
BRANCH  77  79
ATOM     79  O   UNL     1       4.389  -4.359   5.465  1.00  0.00    -0.452 OA
BRANCH  79  80
ATOM     80  C   UNL     1       3.450  -3.388   5.261  1.00  0.00     0.125 A 
ATOM     81  C   UNL     1       2.499  -3.572   4.256  1.00  0.00     0.050 A 
ATOM     82  C   UNL     1       3.407  -2.265   6.089  1.00  0.00     0.070 A 
ATOM     83  C   UNL     1       1.541  -2.583   4.026  1.00  0.00     0.044 A 
ATOM     84  C   UNL     1       2.439  -1.287   5.865  1.00  0.00     0.080 A 
ATOM     85  C   UNL     1       1.520  -1.444   4.829  1.00  0.00     0.142 A 
ATOM     86  Cl  UNL     1       2.393   0.104   6.877  1.00  0.00    -0.081 Cl
ATOM     87  F   UNL     1       0.594  -0.505   4.587  1.00  0.00    -0.205 F 
ENDBRANCH  79  80
ENDBRANCH  77  79
ENDBRANCH  74  77
ENDBRANCH  72  73
ENDBRANCH  71  72
ENDBRANCH   1  71
TORSDOF 15
