REMARK SMILES Cc1nnc(SCC2=C(C(=O)NCCCNC(=O)c3ccc(-c4c5nc(c(-c6cc(S(=O)(=O)[O-])ccc6F)c6ccc([nH]6)c(-c6cc(S(=O)(=O)[O-])ccc6F)c6nc(c(-c7cc(S(=O)(=O)[O-])ccc7F)c7ccc4[nH]7)C=C6)C=C5)cc3)N3C(=O)[C@H](NC(=O)c4ccc(F)cc4F)[C@H]3SC2)s1
REMARK SMILES IDX 14 1 13 2 12 3 10 4 11 5 9 7 8 8 99 9 82 10 98 11 83 12
REMARK SMILES IDX 97 13 84 14 85 15 7 16 6 17 5 18 1 19 2 20 3 21 100 22 4 23
REMARK SMILES IDX 86 24 87 25 88 27 89 28 90 29 95 30 91 31 94 32 96 33 92 34
REMARK SMILES IDX 93 35 15 36 16 37 17 38 18 40 19 41 20 42 81 43 21 44 80 45
REMARK SMILES IDX 22 46 23 47 24 48 74 49 25 50 79 51 73 52 75 53 26 54 78 55
REMARK SMILES IDX 72 56 71 57 27 59 59 60 39 61 58 62 40 63 43 64 57 65 76 66
REMARK SMILES IDX 41 67 42 68 56 70 77 71 44 72 28 73 29 74 37 75 30 76 36 77
REMARK SMILES IDX 38 78 35 79 31 80 32 81 33 82 34 83 60 84 61 85 69 86 62 87
REMARK SMILES IDX 68 88 70 89 67 90 63 91 64 92 65 93 66 94 45 95 46 96 54 97
REMARK SMILES IDX 47 98 53 99 55 100 52 101 48 102 49 103 50 104 51 105
REMARK H PARENT 12 6 86 26 16 39 75 58 43 69
REMARK Flexibility Score: inf
ROOT
ATOM      1  C   UNL     1       4.668  -1.173  -2.497  1.00  0.00     0.042 C 
ENDROOT
BRANCH   1   2
ATOM      2  C   UNL     1       3.302  -1.548  -1.938  1.00  0.00     0.118 C 
BRANCH   2   3
ATOM      3  N   UNL     1       3.314  -2.803  -1.228  1.00  0.00    -0.351 N 
ATOM      4  C   UNL     1       3.397  -3.251   0.039  1.00  0.00     0.268 C 
ATOM      5  O   UNL     1       2.874  -4.371   0.132  1.00  0.00    -0.268 OA
ATOM      6  H   UNL     1       3.240  -3.556  -1.856  1.00  0.00     0.163 HD
BRANCH   4   7
ATOM      7  C   UNL     1       4.027  -2.628   1.302  1.00  0.00     0.111 C 
ATOM      8  C   UNL     1       4.465  -1.361   1.608  1.00  0.00    -0.020 C 
ATOM      9  C   UNL     1       5.142  -0.957   2.939  1.00  0.00     0.106 C 
ATOM     10  N   UNL     1       4.047  -3.527   2.360  1.00  0.00    -0.290 N 
ATOM     11  S   UNL     1       5.448  -2.256   4.140  1.00  0.00    -0.129 SA
ATOM     12  C   UNL     1       3.887  -4.841   2.659  1.00  0.00     0.253 C 
ATOM     13  C   UNL     1       3.899  -3.050   3.708  1.00  0.00     0.181 C 
ATOM     14  O   UNL     1       3.895  -5.884   2.044  1.00  0.00    -0.272 OA
ATOM     15  C   UNL     1       3.761  -4.502   4.187  1.00  0.00     0.206 C 
BRANCH   8  16
ATOM     16  C   UNL     1       4.436  -0.118   0.762  1.00  0.00     0.111 C 
BRANCH  16  17
ATOM     17  S   UNL     1       3.200   1.113   1.272  1.00  0.00    -0.089 SA
BRANCH  17  18
ATOM     18  C   UNL     1       1.670   0.395   0.843  1.00  0.00     0.174 A 
ATOM     19  C   UNL     1      -2.023  -0.163  -0.042  1.00  0.00     0.081 C 
ATOM     20  C   UNL     1      -0.574  -0.151   0.282  1.00  0.00     0.115 A 
ATOM     21  N   UNL     1       0.162  -1.222   0.488  1.00  0.00    -0.143 NA
ATOM     22  S   UNL     1       0.284   1.329   0.449  1.00  0.00    -0.091 S 
ATOM     23  N   UNL     1       1.459  -0.901   0.835  1.00  0.00    -0.132 NA
ENDBRANCH  17  18
ENDBRANCH  16  17
ENDBRANCH   8  16
BRANCH  15  24
ATOM     24  N   UNL     1       2.470  -4.887   4.838  1.00  0.00    -0.338 N 
ATOM     25  C   UNL     1       1.827  -4.329   5.923  1.00  0.00     0.254 C 
ATOM     26  H   UNL     1       2.010  -5.656   4.430  1.00  0.00     0.164 HD
ATOM     27  O   UNL     1       0.874  -4.890   6.453  1.00  0.00    -0.269 OA
BRANCH  25  28
ATOM     28  C   UNL     1       2.292  -3.056   6.495  1.00  0.00     0.075 A 
ATOM     29  C   UNL     1       3.016  -3.046   7.689  1.00  0.00     0.020 A 
ATOM     30  C   UNL     1       1.941  -1.848   5.888  1.00  0.00     0.138 A 
ATOM     31  C   UNL     1       3.467  -1.826   8.206  1.00  0.00     0.040 A 
ATOM     32  C   UNL     1       2.434  -0.639   6.365  1.00  0.00     0.079 A 
ATOM     33  F   UNL     1       1.165  -1.833   4.794  1.00  0.00    -0.206 F 
ATOM     34  C   UNL     1       3.199  -0.641   7.521  1.00  0.00     0.126 A 
ATOM     35  F   UNL     1       3.675   0.517   7.996  1.00  0.00    -0.207 F 
ENDBRANCH  25  28
ENDBRANCH  15  24
ENDBRANCH   4   7
ENDBRANCH   2   3
ENDBRANCH   1   2
BRANCH   1  36
ATOM     36  C   UNL     1       4.736  -1.363  -4.000  1.00  0.00     0.118 C 
BRANCH  36  37
ATOM     37  N   UNL     1       3.887  -0.395  -4.688  1.00  0.00    -0.352 N 
ATOM     38  C   UNL     1       4.211   0.525  -5.654  1.00  0.00     0.251 C 
ATOM     39  H   UNL     1       2.940  -0.402  -4.418  1.00  0.00     0.163 HD
ATOM     40  O   UNL     1       3.414   1.419  -5.923  1.00  0.00    -0.269 OA
BRANCH  38  41
ATOM     41  C   UNL     1       5.518   0.445  -6.341  1.00  0.00     0.039 A 
ATOM     42  C   UNL     1       6.183   1.627  -6.676  1.00  0.00     0.014 A 
ATOM     43  C   UNL     1       6.084  -0.792  -6.659  1.00  0.00     0.014 A 
ATOM     44  C   UNL     1       7.440   1.562  -7.280  1.00  0.00     0.010 A 
ATOM     45  C   UNL     1       7.378  -0.854  -7.158  1.00  0.00     0.010 A 
ATOM     46  C   UNL     1       8.062   0.322  -7.493  1.00  0.00    -0.014 A 
BRANCH  46  47
ATOM     47  C   UNL     1       9.413   0.225  -8.099  1.00  0.00     0.031 A 
ATOM     48  C   UNL     1       9.589  -0.505  -9.405  1.00  0.00     0.074 A 
ATOM     49  C   UNL     1      10.476   0.730  -7.442  1.00  0.00     0.049 A 
ATOM     50  N   UNL     1      10.690  -0.784 -10.054  1.00  0.00    -0.248 NA
ATOM     51  C   UNL     1       8.370  -1.022 -10.050  1.00  0.00     0.031 C 
ATOM     52  C   UNL     1      10.424   1.414  -6.147  1.00  0.00     0.029 A 
ATOM     53  N   UNL     1      11.810   0.740  -7.764  1.00  0.00    -0.354 N 
ATOM     54  C   UNL     1      10.299  -1.527 -11.163  1.00  0.00     0.074 A 
ATOM     55  C   UNL     1       8.867  -1.704 -11.071  1.00  0.00     0.031 C 
ATOM     56  C   UNL     1      11.663   1.795  -5.798  1.00  0.00     0.029 A 
ATOM     57  C   UNL     1      12.606   1.339  -6.814  1.00  0.00     0.049 A 
ATOM     58  H   UNL     1      12.165   0.354  -8.597  1.00  0.00     0.167 HD
ATOM     59  C   UNL     1      11.064  -1.999 -12.176  1.00  0.00     0.034 A 
ATOM     60  C   UNL     1      13.945   1.487  -6.761  1.00  0.00     0.034 A 
ATOM     61  C   UNL     1      12.485  -1.778 -12.265  1.00  0.00     0.049 A 
ATOM     62  C   UNL     1      14.771   0.954  -7.907  1.00  0.00     0.074 A 
ATOM     63  C   UNL     1      13.348  -2.138 -13.286  1.00  0.00     0.029 A 
ATOM     64  N   UNL     1      13.254  -1.145 -11.298  1.00  0.00    -0.354 N 
ATOM     65  N   UNL     1      14.374   0.317  -8.986  1.00  0.00    -0.248 NA
ATOM     66  C   UNL     1      16.221   1.172  -7.839  1.00  0.00     0.031 C 
ATOM     67  C   UNL     1      14.646  -1.792 -12.901  1.00  0.00     0.029 A 
ATOM     68  C   UNL     1      14.585  -1.136 -11.682  1.00  0.00     0.049 A 
ATOM     69  H   UNL     1      12.905  -0.759 -10.462  1.00  0.00     0.167 HD
ATOM     70  C   UNL     1      15.523   0.093  -9.739  1.00  0.00     0.074 A 
ATOM     71  C   UNL     1      16.622   0.681  -9.002  1.00  0.00     0.031 C 
ATOM     72  C   UNL     1      15.663  -0.540 -10.931  1.00  0.00     0.034 A 
BRANCH  59  73
ATOM     73  C   UNL     1      10.392  -2.814 -13.253  1.00  0.00     0.023 A 
ATOM     74  C   UNL     1       9.426  -2.262 -14.112  1.00  0.00     0.031 A 
ATOM     75  C   UNL     1      10.739  -4.165 -13.434  1.00  0.00     0.131 A 
ATOM     76  C   UNL     1       8.807  -3.068 -15.079  1.00  0.00     0.055 A 
ATOM     77  C   UNL     1      10.173  -4.942 -14.446  1.00  0.00     0.041 A 
ATOM     78  F   UNL     1      11.637  -4.753 -12.627  1.00  0.00    -0.206 F 
ATOM     79  C   UNL     1       9.194  -4.397 -15.271  1.00  0.00     0.022 A 
BRANCH  76  80
ATOM     80  S   UNL     1       7.413  -2.386 -16.017  1.00  0.00     0.124 S 
ATOM     81  O   UNL     1       6.454  -2.099 -14.953  1.00  0.00    -0.237 OA
ATOM     82  O   UNL     1       8.009  -1.225 -16.669  1.00  0.00    -0.237 OA
ATOM     83  O   UNL     1       7.034  -3.477 -16.912  1.00  0.00    -0.744 OA
ENDBRANCH  76  80
ENDBRANCH  59  73
BRANCH  60  84
ATOM     84  C   UNL     1      14.600   2.140  -5.589  1.00  0.00     0.023 A 
ATOM     85  C   UNL     1      15.369   3.305  -5.744  1.00  0.00     0.031 A 
ATOM     86  C   UNL     1      14.533   1.566  -4.306  1.00  0.00     0.131 A 
ATOM     87  C   UNL     1      16.098   3.815  -4.658  1.00  0.00     0.055 A 
ATOM     88  C   UNL     1      15.205   2.117  -3.213  1.00  0.00     0.041 A 
ATOM     89  F   UNL     1      13.810   0.455  -4.095  1.00  0.00    -0.206 F 
ATOM     90  C   UNL     1      16.010   3.237  -3.391  1.00  0.00     0.022 A 
BRANCH  87  91
ATOM     91  S   UNL     1      17.270   5.166  -4.961  1.00  0.00     0.124 S 
ATOM     92  O   UNL     1      18.090   4.612  -6.032  1.00  0.00    -0.237 OA
ATOM     93  O   UNL     1      16.380   6.260  -5.334  1.00  0.00    -0.237 OA
ATOM     94  O   UNL     1      17.945   5.324  -3.674  1.00  0.00    -0.744 OA
ENDBRANCH  87  91
ENDBRANCH  60  84
BRANCH  72  95
ATOM     95  C   UNL     1      17.046  -0.574 -11.532  1.00  0.00     0.023 A 
ATOM     96  C   UNL     1      18.099  -1.284 -10.930  1.00  0.00     0.031 A 
ATOM     97  C   UNL     1      17.313   0.121 -12.725  1.00  0.00     0.131 A 
ATOM     98  C   UNL     1      19.384  -1.234 -11.489  1.00  0.00     0.055 A 
ATOM     99  C   UNL     1      18.577   0.110 -13.315  1.00  0.00     0.041 A 
ATOM    100  F   UNL     1      16.345   0.817 -13.342  1.00  0.00    -0.206 F 
ATOM    101  C   UNL     1      19.625  -0.558 -12.688  1.00  0.00     0.022 A 
BRANCH  98 102
ATOM    102  S   UNL     1      20.759  -1.981 -10.574  1.00  0.00     0.124 S 
ATOM    103  O   UNL     1      20.709  -1.258  -9.307  1.00  0.00    -0.237 OA
ATOM    104  O   UNL     1      20.372  -3.387 -10.520  1.00  0.00    -0.237 OA
ATOM    105  O   UNL     1      21.924  -1.691 -11.408  1.00  0.00    -0.744 OA
ENDBRANCH  98 102
ENDBRANCH  72  95
ENDBRANCH  46  47
ENDBRANCH  38  41
ENDBRANCH  36  37
ENDBRANCH   1  36
TORSDOF 18
