REMARK SMILES CC(C)=C1[C@H]2CC[C@@H]1[C@H](C(=O)NNC(=O)c1ccoc1C)[C@H]2C(=O)NCCCNC(=O)c1ccc(-c2c3nc(c(-c4cc(S(=O)(=O)[O-])ccc4F)c4ccc([nH]4)c(-c4cc(S(=O)(=O)[O-])ccc4F)c4nc(c(-c5cc(S(=O)(=O)[O-])ccc5F)c5ccc2[nH]5)C=C4)C=C3)cc1
REMARK SMILES IDX 27 1 26 2 25 3 23 4 24 5 22 7 1 8 2 9 3 10 4 11 5 12 8 13
REMARK SMILES IDX 6 14 7 15 9 16 10 17 11 18 12 19 13 21 14 22 15 24 16 25
REMARK SMILES IDX 17 26 20 27 18 28 19 29 21 30 28 31 29 32 30 33 31 35 32 36
REMARK SMILES IDX 33 37 94 38 34 39 93 40 35 41 36 42 37 43 87 44 38 45 92 46
REMARK SMILES IDX 86 47 88 48 39 49 91 50 85 51 84 52 40 54 72 55 52 56 71 57
REMARK SMILES IDX 53 58 56 59 70 60 89 61 54 62 55 63 69 65 90 66 57 67 41 68
REMARK SMILES IDX 42 69 50 70 43 71 49 72 51 73 48 74 44 75 45 76 46 77 47 78
REMARK SMILES IDX 73 79 74 80 82 81 75 82 81 83 83 84 80 85 76 86 77 87 78 88
REMARK SMILES IDX 79 89 58 90 59 91 67 92 60 93 66 94 68 95 65 96 61 97 62 98
REMARK SMILES IDX 63 99 64 100
REMARK H PARENT 25 6 12 20 13 23 29 34 88 53 56 64
REMARK Flexibility Score: inf
ROOT
ATOM      1  C   UNL     1       2.146  -2.561   1.442  1.00  0.00     0.042 C 
ENDROOT
BRANCH   1   2
ATOM      2  C   UNL     1       3.092  -2.679   0.256  1.00  0.00     0.117 C 
BRANCH   2   3
ATOM      3  N   UNL     1       3.077  -4.018  -0.308  1.00  0.00    -0.356 N 
ATOM      4  C   UNL     1       2.488  -4.575  -1.391  1.00  0.00     0.224 C 
ATOM      5  O   UNL     1       2.616  -5.802  -1.492  1.00  0.00    -0.275 OA
ATOM      6  H   UNL     1       3.613  -4.661   0.211  1.00  0.00     0.163 HD
BRANCH   4   7
ATOM      7  C   UNL     1       1.733  -3.827  -2.484  1.00  0.00     0.098 C 
ATOM      8  C   UNL     1       0.429   0.370  -0.723  1.00  0.00     0.039 C 
ATOM      9  C   UNL     1       0.086  -1.089  -0.841  1.00  0.00    -0.077 C 
ATOM     10  C   UNL     1      -0.900  -1.577   0.192  1.00  0.00     0.039 C 
ATOM     11  C   UNL     1       0.567  -1.871  -1.825  1.00  0.00    -0.064 C 
ATOM     12  C   UNL     1       0.321  -3.322  -2.129  1.00  0.00     0.028 C 
ATOM     13  C   UNL     1       1.328  -1.524  -3.089  1.00  0.00     0.028 C 
ATOM     14  C   UNL     1      -0.467  -3.118  -3.440  1.00  0.00     0.009 C 
ATOM     15  C   UNL     1       0.177  -1.855  -4.056  1.00  0.00     0.009 C 
ATOM     16  C   UNL     1       2.447  -2.593  -3.074  1.00  0.00     0.100 C 
BRANCH  16  17
ATOM     17  C   UNL     1       3.032  -2.939  -4.440  1.00  0.00     0.242 C 
ATOM     18  O   UNL     1       2.356  -3.427  -5.348  1.00  0.00    -0.273 OA
ATOM     19  N   UNL     1       4.370  -2.770  -4.678  1.00  0.00    -0.267 N 
ATOM     20  H   UNL     1       4.710  -3.101  -5.541  1.00  0.00     0.191 HD
BRANCH  19  21
ATOM     21  N   UNL     1       5.298  -2.179  -3.826  1.00  0.00    -0.263 N 
ATOM     22  C   UNL     1       6.597  -1.867  -4.191  1.00  0.00     0.273 C 
ATOM     23  H   UNL     1       5.013  -1.970  -2.907  1.00  0.00     0.191 HD
ATOM     24  O   UNL     1       7.412  -1.580  -3.318  1.00  0.00    -0.267 OA
BRANCH  22  25
ATOM     25  C   UNL     1       6.985  -1.969  -5.588  1.00  0.00     0.082 A 
ATOM     26  C   UNL     1       8.168  -2.595  -6.086  1.00  0.00     0.056 A 
ATOM     27  C   UNL     1       6.352  -1.442  -6.703  1.00  0.00     0.113 A 
ATOM     28  C   UNL     1       8.139  -2.466  -7.452  1.00  0.00     0.196 A 
ATOM     29  O   UNL     1       7.040  -1.770  -7.835  1.00  0.00    -0.469 OA
ATOM     30  C   UNL     1       5.147  -0.612  -6.921  1.00  0.00     0.088 C 
ENDBRANCH  22  25
ENDBRANCH  19  21
ENDBRANCH  16  17
ENDBRANCH   4   7
ENDBRANCH   2   3
ENDBRANCH   1   2
BRANCH   1  31
ATOM     31  C   UNL     1       2.702  -3.156   2.728  1.00  0.00     0.118 C 
BRANCH  31  32
ATOM     32  N   UNL     1       3.712  -2.298   3.330  1.00  0.00    -0.352 N 
ATOM     33  C   UNL     1       3.645  -1.445   4.406  1.00  0.00     0.251 C 
ATOM     34  H   UNL     1       4.593  -2.335   2.892  1.00  0.00     0.163 HD
ATOM     35  O   UNL     1       4.548  -0.623   4.554  1.00  0.00    -0.269 OA
BRANCH  33  36
ATOM     36  C   UNL     1       2.515  -1.483   5.369  1.00  0.00     0.039 A 
ATOM     37  C   UNL     1       2.106  -0.288   5.974  1.00  0.00     0.014 A 
ATOM     38  C   UNL     1       1.907  -2.681   5.748  1.00  0.00     0.014 A 
ATOM     39  C   UNL     1       1.068  -0.293   6.914  1.00  0.00     0.010 A 
ATOM     40  C   UNL     1       0.813  -2.674   6.612  1.00  0.00     0.010 A 
ATOM     41  C   UNL     1       0.394  -1.484   7.223  1.00  0.00    -0.014 A 
BRANCH  41  42
ATOM     42  C   UNL     1      -0.707  -1.524   8.225  1.00  0.00     0.031 A 
ATOM     43  C   UNL     1      -0.553  -2.351   9.476  1.00  0.00     0.074 A 
ATOM     44  C   UNL     1      -1.864  -0.877   7.987  1.00  0.00     0.049 A 
ATOM     45  N   UNL     1      -1.431  -2.624  10.408  1.00  0.00    -0.248 NA
ATOM     46  C   UNL     1       0.756  -2.986   9.681  1.00  0.00     0.031 C 
ATOM     47  C   UNL     1      -2.154  -0.064   6.805  1.00  0.00     0.029 A 
ATOM     48  N   UNL     1      -3.018  -0.808   8.728  1.00  0.00    -0.354 N 
ATOM     49  C   UNL     1      -0.790  -3.486  11.293  1.00  0.00     0.074 A 
ATOM     50  C   UNL     1       0.527  -3.737  10.746  1.00  0.00     0.031 C 
ATOM     51  C   UNL     1      -3.393   0.443   6.914  1.00  0.00     0.029 A 
ATOM     52  C   UNL     1      -4.001  -0.043   8.148  1.00  0.00     0.049 A 
ATOM     53  H   UNL     1      -3.130  -1.264   9.593  1.00  0.00     0.167 HD
ATOM     54  C   UNL     1      -1.244  -4.001  12.464  1.00  0.00     0.034 A 
ATOM     55  C   UNL     1      -5.255   0.229   8.559  1.00  0.00     0.034 A 
ATOM     56  C   UNL     1      -2.549  -3.720  13.012  1.00  0.00     0.049 A 
ATOM     57  C   UNL     1      -5.747  -0.360   9.854  1.00  0.00     0.074 A 
ATOM     58  C   UNL     1      -3.096  -4.145  14.211  1.00  0.00     0.029 A 
ATOM     59  N   UNL     1      -3.517  -2.937  12.394  1.00  0.00    -0.354 N 
ATOM     60  N   UNL     1      -5.125  -1.161  10.687  1.00  0.00    -0.248 NA
ATOM     61  C   UNL     1      -7.112  -0.003  10.264  1.00  0.00     0.031 C 
ATOM     62  C   UNL     1      -4.407  -3.661  14.294  1.00  0.00     0.029 A 
ATOM     63  C   UNL     1      -4.661  -2.884  13.176  1.00  0.00     0.049 A 
ATOM     64  H   UNL     1      -3.405  -2.485  11.527  1.00  0.00     0.167 HD
ATOM     65  C   UNL     1      -6.015  -1.384  11.733  1.00  0.00     0.074 A 
ATOM     66  C   UNL     1      -7.212  -0.626  11.429  1.00  0.00     0.031 C 
ATOM     67  C   UNL     1      -5.854  -2.139  12.849  1.00  0.00     0.034 A 
BRANCH  54  68
ATOM     68  C   UNL     1      -0.320  -4.940  13.205  1.00  0.00     0.023 A 
ATOM     69  C   UNL     1       0.935  -4.516  13.679  1.00  0.00     0.031 A 
ATOM     70  C   UNL     1      -0.663  -6.292  13.379  1.00  0.00     0.131 A 
ATOM     71  C   UNL     1       1.840  -5.451  14.203  1.00  0.00     0.055 A 
ATOM     72  C   UNL     1       0.207  -7.200  13.988  1.00  0.00     0.041 A 
ATOM     73  F   UNL     1      -1.839  -6.763  12.934  1.00  0.00    -0.206 F 
ATOM     74  C   UNL     1       1.476  -6.787  14.384  1.00  0.00     0.022 A 
BRANCH  71  75
ATOM     75  S   UNL     1       3.557  -4.931  14.470  1.00  0.00     0.124 S 
ATOM     76  O   UNL     1       3.939  -4.479  13.134  1.00  0.00    -0.237 OA
ATOM     77  O   UNL     1       3.418  -3.891  15.482  1.00  0.00    -0.237 OA
ATOM     78  O   UNL     1       4.220  -6.155  14.918  1.00  0.00    -0.744 OA
ENDBRANCH  71  75
ENDBRANCH  54  68
BRANCH  55  79
ATOM     79  C   UNL     1      -6.138   1.103   7.739  1.00  0.00     0.023 A 
ATOM     80  C   UNL     1      -6.492   2.384   8.187  1.00  0.00     0.031 A 
ATOM     81  C   UNL     1      -6.652   0.664   6.507  1.00  0.00     0.131 A 
ATOM     82  C   UNL     1      -7.362   3.175   7.423  1.00  0.00     0.055 A 
ATOM     83  C   UNL     1      -7.488   1.468   5.732  1.00  0.00     0.041 A 
ATOM     84  F   UNL     1      -6.331  -0.550   6.032  1.00  0.00    -0.206 F 
ATOM     85  C   UNL     1      -7.855   2.729   6.193  1.00  0.00     0.022 A 
BRANCH  82  86
ATOM     86  S   UNL     1      -7.879   4.783   8.081  1.00  0.00     0.124 S 
ATOM     87  O   UNL     1      -8.558   4.397   9.313  1.00  0.00    -0.237 OA
ATOM     88  O   UNL     1      -6.601   5.470   8.240  1.00  0.00    -0.237 OA
ATOM     89  O   UNL     1      -8.743   5.319   7.032  1.00  0.00    -0.744 OA
ENDBRANCH  82  86
ENDBRANCH  55  79
BRANCH  67  90
ATOM     90  C   UNL     1      -6.992  -2.141  13.836  1.00  0.00     0.023 A 
ATOM     91  C   UNL     1      -8.215  -2.772  13.551  1.00  0.00     0.031 A 
ATOM     92  C   UNL     1      -6.856  -1.480  15.070  1.00  0.00     0.131 A 
ATOM     93  C   UNL     1      -9.274  -2.686  14.467  1.00  0.00     0.055 A 
ATOM     94  C   UNL     1      -7.897  -1.440  15.998  1.00  0.00     0.041 A 
ATOM     95  F   UNL     1      -5.709  -0.860  15.390  1.00  0.00    -0.206 F 
ATOM     96  C   UNL     1      -9.119  -2.035  15.694  1.00  0.00     0.022 A 
BRANCH  93  97
ATOM     97  S   UNL     1     -10.888  -3.370  14.001  1.00  0.00     0.124 S 
ATOM     98  O   UNL     1     -11.205  -2.608  12.797  1.00  0.00    -0.237 OA
ATOM     99  O   UNL     1     -10.583  -4.783  13.799  1.00  0.00    -0.237 OA
ATOM    100  O   UNL     1     -11.732  -3.079  15.159  1.00  0.00    -0.744 OA
ENDBRANCH  93  97
ENDBRANCH  67  90
ENDBRANCH  41  42
ENDBRANCH  33  36
ENDBRANCH  31  32
ENDBRANCH   1  31
TORSDOF 16
