REMARK SMILES Cc1ccccc1[C@@H](Cc1c(Cl)cccc1Cl)C(=O)NCCCNC(=O)c1ccc(-c2c3nc(c(-c4cc(S(=O)(=O)[O-])ccc4F)c4ccc([nH]4)c(-c4cc(S(=O)(=O)[O-])ccc4F)c4nc(c(-c5cc(S(=O)(=O)[O-])ccc5F)c5ccc2[nH]5)C=C4)C=C3)cc1
REMARK SMILES IDX 22 1 21 2 20 3 18 4 19 5 8 7 7 8 1 9 2 10 3 11 4 12 6 13
REMARK SMILES IDX 5 14 9 15 10 16 11 17 16 18 12 19 13 20 15 21 17 22 14 23
REMARK SMILES IDX 23 24 24 25 25 26 26 28 27 29 28 30 89 31 29 32 88 33 30 34
REMARK SMILES IDX 31 35 32 36 82 37 33 38 87 39 81 40 83 41 34 42 86 43 80 44
REMARK SMILES IDX 79 45 35 47 67 48 47 49 66 50 48 51 51 52 65 53 84 54 49 55
REMARK SMILES IDX 50 56 64 58 85 59 52 60 36 61 37 62 45 63 38 64 44 65 46 66
REMARK SMILES IDX 43 67 39 68 40 69 41 70 42 71 68 72 69 73 77 74 70 75 76 76
REMARK SMILES IDX 78 77 75 78 71 79 72 80 73 81 74 82 53 83 54 84 62 85 55 86
REMARK SMILES IDX 61 87 63 88 60 89 56 90 57 91 58 92 59 93
REMARK H PARENT 20 6 24 27 83 46 51 57
REMARK Flexibility Score: inf
ROOT
ATOM      1  C   UNL     1      -2.947   3.238   0.248  1.00  0.00     0.042 C 
ENDROOT
BRANCH   1   2
ATOM      2  C   UNL     1      -1.659   4.054   0.220  1.00  0.00     0.117 C 
BRANCH   2   3
ATOM      3  N   UNL     1      -0.732   3.653   1.262  1.00  0.00    -0.355 N 
ATOM      4  C   UNL     1       0.391   2.892   1.253  1.00  0.00     0.227 C 
ATOM      5  O   UNL     1       0.872   2.617   2.362  1.00  0.00    -0.274 OA
ATOM      6  H   UNL     1      -0.963   4.004   2.152  1.00  0.00     0.163 HD
BRANCH   4   7
ATOM      7  C   UNL     1       1.071   2.326  -0.014  1.00  0.00     0.113 C 
BRANCH   7   8
ATOM      8  C   UNL     1       0.556   0.911  -0.341  1.00  0.00    -0.032 A 
ATOM      9  C   UNL     1       2.749  -0.279   0.319  1.00  0.00     0.044 C 
ATOM     10  C   UNL     1       1.297  -0.264  -0.081  1.00  0.00    -0.047 A 
ATOM     11  C   UNL     1       0.655  -1.518  -0.158  1.00  0.00     0.004 A 
ATOM     12  C   UNL     1      -0.677  -1.628  -0.547  1.00  0.00     0.000 A 
ATOM     13  C   UNL     1      -0.753   0.759  -0.834  1.00  0.00     0.005 A 
ATOM     14  C   UNL     1      -1.373  -0.488  -0.917  1.00  0.00     0.000 A 
ENDBRANCH   7   8
BRANCH   7  15
ATOM     15  C   UNL     1       1.261   3.238  -1.255  1.00  0.00     0.057 C 
BRANCH  15  16
ATOM     16  C   UNL     1       1.416   4.747  -1.083  1.00  0.00    -0.010 A 
ATOM     17  C   UNL     1       0.722   5.635  -1.941  1.00  0.00     0.045 A 
ATOM     18  C   UNL     1       2.234   5.340  -0.101  1.00  0.00     0.045 A 
ATOM     19  Cl  UNL     1      -0.148   5.091  -3.342  1.00  0.00    -0.084 Cl
ATOM     20  C   UNL     1       0.725   7.019  -1.726  1.00  0.00     0.021 A 
ATOM     21  C   UNL     1       2.220   6.725   0.123  1.00  0.00     0.021 A 
ATOM     22  Cl  UNL     1       3.385   4.448   0.832  1.00  0.00    -0.084 Cl
ATOM     23  C   UNL     1       1.446   7.561  -0.672  1.00  0.00     0.003 A 
ENDBRANCH  15  16
ENDBRANCH   7  15
ENDBRANCH   4   7
ENDBRANCH   2   3
ENDBRANCH   1   2
BRANCH   1  24
ATOM     24  C   UNL     1      -3.959   3.728   1.273  1.00  0.00     0.118 C 
BRANCH  24  25
ATOM     25  N   UNL     1      -5.292   3.883   0.683  1.00  0.00    -0.352 N 
ATOM     26  C   UNL     1      -6.513   3.997   1.319  1.00  0.00     0.251 C 
ATOM     27  H   UNL     1      -5.321   3.910  -0.301  1.00  0.00     0.163 HD
ATOM     28  O   UNL     1      -7.555   4.186   0.711  1.00  0.00    -0.269 OA
BRANCH  26  29
ATOM     29  C   UNL     1      -6.499   4.006   2.793  1.00  0.00     0.039 A 
ATOM     30  C   UNL     1      -6.765   5.227   3.418  1.00  0.00     0.014 A 
ATOM     31  C   UNL     1      -5.911   2.947   3.481  1.00  0.00     0.014 A 
ATOM     32  C   UNL     1      -6.228   5.467   4.676  1.00  0.00     0.010 A 
ATOM     33  C   UNL     1      -5.305   3.218   4.695  1.00  0.00     0.010 A 
ATOM     34  C   UNL     1      -5.403   4.499   5.257  1.00  0.00    -0.014 A 
BRANCH  34  35
ATOM     35  C   UNL     1      -4.482   4.828   6.343  1.00  0.00     0.031 A 
ATOM     36  C   UNL     1      -4.709   4.332   7.714  1.00  0.00     0.074 A 
ATOM     37  C   UNL     1      -3.420   5.636   6.121  1.00  0.00     0.049 A 
ATOM     38  N   UNL     1      -4.375   4.978   8.783  1.00  0.00    -0.248 NA
ATOM     39  C   UNL     1      -5.389   3.075   7.989  1.00  0.00     0.031 C 
ATOM     40  C   UNL     1      -2.317   5.913   7.037  1.00  0.00     0.029 A 
ATOM     41  N   UNL     1      -3.275   6.579   5.107  1.00  0.00    -0.354 N 
ATOM     42  C   UNL     1      -4.504   4.115   9.846  1.00  0.00     0.074 A 
ATOM     43  C   UNL     1      -5.221   2.979   9.311  1.00  0.00     0.031 C 
ATOM     44  C   UNL     1      -1.770   7.093   6.710  1.00  0.00     0.029 A 
ATOM     45  C   UNL     1      -2.566   7.667   5.641  1.00  0.00     0.049 A 
ATOM     46  H   UNL     1      -3.608   6.498   4.185  1.00  0.00     0.167 HD
ATOM     47  C   UNL     1      -3.859   4.383  11.019  1.00  0.00     0.034 A 
ATOM     48  C   UNL     1      -3.067   8.934   5.612  1.00  0.00     0.034 A 
ATOM     49  C   UNL     1      -3.137   5.657  10.975  1.00  0.00     0.049 A 
ATOM     50  C   UNL     1      -3.217   9.559   6.980  1.00  0.00     0.074 A 
ATOM     51  C   UNL     1      -1.794   5.971  10.829  1.00  0.00     0.029 A 
ATOM     52  N   UNL     1      -3.833   6.855  10.843  1.00  0.00    -0.354 N 
ATOM     53  N   UNL     1      -3.162   8.891   8.098  1.00  0.00    -0.248 NA
ATOM     54  C   UNL     1      -3.473  10.979   7.194  1.00  0.00     0.031 C 
ATOM     55  C   UNL     1      -1.688   7.363  10.589  1.00  0.00     0.029 A 
ATOM     56  C   UNL     1      -2.962   7.902  10.601  1.00  0.00     0.049 A 
ATOM     57  H   UNL     1      -4.810   6.945  10.913  1.00  0.00     0.167 HD
ATOM     58  C   UNL     1      -3.398   9.735   9.156  1.00  0.00     0.074 A 
ATOM     59  C   UNL     1      -3.557  11.038   8.535  1.00  0.00     0.031 C 
ATOM     60  C   UNL     1      -3.451   9.268  10.442  1.00  0.00     0.034 A 
BRANCH  47  61
ATOM     61  C   UNL     1      -3.607   3.336  12.090  1.00  0.00     0.023 A 
ATOM     62  C   UNL     1      -2.449   3.430  12.893  1.00  0.00     0.031 A 
ATOM     63  C   UNL     1      -4.414   2.211  12.339  1.00  0.00     0.131 A 
ATOM     64  C   UNL     1      -2.071   2.395  13.769  1.00  0.00     0.055 A 
ATOM     65  C   UNL     1      -4.008   1.148  13.159  1.00  0.00     0.041 A 
ATOM     66  F   UNL     1      -5.658   2.117  11.852  1.00  0.00    -0.206 F 
ATOM     67  C   UNL     1      -2.819   1.227  13.865  1.00  0.00     0.022 A 
BRANCH  64  68
ATOM     68  S   UNL     1      -0.587   2.600  14.792  1.00  0.00     0.124 S 
ATOM     69  O   UNL     1       0.455   2.815  13.792  1.00  0.00    -0.237 OA
ATOM     70  O   UNL     1      -0.939   3.751  15.617  1.00  0.00    -0.237 OA
ATOM     71  O   UNL     1      -0.494   1.332  15.514  1.00  0.00    -0.744 OA
ENDBRANCH  64  68
ENDBRANCH  47  61
BRANCH  48  72
ATOM     72  C   UNL     1      -3.929   9.203   4.429  1.00  0.00     0.023 A 
ATOM     73  C   UNL     1      -3.339   9.031   3.157  1.00  0.00     0.031 A 
ATOM     74  C   UNL     1      -5.326   9.223   4.508  1.00  0.00     0.131 A 
ATOM     75  C   UNL     1      -4.131   8.714   2.046  1.00  0.00     0.055 A 
ATOM     76  C   UNL     1      -6.119   8.977   3.380  1.00  0.00     0.041 A 
ATOM     77  F   UNL     1      -5.942   9.354   5.692  1.00  0.00    -0.206 F 
ATOM     78  C   UNL     1      -5.522   8.674   2.153  1.00  0.00     0.022 A 
BRANCH  75  79
ATOM     79  S   UNL     1      -3.325   8.080   0.543  1.00  0.00     0.124 S 
ATOM     80  O   UNL     1      -3.304   9.255  -0.319  1.00  0.00    -0.237 OA
ATOM     81  O   UNL     1      -2.023   7.629   1.028  1.00  0.00    -0.237 OA
ATOM     82  O   UNL     1      -4.206   6.994   0.118  1.00  0.00    -0.744 OA
ENDBRANCH  75  79
ENDBRANCH  48  72
BRANCH  60  83
ATOM     83  C   UNL     1      -3.866  10.049  11.681  1.00  0.00     0.023 A 
ATOM     84  C   UNL     1      -4.473  11.313  11.648  1.00  0.00     0.031 A 
ATOM     85  C   UNL     1      -3.705   9.493  12.977  1.00  0.00     0.131 A 
ATOM     86  C   UNL     1      -4.817  11.996  12.832  1.00  0.00     0.055 A 
ATOM     87  C   UNL     1      -4.107  10.144  14.149  1.00  0.00     0.041 A 
ATOM     88  F   UNL     1      -3.161   8.282  13.168  1.00  0.00    -0.206 F 
ATOM     89  C   UNL     1      -4.654  11.413  14.084  1.00  0.00     0.022 A 
BRANCH  86  90
ATOM     90  S   UNL     1      -5.444  13.693  12.698  1.00  0.00     0.124 S 
ATOM     91  O   UNL     1      -4.310  14.386  12.092  1.00  0.00    -0.237 OA
ATOM     92  O   UNL     1      -6.614  13.527  11.842  1.00  0.00    -0.237 OA
ATOM     93  O   UNL     1      -5.734  14.067  14.080  1.00  0.00    -0.744 OA
ENDBRANCH  86  90
ENDBRANCH  60  83
ENDBRANCH  34  35
ENDBRANCH  26  29
ENDBRANCH  24  25
ENDBRANCH   1  24
TORSDOF 16
