REMARK SMILES C[C@@H]1CCC[C@](C#N)([C@H](O)C(=O)NCCCNC(=O)c2ccc(-c3c4nc(c(-c5cc(S(=O)(=O)[O-])ccc5F)c5ccc([nH]5)c(-c5cc(S(=O)(=O)[O-])ccc5F)c5nc(c(-c6cc(S(=O)(=O)[O-])ccc6F)c6ccc3[nH]6)C=C5)C=C4)cc2)C1
REMARK SMILES IDX 15 1 14 2 13 3 11 4 12 5 9 7 6 8 1 9 2 10 3 11 83 12 4 13
REMARK SMILES IDX 5 14 7 15 8 16 10 17 16 19 17 20 18 21 19 23 20 24 21 25
REMARK SMILES IDX 82 26 22 27 81 28 23 29 24 30 25 31 75 32 26 33 80 34 74 35
REMARK SMILES IDX 76 36 27 37 79 38 73 39 72 40 28 42 60 43 40 44 59 45 41 46
REMARK SMILES IDX 44 47 58 48 77 49 42 50 43 51 57 53 78 54 45 55 29 56 30 57
REMARK SMILES IDX 38 58 31 59 37 60 39 61 36 62 32 63 33 64 34 65 35 66 61 67
REMARK SMILES IDX 62 68 70 69 63 70 69 71 71 72 68 73 64 74 65 75 66 76 67 77
REMARK SMILES IDX 46 78 47 79 55 80 48 81 54 82 56 83 53 84 49 85 50 86 51 87
REMARK SMILES IDX 52 88
REMARK H PARENT 13 6 10 18 17 22 76 41 44 52
REMARK Flexibility Score: inf
ROOT
ATOM      1  C   UNL     1      -2.255   8.771  -0.670  1.00  0.00     0.042 C 
ENDROOT
BRANCH   1   2
ATOM      2  C   UNL     1      -1.645   7.420  -0.393  1.00  0.00     0.117 C 
BRANCH   2   3
ATOM      3  N   UNL     1      -2.465   6.460   0.281  1.00  0.00    -0.354 N 
ATOM      4  C   UNL     1      -2.672   5.152  -0.036  1.00  0.00     0.250 C 
ATOM      5  O   UNL     1      -3.312   4.484   0.786  1.00  0.00    -0.272 OA
ATOM      6  H   UNL     1      -2.942   6.788   1.077  1.00  0.00     0.163 HD
BRANCH   4   7
ATOM      7  C   UNL     1      -2.236   4.502  -1.391  1.00  0.00     0.223 C 
BRANCH   7   8
ATOM      8  C   UNL     1      -0.715   4.417  -1.813  1.00  0.00     0.092 C 
ATOM      9  C   UNL     1      -1.597   6.967  -3.960  1.00  0.00     0.008 C 
ATOM     10  C   UNL     1      -0.311   6.142  -3.804  1.00  0.00    -0.013 C 
ATOM     11  C   UNL     1      -0.224   4.981  -4.799  1.00  0.00     0.003 C 
ATOM     12  C   UNL     1       0.075   5.628  -2.404  1.00  0.00     0.029 C 
ATOM     13  C   UNL     1      -0.874   3.681  -4.328  1.00  0.00     0.002 C 
ATOM     14  C   UNL     1      -0.531   3.289  -2.884  1.00  0.00     0.025 C 
BRANCH   8  15
ATOM     15  C   UNL     1       0.011   3.986  -0.584  1.00  0.00     0.072 C 
ATOM     16  N   UNL     1       0.587   3.656   0.370  1.00  0.00    -0.198 NA
ENDBRANCH   8  15
ENDBRANCH   7   8
BRANCH   7  17
ATOM     17  O   UNL     1      -3.173   4.901  -2.386  1.00  0.00    -0.382 OA
ATOM     18  H   UNL     1      -3.116   5.860  -2.517  1.00  0.00     0.211 HD
ENDBRANCH   7  17
ENDBRANCH   4   7
ENDBRANCH   2   3
ENDBRANCH   1   2
BRANCH   1  19
ATOM     19  C   UNL     1      -2.518   9.590   0.570  1.00  0.00     0.118 C 
BRANCH  19  20
ATOM     20  N   UNL     1      -1.306   9.884   1.321  1.00  0.00    -0.352 N 
ATOM     21  C   UNL     1      -0.748  11.093   1.661  1.00  0.00     0.251 C 
ATOM     22  H   UNL     1      -0.808   9.094   1.633  1.00  0.00     0.163 HD
ATOM     23  O   UNL     1       0.385  11.117   2.134  1.00  0.00    -0.269 OA
BRANCH  21  24
ATOM     24  C   UNL     1      -1.490  12.352   1.425  1.00  0.00     0.039 A 
ATOM     25  C   UNL     1      -0.784  13.489   1.030  1.00  0.00     0.014 A 
ATOM     26  C   UNL     1      -2.877  12.416   1.581  1.00  0.00     0.014 A 
ATOM     27  C   UNL     1      -1.479  14.659   0.724  1.00  0.00     0.010 A 
ATOM     28  C   UNL     1      -3.575  13.534   1.143  1.00  0.00     0.010 A 
ATOM     29  C   UNL     1      -2.885  14.677   0.729  1.00  0.00    -0.014 A 
BRANCH  29  30
ATOM     30  C   UNL     1      -3.634  15.891   0.315  1.00  0.00     0.031 A 
ATOM     31  C   UNL     1      -4.571  16.572   1.276  1.00  0.00     0.074 A 
ATOM     32  C   UNL     1      -3.482  16.364  -0.939  1.00  0.00     0.049 A 
ATOM     33  N   UNL     1      -5.294  17.648   1.099  1.00  0.00    -0.248 NA
ATOM     34  C   UNL     1      -4.744  15.949   2.598  1.00  0.00     0.031 C 
ATOM     35  C   UNL     1      -2.644  15.753  -1.975  1.00  0.00     0.029 A 
ATOM     36  N   UNL     1      -4.010  17.470  -1.554  1.00  0.00    -0.354 N 
ATOM     37  C   UNL     1      -6.003  17.828   2.282  1.00  0.00     0.074 A 
ATOM     38  C   UNL     1      -5.687  16.705   3.136  1.00  0.00     0.031 C 
ATOM     39  C   UNL     1      -2.667  16.524  -3.072  1.00  0.00     0.029 A 
ATOM     40  C   UNL     1      -3.567  17.649  -2.845  1.00  0.00     0.049 A 
ATOM     41  H   UNL     1      -4.647  18.078  -1.114  1.00  0.00     0.167 HD
ATOM     42  C   UNL     1      -6.818  18.852   2.636  1.00  0.00     0.034 A 
ATOM     43  C   UNL     1      -3.856  18.609  -3.746  1.00  0.00     0.034 A 
ATOM     44  C   UNL     1      -7.121  19.963   1.769  1.00  0.00     0.049 A 
ATOM     45  C   UNL     1      -4.796  19.716  -3.342  1.00  0.00     0.074 A 
ATOM     46  C   UNL     1      -7.896  21.078   2.038  1.00  0.00     0.029 A 
ATOM     47  N   UNL     1      -6.678  20.096   0.458  1.00  0.00    -0.354 N 
ATOM     48  N   UNL     1      -5.410  19.903  -2.196  1.00  0.00    -0.248 NA
ATOM     49  C   UNL     1      -5.070  20.748  -4.349  1.00  0.00     0.031 C 
ATOM     50  C   UNL     1      -7.998  21.833   0.866  1.00  0.00     0.029 A 
ATOM     51  C   UNL     1      -7.199  21.252  -0.105  1.00  0.00     0.049 A 
ATOM     52  H   UNL     1      -6.082  19.463  -0.003  1.00  0.00     0.167 HD
ATOM     53  C   UNL     1      -6.116  21.095  -2.335  1.00  0.00     0.074 A 
ATOM     54  C   UNL     1      -5.832  21.589  -3.667  1.00  0.00     0.031 C 
ATOM     55  C   UNL     1      -6.920  21.727  -1.441  1.00  0.00     0.034 A 
BRANCH  42  56
ATOM     56  C   UNL     1      -7.456  18.797   4.005  1.00  0.00     0.023 A 
ATOM     57  C   UNL     1      -6.685  18.783   5.182  1.00  0.00     0.031 A 
ATOM     58  C   UNL     1      -8.854  18.739   4.138  1.00  0.00     0.131 A 
ATOM     59  C   UNL     1      -7.311  18.636   6.429  1.00  0.00     0.055 A 
ATOM     60  C   UNL     1      -9.475  18.687   5.387  1.00  0.00     0.041 A 
ATOM     61  F   UNL     1      -9.644  18.721   3.053  1.00  0.00    -0.206 F 
ATOM     62  C   UNL     1      -8.703  18.619   6.543  1.00  0.00     0.022 A 
BRANCH  59  63
ATOM     63  S   UNL     1      -6.278  18.304   7.883  1.00  0.00     0.124 S 
ATOM     64  O   UNL     1      -5.574  17.091   7.473  1.00  0.00    -0.237 OA
ATOM     65  O   UNL     1      -5.467  19.512   7.976  1.00  0.00    -0.237 OA
ATOM     66  O   UNL     1      -7.249  18.118   8.959  1.00  0.00    -0.744 OA
ENDBRANCH  59  63
ENDBRANCH  42  56
BRANCH  43  67
ATOM     67  C   UNL     1      -3.262  18.566  -5.115  1.00  0.00     0.023 A 
ATOM     68  C   UNL     1      -2.430  19.597  -5.580  1.00  0.00     0.031 A 
ATOM     69  C   UNL     1      -3.558  17.512  -5.998  1.00  0.00     0.131 A 
ATOM     70  C   UNL     1      -1.970  19.580  -6.906  1.00  0.00     0.055 A 
ATOM     71  C   UNL     1      -3.041  17.465  -7.293  1.00  0.00     0.041 A 
ATOM     72  F   UNL     1      -4.349  16.499  -5.607  1.00  0.00    -0.206 F 
ATOM     73  C   UNL     1      -2.254  18.512  -7.760  1.00  0.00     0.022 A 
BRANCH  70  74
ATOM     74  S   UNL     1      -1.085  21.033  -7.537  1.00  0.00     0.124 S 
ATOM     75  O   UNL     1      -2.059  22.094  -7.308  1.00  0.00    -0.237 OA
ATOM     76  O   UNL     1       0.102  21.056  -6.691  1.00  0.00    -0.237 OA
ATOM     77  O   UNL     1      -0.843  20.699  -8.939  1.00  0.00    -0.744 OA
ENDBRANCH  70  74
ENDBRANCH  43  67
BRANCH  55  78
ATOM     78  C   UNL     1      -7.509  23.053  -1.864  1.00  0.00     0.023 A 
ATOM     79  C   UNL     1      -8.397  23.161  -2.949  1.00  0.00     0.031 A 
ATOM     80  C   UNL     1      -7.154  24.232  -1.184  1.00  0.00     0.131 A 
ATOM     81  C   UNL     1      -8.835  24.425  -3.370  1.00  0.00     0.055 A 
ATOM     82  C   UNL     1      -7.661  25.478  -1.555  1.00  0.00     0.041 A 
ATOM     83  F   UNL     1      -6.305  24.194  -0.144  1.00  0.00    -0.206 F 
ATOM     84  C   UNL     1      -8.492  25.582  -2.666  1.00  0.00     0.022 A 
BRANCH  81  85
ATOM     85  S   UNL     1      -9.745  24.551  -4.934  1.00  0.00     0.124 S 
ATOM     86  O   UNL     1      -8.815  23.935  -5.874  1.00  0.00    -0.237 OA
ATOM     87  O   UNL     1     -10.960  23.793  -4.649  1.00  0.00    -0.237 OA
ATOM     88  O   UNL     1      -9.938  25.990  -5.103  1.00  0.00    -0.744 OA
ENDBRANCH  81  85
ENDBRANCH  55  78
ENDBRANCH  29  30
ENDBRANCH  21  24
ENDBRANCH  19  20
ENDBRANCH   1  19
TORSDOF 16
