REMARK SMILES Cc1cc([C@H](O)CC2(CC(=O)NCCCNC(=O)c3ccc(-c4c5nc(c(-c6cc(S(=O)(=O)[O-])ccc6F)c6ccc([nH]6)c(-c6cc(S(=O)(=O)[O-])ccc6F)c6nc(c(-c7cc(S(=O)(=O)[O-])ccc7F)c7ccc4[nH]7)C=C6)C=C5)cc3)CCCC2)ccc1F
REMARK SMILES IDX 13 1 12 2 10 3 11 4 9 6 8 7 82 8 85 9 83 10 84 11 7 12 5 13
REMARK SMILES IDX 4 14 1 15 2 16 3 17 88 18 87 19 89 20 86 21 6 22 14 24 15 25
REMARK SMILES IDX 16 26 17 27 18 29 19 30 20 31 81 32 21 33 80 34 22 35 23 36
REMARK SMILES IDX 24 37 74 38 25 39 79 40 73 41 75 42 26 43 78 44 72 45 71 46
REMARK SMILES IDX 27 48 59 49 39 50 58 51 40 52 43 53 57 54 76 55 41 56 42 57
REMARK SMILES IDX 56 59 77 60 44 61 28 62 29 63 37 64 30 65 36 66 38 67 35 68
REMARK SMILES IDX 31 69 32 70 33 71 34 72 60 73 61 74 69 75 62 76 68 77 70 78
REMARK SMILES IDX 67 79 63 80 64 81 65 82 66 83 45 84 46 85 54 86 47 87 53 88
REMARK SMILES IDX 55 89 52 90 48 91 49 92 50 93 51 94
REMARK H PARENT 12 5 6 23 16 28 75 47 43 58
REMARK Flexibility Score: inf
ROOT
ATOM      1  C   UNL     1      -5.072   3.165   4.561  1.00  0.00     0.117 C 
ENDROOT
BRANCH   1   2
ATOM      2  N   UNL     1      -5.894   2.058   4.124  1.00  0.00    -0.356 N 
ATOM      3  C   UNL     1      -5.466   0.908   3.533  1.00  0.00     0.220 C 
ATOM      4  O   UNL     1      -6.300   0.152   3.035  1.00  0.00    -0.275 OA
ATOM      5  H   UNL     1      -6.864   2.145   4.269  1.00  0.00     0.163 HD
BRANCH   3   6
ATOM      6  C   UNL     1      -3.987   0.546   3.588  1.00  0.00     0.107 C 
BRANCH   6   7
ATOM      7  C   UNL     1      -3.042   0.783   2.353  1.00  0.00    -0.018 C 
ATOM      8  C   UNL     1      -1.749  -0.012   2.695  1.00  0.00     0.007 C 
ATOM      9  C   UNL     1      -2.358   2.159   2.205  1.00  0.00     0.007 C 
ATOM     10  C   UNL     1      -0.992   0.886   3.697  1.00  0.00     0.001 C 
ATOM     11  C   UNL     1      -1.453   2.314   3.412  1.00  0.00     0.001 C 
BRANCH   7  12
ATOM     12  C   UNL     1      -3.764   0.327   1.051  1.00  0.00     0.044 C 
BRANCH  12  13
ATOM     13  C   UNL     1      -3.204   0.824  -0.295  1.00  0.00     0.145 C 
BRANCH  13  14
ATOM     14  C   UNL     1      -4.010   0.353  -1.490  1.00  0.00    -0.019 A 
ATOM     15  C   UNL     1      -4.730  -2.906  -3.335  1.00  0.00     0.047 C 
ATOM     16  C   UNL     1      -4.722  -1.457  -2.963  1.00  0.00    -0.015 A 
ATOM     17  C   UNL     1      -4.055  -1.013  -1.817  1.00  0.00     0.012 A 
ATOM     18  C   UNL     1      -5.352  -0.517  -3.780  1.00  0.00     0.126 A 
ATOM     19  C   UNL     1      -5.335   0.838  -3.467  1.00  0.00     0.040 A 
ATOM     20  F   UNL     1      -5.975  -0.922  -4.896  1.00  0.00    -0.207 F 
ATOM     21  C   UNL     1      -4.667   1.274  -2.322  1.00  0.00     0.009 A 
ENDBRANCH  13  14
BRANCH  13  22
ATOM     22  O   UNL     1      -1.859   0.385  -0.468  1.00  0.00    -0.388 OA
ATOM     23  H   UNL     1      -1.836  -0.584  -0.501  1.00  0.00     0.211 HD
ENDBRANCH  13  22
ENDBRANCH  12  13
ENDBRANCH   7  12
ENDBRANCH   6   7
ENDBRANCH   3   6
ENDBRANCH   1   2
BRANCH   1  24
ATOM     24  C   UNL     1      -4.721   4.005   3.356  1.00  0.00     0.042 C 
BRANCH  24  25
ATOM     25  C   UNL     1      -5.710   5.101   3.155  1.00  0.00     0.118 C 
BRANCH  25  26
ATOM     26  N   UNL     1      -5.374   6.261   3.970  1.00  0.00    -0.352 N 
ATOM     27  C   UNL     1      -5.289   7.561   3.514  1.00  0.00     0.251 C 
ATOM     28  H   UNL     1      -5.192   6.105   4.925  1.00  0.00     0.163 HD
ATOM     29  O   UNL     1      -4.509   8.335   4.085  1.00  0.00    -0.269 OA
BRANCH  27  30
ATOM     30  C   UNL     1      -6.113   7.933   2.346  1.00  0.00     0.039 A 
ATOM     31  C   UNL     1      -5.841   8.997   1.488  1.00  0.00     0.014 A 
ATOM     32  C   UNL     1      -7.206   7.115   2.093  1.00  0.00     0.014 A 
ATOM     33  C   UNL     1      -6.692   9.212   0.400  1.00  0.00     0.010 A 
ATOM     34  C   UNL     1      -7.733   7.072   0.850  1.00  0.00     0.010 A 
ATOM     35  C   UNL     1      -7.644   8.234   0.105  1.00  0.00    -0.014 A 
BRANCH  35  36
ATOM     36  C   UNL     1      -8.745   8.335  -0.835  1.00  0.00     0.031 A 
ATOM     37  C   UNL     1      -8.483   8.531  -2.252  1.00  0.00     0.074 A 
ATOM     38  C   UNL     1      -9.973   8.058  -0.325  1.00  0.00     0.049 A 
ATOM     39  N   UNL     1      -9.278   9.156  -3.041  1.00  0.00    -0.248 NA
ATOM     40  C   UNL     1      -7.267   8.048  -2.896  1.00  0.00     0.031 C 
ATOM     41  C   UNL     1     -11.220   7.718  -0.979  1.00  0.00     0.029 A 
ATOM     42  N   UNL     1     -10.321   8.095   1.034  1.00  0.00    -0.354 N 
ATOM     43  C   UNL     1      -8.877   8.835  -4.318  1.00  0.00     0.074 A 
ATOM     44  C   UNL     1      -7.536   8.311  -4.180  1.00  0.00     0.031 C 
ATOM     45  C   UNL     1     -12.225   7.869  -0.091  1.00  0.00     0.029 A 
ATOM     46  C   UNL     1     -11.661   8.452   1.122  1.00  0.00     0.049 A 
ATOM     47  H   UNL     1      -9.722   7.903   1.791  1.00  0.00     0.167 HD
ATOM     48  C   UNL     1      -9.812   8.815  -5.310  1.00  0.00     0.034 A 
ATOM     49  C   UNL     1     -12.019   9.625   1.725  1.00  0.00     0.034 A 
ATOM     50  C   UNL     1     -11.137   9.121  -4.751  1.00  0.00     0.049 A 
ATOM     51  C   UNL     1     -12.579  10.576   0.693  1.00  0.00     0.074 A 
ATOM     52  C   UNL     1     -12.181   8.302  -4.351  1.00  0.00     0.029 A 
ATOM     53  N   UNL     1     -11.379  10.364  -4.173  1.00  0.00    -0.354 N 
ATOM     54  N   UNL     1     -12.390  10.431  -0.590  1.00  0.00    -0.248 NA
ATOM     55  C   UNL     1     -13.401  11.738   1.002  1.00  0.00     0.031 C 
ATOM     56  C   UNL     1     -13.015   9.041  -3.471  1.00  0.00     0.029 A 
ATOM     57  C   UNL     1     -12.490  10.316  -3.343  1.00  0.00     0.049 A 
ATOM     58  H   UNL     1     -10.835  11.169  -4.333  1.00  0.00     0.167 HD
ATOM     59  C   UNL     1     -13.021  11.427  -1.276  1.00  0.00     0.074 A 
ATOM     60  C   UNL     1     -13.658  12.211  -0.232  1.00  0.00     0.031 C 
ATOM     61  C   UNL     1     -12.945  11.517  -2.637  1.00  0.00     0.034 A 
BRANCH  48  62
ATOM     62  C   UNL     1      -9.589   8.191  -6.674  1.00  0.00     0.023 A 
ATOM     63  C   UNL     1      -8.318   8.009  -7.265  1.00  0.00     0.031 A 
ATOM     64  C   UNL     1     -10.680   7.726  -7.441  1.00  0.00     0.131 A 
ATOM     65  C   UNL     1      -8.161   7.322  -8.486  1.00  0.00     0.055 A 
ATOM     66  C   UNL     1     -10.527   7.089  -8.679  1.00  0.00     0.041 A 
ATOM     67  F   UNL     1     -11.944   7.840  -7.014  1.00  0.00    -0.206 F 
ATOM     68  C   UNL     1      -9.263   6.865  -9.200  1.00  0.00     0.022 A 
BRANCH  65  69
ATOM     69  S   UNL     1      -6.511   6.933  -9.145  1.00  0.00     0.124 S 
ATOM     70  O   UNL     1      -6.598   5.491  -9.375  1.00  0.00    -0.237 OA
ATOM     71  O   UNL     1      -6.453   7.753 -10.351  1.00  0.00    -0.237 OA
ATOM     72  O   UNL     1      -5.604   7.324  -8.069  1.00  0.00    -0.744 OA
ENDBRANCH  65  69
ENDBRANCH  48  62
BRANCH  49  73
ATOM     73  C   UNL     1     -11.118   9.995   2.871  1.00  0.00     0.023 A 
ATOM     74  C   UNL     1     -10.045  10.891   2.718  1.00  0.00     0.031 A 
ATOM     75  C   UNL     1     -11.067   9.094   3.963  1.00  0.00     0.131 A 
ATOM     76  C   UNL     1      -8.919  10.777   3.561  1.00  0.00     0.055 A 
ATOM     77  C   UNL     1      -9.927   8.952   4.759  1.00  0.00     0.041 A 
ATOM     78  F   UNL     1     -12.080   8.236   4.177  1.00  0.00    -0.206 F 
ATOM     79  C   UNL     1      -8.829   9.772   4.533  1.00  0.00     0.022 A 
BRANCH  76  80
ATOM     80  S   UNL     1      -7.488  11.877   3.328  1.00  0.00     0.124 S 
ATOM     81  O   UNL     1      -7.830  12.981   4.220  1.00  0.00    -0.237 OA
ATOM     82  O   UNL     1      -6.365  11.053   3.770  1.00  0.00    -0.237 OA
ATOM     83  O   UNL     1      -7.521  12.166   1.904  1.00  0.00    -0.744 OA
ENDBRANCH  76  80
ENDBRANCH  49  73
BRANCH  61  84
ATOM     84  C   UNL     1     -13.340  12.709  -3.477  1.00  0.00     0.023 A 
ATOM     85  C   UNL     1     -13.434  12.529  -4.880  1.00  0.00     0.031 A 
ATOM     86  C   UNL     1     -13.444  14.030  -3.019  1.00  0.00     0.131 A 
ATOM     87  C   UNL     1     -13.558  13.613  -5.753  1.00  0.00     0.055 A 
ATOM     88  C   UNL     1     -13.677  15.104  -3.886  1.00  0.00     0.041 A 
ATOM     89  F   UNL     1     -13.253  14.355  -1.734  1.00  0.00    -0.206 F 
ATOM     90  C   UNL     1     -13.710  14.902  -5.260  1.00  0.00     0.022 A 
BRANCH  87  91
ATOM     91  S   UNL     1     -13.324  13.382  -7.537  1.00  0.00     0.124 S 
ATOM     92  O   UNL     1     -14.697  13.454  -8.027  1.00  0.00    -0.237 OA
ATOM     93  O   UNL     1     -12.473  14.519  -7.885  1.00  0.00    -0.237 OA
ATOM     94  O   UNL     1     -12.681  12.077  -7.637  1.00  0.00    -0.744 OA
ENDBRANCH  87  91
ENDBRANCH  61  84
ENDBRANCH  35  36
ENDBRANCH  27  30
ENDBRANCH  25  26
ENDBRANCH  24  25
ENDBRANCH   1  24
TORSDOF 18
