REMARK SMILES CCc1c(C)nn(CC(=O)N[C@H](C(=O)NCCCNC(=O)c2ccc(-c3c4nc(c(-c5cc(S(=O)(=O)[O-])ccc5F)c5ccc([nH]5)c(-c5cc(S(=O)(=O)[O-])ccc5F)c5nc(c(-c6cc(S(=O)(=O)[O-])ccc6F)c6ccc3[nH]6)C=C5)C=C4)cc2)c2c(C)n[nH]c2C)c1C
REMARK SMILES IDX 16 1 15 2 13 3 14 4 12 6 11 7 9 8 10 9 8 11 7 12 3 13 4 14
REMARK SMILES IDX 92 15 5 16 6 17 93 18 2 19 1 20 85 21 86 22 90 23 87 24
REMARK SMILES IDX 88 25 89 26 91 27 17 29 18 30 19 31 20 32 21 34 22 35 23 36
REMARK SMILES IDX 84 37 24 38 83 39 25 40 26 41 27 42 77 43 28 44 82 45 76 46
REMARK SMILES IDX 78 47 29 48 81 49 75 50 74 51 30 53 62 54 42 55 61 56 43 57
REMARK SMILES IDX 46 58 60 59 79 60 44 61 45 62 59 64 80 65 47 66 31 67 32 68
REMARK SMILES IDX 40 69 33 70 39 71 41 72 38 73 34 74 35 75 36 76 37 77 63 78
REMARK SMILES IDX 64 79 72 80 65 81 71 82 73 83 70 84 66 85 67 86 68 87 69 88
REMARK SMILES IDX 48 89 49 90 57 91 50 92 56 93 58 94 55 95 51 96 52 97 53 98
REMARK SMILES IDX 54 99
REMARK H PARENT 15 5 11 10 89 28 19 33 78 52 46 63
REMARK Flexibility Score: inf
ROOT
ATOM      1  C   UNL     1       0.702  -4.942   1.797  1.00  0.00     0.117 C 
ENDROOT
BRANCH   1   2
ATOM      2  N   UNL     1       2.022  -5.514   1.918  1.00  0.00    -0.354 N 
ATOM      3  C   UNL     1       3.167  -5.389   1.221  1.00  0.00     0.247 C 
ATOM      4  O   UNL     1       4.085  -5.168   2.041  1.00  0.00    -0.272 OA
ATOM      5  H   UNL     1       2.102  -6.133   2.679  1.00  0.00     0.163 HD
BRANCH   3   6
ATOM      6  C   UNL     1       3.474  -5.358  -0.345  1.00  0.00     0.206 C 
BRANCH   6   7
ATOM      7  N   UNL     1       4.895  -5.069  -0.301  1.00  0.00    -0.339 N 
ATOM      8  C   UNL     1       5.825  -5.919   0.234  1.00  0.00     0.242 C 
ATOM      9  O   UNL     1       6.975  -5.474   0.329  1.00  0.00    -0.273 OA
ATOM     10  H   UNL     1       5.208  -4.214  -0.676  1.00  0.00     0.164 HD
BRANCH   8  11
ATOM     11  C   UNL     1       5.515  -7.388   0.496  1.00  0.00     0.244 C 
BRANCH  11  12
ATOM     12  N   UNL     1       4.499  -7.903   1.458  1.00  0.00    -0.260 N 
ATOM     13  C   UNL     1       3.022  -9.296   2.447  1.00  0.00    -0.004 A 
ATOM     14  C   UNL     1       4.204  -9.147   3.197  1.00  0.00     0.063 A 
ATOM     15  C   UNL     1       3.168  -8.389   1.393  1.00  0.00     0.039 A 
ATOM     16  C   UNL     1       4.632  -9.754   4.475  1.00  0.00     0.069 C 
ATOM     17  N   UNL     1       5.056  -8.298   2.627  1.00  0.00    -0.177 NA
ATOM     18  C   UNL     1       1.978  -8.088   0.519  1.00  0.00     0.066 C 
BRANCH  13  19
ATOM     19  C   UNL     1       1.782 -10.139   2.620  1.00  0.00     0.036 C 
ATOM     20  C   UNL     1       1.631 -10.965   3.870  1.00  0.00     0.009 C 
ENDBRANCH  13  19
ENDBRANCH  11  12
ENDBRANCH   8  11
ENDBRANCH   6   7
BRANCH   6  21
ATOM     21  C   UNL     1       3.378  -6.324  -1.632  1.00  0.00     0.027 A 
ATOM     22  C   UNL     1       3.351  -5.639  -2.928  1.00  0.00     0.065 A 
ATOM     23  C   UNL     1       3.510  -7.684  -2.074  1.00  0.00     0.038 A 
ATOM     24  C   UNL     1       3.450  -4.185  -3.215  1.00  0.00     0.069 C 
ATOM     25  N   UNL     1       3.315  -6.453  -3.976  1.00  0.00    -0.180 NA
ATOM     26  N   UNL     1       3.381  -7.652  -3.444  1.00  0.00    -0.282 N 
ATOM     27  C   UNL     1       3.754  -9.117  -1.631  1.00  0.00     0.066 C 
ATOM     28  H   UNL     1       3.341  -8.472  -3.988  1.00  0.00     0.190 HD
ENDBRANCH   6  21
ENDBRANCH   3   6
ENDBRANCH   1   2
BRANCH   1  29
ATOM     29  C   UNL     1      -0.408  -5.890   2.271  1.00  0.00     0.042 C 
BRANCH  29  30
ATOM     30  C   UNL     1      -0.189  -6.625   3.605  1.00  0.00     0.118 C 
BRANCH  30  31
ATOM     31  N   UNL     1      -0.381  -5.789   4.782  1.00  0.00    -0.352 N 
ATOM     32  C   UNL     1      -1.409  -5.742   5.691  1.00  0.00     0.251 C 
ATOM     33  H   UNL     1       0.349  -5.151   4.955  1.00  0.00     0.163 HD
ATOM     34  O   UNL     1      -1.419  -4.824   6.526  1.00  0.00    -0.269 OA
BRANCH  32  35
ATOM     35  C   UNL     1      -2.519  -6.725   5.685  1.00  0.00     0.039 A 
ATOM     36  C   UNL     1      -3.826  -6.263   5.876  1.00  0.00     0.014 A 
ATOM     37  C   UNL     1      -2.293  -8.098   5.553  1.00  0.00     0.014 A 
ATOM     38  C   UNL     1      -4.902  -7.159   5.850  1.00  0.00     0.010 A 
ATOM     39  C   UNL     1      -3.373  -8.982   5.456  1.00  0.00     0.010 A 
ATOM     40  C   UNL     1      -4.693  -8.524   5.596  1.00  0.00    -0.014 A 
BRANCH  40  41
ATOM     41  C   UNL     1      -5.843  -9.466   5.456  1.00  0.00     0.031 A 
ATOM     42  C   UNL     1      -6.015 -10.619   6.413  1.00  0.00     0.074 A 
ATOM     43  C   UNL     1      -6.707  -9.318   4.429  1.00  0.00     0.049 A 
ATOM     44  N   UNL     1      -6.911 -11.574   6.407  1.00  0.00    -0.248 NA
ATOM     45  C   UNL     1      -5.037 -10.724   7.505  1.00  0.00     0.031 C 
ATOM     46  C   UNL     1      -6.633  -8.268   3.411  1.00  0.00     0.029 A 
ATOM     47  N   UNL     1      -7.810 -10.052   4.063  1.00  0.00    -0.354 N 
ATOM     48  C   UNL     1      -6.597 -12.402   7.481  1.00  0.00     0.074 A 
ATOM     49  C   UNL     1      -5.396 -11.862   8.082  1.00  0.00     0.031 C 
ATOM     50  C   UNL     1      -7.654  -8.412   2.552  1.00  0.00     0.029 A 
ATOM     51  C   UNL     1      -8.429  -9.593   2.921  1.00  0.00     0.049 A 
ATOM     52  H   UNL     1      -8.128 -10.834   4.569  1.00  0.00     0.167 HD
ATOM     53  C   UNL     1      -7.258 -13.498   7.933  1.00  0.00     0.034 A 
ATOM     54  C   UNL     1      -9.486 -10.073   2.234  1.00  0.00     0.034 A 
ATOM     55  C   UNL     1      -8.465 -14.017   7.333  1.00  0.00     0.049 A 
ATOM     56  C   UNL     1     -10.190 -11.306   2.745  1.00  0.00     0.074 A 
ATOM     57  C   UNL     1      -9.247 -15.080   7.755  1.00  0.00     0.029 A 
ATOM     58  N   UNL     1      -9.060 -13.525   6.179  1.00  0.00    -0.354 N 
ATOM     59  N   UNL     1      -9.911 -12.040   3.798  1.00  0.00    -0.248 NA
ATOM     60  C   UNL     1     -11.358 -11.767   1.984  1.00  0.00     0.031 C 
ATOM     61  C   UNL     1     -10.263 -15.280   6.815  1.00  0.00     0.029 A 
ATOM     62  C   UNL     1     -10.174 -14.287   5.854  1.00  0.00     0.049 A 
ATOM     63  H   UNL     1      -8.739 -12.748   5.666  1.00  0.00     0.167 HD
ATOM     64  C   UNL     1     -10.890 -13.030   3.840  1.00  0.00     0.074 A 
ATOM     65  C   UNL     1     -11.775 -12.786   2.720  1.00  0.00     0.031 C 
ATOM     66  C   UNL     1     -11.046 -14.046   4.728  1.00  0.00     0.034 A 
BRANCH  53  67
ATOM     67  C   UNL     1      -6.672 -14.232   9.118  1.00  0.00     0.023 A 
ATOM     68  C   UNL     1      -6.548 -13.626  10.380  1.00  0.00     0.031 A 
ATOM     69  C   UNL     1      -6.230 -15.561   8.983  1.00  0.00     0.131 A 
ATOM     70  C   UNL     1      -5.934 -14.321  11.435  1.00  0.00     0.055 A 
ATOM     71  C   UNL     1      -5.696 -16.275  10.057  1.00  0.00     0.041 A 
ATOM     72  F   UNL     1      -6.304 -16.188   7.798  1.00  0.00    -0.206 F 
ATOM     73  C   UNL     1      -5.532 -15.650  11.290  1.00  0.00     0.022 A 
BRANCH  70  74
ATOM     74  S   UNL     1      -5.540 -13.416  12.956  1.00  0.00     0.124 S 
ATOM     75  O   UNL     1      -4.684 -12.346  12.449  1.00  0.00    -0.237 OA
ATOM     76  O   UNL     1      -6.859 -13.008  13.430  1.00  0.00    -0.237 OA
ATOM     77  O   UNL     1      -4.860 -14.410  13.781  1.00  0.00    -0.744 OA
ENDBRANCH  70  74
ENDBRANCH  53  67
BRANCH  54  78
ATOM     78  C   UNL     1      -9.937  -9.411   0.974  1.00  0.00     0.023 A 
ATOM     79  C   UNL     1     -11.215  -8.840   0.867  1.00  0.00     0.031 A 
ATOM     80  C   UNL     1      -9.111  -9.388  -0.165  1.00  0.00     0.131 A 
ATOM     81  C   UNL     1     -11.651  -8.322  -0.363  1.00  0.00     0.055 A 
ATOM     82  C   UNL     1      -9.526  -8.815  -1.369  1.00  0.00     0.041 A 
ATOM     83  F   UNL     1      -7.878  -9.917  -0.121  1.00  0.00    -0.206 F 
ATOM     84  C   UNL     1     -10.810  -8.291  -1.477  1.00  0.00     0.022 A 
BRANCH  81  85
ATOM     85  S   UNL     1     -13.376  -7.780  -0.515  1.00  0.00     0.124 S 
ATOM     86  O   UNL     1     -14.100  -8.988  -0.141  1.00  0.00    -0.237 OA
ATOM     87  O   UNL     1     -13.431  -6.676   0.438  1.00  0.00    -0.237 OA
ATOM     88  O   UNL     1     -13.487  -7.393  -1.920  1.00  0.00    -0.744 OA
ENDBRANCH  81  85
ENDBRANCH  54  78
BRANCH  66  89
ATOM     89  C   UNL     1     -12.249 -14.941   4.547  1.00  0.00     0.023 A 
ATOM     90  C   UNL     1     -12.398 -15.769   3.419  1.00  0.00     0.031 A 
ATOM     91  C   UNL     1     -13.272 -14.955   5.513  1.00  0.00     0.131 A 
ATOM     92  C   UNL     1     -13.568 -16.526   3.256  1.00  0.00     0.055 A 
ATOM     93  C   UNL     1     -14.402 -15.763   5.379  1.00  0.00     0.041 A 
ATOM     94  F   UNL     1     -13.188 -14.182   6.608  1.00  0.00    -0.206 F 
ATOM     95  C   UNL     1     -14.562 -16.544   4.238  1.00  0.00     0.022 A 
BRANCH  92  96
ATOM     96  S   UNL     1     -13.823 -17.409   1.692  1.00  0.00     0.124 S 
ATOM     97  O   UNL     1     -13.746 -16.327   0.717  1.00  0.00    -0.237 OA
ATOM     98  O   UNL     1     -12.712 -18.355   1.683  1.00  0.00    -0.237 OA
ATOM     99  O   UNL     1     -15.147 -18.010   1.849  1.00  0.00    -0.744 OA
ENDBRANCH  92  96
ENDBRANCH  66  89
ENDBRANCH  40  41
ENDBRANCH  32  35
ENDBRANCH  30  31
ENDBRANCH  29  30
ENDBRANCH   1  29
TORSDOF 18
