REMARK SMILES O=C(NCCCNC(=O)c1cc(N2CCN(c3ccc(F)cc3)CC2)ccc1NC(=O)C1CCCC1)c1ccc(-c2c3nc(c(-c4cc(S(=O)(=O)[O-])ccc4F)c4ccc([nH]4)c(-c4cc(S(=O)(=O)[O-])ccc4F)c4nc(c(-c5cc(S(=O)(=O)[O-])ccc5F)c5ccc2[nH]5)C=C4)C=C3)cc1
REMARK SMILES IDX 4 1 3 2 1 3 2 4 37 6 38 7 99 8 39 9 98 10 40 11 41 12 42 13
REMARK SMILES IDX 92 14 43 15 97 16 91 17 93 18 44 19 96 20 90 21 89 22 45 24
REMARK SMILES IDX 77 25 57 26 76 27 58 28 61 29 75 30 94 31 59 32 60 33 74 35
REMARK SMILES IDX 95 36 62 37 46 38 47 39 55 40 48 41 54 42 56 43 53 44 49 45
REMARK SMILES IDX 50 46 51 47 52 48 78 49 79 50 87 51 80 52 86 53 88 54 85 55
REMARK SMILES IDX 81 56 82 57 83 58 84 59 63 60 64 61 72 62 65 63 71 64 73 65
REMARK SMILES IDX 70 66 66 67 67 68 68 69 69 70 5 71 6 72 7 73 8 74 9 76 10 77
REMARK SMILES IDX 11 78 28 79 12 80 27 81 26 82 29 83 30 84 31 86 32 87 33 88
REMARK SMILES IDX 36 89 34 90 35 91 13 92 14 93 25 94 15 95 24 96 16 97 17 98
REMARK SMILES IDX 18 99 23 100 19 101 22 102 20 103 21 104
REMARK H PARENT 3 5 93 23 61 34 7 75 29 85
REMARK Flexibility Score: inf
ROOT
ATOM      1  C   UNL     1       4.664  -0.771   0.822  1.00  0.00     0.118 C 
ENDROOT
BRANCH   1   2
ATOM      2  N   UNL     1       3.211  -0.795   0.704  1.00  0.00    -0.352 N 
ATOM      3  O   UNL     1       1.165  -0.179  -0.015  1.00  0.00    -0.269 OA
ATOM      4  C   UNL     1       2.385  -0.118  -0.161  1.00  0.00     0.251 C 
ATOM      5  H   UNL     1       2.751  -1.388   1.342  1.00  0.00     0.163 HD
BRANCH   4   6
ATOM      6  C   UNL     1       2.960   0.701  -1.247  1.00  0.00     0.039 A 
ATOM      7  C   UNL     1       3.996   0.206  -2.042  1.00  0.00     0.014 A 
ATOM      8  C   UNL     1       2.452   1.982  -1.474  1.00  0.00     0.014 A 
ATOM      9  C   UNL     1       4.635   1.045  -2.947  1.00  0.00     0.010 A 
ATOM     10  C   UNL     1       3.029   2.789  -2.457  1.00  0.00     0.010 A 
ATOM     11  C   UNL     1       4.146   2.338  -3.180  1.00  0.00    -0.014 A 
BRANCH  11  12
ATOM     12  C   UNL     1       4.773   3.193  -4.219  1.00  0.00     0.031 A 
ATOM     13  C   UNL     1       5.407   4.504  -3.855  1.00  0.00     0.074 A 
ATOM     14  C   UNL     1       4.740   2.787  -5.503  1.00  0.00     0.049 A 
ATOM     15  N   UNL     1       5.899   5.431  -4.637  1.00  0.00    -0.248 NA
ATOM     16  C   UNL     1       5.485   4.820  -2.423  1.00  0.00     0.031 C 
ATOM     17  C   UNL     1       4.159   1.526  -5.970  1.00  0.00     0.029 A 
ATOM     18  N   UNL     1       5.187   3.392  -6.650  1.00  0.00    -0.354 N 
ATOM     19  C   UNL     1       6.321   6.455  -3.796  1.00  0.00     0.074 A 
ATOM     20  C   UNL     1       5.992   6.043  -2.446  1.00  0.00     0.031 C 
ATOM     21  C   UNL     1       4.293   1.447  -7.300  1.00  0.00     0.029 A 
ATOM     22  C   UNL     1       4.886   2.685  -7.790  1.00  0.00     0.049 A 
ATOM     23  H   UNL     1       5.676   4.246  -6.656  1.00  0.00     0.167 HD
ATOM     24  C   UNL     1       6.927   7.624  -4.126  1.00  0.00     0.034 A 
ATOM     25  C   UNL     1       5.016   3.014  -9.089  1.00  0.00     0.034 A 
ATOM     26  C   UNL     1       7.227   8.010  -5.486  1.00  0.00     0.049 A 
ATOM     27  C   UNL     1       5.617   4.346  -9.442  1.00  0.00     0.074 A 
ATOM     28  C   UNL     1       7.869   9.150  -5.938  1.00  0.00     0.029 A 
ATOM     29  N   UNL     1       6.883   7.277  -6.618  1.00  0.00    -0.354 N 
ATOM     30  N   UNL     1       6.027   5.301  -8.639  1.00  0.00    -0.248 NA
ATOM     31  C   UNL     1       5.778   4.646 -10.869  1.00  0.00     0.031 C 
ATOM     32  C   UNL     1       7.830   9.151  -7.336  1.00  0.00     0.029 A 
ATOM     33  C   UNL     1       7.259   7.963  -7.764  1.00  0.00     0.049 A 
ATOM     34  H   UNL     1       6.438   6.399  -6.607  1.00  0.00     0.167 HD
ATOM     35  C   UNL     1       6.523   6.304  -9.465  1.00  0.00     0.074 A 
ATOM     36  C   UNL     1       6.358   5.838 -10.827  1.00  0.00     0.031 C 
ATOM     37  C   UNL     1       7.080   7.493  -9.121  1.00  0.00     0.034 A 
BRANCH  24  38
ATOM     38  C   UNL     1       7.236   8.588  -3.001  1.00  0.00     0.023 A 
ATOM     39  C   UNL     1       8.079   8.239  -1.932  1.00  0.00     0.031 A 
ATOM     40  C   UNL     1       6.628   9.857  -2.966  1.00  0.00     0.131 A 
ATOM     41  C   UNL     1       8.204   9.096  -0.827  1.00  0.00     0.055 A 
ATOM     42  C   UNL     1       6.838  10.748  -1.910  1.00  0.00     0.041 A 
ATOM     43  F   UNL     1       5.796  10.246  -3.945  1.00  0.00    -0.206 F 
ATOM     44  C   UNL     1       7.611  10.360  -0.821  1.00  0.00     0.022 A 
BRANCH  41  45
ATOM     45  S   UNL     1       8.982   8.451   0.681  1.00  0.00     0.124 S 
ATOM     46  O   UNL     1       8.197   7.243   0.927  1.00  0.00    -0.237 OA
ATOM     47  O   UNL     1      10.361   8.240   0.259  1.00  0.00    -0.237 OA
ATOM     48  O   UNL     1       8.782   9.521   1.656  1.00  0.00    -0.744 OA
ENDBRANCH  41  45
ENDBRANCH  24  38
BRANCH  25  49
ATOM     49  C   UNL     1       4.505   2.082 -10.132  1.00  0.00     0.023 A 
ATOM     50  C   UNL     1       5.374   1.423 -11.013  1.00  0.00     0.031 A 
ATOM     51  C   UNL     1       3.127   1.810 -10.232  1.00  0.00     0.131 A 
ATOM     52  C   UNL     1       4.853   0.537 -11.969  1.00  0.00     0.055 A 
ATOM     53  C   UNL     1       2.621   0.889 -11.149  1.00  0.00     0.041 A 
ATOM     54  F   UNL     1       2.255   2.409  -9.405  1.00  0.00    -0.206 F 
ATOM     55  C   UNL     1       3.486   0.251 -12.030  1.00  0.00     0.022 A 
BRANCH  52  56
ATOM     56  S   UNL     1       5.987  -0.207 -13.172  1.00  0.00     0.124 S 
ATOM     57  O   UNL     1       6.527   0.973 -13.839  1.00  0.00    -0.237 OA
ATOM     58  O   UNL     1       6.911  -0.936 -12.309  1.00  0.00    -0.237 OA
ATOM     59  O   UNL     1       5.113  -1.043 -13.992  1.00  0.00    -0.744 OA
ENDBRANCH  52  56
ENDBRANCH  25  49
BRANCH  37  60
ATOM     60  C   UNL     1       7.619   8.356 -10.237  1.00  0.00     0.023 A 
ATOM     61  C   UNL     1       6.779   8.995 -11.165  1.00  0.00     0.031 A 
ATOM     62  C   UNL     1       9.006   8.569 -10.340  1.00  0.00     0.131 A 
ATOM     63  C   UNL     1       7.339   9.798 -12.172  1.00  0.00     0.055 A 
ATOM     64  C   UNL     1       9.551   9.413 -11.307  1.00  0.00     0.041 A 
ATOM     65  F   UNL     1       9.854   7.975  -9.484  1.00  0.00    -0.206 F 
ATOM     66  C   UNL     1       8.717  10.028 -12.235  1.00  0.00     0.022 A 
BRANCH  63  67
ATOM     67  S   UNL     1       6.250  10.498 -13.443  1.00  0.00     0.124 S 
ATOM     68  O   UNL     1       5.692   9.297 -14.057  1.00  0.00    -0.237 OA
ATOM     69  O   UNL     1       5.322  11.302 -12.654  1.00  0.00    -0.237 OA
ATOM     70  O   UNL     1       7.161  11.262 -14.293  1.00  0.00    -0.744 OA
ENDBRANCH  63  67
ENDBRANCH  37  60
ENDBRANCH  11  12
ENDBRANCH   4   6
ENDBRANCH   1   2
BRANCH   1  71
ATOM     71  C   UNL     1       5.163  -0.146   2.121  1.00  0.00     0.042 C 
BRANCH  71  72
ATOM     72  C   UNL     1       4.730  -0.875   3.384  1.00  0.00     0.118 C 
BRANCH  72  73
ATOM     73  N   UNL     1       5.159  -2.264   3.394  1.00  0.00    -0.352 N 
ATOM     74  C   UNL     1       5.893  -2.980   4.299  1.00  0.00     0.253 C 
ATOM     75  H   UNL     1       4.870  -2.783   2.608  1.00  0.00     0.163 HD
ATOM     76  O   UNL     1       6.361  -4.059   3.933  1.00  0.00    -0.269 OA
BRANCH  74  77
ATOM     77  C   UNL     1       6.097  -2.571   5.711  1.00  0.00     0.065 A 
ATOM     78  C   UNL     1       7.384  -2.814   6.244  1.00  0.00     0.042 A 
ATOM     79  C   UNL     1       5.051  -2.190   6.570  1.00  0.00     0.054 A 
ATOM     80  C   UNL     1       7.625  -2.778   7.621  1.00  0.00     0.038 A 
ATOM     81  C   UNL     1       5.256  -2.290   7.936  1.00  0.00     0.029 A 
ATOM     82  C   UNL     1       6.524  -2.540   8.448  1.00  0.00     0.028 A 
BRANCH  79  83
ATOM     83  N   UNL     1       3.809  -1.759   6.093  1.00  0.00    -0.325 N 
ATOM     84  C   UNL     1       2.972  -0.771   6.527  1.00  0.00     0.227 C 
ATOM     85  H   UNL     1       3.481  -2.254   5.308  1.00  0.00     0.169 HD
ATOM     86  O   UNL     1       1.958  -0.598   5.836  1.00  0.00    -0.274 OA
BRANCH  84  87
ATOM     87  C   UNL     1       3.179   0.075   7.799  1.00  0.00     0.079 C 
ATOM     88  C   UNL     1       4.548   0.640   8.184  1.00  0.00     0.013 C 
ATOM     89  C   UNL     1       2.388   1.394   7.674  1.00  0.00     0.013 C 
ATOM     90  C   UNL     1       4.228   1.709   9.221  1.00  0.00     0.001 C 
ATOM     91  C   UNL     1       2.902   2.306   8.784  1.00  0.00     0.001 C 
ENDBRANCH  84  87
ENDBRANCH  79  83
BRANCH  80  92
ATOM     92  N   UNL     1       8.856  -3.075   8.161  1.00  0.00    -0.368 N 
ATOM     93  C   UNL     1      10.112  -2.410   7.752  1.00  0.00     0.138 C 
ATOM     94  C   UNL     1       8.940  -3.858   9.401  1.00  0.00     0.138 C 
ATOM     95  C   UNL     1      10.773  -1.625   8.936  1.00  0.00     0.138 C 
ATOM     96  C   UNL     1       9.431  -2.963  10.549  1.00  0.00     0.138 C 
ATOM     97  N   UNL     1      10.735  -2.384  10.208  1.00  0.00    -0.368 N 
BRANCH  97  98
ATOM     98  C   UNL     1      11.885  -2.866  10.798  1.00  0.00     0.037 A 
ATOM     99  C   UNL     1      12.886  -1.983  11.227  1.00  0.00     0.029 A 
ATOM    100  C   UNL     1      12.074  -4.235  11.050  1.00  0.00     0.029 A 
ATOM    101  C   UNL     1      14.017  -2.446  11.908  1.00  0.00     0.041 A 
ATOM    102  C   UNL     1      13.209  -4.708  11.712  1.00  0.00     0.041 A 
ATOM    103  C   UNL     1      14.167  -3.805  12.143  1.00  0.00     0.123 A 
ATOM    104  F   UNL     1      15.245  -4.252  12.801  1.00  0.00    -0.207 F 
ENDBRANCH  97  98
ENDBRANCH  80  92
ENDBRANCH  74  77
ENDBRANCH  72  73
ENDBRANCH  71  72
ENDBRANCH   1  71
TORSDOF 17
