REMARK SMILES CN1C=C/C(=C\C=C/C=N\c2ccc(C(=O)NCCCNC(=O)c3ccc(-c4c5nc(c(-c6cc(S(=O)(=O)[O-])ccc6F)c6ccc([nH]6)c(-c6cc(S(=O)(=O)[O-])ccc6F)c6nc(c(-c7cc(S(=O)(=O)[O-])ccc7F)c7ccc4[nH]7)C=C6)C=C5)cc3)cc2)c2ccccc21
REMARK SMILES IDX 19 1 18 2 17 3 15 4 16 5 14 7 11 8 12 9 88 10 13 11 87 12
REMARK SMILES IDX 10 13 9 14 8 15 7 16 6 17 1 18 2 19 3 20 94 21 4 22 89 23
REMARK SMILES IDX 93 24 5 25 90 26 92 27 91 28 20 29 21 30 22 31 23 33 24 34
REMARK SMILES IDX 25 35 86 36 26 37 85 38 27 39 28 40 29 41 79 42 30 43 84 44
REMARK SMILES IDX 78 45 80 46 31 47 83 48 77 49 76 50 32 52 64 53 44 54 63 55
REMARK SMILES IDX 45 56 48 57 62 58 81 59 46 60 47 61 61 63 82 64 49 65 33 66
REMARK SMILES IDX 34 67 42 68 35 69 41 70 43 71 40 72 36 73 37 74 38 75 39 76
REMARK SMILES IDX 65 77 66 78 74 79 67 80 73 81 75 82 72 83 68 84 69 85 70 86
REMARK SMILES IDX 71 87 50 88 51 89 59 90 52 91 58 92 60 93 57 94 53 95 54 96
REMARK SMILES IDX 55 97 56 98
REMARK H PARENT 17 6 21 32 80 51 48 62
REMARK Flexibility Score: inf
ROOT
ATOM      1  C   UNL     1      -7.463  -0.622 -12.102  1.00  0.00     0.042 C 
ENDROOT
BRANCH   1   2
ATOM      2  C   UNL     1      -6.135  -0.992 -12.748  1.00  0.00     0.118 C 
BRANCH   2   3
ATOM      3  N   UNL     1      -5.243   0.140 -12.956  1.00  0.00    -0.352 N 
ATOM      4  C   UNL     1      -3.938   0.390 -12.621  1.00  0.00     0.251 C 
ATOM      5  O   UNL     1      -3.472   1.487 -12.937  1.00  0.00    -0.269 OA
ATOM      6  H   UNL     1      -5.669   0.885 -13.439  1.00  0.00     0.163 HD
BRANCH   4   7
ATOM      7  C   UNL     1      -3.085  -0.554 -11.853  1.00  0.00     0.039 A 
ATOM      8  C   UNL     1      -1.555  -2.160 -10.120  1.00  0.00     0.063 A 
ATOM      9  C   UNL     1      -1.272  -0.800 -10.252  1.00  0.00     0.029 A 
ATOM     10  C   UNL     1      -2.490  -2.735 -10.980  1.00  0.00     0.029 A 
ATOM     11  C   UNL     1      -2.057   0.005 -11.079  1.00  0.00     0.016 A 
ATOM     12  C   UNL     1      -3.221  -1.942 -11.873  1.00  0.00     0.016 A 
BRANCH   8  13
ATOM     13  N   UNL     1      -0.912  -2.971  -9.177  1.00  0.00    -0.257 NA
ATOM     14  C   UNL     1      -0.962  -2.683  -7.912  1.00  0.00     0.111 C 
BRANCH  14  15
ATOM     15  C   UNL     1      -1.626  -1.537  -7.227  1.00  0.00     0.020 C 
ATOM     16  C   UNL     1      -1.456  -1.185  -5.944  1.00  0.00     0.002 C 
BRANCH  16  17
ATOM     17  C   UNL     1      -0.721  -1.911  -4.927  1.00  0.00     0.009 C 
ATOM     18  C   UNL     1       0.956   0.066   0.117  1.00  0.00     0.149 C 
ATOM     19  N   UNL     1       0.560  -0.457  -1.189  1.00  0.00    -0.351 N 
ATOM     20  C   UNL     1       0.031   0.365  -2.167  1.00  0.00     0.086 C 
ATOM     21  C   UNL     1       0.716  -1.849  -1.447  1.00  0.00     0.048 A 
ATOM     22  C   UNL     1      -0.381  -0.039  -3.374  1.00  0.00     0.026 C 
ATOM     23  C   UNL     1       0.330  -2.389  -2.714  1.00  0.00     0.005 A 
ATOM     24  C   UNL     1       1.239  -2.732  -0.478  1.00  0.00     0.027 A 
ATOM     25  C   UNL     1      -0.281  -1.452  -3.733  1.00  0.00    -0.015 C 
ATOM     26  C   UNL     1       0.499  -3.771  -2.943  1.00  0.00     0.011 A 
ATOM     27  C   UNL     1       1.383  -4.097  -0.730  1.00  0.00     0.002 A 
ATOM     28  C   UNL     1       1.017  -4.615  -1.962  1.00  0.00     0.001 A 
ENDBRANCH  16  17
ENDBRANCH  14  15
ENDBRANCH   8  13
ENDBRANCH   4   7
ENDBRANCH   2   3
ENDBRANCH   1   2
BRANCH   1  29
ATOM     29  C   UNL     1      -8.269   0.438 -12.837  1.00  0.00     0.118 C 
BRANCH  29  30
ATOM     30  N   UNL     1      -8.743   0.009 -14.146  1.00  0.00    -0.352 N 
ATOM     31  C   UNL     1      -9.962  -0.481 -14.568  1.00  0.00     0.251 C 
ATOM     32  H   UNL     1      -8.071   0.081 -14.861  1.00  0.00     0.163 HD
ATOM     33  O   UNL     1     -10.062  -0.914 -15.709  1.00  0.00    -0.269 OA
BRANCH  31  34
ATOM     34  C   UNL     1     -11.125  -0.537 -13.649  1.00  0.00     0.039 A 
ATOM     35  C   UNL     1     -11.393   0.490 -12.750  1.00  0.00     0.014 A 
ATOM     36  C   UNL     1     -11.981  -1.644 -13.699  1.00  0.00     0.014 A 
ATOM     37  C   UNL     1     -12.347   0.309 -11.754  1.00  0.00     0.010 A 
ATOM     38  C   UNL     1     -13.027  -1.767 -12.774  1.00  0.00     0.010 A 
ATOM     39  C   UNL     1     -13.178  -0.823 -11.748  1.00  0.00    -0.014 A 
BRANCH  39  40
ATOM     40  C   UNL     1     -14.186  -0.983 -10.662  1.00  0.00     0.031 A 
ATOM     41  C   UNL     1     -14.128  -2.157  -9.718  1.00  0.00     0.074 A 
ATOM     42  C   UNL     1     -15.109  -0.018 -10.474  1.00  0.00     0.049 A 
ATOM     43  N   UNL     1     -14.889  -2.422  -8.687  1.00  0.00    -0.248 NA
ATOM     44  C   UNL     1     -13.086  -3.168  -9.962  1.00  0.00     0.031 C 
ATOM     45  C   UNL     1     -15.257   1.168 -11.317  1.00  0.00     0.029 A 
ATOM     46  N   UNL     1     -16.065   0.147  -9.501  1.00  0.00    -0.354 N 
ATOM     47  C   UNL     1     -14.432  -3.631  -8.171  1.00  0.00     0.074 A 
ATOM     48  C   UNL     1     -13.354  -4.070  -9.027  1.00  0.00     0.031 C 
ATOM     49  C   UNL     1     -16.178   1.978 -10.780  1.00  0.00     0.029 A 
ATOM     50  C   UNL     1     -16.756   1.334  -9.604  1.00  0.00     0.049 A 
ATOM     51  H   UNL     1     -16.239  -0.519  -8.797  1.00  0.00     0.167 HD
ATOM     52  C   UNL     1     -14.860  -4.301  -7.074  1.00  0.00     0.034 A 
ATOM     53  C   UNL     1     -17.747   1.849  -8.848  1.00  0.00     0.034 A 
ATOM     54  C   UNL     1     -15.925  -3.843  -6.217  1.00  0.00     0.049 A 
ATOM     55  C   UNL     1     -18.228   1.068  -7.654  1.00  0.00     0.074 A 
ATOM     56  C   UNL     1     -16.430  -4.452  -5.082  1.00  0.00     0.029 A 
ATOM     57  N   UNL     1     -16.637  -2.664  -6.387  1.00  0.00    -0.354 N 
ATOM     58  N   UNL     1     -17.775  -0.068  -7.178  1.00  0.00    -0.248 NA
ATOM     59  C   UNL     1     -19.356   1.628  -6.897  1.00  0.00     0.031 C 
ATOM     60  C   UNL     1     -17.481  -3.671  -4.598  1.00  0.00     0.029 A 
ATOM     61  C   UNL     1     -17.589  -2.538  -5.389  1.00  0.00     0.049 A 
ATOM     62  H   UNL     1     -16.488  -2.013  -7.111  1.00  0.00     0.167 HD
ATOM     63  C   UNL     1     -18.554  -0.353  -6.061  1.00  0.00     0.074 A 
ATOM     64  C   UNL     1     -19.486   0.746  -5.914  1.00  0.00     0.031 C 
ATOM     65  C   UNL     1     -18.508  -1.433  -5.242  1.00  0.00     0.034 A 
BRANCH  52  66
ATOM     66  C   UNL     1     -14.180  -5.600  -6.711  1.00  0.00     0.023 A 
ATOM     67  C   UNL     1     -14.907  -6.806  -6.715  1.00  0.00     0.031 A 
ATOM     68  C   UNL     1     -12.852  -5.628  -6.249  1.00  0.00     0.131 A 
ATOM     69  C   UNL     1     -14.312  -7.981  -6.237  1.00  0.00     0.055 A 
ATOM     70  C   UNL     1     -12.251  -6.809  -5.811  1.00  0.00     0.041 A 
ATOM     71  F   UNL     1     -12.115  -4.505  -6.226  1.00  0.00    -0.206 F 
ATOM     72  C   UNL     1     -12.986  -7.990  -5.792  1.00  0.00     0.022 A 
BRANCH  69  73
ATOM     73  S   UNL     1     -15.250  -9.528  -6.115  1.00  0.00     0.124 S 
ATOM     74  O   UNL     1     -14.478 -10.415  -6.983  1.00  0.00    -0.237 OA
ATOM     75  O   UNL     1     -15.165  -9.825  -4.687  1.00  0.00    -0.237 OA
ATOM     76  O   UNL     1     -16.576  -9.175  -6.608  1.00  0.00    -0.744 OA
ENDBRANCH  69  73
ENDBRANCH  52  66
BRANCH  53  77
ATOM     77  C   UNL     1     -18.299   3.193  -9.193  1.00  0.00     0.023 A 
ATOM     78  C   UNL     1     -18.894   3.431 -10.446  1.00  0.00     0.031 A 
ATOM     79  C   UNL     1     -18.124   4.286  -8.328  1.00  0.00     0.131 A 
ATOM     80  C   UNL     1     -19.204   4.740 -10.833  1.00  0.00     0.055 A 
ATOM     81  C   UNL     1     -18.510   5.579  -8.687  1.00  0.00     0.041 A 
ATOM     82  F   UNL     1     -17.553   4.112  -7.126  1.00  0.00    -0.206 F 
ATOM     83  C   UNL     1     -19.032   5.814  -9.955  1.00  0.00     0.022 A 
BRANCH  80  84
ATOM     84  S   UNL     1     -19.690   5.111 -12.543  1.00  0.00     0.124 S 
ATOM     85  O   UNL     1     -21.015   5.694 -12.363  1.00  0.00    -0.237 OA
ATOM     86  O   UNL     1     -18.641   6.040 -12.955  1.00  0.00    -0.237 OA
ATOM     87  O   UNL     1     -19.655   3.808 -13.200  1.00  0.00    -0.744 OA
ENDBRANCH  80  84
ENDBRANCH  53  77
BRANCH  65  88
ATOM     88  C   UNL     1     -19.488  -1.511  -4.096  1.00  0.00     0.023 A 
ATOM     89  C   UNL     1     -19.020  -1.522  -2.768  1.00  0.00     0.031 A 
ATOM     90  C   UNL     1     -20.858  -1.731  -4.322  1.00  0.00     0.131 A 
ATOM     91  C   UNL     1     -19.909  -1.789  -1.719  1.00  0.00     0.055 A 
ATOM     92  C   UNL     1     -21.747  -1.951  -3.270  1.00  0.00     0.041 A 
ATOM     93  F   UNL     1     -21.349  -1.741  -5.572  1.00  0.00    -0.206 F 
ATOM     94  C   UNL     1     -21.271  -1.996  -1.962  1.00  0.00     0.022 A 
BRANCH  91  95
ATOM     95  S   UNL     1     -19.317  -1.968  -0.014  1.00  0.00     0.124 S 
ATOM     96  O   UNL     1     -20.046  -0.902   0.671  1.00  0.00    -0.237 OA
ATOM     97  O   UNL     1     -19.741  -3.325   0.318  1.00  0.00    -0.237 OA
ATOM     98  O   UNL     1     -17.876  -1.767  -0.117  1.00  0.00    -0.744 OA
ENDBRANCH  91  95
ENDBRANCH  65  88
ENDBRANCH  39  40
ENDBRANCH  31  34
ENDBRANCH  29  30
ENDBRANCH   1  29
TORSDOF 16
