REMARK SMILES C[C@@H](Sc1nncn1C)[C@@H](C)C(=O)NCCCNC(=O)c1ccc(-c2c3nc(c(-c4cc(S(=O)(=O)[O-])ccc4F)c4ccc([nH]4)c(-c4cc(S(=O)(=O)[O-])ccc4F)c4nc(c(-c5cc(S(=O)(=O)[O-])ccc5F)c5ccc2[nH]5)C=C4)C=C3)cc1
REMARK SMILES IDX 16 1 15 2 14 3 12 4 13 5 10 7 11 8 2 9 1 10 3 11 4 12 5 13
REMARK SMILES IDX 8 14 6 15 7 16 9 17 17 18 18 19 19 20 20 22 21 23 22 24
REMARK SMILES IDX 83 25 23 26 82 27 24 28 25 29 26 30 76 31 27 32 81 33 75 34
REMARK SMILES IDX 77 35 28 36 80 37 74 38 73 39 29 41 61 42 41 43 60 44 42 45
REMARK SMILES IDX 45 46 59 47 78 48 43 49 44 50 58 52 79 53 46 54 30 55 31 56
REMARK SMILES IDX 39 57 32 58 38 59 40 60 37 61 33 62 34 63 35 64 36 65 62 66
REMARK SMILES IDX 63 67 71 68 64 69 70 70 72 71 69 72 65 73 66 74 67 75 68 76
REMARK SMILES IDX 47 77 48 78 56 79 49 80 55 81 57 82 54 83 50 84 51 85 52 86
REMARK SMILES IDX 53 87
REMARK H PARENT 14 6 18 21 77 40 45 51
REMARK Flexibility Score: inf
ROOT
ATOM      1  C   UNL     1       0.847  -1.761   4.497  1.00  0.00     0.042 C 
ENDROOT
BRANCH   1   2
ATOM      2  C   UNL     1      -0.414  -1.866   3.650  1.00  0.00     0.117 C 
BRANCH   2   3
ATOM      3  N   UNL     1      -1.224  -0.662   3.714  1.00  0.00    -0.356 N 
ATOM      4  C   UNL     1      -1.508   0.287   2.785  1.00  0.00     0.223 C 
ATOM      5  O   UNL     1      -2.252   1.211   3.129  1.00  0.00    -0.275 OA
ATOM      6  H   UNL     1      -1.644  -0.505   4.591  1.00  0.00     0.163 HD
BRANCH   4   7
ATOM      7  C   UNL     1      -0.991   0.212   1.351  1.00  0.00     0.088 C 
ATOM      8  C   UNL     1      -1.642  -0.975   0.631  1.00  0.00     0.019 C 
BRANCH   7   9
ATOM      9  C   UNL     1       0.550   0.308   1.243  1.00  0.00     0.064 C 
ATOM     10  C   UNL     1       1.048   0.046  -0.181  1.00  0.00     0.021 C 
BRANCH   9  11
ATOM     11  S   UNL     1       1.080   1.996   1.769  1.00  0.00    -0.082 SA
BRANCH  11  12
ATOM     12  C   UNL     1       2.785   1.798   1.952  1.00  0.00     0.191 A 
ATOM     13  N   UNL     1       3.455   0.669   1.944  1.00  0.00    -0.124 NA
ATOM     14  N   UNL     1       3.652   2.842   2.101  1.00  0.00    -0.312 N 
ATOM     15  N   UNL     1       4.792   0.977   2.060  1.00  0.00    -0.138 NA
ATOM     16  C   UNL     1       4.894   2.283   2.156  1.00  0.00     0.226 A 
ATOM     17  C   UNL     1       3.353   4.247   2.172  1.00  0.00     0.153 C 
ENDBRANCH  11  12
ENDBRANCH   9  11
ENDBRANCH   7   9
ENDBRANCH   4   7
ENDBRANCH   2   3
ENDBRANCH   1   2
BRANCH   1  18
ATOM     18  C   UNL     1       0.582  -1.645   5.992  1.00  0.00     0.118 C 
BRANCH  18  19
ATOM     19  N   UNL     1      -0.093  -2.818   6.534  1.00  0.00    -0.352 N 
ATOM     20  C   UNL     1       0.337  -3.737   7.459  1.00  0.00     0.251 C 
ATOM     21  H   UNL     1      -0.999  -2.975   6.182  1.00  0.00     0.163 HD
ATOM     22  O   UNL     1      -0.306  -4.776   7.614  1.00  0.00    -0.269 OA
BRANCH  20  23
ATOM     23  C   UNL     1       1.566  -3.496   8.245  1.00  0.00     0.039 A 
ATOM     24  C   UNL     1       2.435  -4.562   8.490  1.00  0.00     0.014 A 
ATOM     25  C   UNL     1       1.858  -2.229   8.754  1.00  0.00     0.014 A 
ATOM     26  C   UNL     1       3.627  -4.339   9.184  1.00  0.00     0.010 A 
ATOM     27  C   UNL     1       3.088  -1.989   9.359  1.00  0.00     0.010 A 
ATOM     28  C   UNL     1       3.984  -3.042   9.588  1.00  0.00    -0.014 A 
BRANCH  28  29
ATOM     29  C   UNL     1       5.281  -2.770  10.262  1.00  0.00     0.031 A 
ATOM     30  C   UNL     1       5.304  -2.211  11.660  1.00  0.00     0.074 A 
ATOM     31  C   UNL     1       6.435  -2.968   9.595  1.00  0.00     0.049 A 
ATOM     32  N   UNL     1       6.326  -1.841  12.389  1.00  0.00    -0.248 NA
ATOM     33  C   UNL     1       4.000  -2.011  12.309  1.00  0.00     0.031 C 
ATOM     34  C   UNL     1       6.541  -3.468   8.222  1.00  0.00     0.029 A 
ATOM     35  N   UNL     1       7.739  -2.772   9.976  1.00  0.00    -0.354 N 
ATOM     36  C   UNL     1       5.788  -1.355  13.576  1.00  0.00     0.074 A 
ATOM     37  C   UNL     1       4.349  -1.407  13.434  1.00  0.00     0.031 C 
ATOM     38  C   UNL     1       7.838  -3.574   7.892  1.00  0.00     0.029 A 
ATOM     39  C   UNL     1       8.655  -3.099   9.003  1.00  0.00     0.049 A 
ATOM     40  H   UNL     1       7.994  -2.429  10.863  1.00  0.00     0.167 HD
ATOM     41  C   UNL     1       6.434  -0.930  14.691  1.00  0.00     0.034 A 
ATOM     42  C   UNL     1      10.000  -3.015   9.002  1.00  0.00     0.034 A 
ATOM     43  C   UNL     1       7.872  -0.887  14.814  1.00  0.00     0.049 A 
ATOM     44  C   UNL     1      10.697  -2.498  10.234  1.00  0.00     0.074 A 
ATOM     45  C   UNL     1       8.633  -0.520  15.909  1.00  0.00     0.029 A 
ATOM     46  N   UNL     1       8.768  -1.210  13.801  1.00  0.00    -0.354 N 
ATOM     47  N   UNL     1      10.178  -2.085  11.368  1.00  0.00    -0.248 NA
ATOM     48  C   UNL     1      12.164  -2.443  10.189  1.00  0.00     0.031 C 
ATOM     49  C   UNL     1       9.982  -0.544  15.536  1.00  0.00     0.029 A 
ATOM     50  C   UNL     1      10.071  -1.014  14.235  1.00  0.00     0.049 A 
ATOM     51  H   UNL     1       8.515  -1.531  12.905  1.00  0.00     0.167 HD
ATOM     52  C   UNL     1      11.257  -1.755  12.183  1.00  0.00     0.074 A 
ATOM     53  C   UNL     1      12.454  -2.029  11.413  1.00  0.00     0.031 C 
ATOM     54  C   UNL     1      11.259  -1.276  13.454  1.00  0.00     0.034 A 
BRANCH  41  55
ATOM     55  C   UNL     1       5.582  -0.452  15.846  1.00  0.00     0.023 A 
ATOM     56  C   UNL     1       4.653  -1.299  16.479  1.00  0.00     0.031 A 
ATOM     57  C   UNL     1       5.662   0.879  16.292  1.00  0.00     0.131 A 
ATOM     58  C   UNL     1       3.779  -0.784  17.448  1.00  0.00     0.055 A 
ATOM     59  C   UNL     1       4.856   1.360  17.326  1.00  0.00     0.041 A 
ATOM     60  F   UNL     1       6.512   1.744  15.716  1.00  0.00    -0.206 F 
ATOM     61  C   UNL     1       3.893   0.533  17.897  1.00  0.00     0.022 A 
BRANCH  58  62
ATOM     62  S   UNL     1       2.379  -1.808  17.980  1.00  0.00     0.124 S 
ATOM     63  O   UNL     1       1.711  -2.077  16.708  1.00  0.00    -0.237 OA
ATOM     64  O   UNL     1       3.041  -2.945  18.608  1.00  0.00    -0.237 OA
ATOM     65  O   UNL     1       1.641  -0.934  18.889  1.00  0.00    -0.744 OA
ENDBRANCH  58  62
ENDBRANCH  41  55
BRANCH  42  66
ATOM     66  C   UNL     1      10.779  -3.427   7.799  1.00  0.00     0.023 A 
ATOM     67  C   UNL     1      11.662  -4.517   7.849  1.00  0.00     0.031 A 
ATOM     68  C   UNL     1      10.673  -2.719   6.588  1.00  0.00     0.131 A 
ATOM     69  C   UNL     1      12.436  -4.843   6.724  1.00  0.00     0.055 A 
ATOM     70  C   UNL     1      11.402  -3.083   5.454  1.00  0.00     0.041 A 
ATOM     71  F   UNL     1       9.843  -1.669   6.486  1.00  0.00    -0.206 F 
ATOM     72  C   UNL     1      12.300  -4.144   5.522  1.00  0.00     0.022 A 
BRANCH  69  73
ATOM     73  S   UNL     1      13.687  -6.147   6.878  1.00  0.00     0.124 S 
ATOM     74  O   UNL     1      14.532  -5.623   7.945  1.00  0.00    -0.237 OA
ATOM     75  O   UNL     1      12.873  -7.310   7.217  1.00  0.00    -0.237 OA
ATOM     76  O   UNL     1      14.304  -6.186   5.554  1.00  0.00    -0.744 OA
ENDBRANCH  69  73
ENDBRANCH  42  66
BRANCH  54  77
ATOM     77  C   UNL     1      12.605  -1.065  14.107  1.00  0.00     0.023 A 
ATOM     78  C   UNL     1      13.517  -0.104  13.637  1.00  0.00     0.031 A 
ATOM     79  C   UNL     1      12.983  -1.849  15.212  1.00  0.00     0.131 A 
ATOM     80  C   UNL     1      14.784   0.006  14.231  1.00  0.00     0.055 A 
ATOM     81  C   UNL     1      14.217  -1.687  15.842  1.00  0.00     0.041 A 
ATOM     82  F   UNL     1      12.155  -2.786  15.701  1.00  0.00    -0.206 F 
ATOM     83  C   UNL     1      15.132  -0.765  15.343  1.00  0.00     0.022 A 
BRANCH  80  84
ATOM     84  S   UNL     1      16.014   1.099  13.466  1.00  0.00     0.124 S 
ATOM     85  O   UNL     1      16.104   0.553  12.115  1.00  0.00    -0.237 OA
ATOM     86  O   UNL     1      15.383   2.410  13.582  1.00  0.00    -0.237 OA
ATOM     87  O   UNL     1      17.204   0.909  14.293  1.00  0.00    -0.744 OA
ENDBRANCH  80  84
ENDBRANCH  54  77
ENDBRANCH  28  29
ENDBRANCH  20  23
ENDBRANCH  18  19
ENDBRANCH   1  18
TORSDOF 16
