REMARK SMILES Cc1ccc(Cl)c(Nc2ccccc2C(=O)NCCCNC(=O)c2ccc(-c3c4nc(c(-c5cc(S(=O)(=O)[O-])ccc5F)c5ccc([nH]5)c(-c5cc(S(=O)(=O)[O-])ccc5F)c5nc(c(-c6cc(S(=O)(=O)[O-])ccc6F)c6ccc3[nH]6)C=C5)C=C4)cc2)c1Cl
REMARK SMILES IDX 19 1 18 2 17 3 15 4 16 5 14 7 9 8 10 9 11 10 13 11 12 12
REMARK SMILES IDX 8 13 7 15 1 16 2 17 3 18 87 19 4 20 88 21 5 22 6 23 20 24
REMARK SMILES IDX 21 25 22 26 23 28 24 29 25 30 86 31 26 32 85 33 27 34 28 35
REMARK SMILES IDX 29 36 79 37 30 38 84 39 78 40 80 41 31 42 83 43 77 44 76 45
REMARK SMILES IDX 32 47 64 48 44 49 63 50 45 51 48 52 62 53 81 54 46 55 47 56
REMARK SMILES IDX 61 58 82 59 49 60 33 61 34 62 42 63 35 64 41 65 43 66 40 67
REMARK SMILES IDX 36 68 37 69 38 70 39 71 65 72 66 73 74 74 67 75 73 76 75 77
REMARK SMILES IDX 72 78 68 79 69 80 70 81 71 82 50 83 51 84 59 85 52 86 58 87
REMARK SMILES IDX 60 88 57 89 53 90 54 91 55 92 56 93
REMARK H PARENT 17 6 8 14 21 27 80 46 48 57
REMARK Flexibility Score: inf
ROOT
ATOM      1  C   UNL     1      -2.204  -1.407   2.376  1.00  0.00     0.042 C 
ENDROOT
BRANCH   1   2
ATOM      2  C   UNL     1      -0.970  -1.520   1.510  1.00  0.00     0.118 C 
BRANCH   2   3
ATOM      3  N   UNL     1       0.298  -1.582   2.190  1.00  0.00    -0.352 N 
ATOM      4  C   UNL     1       1.482  -2.125   1.745  1.00  0.00     0.253 C 
ATOM      5  O   UNL     1       2.499  -1.864   2.394  1.00  0.00    -0.269 OA
ATOM      6  H   UNL     1       0.321  -1.185   3.091  1.00  0.00     0.163 HD
BRANCH   4   7
ATOM      7  C   UNL     1       1.569  -3.127   0.634  1.00  0.00     0.063 A 
ATOM      8  C   UNL     1       0.966  -3.100  -0.643  1.00  0.00     0.051 A 
ATOM      9  C   UNL     1       1.107  -4.248  -1.461  1.00  0.00     0.027 A 
ATOM     10  C   UNL     1       1.873  -5.351  -1.081  1.00  0.00     0.002 A 
ATOM     11  C   UNL     1       2.367  -4.244   0.987  1.00  0.00     0.016 A 
ATOM     12  C   UNL     1       2.527  -5.338   0.138  1.00  0.00     0.001 A 
BRANCH   8  13
ATOM     13  N   UNL     1       0.301  -2.026  -1.274  1.00  0.00    -0.352 N 
ATOM     14  H   UNL     1      -0.417  -2.329  -1.876  1.00  0.00     0.167 HD
BRANCH  13  15
ATOM     15  C   UNL     1       0.426  -0.616  -1.243  1.00  0.00     0.077 A 
ATOM     16  C   UNL     1       2.795   2.198  -0.148  1.00  0.00     0.046 C 
ATOM     17  C   UNL     1       1.570   1.463  -0.620  1.00  0.00    -0.030 A 
ATOM     18  C   UNL     1       0.366   2.170  -0.760  1.00  0.00     0.006 A 
ATOM     19  C   UNL     1       1.602   0.079  -0.900  1.00  0.00     0.069 A 
ATOM     20  C   UNL     1      -0.783   1.524  -1.202  1.00  0.00     0.023 A 
ATOM     21  Cl  UNL     1       3.148  -0.718  -0.950  1.00  0.00    -0.082 Cl
ATOM     22  C   UNL     1      -0.750   0.153  -1.448  1.00  0.00     0.066 A 
ATOM     23  Cl  UNL     1      -2.239  -0.615  -1.906  1.00  0.00    -0.082 Cl
ENDBRANCH  13  15
ENDBRANCH   8  13
ENDBRANCH   4   7
ENDBRANCH   2   3
ENDBRANCH   1   2
BRANCH   1  24
ATOM     24  C   UNL     1      -2.387  -0.062   3.071  1.00  0.00     0.118 C 
BRANCH  24  25
ATOM     25  N   UNL     1      -2.400   1.100   2.179  1.00  0.00    -0.352 N 
ATOM     26  C   UNL     1      -3.405   1.958   1.776  1.00  0.00     0.251 C 
ATOM     27  H   UNL     1      -1.520   1.312   1.792  1.00  0.00     0.163 HD
ATOM     28  O   UNL     1      -3.160   2.805   0.928  1.00  0.00    -0.269 OA
BRANCH  26  29
ATOM     29  C   UNL     1      -4.776   1.833   2.325  1.00  0.00     0.039 A 
ATOM     30  C   UNL     1      -5.879   2.042   1.489  1.00  0.00     0.014 A 
ATOM     31  C   UNL     1      -4.984   1.505   3.660  1.00  0.00     0.014 A 
ATOM     32  C   UNL     1      -7.173   1.804   1.969  1.00  0.00     0.010 A 
ATOM     33  C   UNL     1      -6.247   1.127   4.091  1.00  0.00     0.010 A 
ATOM     34  C   UNL     1      -7.363   1.282   3.257  1.00  0.00    -0.014 A 
BRANCH  34  35
ATOM     35  C   UNL     1      -8.704   0.916   3.789  1.00  0.00     0.031 A 
ATOM     36  C   UNL     1      -9.178   1.528   5.083  1.00  0.00     0.074 A 
ATOM     37  C   UNL     1      -9.430  -0.049   3.192  1.00  0.00     0.049 A 
ATOM     38  N   UNL     1     -10.199   1.206   5.835  1.00  0.00    -0.248 NA
ATOM     39  C   UNL     1      -8.342   2.603   5.638  1.00  0.00     0.031 C 
ATOM     40  C   UNL     1      -9.048  -0.768   1.974  1.00  0.00     0.029 A 
ATOM     41  N   UNL     1     -10.632  -0.613   3.543  1.00  0.00    -0.354 N 
ATOM     42  C   UNL     1     -10.100   2.008   6.968  1.00  0.00     0.074 A 
ATOM     43  C   UNL     1      -8.868   2.755   6.842  1.00  0.00     0.031 C 
ATOM     44  C   UNL     1     -10.004  -1.660   1.670  1.00  0.00     0.029 A 
ATOM     45  C   UNL     1     -11.041  -1.616   2.695  1.00  0.00     0.049 A 
ATOM     46  H   UNL     1     -11.152  -0.326   4.328  1.00  0.00     0.167 HD
ATOM     47  C   UNL     1     -10.972   2.138   8.000  1.00  0.00     0.034 A 
ATOM     48  C   UNL     1     -12.120  -2.422   2.748  1.00  0.00     0.034 A 
ATOM     49  C   UNL     1     -12.212   1.405   8.083  1.00  0.00     0.049 A 
ATOM     50  C   UNL     1     -13.095  -2.249   3.882  1.00  0.00     0.074 A 
ATOM     51  C   UNL     1     -13.210   1.496   9.035  1.00  0.00     0.029 A 
ATOM     52  N   UNL     1     -12.623   0.439   7.169  1.00  0.00    -0.354 N 
ATOM     53  N   UNL     1     -13.019  -1.450   4.922  1.00  0.00    -0.248 NA
ATOM     54  C   UNL     1     -14.307  -3.075   3.843  1.00  0.00     0.031 C 
ATOM     55  C   UNL     1     -14.193   0.546   8.732  1.00  0.00     0.029 A 
ATOM     56  C   UNL     1     -13.848  -0.087   7.548  1.00  0.00     0.049 A 
ATOM     57  H   UNL     1     -12.116   0.169   6.369  1.00  0.00     0.167 HD
ATOM     58  C   UNL     1     -14.187  -1.660   5.650  1.00  0.00     0.074 A 
ATOM     59  C   UNL     1     -14.954  -2.650   4.919  1.00  0.00     0.031 C 
ATOM     60  C   UNL     1     -14.590  -1.086   6.813  1.00  0.00     0.034 A 
BRANCH  47  61
ATOM     61  C   UNL     1     -10.590   3.096   9.109  1.00  0.00     0.023 A 
ATOM     62  C   UNL     1     -10.330   4.455   8.852  1.00  0.00     0.031 A 
ATOM     63  C   UNL     1     -10.398   2.635  10.424  1.00  0.00     0.131 A 
ATOM     64  C   UNL     1      -9.773   5.267   9.851  1.00  0.00     0.055 A 
ATOM     65  C   UNL     1      -9.947   3.479  11.443  1.00  0.00     0.041 A 
ATOM     66  F   UNL     1     -10.612   1.348  10.737  1.00  0.00    -0.206 F 
ATOM     67  C   UNL     1      -9.606   4.797  11.153  1.00  0.00     0.022 A 
BRANCH  64  68
ATOM     68  S   UNL     1      -9.076   6.871   9.364  1.00  0.00     0.124 S 
ATOM     69  O   UNL     1      -8.099   6.472   8.354  1.00  0.00    -0.237 OA
ATOM     70  O   UNL     1     -10.247   7.588   8.872  1.00  0.00    -0.237 OA
ATOM     71  O   UNL     1      -8.502   7.386  10.605  1.00  0.00    -0.744 OA
ENDBRANCH  64  68
ENDBRANCH  47  61
BRANCH  48  72
ATOM     72  C   UNL     1     -12.328  -3.458   1.697  1.00  0.00     0.023 A 
ATOM     73  C   UNL     1     -13.381  -3.355   0.774  1.00  0.00     0.031 A 
ATOM     74  C   UNL     1     -11.467  -4.566   1.594  1.00  0.00     0.131 A 
ATOM     75  C   UNL     1     -13.564  -4.355  -0.195  1.00  0.00     0.055 A 
ATOM     76  C   UNL     1     -11.627  -5.535   0.601  1.00  0.00     0.041 A 
ATOM     77  F   UNL     1     -10.437  -4.706   2.444  1.00  0.00    -0.206 F 
ATOM     78  C   UNL     1     -12.686  -5.436  -0.296  1.00  0.00     0.022 A 
BRANCH  75  79
ATOM     79  S   UNL     1     -14.998  -4.245  -1.300  1.00  0.00     0.124 S 
ATOM     80  O   UNL     1     -16.107  -4.283  -0.353  1.00  0.00    -0.237 OA
ATOM     81  O   UNL     1     -14.769  -2.969  -1.970  1.00  0.00    -0.237 OA
ATOM     82  O   UNL     1     -14.863  -5.425  -2.151  1.00  0.00    -0.744 OA
ENDBRANCH  75  79
ENDBRANCH  48  72
BRANCH  60  83
ATOM     83  C   UNL     1     -15.945  -1.491   7.340  1.00  0.00     0.023 A 
ATOM     84  C   UNL     1     -16.199  -2.793   7.804  1.00  0.00     0.031 A 
ATOM     85  C   UNL     1     -16.997  -0.559   7.370  1.00  0.00     0.131 A 
ATOM     86  C   UNL     1     -17.490  -3.143   8.227  1.00  0.00     0.055 A 
ATOM     87  C   UNL     1     -18.263  -0.896   7.851  1.00  0.00     0.041 A 
ATOM     88  F   UNL     1     -16.810   0.697   6.935  1.00  0.00    -0.206 F 
ATOM     89  C   UNL     1     -18.519  -2.198   8.271  1.00  0.00     0.022 A 
BRANCH  86  90
ATOM     90  S   UNL     1     -17.834  -4.877   8.631  1.00  0.00     0.124 S 
ATOM     91  O   UNL     1     -17.487  -5.552   7.384  1.00  0.00    -0.237 OA
ATOM     92  O   UNL     1     -16.939  -5.119   9.757  1.00  0.00    -0.237 OA
ATOM     93  O   UNL     1     -19.258  -4.877   8.960  1.00  0.00    -0.744 OA
ENDBRANCH  86  90
ENDBRANCH  60  83
ENDBRANCH  34  35
ENDBRANCH  26  29
ENDBRANCH  24  25
ENDBRANCH   1  24
TORSDOF 15
