REMARK SMILES C[NH+]1CCN(c2nc3c(cc2F)c(=O)c(C(=O)NCCCNC(=O)c2ccc(-c4c5nc(c(-c6cc(S(=O)(=O)[O-])ccc6F)c6ccc([nH]6)c(-c6cc(S(=O)(=O)[O-])ccc6F)c6nc(c(-c7cc(S(=O)(=O)[O-])ccc7F)c7ccc4[nH]7)C=C6)C=C5)cc2)cn3-c2ccc(F)cc2F)CC1
REMARK SMILES IDX 21 1 20 2 19 3 18 4 16 5 17 6 15 8 6 9 7 10 11 11 8 12 10 13
REMARK SMILES IDX 12 14 9 15 89 16 13 17 88 18 14 19 5 20 1 21 2 22 3 23 99 24
REMARK SMILES IDX 4 26 98 27 90 28 91 29 96 30 92 31 95 32 97 33 93 34 94 35
REMARK SMILES IDX 22 36 23 37 24 39 25 40 26 41 87 42 27 43 86 44 28 45 29 46
REMARK SMILES IDX 30 47 80 48 31 49 85 50 79 51 81 52 32 53 84 54 78 55 77 56
REMARK SMILES IDX 33 58 65 59 45 60 64 61 46 62 49 63 63 64 82 65 47 66 48 67
REMARK SMILES IDX 62 69 83 70 50 71 34 72 35 73 43 74 36 75 42 76 44 77 41 78
REMARK SMILES IDX 37 79 38 80 39 81 40 82 66 83 67 84 75 85 68 86 74 87 76 88
REMARK SMILES IDX 73 89 69 90 70 91 71 92 72 93 51 94 52 95 60 96 53 97 59 98
REMARK SMILES IDX 61 99 58 100 54 101 55 102 56 103 57 104
REMARK H PARENT 18 7 2 25 22 38 81 57 49 68
REMARK Flexibility Score: inf
ROOT
ATOM      1  C   UNL     1      -9.641  -0.475   6.727  1.00  0.00     0.118 C 
ENDROOT
BRANCH   1   2
ATOM      2  C   UNL     1      -8.503  -0.604   5.728  1.00  0.00     0.042 C 
BRANCH   2   3
ATOM      3  C   UNL     1      -8.944  -1.168   4.379  1.00  0.00     0.118 C 
BRANCH   3   4
ATOM      4  N   UNL     1      -9.583  -0.152   3.560  1.00  0.00    -0.352 N 
ATOM      5  C   UNL     1      -9.112   0.668   2.584  1.00  0.00     0.256 C 
ATOM      6  O   UNL     1      -9.948   1.403   2.046  1.00  0.00    -0.269 OA
ATOM      7  H   UNL     1     -10.542  -0.034   3.750  1.00  0.00     0.163 HD
BRANCH   5   8
ATOM      8  C   UNL     1      -7.706   0.653   2.091  1.00  0.00     0.104 A 
ATOM      9  C   UNL     1      -2.903  -0.096   0.596  1.00  0.00     0.167 A 
ATOM     10  N   UNL     1      -3.969   0.546   0.055  1.00  0.00    -0.209 NA
ATOM     11  C   UNL     1      -2.987  -0.699   1.853  1.00  0.00     0.166 A 
ATOM     12  C   UNL     1      -5.144   0.595   0.736  1.00  0.00     0.151 A 
ATOM     13  C   UNL     1      -4.154  -0.603   2.586  1.00  0.00     0.059 A 
ATOM     14  F   UNL     1      -1.936  -1.338   2.389  1.00  0.00    -0.203 F 
ATOM     15  C   UNL     1      -5.241   0.059   2.019  1.00  0.00     0.069 A 
ATOM     16  N   UNL     1      -6.305   1.193   0.147  1.00  0.00    -0.297 N 
ATOM     17  C   UNL     1      -6.479   0.222   2.795  1.00  0.00     0.203 A 
ATOM     18  C   UNL     1      -7.506   1.138   0.852  1.00  0.00     0.111 A 
ATOM     19  O   UNL     1      -6.417   0.012   3.997  1.00  0.00    -0.288 OA
BRANCH   9  20
ATOM     20  N   UNL     1      -1.746  -0.109  -0.139  1.00  0.00    -0.343 N 
ATOM     21  C   UNL     1       2.490   0.110   0.153  1.00  0.00     0.332 C 
ATOM     22  N   UNL     1       1.131   0.023  -0.375  1.00  0.00    -0.334 N 
ATOM     23  C   UNL     1       0.335   1.211   0.026  1.00  0.00     0.283 C 
ATOM     24  C   UNL     1       0.459  -1.196   0.133  1.00  0.00     0.283 C 
ATOM     25  H   UNL     1       1.192  -0.015  -1.393  1.00  0.00     0.347 HD
ATOM     26  C   UNL     1      -1.124   1.162  -0.500  1.00  0.00     0.179 C 
ATOM     27  C   UNL     1      -0.987  -1.327  -0.388  1.00  0.00     0.179 C 
ENDBRANCH   9  20
BRANCH  16  28
ATOM     28  C   UNL     1      -6.280   1.781  -1.154  1.00  0.00     0.083 A 
ATOM     29  C   UNL     1      -5.871   1.034  -2.272  1.00  0.00     0.033 A 
ATOM     30  C   UNL     1      -6.667   3.117  -1.359  1.00  0.00     0.150 A 
ATOM     31  C   UNL     1      -5.854   1.609  -3.545  1.00  0.00     0.041 A 
ATOM     32  C   UNL     1      -6.638   3.701  -2.620  1.00  0.00     0.080 A 
ATOM     33  F   UNL     1      -7.056   3.871  -0.319  1.00  0.00    -0.205 F 
ATOM     34  C   UNL     1      -6.233   2.937  -3.704  1.00  0.00     0.126 A 
ATOM     35  F   UNL     1      -6.206   3.486  -4.926  1.00  0.00    -0.207 F 
ENDBRANCH  16  28
ENDBRANCH   5   8
ENDBRANCH   3   4
ENDBRANCH   2   3
ENDBRANCH   1   2
BRANCH   1  36
ATOM     36  N   UNL     1     -10.028  -1.767   7.277  1.00  0.00    -0.352 N 
ATOM     37  C   UNL     1      -9.848  -2.248   8.551  1.00  0.00     0.251 C 
ATOM     38  H   UNL     1     -10.479  -2.378   6.651  1.00  0.00     0.163 HD
ATOM     39  O   UNL     1     -10.015  -3.444   8.783  1.00  0.00    -0.269 OA
BRANCH  37  40
ATOM     40  C   UNL     1      -9.448  -1.327   9.635  1.00  0.00     0.039 A 
ATOM     41  C   UNL     1      -8.425  -1.704  10.509  1.00  0.00     0.014 A 
ATOM     42  C   UNL     1     -10.098  -0.099   9.797  1.00  0.00     0.014 A 
ATOM     43  C   UNL     1      -8.026  -0.828  11.521  1.00  0.00     0.010 A 
ATOM     44  C   UNL     1      -9.652   0.801  10.759  1.00  0.00     0.010 A 
ATOM     45  C   UNL     1      -8.628   0.436  11.644  1.00  0.00    -0.014 A 
BRANCH  45  46
ATOM     46  C   UNL     1      -8.230   1.365  12.729  1.00  0.00     0.031 A 
ATOM     47  C   UNL     1      -9.195   1.665  13.842  1.00  0.00     0.074 A 
ATOM     48  C   UNL     1      -7.024   1.961  12.694  1.00  0.00     0.049 A 
ATOM     49  N   UNL     1      -9.027   2.422  14.894  1.00  0.00    -0.248 NA
ATOM     50  C   UNL     1     -10.532   1.053  13.751  1.00  0.00     0.031 C 
ATOM     51  C   UNL     1      -6.033   1.792  11.630  1.00  0.00     0.029 A 
ATOM     52  N   UNL     1      -6.426   2.831  13.571  1.00  0.00    -0.354 N 
ATOM     53  C   UNL     1     -10.229   2.374  15.589  1.00  0.00     0.074 A 
ATOM     54  C   UNL     1     -11.141   1.572  14.807  1.00  0.00     0.031 C 
ATOM     55  C   UNL     1      -4.943   2.516  11.928  1.00  0.00     0.029 A 
ATOM     56  C   UNL     1      -5.160   3.213  13.195  1.00  0.00     0.049 A 
ATOM     57  H   UNL     1      -6.863   3.151  14.393  1.00  0.00     0.167 HD
ATOM     58  C   UNL     1     -10.533   2.922  16.788  1.00  0.00     0.034 A 
ATOM     59  C   UNL     1      -4.269   4.018  13.809  1.00  0.00     0.034 A 
ATOM     60  C   UNL     1      -9.610   3.705  17.564  1.00  0.00     0.049 A 
ATOM     61  C   UNL     1      -4.616   4.591  15.161  1.00  0.00     0.074 A 
ATOM     62  C   UNL     1      -9.805   4.268  18.812  1.00  0.00     0.029 A 
ATOM     63  N   UNL     1      -8.318   4.027  17.174  1.00  0.00    -0.354 N 
ATOM     64  N   UNL     1      -5.723   4.456  15.853  1.00  0.00    -0.248 NA
ATOM     65  C   UNL     1      -3.588   5.401  15.831  1.00  0.00     0.031 C 
ATOM     66  C   UNL     1      -8.646   4.964  19.160  1.00  0.00     0.029 A 
ATOM     67  C   UNL     1      -7.706   4.785  18.156  1.00  0.00     0.049 A 
ATOM     68  H   UNL     1      -7.900   3.756  16.326  1.00  0.00     0.167 HD
ATOM     69  C   UNL     1      -5.509   5.125  17.055  1.00  0.00     0.074 A 
ATOM     70  C   UNL     1      -4.165   5.660  16.998  1.00  0.00     0.031 C 
ATOM     71  C   UNL     1      -6.351   5.277  18.107  1.00  0.00     0.034 A 
BRANCH  58  72
ATOM     72  C   UNL     1     -11.902   2.670  17.362  1.00  0.00     0.023 A 
ATOM     73  C   UNL     1     -12.794   3.738  17.564  1.00  0.00     0.031 A 
ATOM     74  C   UNL     1     -12.279   1.389  17.806  1.00  0.00     0.131 A 
ATOM     75  C   UNL     1     -14.010   3.510  18.219  1.00  0.00     0.055 A 
ATOM     76  C   UNL     1     -13.508   1.161  18.424  1.00  0.00     0.041 A 
ATOM     77  F   UNL     1     -11.462   0.338  17.631  1.00  0.00    -0.206 F 
ATOM     78  C   UNL     1     -14.376   2.227  18.642  1.00  0.00     0.022 A 
BRANCH  75  79
ATOM     79  S   UNL     1     -15.149   4.874  18.579  1.00  0.00     0.124 S 
ATOM     80  O   UNL     1     -16.398   4.387  17.996  1.00  0.00    -0.237 OA
ATOM     81  O   UNL     1     -15.117   4.920  20.038  1.00  0.00    -0.237 OA
ATOM     82  O   UNL     1     -14.553   6.017  17.895  1.00  0.00    -0.744 OA
ENDBRANCH  75  79
ENDBRANCH  58  72
BRANCH  59  83
ATOM     83  C   UNL     1      -2.931   4.229  13.187  1.00  0.00     0.023 A 
ATOM     84  C   UNL     1      -2.796   4.912  11.965  1.00  0.00     0.031 A 
ATOM     85  C   UNL     1      -1.780   3.662  13.761  1.00  0.00     0.131 A 
ATOM     86  C   UNL     1      -1.545   4.969  11.336  1.00  0.00     0.055 A 
ATOM     87  C   UNL     1      -0.526   3.771  13.158  1.00  0.00     0.041 A 
ATOM     88  F   UNL     1      -1.865   2.987  14.918  1.00  0.00    -0.206 F 
ATOM     89  C   UNL     1      -0.406   4.418  11.932  1.00  0.00     0.022 A 
BRANCH  86  90
ATOM     90  S   UNL     1      -1.367   5.685   9.678  1.00  0.00     0.124 S 
ATOM     91  O   UNL     1      -0.307   6.669   9.880  1.00  0.00    -0.237 OA
ATOM     92  O   UNL     1      -0.996   4.513   8.889  1.00  0.00    -0.237 OA
ATOM     93  O   UNL     1      -2.688   6.234   9.396  1.00  0.00    -0.744 OA
ENDBRANCH  86  90
ENDBRANCH  59  83
BRANCH  71  94
ATOM     94  C   UNL     1      -5.861   6.012  19.329  1.00  0.00     0.023 A 
ATOM     95  C   UNL     1      -5.754   5.324  20.554  1.00  0.00     0.031 A 
ATOM     96  C   UNL     1      -5.666   7.402  19.325  1.00  0.00     0.131 A 
ATOM     97  C   UNL     1      -5.499   6.036  21.732  1.00  0.00     0.055 A 
ATOM     98  C   UNL     1      -5.370   8.102  20.496  1.00  0.00     0.041 A 
ATOM     99  F   UNL     1      -5.772   8.102  18.184  1.00  0.00    -0.206 F 
ATOM    100  C   UNL     1      -5.299   7.420  21.708  1.00  0.00     0.022 A 
BRANCH  97 101
ATOM    101  S   UNL     1      -5.497   5.206  23.345  1.00  0.00     0.124 S 
ATOM    102  O   UNL     1      -4.157   5.510  23.840  1.00  0.00    -0.237 OA
ATOM    103  O   UNL     1      -6.588   5.884  24.040  1.00  0.00    -0.237 OA
ATOM    104  O   UNL     1      -5.735   3.803  23.020  1.00  0.00    -0.744 OA
ENDBRANCH  97 101
ENDBRANCH  71  94
ENDBRANCH  45  46
ENDBRANCH  37  40
ENDBRANCH   1  36
TORSDOF 15
