REMARK SMILES [NH3+][C@H](CC(F)(F)C(F)(F)C(F)(F)C(F)(F)Cl)C(=O)NCCCNC(=O)c1ccc(-c2c3nc(c(-c4cc(S(=O)(=O)[O-])ccc4F)c4ccc([nH]4)c(-c4cc(S(=O)(=O)[O-])ccc4F)c4nc(c(-c5cc(S(=O)(=O)[O-])ccc5F)c5ccc2[nH]5)C=C4)C=C3)cc1
REMARK SMILES IDX 20 1 19 2 17 3 18 4 2 6 1 7 3 11 4 12 5 13 6 14 7 15 8 16
REMARK SMILES IDX 9 17 10 18 11 19 12 20 13 21 14 22 15 23 16 24 21 25 22 26
REMARK SMILES IDX 23 27 24 28 25 30 26 31 27 32 88 33 28 34 87 35 29 36 30 37
REMARK SMILES IDX 31 38 81 39 32 40 86 41 80 42 82 43 33 44 85 45 79 46 78 47
REMARK SMILES IDX 34 49 66 50 46 51 65 52 47 53 50 54 64 55 83 56 48 57 49 58
REMARK SMILES IDX 63 60 84 61 51 62 35 63 36 64 44 65 37 66 43 67 45 68 42 69
REMARK SMILES IDX 38 70 39 71 40 72 41 73 67 74 68 75 76 76 69 77 75 78 77 79
REMARK SMILES IDX 74 80 70 81 71 82 72 83 73 84 52 85 53 86 61 87 54 88 60 89
REMARK SMILES IDX 62 90 59 91 55 92 56 93 57 94 58 95
REMARK H PARENT 19 5 1 8 1 9 1 10 23 29 82 48 50 59
REMARK Flexibility Score: inf
ROOT
ATOM      1  C   UNL     1      -0.823   3.173   0.404  1.00  0.00     0.118 C 
ENDROOT
BRANCH   1   2
ATOM      2  N   UNL     1      -1.473   1.999   0.970  1.00  0.00    -0.351 N 
ATOM      3  C   UNL     1      -1.040   0.864   1.572  1.00  0.00     0.278 C 
ATOM      4  O   UNL     1      -1.915   0.223   2.169  1.00  0.00    -0.268 OA
ATOM      5  H   UNL     1      -2.454   2.039   0.900  1.00  0.00     0.163 HD
BRANCH   3   6
ATOM      6  C   UNL     1       0.402   0.297   1.514  1.00  0.00     0.277 C 
BRANCH   6   7
ATOM      7  N   UNL     1       1.379   1.243   2.096  1.00  0.00    -0.347 N 
ATOM      8  H   UNL     1       0.981   1.673   2.931  1.00  0.00     0.345 HD
ATOM      9  H   UNL     1       1.600   1.968   1.413  1.00  0.00     0.345 HD
ATOM     10  H   UNL     1       2.231   0.741   2.346  1.00  0.00     0.345 HD
ENDBRANCH   6   7
BRANCH   6  11
ATOM     11  C   UNL     1       0.915  -0.410   0.237  1.00  0.00     0.159 C 
BRANCH  11  12
ATOM     12  C   UNL     1       0.067  -0.352  -1.025  1.00  0.00     0.323 C 
ATOM     13  F   UNL     1      -0.177   0.956  -1.262  1.00  0.00    -0.199 F 
ATOM     14  F   UNL     1       0.864  -0.740  -2.068  1.00  0.00    -0.199 F 
BRANCH  12  15
ATOM     15  C   UNL     1      -1.205  -1.203  -1.052  1.00  0.00     0.379 C 
ATOM     16  F   UNL     1      -0.898  -2.462  -1.475  1.00  0.00    -0.192 F 
ATOM     17  F   UNL     1      -1.684  -1.374   0.204  1.00  0.00    -0.192 F 
BRANCH  15  18
ATOM     18  C   UNL     1      -2.255  -0.560  -1.932  1.00  0.00     0.392 C 
ATOM     19  F   UNL     1      -2.538   0.692  -1.460  1.00  0.00    -0.191 F 
ATOM     20  F   UNL     1      -1.775  -0.378  -3.192  1.00  0.00    -0.191 F 
BRANCH  18  21
ATOM     21  C   UNL     1      -3.535  -1.377  -1.945  1.00  0.00     0.390 C 
ATOM     22  F   UNL     1      -3.328  -2.613  -2.463  1.00  0.00    -0.181 F 
ATOM     23  F   UNL     1      -4.004  -1.565  -0.683  1.00  0.00    -0.181 F 
ATOM     24  Cl  UNL     1      -4.817  -0.563  -2.885  1.00  0.00    -0.041 Cl
ENDBRANCH  18  21
ENDBRANCH  15  18
ENDBRANCH  12  15
ENDBRANCH  11  12
ENDBRANCH   6  11
ENDBRANCH   3   6
ENDBRANCH   1   2
BRANCH   1  25
ATOM     25  C   UNL     1      -1.283   3.579  -1.003  1.00  0.00     0.042 C 
BRANCH  25  26
ATOM     26  C   UNL     1      -2.778   3.501  -1.301  1.00  0.00     0.118 C 
BRANCH  26  27
ATOM     27  N   UNL     1      -3.467   4.763  -1.120  1.00  0.00    -0.352 N 
ATOM     28  C   UNL     1      -4.180   5.503  -2.036  1.00  0.00     0.251 C 
ATOM     29  H   UNL     1      -3.419   5.145  -0.213  1.00  0.00     0.163 HD
ATOM     30  O   UNL     1      -4.593   6.615  -1.712  1.00  0.00    -0.269 OA
BRANCH  28  31
ATOM     31  C   UNL     1      -4.413   5.000  -3.413  1.00  0.00     0.039 A 
ATOM     32  C   UNL     1      -4.178   5.867  -4.484  1.00  0.00     0.014 A 
ATOM     33  C   UNL     1      -4.882   3.706  -3.664  1.00  0.00     0.014 A 
ATOM     34  C   UNL     1      -4.356   5.424  -5.800  1.00  0.00     0.010 A 
ATOM     35  C   UNL     1      -5.005   3.247  -4.981  1.00  0.00     0.010 A 
ATOM     36  C   UNL     1      -4.746   4.101  -6.065  1.00  0.00    -0.014 A 
BRANCH  36  37
ATOM     37  C   UNL     1      -4.894   3.620  -7.469  1.00  0.00     0.031 A 
ATOM     38  C   UNL     1      -6.250   3.245  -8.009  1.00  0.00     0.074 A 
ATOM     39  C   UNL     1      -3.808   3.500  -8.259  1.00  0.00     0.049 A 
ATOM     40  N   UNL     1      -6.574   2.798  -9.197  1.00  0.00    -0.248 NA
ATOM     41  C   UNL     1      -7.385   3.371  -7.085  1.00  0.00     0.031 C 
ATOM     42  C   UNL     1      -2.434   3.802  -7.855  1.00  0.00     0.029 A 
ATOM     43  N   UNL     1      -3.685   3.092  -9.566  1.00  0.00    -0.354 N 
ATOM     44  C   UNL     1      -7.948   2.585  -9.163  1.00  0.00     0.074 A 
ATOM     45  C   UNL     1      -8.383   2.899  -7.817  1.00  0.00     0.031 C 
ATOM     46  C   UNL     1      -1.612   3.590  -8.897  1.00  0.00     0.029 A 
ATOM     47  C   UNL     1      -2.390   3.100 -10.032  1.00  0.00     0.049 A 
ATOM     48  H   UNL     1      -4.453   2.819 -10.118  1.00  0.00     0.167 HD
ATOM     49  C   UNL     1      -8.775   2.188 -10.163  1.00  0.00     0.034 A 
ATOM     50  C   UNL     1      -1.881   2.746 -11.230  1.00  0.00     0.034 A 
ATOM     51  C   UNL     1      -8.336   1.885 -11.504  1.00  0.00     0.049 A 
ATOM     52  C   UNL     1      -2.814   2.270 -12.317  1.00  0.00     0.074 A 
ATOM     53  C   UNL     1      -9.102   1.530 -12.602  1.00  0.00     0.029 A 
ATOM     54  N   UNL     1      -7.014   1.889 -11.931  1.00  0.00    -0.354 N 
ATOM     55  N   UNL     1      -4.119   2.128 -12.281  1.00  0.00    -0.248 NA
ATOM     56  C   UNL     1      -2.207   1.917 -13.608  1.00  0.00     0.031 C 
ATOM     57  C   UNL     1      -8.242   1.255 -13.671  1.00  0.00     0.029 A 
ATOM     58  C   UNL     1      -6.942   1.509 -13.263  1.00  0.00     0.049 A 
ATOM     59  H   UNL     1      -6.241   2.126 -11.369  1.00  0.00     0.167 HD
ATOM     60  C   UNL     1      -4.489   1.702 -13.555  1.00  0.00     0.074 A 
ATOM     61  C   UNL     1      -3.273   1.616 -14.336  1.00  0.00     0.031 C 
ATOM     62  C   UNL     1      -5.726   1.419 -14.035  1.00  0.00     0.034 A 
BRANCH  49  63
ATOM     63  C   UNL     1     -10.240   2.033  -9.832  1.00  0.00     0.023 A 
ATOM     64  C   UNL     1     -11.028   3.130  -9.443  1.00  0.00     0.031 A 
ATOM     65  C   UNL     1     -10.854   0.769  -9.889  1.00  0.00     0.131 A 
ATOM     66  C   UNL     1     -12.362   2.932  -9.054  1.00  0.00     0.055 A 
ATOM     67  C   UNL     1     -12.204   0.592  -9.578  1.00  0.00     0.041 A 
ATOM     68  F   UNL     1     -10.149  -0.318 -10.238  1.00  0.00    -0.206 F 
ATOM     69  C   UNL     1     -12.962   1.675  -9.142  1.00  0.00     0.022 A 
BRANCH  66  70
ATOM     70  S   UNL     1     -13.257   4.317  -8.298  1.00  0.00     0.124 S 
ATOM     71  O   UNL     1     -12.408   4.625  -7.149  1.00  0.00    -0.237 OA
ATOM     72  O   UNL     1     -13.269   5.307  -9.368  1.00  0.00    -0.237 OA
ATOM     73  O   UNL     1     -14.559   3.742  -7.964  1.00  0.00    -0.744 OA
ENDBRANCH  66  70
ENDBRANCH  49  63
BRANCH  50  74
ATOM     74  C   UNL     1      -0.411   2.808 -11.473  1.00  0.00     0.023 A 
ATOM     75  C   UNL     1       0.133   3.695 -12.416  1.00  0.00     0.031 A 
ATOM     76  C   UNL     1       0.468   1.945 -10.795  1.00  0.00     0.131 A 
ATOM     77  C   UNL     1       1.510   3.669 -12.688  1.00  0.00     0.055 A 
ATOM     78  C   UNL     1       1.844   1.958 -11.033  1.00  0.00     0.041 A 
ATOM     79  F   UNL     1       0.000   1.080  -9.882  1.00  0.00    -0.206 F 
ATOM     80  C   UNL     1       2.370   2.815 -11.993  1.00  0.00     0.022 A 
BRANCH  77  81
ATOM     81  S   UNL     1       2.153   4.714 -14.024  1.00  0.00     0.124 S 
ATOM     82  O   UNL     1       1.386   4.237 -15.169  1.00  0.00    -0.237 OA
ATOM     83  O   UNL     1       1.828   6.053 -13.544  1.00  0.00    -0.237 OA
ATOM     84  O   UNL     1       3.579   4.393 -14.050  1.00  0.00    -0.744 OA
ENDBRANCH  77  81
ENDBRANCH  50  74
BRANCH  62  85
ATOM     85  C   UNL     1      -5.833   1.038 -15.492  1.00  0.00     0.023 A 
ATOM     86  C   UNL     1      -5.335  -0.182 -15.981  1.00  0.00     0.031 A 
ATOM     87  C   UNL     1      -6.457   1.911 -16.401  1.00  0.00     0.131 A 
ATOM     88  C   UNL     1      -5.435  -0.479 -17.349  1.00  0.00     0.055 A 
ATOM     89  C   UNL     1      -6.599   1.589 -17.751  1.00  0.00     0.041 A 
ATOM     90  F   UNL     1      -6.949   3.090 -15.988  1.00  0.00    -0.206 F 
ATOM     91  C   UNL     1      -6.079   0.391 -18.234  1.00  0.00     0.022 A 
BRANCH  88  92
ATOM     92  S   UNL     1      -4.661  -1.995 -17.975  1.00  0.00     0.124 S 
ATOM     93  O   UNL     1      -3.255  -1.774 -17.651  1.00  0.00    -0.237 OA
ATOM     94  O   UNL     1      -5.337  -3.034 -17.205  1.00  0.00    -0.237 OA
ATOM     95  O   UNL     1      -4.978  -1.980 -19.402  1.00  0.00    -0.744 OA
ENDBRANCH  88  92
ENDBRANCH  62  85
ENDBRANCH  36  37
ENDBRANCH  28  31
ENDBRANCH  26  27
ENDBRANCH  25  26
ENDBRANCH   1  25
TORSDOF 19
