REMARK SMILES CCC1=C(C)N(C(C)(C)C(=O)NCCCNC(=O)c2ccc(-c3c4nc(c(-c5cc(S(=O)(=O)[O-])ccc5F)c5ccc([nH]5)c(-c5cc(S(=O)(=O)[O-])ccc5F)c5nc(c(-c6cc(S(=O)(=O)[O-])ccc6F)c6ccc3[nH]6)C=C5)C=C4)cc2)N(C(=O)C(C)C)c2ccccc21
REMARK SMILES IDX 14 1 13 2 12 3 10 4 11 5 7 7 8 8 9 9 6 10 3 11 4 12 93 13
REMARK SMILES IDX 5 14 88 15 92 16 82 17 89 18 91 19 90 20 2 21 1 22 83 23
REMARK SMILES IDX 84 24 85 25 86 26 87 27 15 28 16 29 17 30 18 32 19 33 20 34
REMARK SMILES IDX 81 35 21 36 80 37 22 38 23 39 24 40 74 41 25 42 79 43 73 44
REMARK SMILES IDX 75 45 26 46 78 47 72 48 71 49 27 51 59 52 39 53 58 54 40 55
REMARK SMILES IDX 43 56 57 57 76 58 41 59 42 60 56 62 77 63 44 64 28 65 29 66
REMARK SMILES IDX 37 67 30 68 36 69 38 70 35 71 31 72 32 73 33 74 34 75 60 76
REMARK SMILES IDX 61 77 69 78 62 79 68 80 70 81 67 82 63 83 64 84 65 85 66 86
REMARK SMILES IDX 45 87 46 88 54 89 47 90 53 91 55 92 52 93 48 94 49 95 50 96
REMARK SMILES IDX 51 97
REMARK H PARENT 12 6 16 31 75 50 43 61
REMARK Flexibility Score: inf
ROOT
ATOM      1  C   UNL     1       3.270   1.062  -8.128  1.00  0.00     0.042 C 
ENDROOT
BRANCH   1   2
ATOM      2  C   UNL     1       4.149   1.432  -6.939  1.00  0.00     0.117 C 
BRANCH   2   3
ATOM      3  N   UNL     1       3.867   2.735  -6.338  1.00  0.00    -0.354 N 
ATOM      4  C   UNL     1       3.413   3.088  -5.080  1.00  0.00     0.247 C 
ATOM      5  O   UNL     1       3.731   4.227  -4.723  1.00  0.00    -0.272 OA
ATOM      6  H   UNL     1       4.030   3.499  -6.937  1.00  0.00     0.163 HD
BRANCH   4   7
ATOM      7  C   UNL     1       2.715   2.050  -4.135  1.00  0.00     0.134 C 
ATOM      8  C   UNL     1       3.979   1.348  -3.549  1.00  0.00     0.047 C 
ATOM      9  C   UNL     1       1.759   1.188  -4.998  1.00  0.00     0.047 C 
BRANCH   7  10
ATOM     10  N   UNL     1       1.874   2.563  -2.932  1.00  0.00    -0.267 N 
ATOM     11  C   UNL     1       0.949   2.127  -0.696  1.00  0.00    -0.018 C 
ATOM     12  C   UNL     1       1.450   1.688  -1.878  1.00  0.00     0.037 C 
ATOM     13  C   UNL     1       0.741   3.603  -0.553  1.00  0.00     0.005 A 
ATOM     14  C   UNL     1       1.522   0.184  -2.084  1.00  0.00     0.066 C 
ATOM     15  C   UNL     1       0.955   4.485  -1.634  1.00  0.00     0.074 A 
ATOM     16  C   UNL     1       0.192   4.121   0.654  1.00  0.00     0.011 A 
ATOM     17  N   UNL     1       1.443   3.996  -2.910  1.00  0.00    -0.219 N 
ATOM     18  C   UNL     1       0.583   5.830  -1.431  1.00  0.00     0.029 A 
ATOM     19  C   UNL     1      -0.151   5.458   0.816  1.00  0.00     0.001 A 
ATOM     20  C   UNL     1       0.046   6.319  -0.235  1.00  0.00     0.002 A 
BRANCH  11  21
ATOM     21  C   UNL     1       0.524   1.293   0.527  1.00  0.00     0.035 C 
ATOM     22  C   UNL     1       0.764  -0.203   0.711  1.00  0.00     0.009 C 
ENDBRANCH  11  21
BRANCH  17  23
ATOM     23  C   UNL     1       1.093   4.573  -4.142  1.00  0.00     0.248 C 
ATOM     24  O   UNL     1       0.558   3.905  -5.043  1.00  0.00    -0.272 OA
BRANCH  23  25
ATOM     25  C   UNL     1       1.441   6.046  -4.483  1.00  0.00     0.074 C 
ATOM     26  C   UNL     1       0.167   6.893  -4.606  1.00  0.00     0.018 C 
ATOM     27  C   UNL     1       2.587   6.729  -3.720  1.00  0.00     0.018 C 
ENDBRANCH  23  25
ENDBRANCH  17  23
ENDBRANCH   7  10
ENDBRANCH   4   7
ENDBRANCH   2   3
ENDBRANCH   1   2
BRANCH   1  28
ATOM     28  C   UNL     1       3.403   1.993  -9.323  1.00  0.00     0.118 C 
BRANCH  28  29
ATOM     29  N   UNL     1       4.727   1.946  -9.935  1.00  0.00    -0.352 N 
ATOM     30  C   UNL     1       5.146   1.419 -11.135  1.00  0.00     0.251 C 
ATOM     31  H   UNL     1       5.440   2.362  -9.399  1.00  0.00     0.163 HD
ATOM     32  O   UNL     1       6.351   1.335 -11.363  1.00  0.00    -0.269 OA
BRANCH  30  33
ATOM     33  C   UNL     1       4.166   0.918 -12.125  1.00  0.00     0.039 A 
ATOM     34  C   UNL     1       2.986   1.615 -12.382  1.00  0.00     0.014 A 
ATOM     35  C   UNL     1       4.428  -0.275 -12.806  1.00  0.00     0.014 A 
ATOM     36  C   UNL     1       1.984   1.021 -13.140  1.00  0.00     0.010 A 
ATOM     37  C   UNL     1       3.459  -0.820 -13.656  1.00  0.00     0.010 A 
ATOM     38  C   UNL     1       2.202  -0.209 -13.779  1.00  0.00    -0.014 A 
BRANCH  38  39
ATOM     39  C   UNL     1       1.098  -0.840 -14.553  1.00  0.00     0.031 A 
ATOM     40  C   UNL     1       0.526  -2.168 -14.131  1.00  0.00     0.074 A 
ATOM     41  C   UNL     1       0.568  -0.182 -15.603  1.00  0.00     0.049 A 
ATOM     42  N   UNL     1      -0.443  -2.857 -14.677  1.00  0.00    -0.248 NA
ATOM     43  C   UNL     1       1.118  -2.810 -12.946  1.00  0.00     0.031 C 
ATOM     44  C   UNL     1       1.032   1.116 -16.093  1.00  0.00     0.029 A 
ATOM     45  N   UNL     1      -0.484  -0.492 -16.429  1.00  0.00    -0.354 N 
ATOM     46  C   UNL     1      -0.565  -4.016 -13.918  1.00  0.00     0.074 A 
ATOM     47  C   UNL     1       0.454  -3.956 -12.893  1.00  0.00     0.031 C 
ATOM     48  C   UNL     1       0.236   1.519 -17.091  1.00  0.00     0.029 A 
ATOM     49  C   UNL     1      -0.747   0.475 -17.372  1.00  0.00     0.049 A 
ATOM     50  H   UNL     1      -1.001  -1.326 -16.353  1.00  0.00     0.167 HD
ATOM     51  C   UNL     1      -1.456  -5.027 -14.053  1.00  0.00     0.034 A 
ATOM     52  C   UNL     1      -1.661   0.517 -18.363  1.00  0.00     0.034 A 
ATOM     53  C   UNL     1      -2.482  -5.060 -15.064  1.00  0.00     0.049 A 
ATOM     54  C   UNL     1      -2.623  -0.631 -18.511  1.00  0.00     0.074 A 
ATOM     55  C   UNL     1      -3.440  -6.036 -15.275  1.00  0.00     0.029 A 
ATOM     56  N   UNL     1      -2.696  -4.077 -16.019  1.00  0.00    -0.354 N 
ATOM     57  N   UNL     1      -2.735  -1.710 -17.771  1.00  0.00    -0.248 NA
ATOM     58  C   UNL     1      -3.582  -0.566 -19.622  1.00  0.00     0.031 C 
ATOM     59  C   UNL     1      -4.197  -5.670 -16.389  1.00  0.00     0.029 A 
ATOM     60  C   UNL     1      -3.758  -4.433 -16.834  1.00  0.00     0.049 A 
ATOM     61  H   UNL     1      -2.171  -3.248 -16.105  1.00  0.00     0.167 HD
ATOM     62  C   UNL     1      -3.783  -2.444 -18.318  1.00  0.00     0.074 A 
ATOM     63  C   UNL     1      -4.291  -1.673 -19.434  1.00  0.00     0.031 C 
ATOM     64  C   UNL     1      -4.271  -3.650 -17.934  1.00  0.00     0.034 A 
BRANCH  51  65
ATOM     65  C   UNL     1      -1.388  -6.187 -13.090  1.00  0.00     0.023 A 
ATOM     66  C   UNL     1      -1.095  -7.481 -13.563  1.00  0.00     0.031 A 
ATOM     67  C   UNL     1      -1.738  -6.038 -11.736  1.00  0.00     0.131 A 
ATOM     68  C   UNL     1      -1.188  -8.577 -12.696  1.00  0.00     0.055 A 
ATOM     69  C   UNL     1      -1.793  -7.129 -10.868  1.00  0.00     0.041 A 
ATOM     70  F   UNL     1      -2.025  -4.825 -11.236  1.00  0.00    -0.206 F 
ATOM     71  C   UNL     1      -1.530  -8.408 -11.350  1.00  0.00     0.022 A 
BRANCH  68  72
ATOM     72  S   UNL     1      -0.933 -10.271 -13.292  1.00  0.00     0.124 S 
ATOM     73  O   UNL     1       0.187 -10.714 -12.465  1.00  0.00    -0.237 OA
ATOM     74  O   UNL     1      -2.217 -10.899 -12.990  1.00  0.00    -0.237 OA
ATOM     75  O   UNL     1      -0.630 -10.104 -14.709  1.00  0.00    -0.744 OA
ENDBRANCH  68  72
ENDBRANCH  51  65
BRANCH  52  76
ATOM     76  C   UNL     1      -1.708   1.717 -19.251  1.00  0.00     0.023 A 
ATOM     77  C   UNL     1      -0.591   2.083 -20.025  1.00  0.00     0.031 A 
ATOM     78  C   UNL     1      -2.814   2.583 -19.237  1.00  0.00     0.131 A 
ATOM     79  C   UNL     1      -0.570   3.321 -20.679  1.00  0.00     0.055 A 
ATOM     80  C   UNL     1      -2.819   3.780 -19.955  1.00  0.00     0.041 A 
ATOM     81  F   UNL     1      -3.899   2.283 -18.506  1.00  0.00    -0.206 F 
ATOM     82  C   UNL     1      -1.684   4.165 -20.663  1.00  0.00     0.022 A 
BRANCH  79  83
ATOM     83  S   UNL     1       0.958   3.945 -21.434  1.00  0.00     0.124 S 
ATOM     84  O   UNL     1       0.571   4.083 -22.834  1.00  0.00    -0.237 OA
ATOM     85  O   UNL     1       1.160   5.197 -20.709  1.00  0.00    -0.237 OA
ATOM     86  O   UNL     1       1.935   2.900 -21.148  1.00  0.00    -0.744 OA
ENDBRANCH  79  83
ENDBRANCH  52  76
BRANCH  64  87
ATOM     87  C   UNL     1      -5.422  -4.245 -18.707  1.00  0.00     0.023 A 
ATOM     88  C   UNL     1      -6.656  -4.469 -18.067  1.00  0.00     0.031 A 
ATOM     89  C   UNL     1      -5.246  -4.742 -20.009  1.00  0.00     0.131 A 
ATOM     90  C   UNL     1      -7.649  -5.215 -18.712  1.00  0.00     0.055 A 
ATOM     91  C   UNL     1      -6.256  -5.446 -20.666  1.00  0.00     0.041 A 
ATOM     92  F   UNL     1      -4.083  -4.563 -20.655  1.00  0.00    -0.206 F 
ATOM     93  C   UNL     1      -7.459  -5.699 -20.011  1.00  0.00     0.022 A 
BRANCH  90  94
ATOM     94  S   UNL     1      -9.186  -5.665 -17.859  1.00  0.00     0.124 S 
ATOM     95  O   UNL     1     -10.199  -5.061 -18.722  1.00  0.00    -0.237 OA
ATOM     96  O   UNL     1      -9.135  -7.124 -17.885  1.00  0.00    -0.237 OA
ATOM     97  O   UNL     1      -9.049  -5.055 -16.541  1.00  0.00    -0.744 OA
ENDBRANCH  90  94
ENDBRANCH  64  87
ENDBRANCH  38  39
ENDBRANCH  30  33
ENDBRANCH  28  29
ENDBRANCH   1  28
TORSDOF 17
