REMARK SMILES CCOc1ccc(C(=O)NC(=S)Nc2cccc(C(=O)NCCCNC(=O)c3ccc(-c4c5nc(c(-c6cc(S(=O)(=O)[O-])ccc6F)c6ccc([nH]6)c(-c6cc(S(=O)(=O)[O-])ccc6F)c6nc(c(-c7cc(S(=O)(=O)[O-])ccc7F)c7ccc4[nH]7)C=C6)C=C5)cc3)c2C)cc1Br
REMARK SMILES IDX 19 1 20 2 21 3 18 5 14 6 15 7 91 8 16 9 92 10 17 11 13 12
REMARK SMILES IDX 11 14 12 15 10 16 8 17 9 18 7 20 4 21 5 22 94 23 6 24 93 25
REMARK SMILES IDX 95 26 3 27 2 28 1 29 22 30 23 31 24 32 25 33 26 34 27 36
REMARK SMILES IDX 28 37 29 38 90 39 30 40 89 41 31 42 32 43 33 44 83 45 34 46
REMARK SMILES IDX 88 47 82 48 84 49 35 50 87 51 81 52 80 53 36 55 68 56 48 57
REMARK SMILES IDX 67 58 49 59 52 60 66 61 85 62 50 63 51 64 65 66 86 67 53 68
REMARK SMILES IDX 37 69 38 70 46 71 39 72 45 73 47 74 44 75 40 76 41 77 42 78
REMARK SMILES IDX 43 79 69 80 70 81 78 82 71 83 77 84 79 85 76 86 72 87 73 88
REMARK SMILES IDX 74 89 75 90 54 91 55 92 63 93 56 94 62 95 64 96 61 97 57 98
REMARK SMILES IDX 58 99 59 100 60 101
REMARK H PARENT 21 4 13 13 10 19 25 35 84 54 52 65
REMARK Flexibility Score: inf
ROOT
ATOM      1  C   UNL     1       2.835  -3.362   0.505  1.00  0.00     0.251 C 
ATOM      2  O   UNL     1       3.289  -3.361  -0.652  1.00  0.00    -0.269 OA
ATOM      3  N   UNL     1       1.752  -4.256   0.636  1.00  0.00    -0.352 N 
ATOM      4  H   UNL     1       1.424  -4.418  -0.278  1.00  0.00     0.163 HD
ENDROOT
BRANCH   1   5
ATOM      5  C   UNL     1       3.567  -2.237   1.497  1.00  0.00     0.044 A 
ATOM      6  C   UNL     1       4.851   0.636   1.196  1.00  0.00     0.044 A 
ATOM      7  C   UNL     1       5.122   0.752   2.957  1.00  0.00     0.026 A 
ATOM      8  C   UNL     1       3.979  -0.774   0.445  1.00  0.00    -0.015 A 
ATOM      9  C   UNL     1       4.716  -0.494   4.095  1.00  0.00     0.003 A 
ATOM     10  C   UNL     1       3.848  -0.737  -1.050  1.00  0.00     0.047 C 
ATOM     11  C   UNL     1       3.993  -2.003   3.478  1.00  0.00     0.014 A 
BRANCH   6  12
ATOM     12  N   UNL     1       6.223   0.786   0.600  1.00  0.00    -0.332 N 
ATOM     13  H   UNL     1       6.279   1.341  -0.211  1.00  0.00     0.169 HD
BRANCH  12  14
ATOM     14  C   UNL     1       7.449   0.229   1.056  1.00  0.00     0.177 C 
ATOM     15  S   UNL     1       8.821   1.191   0.915  1.00  0.00    -0.040 S 
BRANCH  14  16
ATOM     16  N   UNL     1       7.646  -1.153   1.577  1.00  0.00    -0.299 N 
ATOM     17  C   UNL     1       7.118  -2.569   2.016  1.00  0.00     0.257 C 
ATOM     18  O   UNL     1       7.945  -3.436   2.285  1.00  0.00    -0.269 OA
ATOM     19  H   UNL     1       8.617  -1.211   1.723  1.00  0.00     0.172 HD
BRANCH  17  20
ATOM     20  C   UNL     1       5.624  -2.798   2.248  1.00  0.00     0.041 A 
ATOM     21  C   UNL     1       2.002  -1.913   2.860  1.00  0.00     0.133 A 
ATOM     22  C   UNL     1       2.695  -3.584   3.029  1.00  0.00     0.048 A 
ATOM     23  C   UNL     1       3.174  -0.610   2.459  1.00  0.00     0.060 A 
ATOM     24  C   UNL     1       4.443  -3.991   2.695  1.00  0.00     0.018 A 
ATOM     25  C   UNL     1       5.049  -1.248   2.149  1.00  0.00     0.033 A 
ATOM     26  Br  UNL     1       2.314   1.181   2.701  1.00  0.00    -0.047 Br
BRANCH  21  27
ATOM     27  O   UNL     1       0.669  -1.606   2.771  1.00  0.00    -0.493 OA
BRANCH  27  28
ATOM     28  C   UNL     1       0.157  -1.486   1.411  1.00  0.00     0.226 C 
ATOM     29  C   UNL     1       0.358  -0.217   0.596  1.00  0.00     0.049 C 
ENDBRANCH  27  28
ENDBRANCH  21  27
ENDBRANCH  17  20
ENDBRANCH  14  16
ENDBRANCH  12  14
ENDBRANCH   6  12
ENDBRANCH   1   5
BRANCH   3  30
ATOM     30  C   UNL     1       0.858  -5.087   1.555  1.00  0.00     0.118 C 
BRANCH  30  31
ATOM     31  C   UNL     1      -0.251  -4.457   2.413  1.00  0.00     0.042 C 
BRANCH  31  32
ATOM     32  C   UNL     1      -1.451  -5.354   2.713  1.00  0.00     0.118 C 
BRANCH  32  33
ATOM     33  N   UNL     1      -1.301  -6.429   3.690  1.00  0.00    -0.352 N 
ATOM     34  C   UNL     1      -2.286  -7.229   4.277  1.00  0.00     0.251 C 
ATOM     35  H   UNL     1      -0.378  -6.617   3.975  1.00  0.00     0.163 HD
ATOM     36  O   UNL     1      -2.004  -8.101   5.094  1.00  0.00    -0.269 OA
BRANCH  34  37
ATOM     37  C   UNL     1      -3.691  -7.162   3.780  1.00  0.00     0.039 A 
ATOM     38  C   UNL     1      -4.170  -8.358   3.221  1.00  0.00     0.014 A 
ATOM     39  C   UNL     1      -4.171  -5.944   3.340  1.00  0.00     0.014 A 
ATOM     40  C   UNL     1      -4.743  -8.318   1.962  1.00  0.00     0.010 A 
ATOM     41  C   UNL     1      -4.528  -5.897   2.020  1.00  0.00     0.010 A 
ATOM     42  C   UNL     1      -4.748  -7.089   1.323  1.00  0.00    -0.014 A 
BRANCH  42  43
ATOM     43  C   UNL     1      -5.110  -6.883  -0.056  1.00  0.00     0.031 A 
ATOM     44  C   UNL     1      -6.504  -6.469  -0.250  1.00  0.00     0.074 A 
ATOM     45  C   UNL     1      -4.152  -6.926  -1.007  1.00  0.00     0.049 A 
ATOM     46  N   UNL     1      -7.176  -6.677  -1.315  1.00  0.00    -0.248 NA
ATOM     47  C   UNL     1      -7.305  -5.849   0.810  1.00  0.00     0.031 C 
ATOM     48  C   UNL     1      -4.212  -6.497  -2.399  1.00  0.00     0.029 A 
ATOM     49  N   UNL     1      -2.930  -7.598  -0.915  1.00  0.00    -0.354 N 
ATOM     50  C   UNL     1      -8.311  -5.903  -1.222  1.00  0.00     0.074 A 
ATOM     51  C   UNL     1      -8.432  -5.554   0.164  1.00  0.00     0.031 C 
ATOM     52  C   UNL     1      -3.263  -7.154  -3.095  1.00  0.00     0.029 A 
ATOM     53  C   UNL     1      -2.662  -8.127  -2.198  1.00  0.00     0.049 A 
ATOM     54  H   UNL     1      -2.365  -7.686  -0.113  1.00  0.00     0.167 HD
ATOM     55  C   UNL     1      -8.893  -5.498  -2.379  1.00  0.00     0.034 A 
ATOM     56  C   UNL     1      -2.689  -9.486  -2.364  1.00  0.00     0.034 A 
ATOM     57  C   UNL     1      -8.153  -6.054  -3.514  1.00  0.00     0.049 A 
ATOM     58  C   UNL     1      -3.904  -9.947  -3.163  1.00  0.00     0.074 A 
ATOM     59  C   UNL     1      -7.176  -5.577  -4.370  1.00  0.00     0.029 A 
ATOM     60  N   UNL     1      -8.114  -7.425  -3.626  1.00  0.00    -0.354 N 
ATOM     61  N   UNL     1      -4.882  -9.159  -3.533  1.00  0.00    -0.248 NA
ATOM     62  C   UNL     1      -4.133 -11.327  -3.582  1.00  0.00     0.031 C 
ATOM     63  C   UNL     1      -6.533  -6.710  -4.968  1.00  0.00     0.029 A 
ATOM     64  C   UNL     1      -7.144  -7.858  -4.494  1.00  0.00     0.049 A 
ATOM     65  H   UNL     1      -8.717  -8.029  -3.135  1.00  0.00     0.167 HD
ATOM     66  C   UNL     1      -5.854  -9.874  -4.184  1.00  0.00     0.074 A 
ATOM     67  C   UNL     1      -5.345 -11.239  -4.163  1.00  0.00     0.031 C 
ATOM     68  C   UNL     1      -7.003  -9.296  -4.664  1.00  0.00     0.034 A 
BRANCH  55  69
ATOM     69  C   UNL     1      -9.956  -4.448  -2.533  1.00  0.00     0.023 A 
ATOM     70  C   UNL     1     -10.149  -3.929  -3.825  1.00  0.00     0.031 A 
ATOM     71  C   UNL     1     -10.793  -3.911  -1.535  1.00  0.00     0.131 A 
ATOM     72  C   UNL     1     -11.078  -2.913  -4.083  1.00  0.00     0.055 A 
ATOM     73  C   UNL     1     -11.706  -2.877  -1.785  1.00  0.00     0.041 A 
ATOM     74  F   UNL     1     -10.812  -4.376  -0.282  1.00  0.00    -0.206 F 
ATOM     75  C   UNL     1     -11.853  -2.369  -3.066  1.00  0.00     0.022 A 
BRANCH  72  76
ATOM     76  S   UNL     1     -11.248  -2.332  -5.786  1.00  0.00     0.124 S 
ATOM     77  O   UNL     1      -9.915  -1.802  -6.060  1.00  0.00    -0.237 OA
ATOM     78  O   UNL     1     -11.615  -3.554  -6.492  1.00  0.00    -0.237 OA
ATOM     79  O   UNL     1     -12.306  -1.328  -5.694  1.00  0.00    -0.744 OA
ENDBRANCH  72  76
ENDBRANCH  55  69
BRANCH  56  80
ATOM     80  C   UNL     1      -2.055 -10.171  -1.182  1.00  0.00     0.023 A 
ATOM     81  C   UNL     1      -0.719  -9.799  -0.885  1.00  0.00     0.031 A 
ATOM     82  C   UNL     1      -2.830 -10.678  -0.131  1.00  0.00     0.131 A 
ATOM     83  C   UNL     1      -0.291  -9.698   0.450  1.00  0.00     0.055 A 
ATOM     84  C   UNL     1      -2.361 -10.658   1.192  1.00  0.00     0.041 A 
ATOM     85  F   UNL     1      -4.104 -11.046  -0.336  1.00  0.00    -0.206 F 
ATOM     86  C   UNL     1      -1.119 -10.100   1.496  1.00  0.00     0.022 A 
BRANCH  83  87
ATOM     87  S   UNL     1       1.206  -8.730   0.813  1.00  0.00     0.124 S 
ATOM     88  O   UNL     1       2.263  -9.724   0.688  1.00  0.00    -0.237 OA
ATOM     89  O   UNL     1       1.175  -7.698  -0.222  1.00  0.00    -0.237 OA
ATOM     90  O   UNL     1       0.968  -8.220   2.165  1.00  0.00    -0.744 OA
ENDBRANCH  83  87
ENDBRANCH  56  80
BRANCH  68  91
ATOM     91  C   UNL     1      -8.150 -10.056  -5.302  1.00  0.00     0.023 A 
ATOM     92  C   UNL     1      -7.923 -11.194  -6.076  1.00  0.00     0.031 A 
ATOM     93  C   UNL     1      -9.510  -9.650  -5.202  1.00  0.00     0.131 A 
ATOM     94  C   UNL     1      -8.997 -11.945  -6.582  1.00  0.00     0.055 A 
ATOM     95  C   UNL     1     -10.566 -10.336  -5.800  1.00  0.00     0.041 A 
ATOM     96  F   UNL     1      -9.908  -8.598  -4.476  1.00  0.00    -0.206 F 
ATOM     97  C   UNL     1     -10.317 -11.514  -6.471  1.00  0.00     0.022 A 
BRANCH  94  98
ATOM     98  S   UNL     1      -8.630 -13.562  -7.292  1.00  0.00     0.124 S 
ATOM     99  O   UNL     1      -7.627 -13.245  -8.302  1.00  0.00    -0.237 OA
ATOM    100  O   UNL     1      -8.144 -14.290  -6.122  1.00  0.00    -0.237 OA
ATOM    101  O   UNL     1      -9.921 -14.011  -7.811  1.00  0.00    -0.744 OA
ENDBRANCH  94  98
ENDBRANCH  68  91
ENDBRANCH  42  43
ENDBRANCH  34  37
ENDBRANCH  32  33
ENDBRANCH  31  32
ENDBRANCH  30  31
ENDBRANCH   3  30
TORSDOF 19
