REMARK SMILES CC1(C)S[C@@H]2c3ccccc3C(=O)N2[C@H]1C(=O)N[C@H](Cc1c[nH]c2ccccc12)C(=O)NCCCNC(=O)c1ccc(-c2c3nc(c(-c4cc(S(=O)(=O)[O-])ccc4F)c4ccc([nH]4)c(-c4cc(S(=O)(=O)[O-])ccc4F)c4nc(c(-c5cc(S(=O)(=O)[O-])ccc5F)c5ccc2[nH]5)C=C4)C=C3)cc1
REMARK SMILES IDX 34 1 33 2 32 3 30 4 31 5 19 7 18 8 16 9 17 10 15 12 1 13
REMARK SMILES IDX 2 14 3 15 4 16 5 17 14 18 6 19 12 20 7 21 11 22 13 23 8 24
REMARK SMILES IDX 10 25 9 26 20 27 21 28 22 29 29 30 23 31 24 32 28 33 25 35
REMARK SMILES IDX 27 36 26 37 35 38 36 39 37 40 38 42 39 43 40 44 101 45 41 46
REMARK SMILES IDX 100 47 42 48 43 49 44 50 94 51 45 52 99 53 93 54 95 55 46 56
REMARK SMILES IDX 98 57 92 58 91 59 47 61 79 62 59 63 78 64 60 65 63 66 77 67
REMARK SMILES IDX 96 68 61 69 62 70 76 72 97 73 64 74 48 75 49 76 57 77 50 78
REMARK SMILES IDX 56 79 58 80 55 81 51 82 52 83 53 84 54 85 80 86 81 87 89 88
REMARK SMILES IDX 82 89 88 90 90 91 87 92 83 93 84 94 85 95 86 96 65 97 66 98
REMARK SMILES IDX 74 99 67 100 73 101 75 102 72 103 68 104 69 105 70 106
REMARK SMILES IDX 71 107
REMARK H PARENT 32 6 18 11 23 34 36 41 95 60 63 71
REMARK Flexibility Score: inf
ROOT
ATOM      1  C   UNL     1      -0.597  -2.563   5.842  1.00  0.00     0.042 C 
ENDROOT
BRANCH   1   2
ATOM      2  C   UNL     1       0.837  -2.668   5.338  1.00  0.00     0.117 C 
BRANCH   2   3
ATOM      3  N   UNL     1       1.188  -3.911   4.668  1.00  0.00    -0.354 N 
ATOM      4  C   UNL     1       1.251  -4.277   3.361  1.00  0.00     0.242 C 
ATOM      5  O   UNL     1       1.829  -5.340   3.106  1.00  0.00    -0.273 OA
ATOM      6  H   UNL     1       1.428  -4.636   5.290  1.00  0.00     0.163 HD
BRANCH   4   7
ATOM      7  C   UNL     1       0.719  -3.397   2.224  1.00  0.00     0.175 C 
BRANCH   7   8
ATOM      8  N   UNL     1       1.691  -2.255   2.095  1.00  0.00    -0.342 N 
ATOM      9  C   UNL     1       2.536  -1.705   1.183  1.00  0.00     0.244 C 
ATOM     10  O   UNL     1       3.353  -0.914   1.683  1.00  0.00    -0.273 OA
ATOM     11  H   UNL     1       1.727  -1.746   2.937  1.00  0.00     0.164 HD
BRANCH   9  12
ATOM     12  C   UNL     1       2.540  -1.887  -0.362  1.00  0.00     0.191 C 
ATOM     13  C   UNL     1       3.221  -4.376  -0.043  1.00  0.00     0.026 C 
ATOM     14  C   UNL     1       2.574  -3.321  -0.945  1.00  0.00     0.042 C 
ATOM     15  C   UNL     1       3.325  -3.331  -2.290  1.00  0.00     0.026 C 
ATOM     16  S   UNL     1       0.792  -3.703  -1.375  1.00  0.00    -0.123 SA
ATOM     17  C   UNL     1       0.209  -2.080  -0.921  1.00  0.00     0.176 C 
ATOM     18  N   UNL     1       1.361  -1.257  -0.938  1.00  0.00    -0.309 N 
ATOM     19  C   UNL     1      -0.785  -1.343  -1.720  1.00  0.00    -0.002 A 
ATOM     20  C   UNL     1       1.191  -0.109  -1.681  1.00  0.00     0.256 C 
ATOM     21  C   UNL     1      -2.138  -1.595  -1.869  1.00  0.00     0.007 A 
ATOM     22  C   UNL     1      -0.219  -0.139  -2.148  1.00  0.00     0.046 A 
ATOM     23  O   UNL     1       2.003   0.746  -1.948  1.00  0.00    -0.269 OA
ATOM     24  C   UNL     1      -2.914  -0.629  -2.508  1.00  0.00     0.000 A 
ATOM     25  C   UNL     1      -0.966   0.819  -2.805  1.00  0.00     0.014 A 
ATOM     26  C   UNL     1      -2.332   0.561  -2.985  1.00  0.00     0.001 A 
ENDBRANCH   9  12
ENDBRANCH   7   8
BRANCH   7  27
ATOM     27  C   UNL     1      -0.715  -2.917   2.442  1.00  0.00     0.072 C 
BRANCH  27  28
ATOM     28  C   UNL     1      -1.909  -3.804   2.705  1.00  0.00    -0.020 A 
ATOM     29  C   UNL     1      -3.172  -3.233   2.594  1.00  0.00     0.087 A 
ATOM     30  C   UNL     1      -2.137  -5.160   3.155  1.00  0.00     0.003 A 
ATOM     31  N   UNL     1      -4.117  -4.181   2.825  1.00  0.00    -0.361 N 
ATOM     32  C   UNL     1      -3.519  -5.285   3.367  1.00  0.00     0.046 A 
ATOM     33  C   UNL     1      -1.361  -6.297   3.481  1.00  0.00     0.010 A 
ATOM     34  H   UNL     1      -5.078  -4.087   2.633  1.00  0.00     0.166 HD
ATOM     35  C   UNL     1      -4.124  -6.372   4.010  1.00  0.00     0.026 A 
ATOM     36  C   UNL     1      -1.950  -7.396   4.136  1.00  0.00     0.001 A 
ATOM     37  C   UNL     1      -3.306  -7.411   4.435  1.00  0.00     0.002 A 
ENDBRANCH  27  28
ENDBRANCH   7  27
ENDBRANCH   4   7
ENDBRANCH   2   3
ENDBRANCH   1   2
BRANCH   1  38
ATOM     38  C   UNL     1      -1.160  -3.840   6.433  1.00  0.00     0.118 C 
BRANCH  38  39
ATOM     39  N   UNL     1      -0.438  -4.254   7.622  1.00  0.00    -0.352 N 
ATOM     40  C   UNL     1      -0.839  -4.240   8.933  1.00  0.00     0.251 C 
ATOM     41  H   UNL     1       0.472  -4.595   7.464  1.00  0.00     0.163 HD
ATOM     42  O   UNL     1      -0.012  -4.419   9.822  1.00  0.00    -0.269 OA
BRANCH  40  43
ATOM     43  C   UNL     1      -2.255  -3.970   9.260  1.00  0.00     0.039 A 
ATOM     44  C   UNL     1      -3.283  -4.572   8.531  1.00  0.00     0.014 A 
ATOM     45  C   UNL     1      -2.553  -3.083  10.295  1.00  0.00     0.014 A 
ATOM     46  C   UNL     1      -4.594  -4.151   8.716  1.00  0.00     0.010 A 
ATOM     47  C   UNL     1      -3.884  -2.743  10.550  1.00  0.00     0.010 A 
ATOM     48  C   UNL     1      -4.912  -3.236   9.731  1.00  0.00    -0.014 A 
BRANCH  48  49
ATOM     49  C   UNL     1      -6.325  -2.821   9.935  1.00  0.00     0.031 A 
ATOM     50  C   UNL     1      -6.739  -1.384   9.776  1.00  0.00     0.074 A 
ATOM     51  C   UNL     1      -7.244  -3.757  10.246  1.00  0.00     0.049 A 
ATOM     52  N   UNL     1      -7.923  -0.850   9.928  1.00  0.00    -0.248 NA
ATOM     53  C   UNL     1      -5.692  -0.416   9.406  1.00  0.00     0.031 C 
ATOM     54  C   UNL     1      -6.955  -5.181  10.427  1.00  0.00     0.029 A 
ATOM     55  N   UNL     1      -8.597  -3.663  10.457  1.00  0.00    -0.354 N 
ATOM     56  C   UNL     1      -7.764   0.511   9.694  1.00  0.00     0.074 A 
ATOM     57  C   UNL     1      -6.360   0.730   9.425  1.00  0.00     0.031 C 
ATOM     58  C   UNL     1      -8.098  -5.831  10.682  1.00  0.00     0.029 A 
ATOM     59  C   UNL     1      -9.190  -4.866  10.766  1.00  0.00     0.049 A 
ATOM     60  H   UNL     1      -9.095  -2.817  10.394  1.00  0.00     0.167 HD
ATOM     61  C   UNL     1      -8.707   1.482   9.690  1.00  0.00     0.034 A 
ATOM     62  C   UNL     1     -10.461  -5.163  11.106  1.00  0.00     0.034 A 
ATOM     63  C   UNL     1     -10.107   1.240   9.937  1.00  0.00     0.049 A 
ATOM     64  C   UNL     1     -11.486  -4.060  11.122  1.00  0.00     0.074 A 
ATOM     65  C   UNL     1     -11.146   2.154   9.905  1.00  0.00     0.029 A 
ATOM     66  N   UNL     1     -10.668   0.012  10.260  1.00  0.00    -0.354 N 
ATOM     67  N   UNL     1     -11.329  -2.790  10.832  1.00  0.00    -0.248 NA
ATOM     68  C   UNL     1     -12.858  -4.423  11.499  1.00  0.00     0.031 C 
ATOM     69  C   UNL     1     -12.314   1.501  10.291  1.00  0.00     0.029 A 
ATOM     70  C   UNL     1     -12.031   0.155  10.465  1.00  0.00     0.049 A 
ATOM     71  H   UNL     1     -10.171  -0.835  10.332  1.00  0.00     0.167 HD
ATOM     72  C   UNL     1     -12.586  -2.207  10.970  1.00  0.00     0.074 A 
ATOM     73  C   UNL     1     -13.497  -3.270  11.338  1.00  0.00     0.031 C 
ATOM     74  C   UNL     1     -12.945  -0.908  10.811  1.00  0.00     0.034 A 
BRANCH  61  75
ATOM     75  C   UNL     1      -8.297   2.906   9.398  1.00  0.00     0.023 A 
ATOM     76  C   UNL     1      -8.531   3.910  10.359  1.00  0.00     0.031 A 
ATOM     77  C   UNL     1      -7.848   3.299   8.125  1.00  0.00     0.131 A 
ATOM     78  C   UNL     1      -8.373   5.257  10.013  1.00  0.00     0.055 A 
ATOM     79  C   UNL     1      -7.640   4.641   7.803  1.00  0.00     0.041 A 
ATOM     80  F   UNL     1      -7.613   2.382   7.172  1.00  0.00    -0.206 F 
ATOM     81  C   UNL     1      -7.920   5.628   8.743  1.00  0.00     0.022 A 
BRANCH  78  82
ATOM     82  S   UNL     1      -8.839   6.580  11.163  1.00  0.00     0.124 S 
ATOM     83  O   UNL     1      -7.588   7.325  11.285  1.00  0.00    -0.237 OA
ATOM     84  O   UNL     1      -9.901   7.260  10.427  1.00  0.00    -0.237 OA
ATOM     85  O   UNL     1      -9.257   5.869  12.366  1.00  0.00    -0.744 OA
ENDBRANCH  78  82
ENDBRANCH  61  75
BRANCH  62  86
ATOM     86  C   UNL     1     -10.811  -6.580  11.423  1.00  0.00     0.023 A 
ATOM     87  C   UNL     1     -10.168  -7.260  12.475  1.00  0.00     0.031 A 
ATOM     88  C   UNL     1     -11.693  -7.309  10.609  1.00  0.00     0.131 A 
ATOM     89  C   UNL     1     -10.347  -8.640  12.627  1.00  0.00     0.055 A 
ATOM     90  C   UNL     1     -11.936  -8.668  10.820  1.00  0.00     0.041 A 
ATOM     91  F   UNL     1     -12.319  -6.711   9.584  1.00  0.00    -0.206 F 
ATOM     92  C   UNL     1     -11.243  -9.345  11.819  1.00  0.00     0.022 A 
BRANCH  89  93
ATOM     93  S   UNL     1      -9.303  -9.589  13.768  1.00  0.00     0.124 S 
ATOM     94  O   UNL     1     -10.292 -10.189  14.658  1.00  0.00    -0.237 OA
ATOM     95  O   UNL     1      -8.632 -10.512  12.855  1.00  0.00    -0.237 OA
ATOM     96  O   UNL     1      -8.441  -8.578  14.370  1.00  0.00    -0.744 OA
ENDBRANCH  89  93
ENDBRANCH  62  86
BRANCH  74  97
ATOM     97  C   UNL     1     -14.392  -0.520  11.012  1.00  0.00     0.023 A 
ATOM     98  C   UNL     1     -15.111   0.072   9.954  1.00  0.00     0.031 A 
ATOM     99  C   UNL     1     -14.998  -0.568  12.279  1.00  0.00     0.131 A 
ATOM    100  C   UNL     1     -16.365   0.645  10.196  1.00  0.00     0.055 A 
ATOM    101  C   UNL     1     -16.276  -0.051  12.500  1.00  0.00     0.041 A 
ATOM    102  F   UNL     1     -14.353  -1.109  13.325  1.00  0.00    -0.206 F 
ATOM    103  C   UNL     1     -16.957   0.577  11.460  1.00  0.00     0.022 A 
BRANCH 100 104
ATOM    104  S   UNL     1     -17.221   1.596   8.909  1.00  0.00     0.124 S 
ATOM    105  O   UNL     1     -18.473   0.855   8.769  1.00  0.00    -0.237 OA
ATOM    106  O   UNL     1     -17.341   2.912   9.529  1.00  0.00    -0.237 OA
ATOM    107  O   UNL     1     -16.325   1.522   7.760  1.00  0.00    -0.744 OA
ENDBRANCH 100 104
ENDBRANCH  74  97
ENDBRANCH  48  49
ENDBRANCH  40  43
ENDBRANCH  38  39
ENDBRANCH   1  38
TORSDOF 17
