REMARK SMILES Cc1cc(S(=O)(=O)Nc2cccc(I)c2)ccc1OCC(=O)NCCCNC(=O)c1ccc(-c2c3nc(c(-c4cc(S(=O)(=O)[O-])ccc4F)c4ccc([nH]4)c(-c4cc(S(=O)(=O)[O-])ccc4F)c4nc(c(-c5cc(S(=O)(=O)[O-])ccc5F)c5ccc2[nH]5)C=C4)C=C3)cc1
REMARK SMILES IDX 24 1 23 2 21 3 22 4 20 6 19 7 18 8 1 9 2 10 3 11 4 12 17 13
REMARK SMILES IDX 16 14 5 15 6 16 7 17 8 18 9 20 10 21 15 22 11 23 13 24 12 25
REMARK SMILES IDX 14 26 25 27 26 28 27 29 28 30 29 32 30 33 31 34 92 35 32 36
REMARK SMILES IDX 91 37 33 38 34 39 35 40 85 41 36 42 90 43 84 44 86 45 37 46
REMARK SMILES IDX 89 47 83 48 82 49 38 51 70 52 50 53 69 54 51 55 54 56 68 57
REMARK SMILES IDX 87 58 52 59 53 60 67 62 88 63 55 64 39 65 40 66 48 67 41 68
REMARK SMILES IDX 47 69 49 70 46 71 42 72 43 73 44 74 45 75 71 76 72 77 80 78
REMARK SMILES IDX 73 79 79 80 81 81 78 82 74 83 75 84 76 85 77 86 56 87 57 88
REMARK SMILES IDX 65 89 58 90 64 91 66 92 63 93 59 94 60 95 61 96 62 97
REMARK H PARENT 23 5 8 19 27 31 86 50 54 61
REMARK Flexibility Score: inf
ROOT
ATOM      1  C   UNL     1       1.975   4.264   2.378  1.00  0.00     0.117 C 
ENDROOT
BRANCH   1   2
ATOM      2  N   UNL     1       2.884   3.128   2.393  1.00  0.00    -0.353 N 
ATOM      3  C   UNL     1       3.188   2.250   1.391  1.00  0.00     0.257 C 
ATOM      4  O   UNL     1       4.004   1.344   1.573  1.00  0.00    -0.271 OA
ATOM      5  H   UNL     1       3.346   2.970   3.247  1.00  0.00     0.163 HD
BRANCH   3   6
ATOM      6  C   UNL     1       2.550   2.450   0.012  1.00  0.00     0.329 C 
BRANCH   6   7
ATOM      7  O   UNL     1       1.166   2.223  -0.135  1.00  0.00    -0.484 OA
BRANCH   7   8
ATOM      8  C   UNL     1       0.608   0.988   0.014  1.00  0.00     0.123 A 
ATOM      9  C   UNL     1       2.528  -0.586  -0.716  1.00  0.00     0.048 C 
ATOM     10  C   UNL     1       1.120  -0.278  -0.298  1.00  0.00    -0.008 A 
ATOM     11  C   UNL     1       0.247  -1.390  -0.219  1.00  0.00     0.029 A 
ATOM     12  C   UNL     1      -1.088  -1.264   0.187  1.00  0.00     0.088 A 
ATOM     13  C   UNL     1      -0.721   1.085   0.466  1.00  0.00     0.048 A 
ATOM     14  C   UNL     1      -1.545  -0.030   0.615  1.00  0.00     0.026 A 
BRANCH  12  15
ATOM     15  S   UNL     1      -2.128  -2.687  -0.066  1.00  0.00     0.261 S 
ATOM     16  O   UNL     1      -2.001  -3.046  -1.471  1.00  0.00    -0.201 OA
ATOM     17  O   UNL     1      -1.805  -3.631   0.974  1.00  0.00    -0.201 OA
BRANCH  15  18
ATOM     18  N   UNL     1      -3.737  -2.307   0.202  1.00  0.00    -0.280 N 
ATOM     19  H   UNL     1      -4.287  -2.985   0.658  1.00  0.00     0.180 HD
BRANCH  18  20
ATOM     20  C   UNL     1      -4.382  -1.099  -0.167  1.00  0.00     0.050 A 
ATOM     21  C   UNL     1      -4.068  -0.359  -1.307  1.00  0.00     0.027 A 
ATOM     22  C   UNL     1      -5.328  -0.613   0.741  1.00  0.00     0.041 A 
ATOM     23  C   UNL     1      -4.599   0.928  -1.460  1.00  0.00     0.003 A 
ATOM     24  C   UNL     1      -5.861   0.663   0.578  1.00  0.00     0.015 A 
ATOM     25  C   UNL     1      -5.480   1.448  -0.507  1.00  0.00     0.015 A 
ATOM     26  I   UNL     1      -7.173   1.411   2.005  1.00  0.00    -0.044 I 
ENDBRANCH  18  20
ENDBRANCH  15  18
ENDBRANCH  12  15
ENDBRANCH   7   8
ENDBRANCH   6   7
ENDBRANCH   3   6
ENDBRANCH   1   2
BRANCH   1  27
ATOM     27  C   UNL     1       0.564   3.893   2.802  1.00  0.00     0.042 C 
BRANCH  27  28
ATOM     28  C   UNL     1       0.425   3.510   4.271  1.00  0.00     0.118 C 
BRANCH  28  29
ATOM     29  N   UNL     1       0.004   4.613   5.131  1.00  0.00    -0.352 N 
ATOM     30  C   UNL     1      -0.432   4.575   6.443  1.00  0.00     0.251 C 
ATOM     31  H   UNL     1       0.034   5.507   4.720  1.00  0.00     0.163 HD
ATOM     32  O   UNL     1      -0.814   5.589   7.022  1.00  0.00    -0.269 OA
BRANCH  30  33
ATOM     33  C   UNL     1      -0.287   3.314   7.205  1.00  0.00     0.039 A 
ATOM     34  C   UNL     1       0.480   3.363   8.376  1.00  0.00     0.014 A 
ATOM     35  C   UNL     1      -0.664   2.091   6.659  1.00  0.00     0.014 A 
ATOM     36  C   UNL     1       1.079   2.200   8.849  1.00  0.00     0.010 A 
ATOM     37  C   UNL     1       0.002   0.952   7.066  1.00  0.00     0.010 A 
ATOM     38  C   UNL     1       0.923   1.022   8.117  1.00  0.00    -0.014 A 
BRANCH  38  39
ATOM     39  C   UNL     1       1.795  -0.132   8.292  1.00  0.00     0.031 A 
ATOM     40  C   UNL     1       1.334  -1.326   9.017  1.00  0.00     0.074 A 
ATOM     41  C   UNL     1       3.031  -0.119   7.749  1.00  0.00     0.049 A 
ATOM     42  N   UNL     1       2.103  -2.102   9.705  1.00  0.00    -0.248 NA
ATOM     43  C   UNL     1      -0.067  -1.723   9.045  1.00  0.00     0.031 C 
ATOM     44  C   UNL     1       3.964  -1.234   7.631  1.00  0.00     0.029 A 
ATOM     45  N   UNL     1       3.780   1.001   7.399  1.00  0.00    -0.354 N 
ATOM     46  C   UNL     1       1.385  -3.241   9.988  1.00  0.00     0.074 A 
ATOM     47  C   UNL     1       0.019  -2.917   9.639  1.00  0.00     0.031 C 
ATOM     48  C   UNL     1       5.207  -0.745   7.495  1.00  0.00     0.029 A 
ATOM     49  C   UNL     1       5.127   0.696   7.660  1.00  0.00     0.049 A 
ATOM     50  H   UNL     1       3.432   1.848   7.038  1.00  0.00     0.167 HD
ATOM     51  C   UNL     1       2.041  -4.390  10.322  1.00  0.00     0.034 A 
ATOM     52  C   UNL     1       5.850   1.434   8.552  1.00  0.00     0.034 A 
ATOM     53  C   UNL     1       3.491  -4.197  10.348  1.00  0.00     0.049 A 
ATOM     54  C   UNL     1       6.357   0.623   9.724  1.00  0.00     0.074 A 
ATOM     55  C   UNL     1       4.487  -4.509   9.435  1.00  0.00     0.029 A 
ATOM     56  N   UNL     1       4.071  -3.348  11.285  1.00  0.00    -0.354 N 
ATOM     57  N   UNL     1       5.901  -0.555  10.051  1.00  0.00    -0.248 NA
ATOM     58  C   UNL     1       7.404   1.083  10.630  1.00  0.00     0.031 C 
ATOM     59  C   UNL     1       5.656  -3.794   9.797  1.00  0.00     0.029 A 
ATOM     60  C   UNL     1       5.383  -3.070  10.945  1.00  0.00     0.049 A 
ATOM     61  H   UNL     1       3.611  -2.994  12.080  1.00  0.00     0.167 HD
ATOM     62  C   UNL     1       6.535  -1.000  11.184  1.00  0.00     0.074 A 
ATOM     63  C   UNL     1       7.488   0.053  11.490  1.00  0.00     0.031 C 
ATOM     64  C   UNL     1       6.205  -2.192  11.770  1.00  0.00     0.034 A 
BRANCH  51  65
ATOM     65  C   UNL     1       1.392  -5.759  10.273  1.00  0.00     0.023 A 
ATOM     66  C   UNL     1       2.173  -6.883   9.929  1.00  0.00     0.031 A 
ATOM     67  C   UNL     1       0.028  -6.022  10.498  1.00  0.00     0.131 A 
ATOM     68  C   UNL     1       1.590  -8.142   9.698  1.00  0.00     0.055 A 
ATOM     69  C   UNL     1      -0.566  -7.258  10.207  1.00  0.00     0.041 A 
ATOM     70  F   UNL     1      -0.778  -5.110  11.060  1.00  0.00    -0.206 F 
ATOM     71  C   UNL     1       0.214  -8.324   9.785  1.00  0.00     0.022 A 
BRANCH  68  72
ATOM     72  S   UNL     1       2.664  -9.548   9.295  1.00  0.00     0.124 S 
ATOM     73  O   UNL     1       3.310  -9.104   8.065  1.00  0.00    -0.237 OA
ATOM     74  O   UNL     1       3.515  -9.634  10.477  1.00  0.00    -0.237 OA
ATOM     75  O   UNL     1       1.724 -10.657   9.133  1.00  0.00    -0.744 OA
ENDBRANCH  68  72
ENDBRANCH  51  65
BRANCH  52  76
ATOM     76  C   UNL     1       5.428   2.866   8.600  1.00  0.00     0.023 A 
ATOM     77  C   UNL     1       5.441   3.576   7.378  1.00  0.00     0.031 A 
ATOM     78  C   UNL     1       4.662   3.386   9.650  1.00  0.00     0.131 A 
ATOM     79  C   UNL     1       4.558   4.646   7.173  1.00  0.00     0.055 A 
ATOM     80  C   UNL     1       3.850   4.513   9.466  1.00  0.00     0.041 A 
ATOM     81  F   UNL     1       4.584   2.744  10.825  1.00  0.00    -0.206 F 
ATOM     82  C   UNL     1       3.758   5.120   8.211  1.00  0.00     0.022 A 
BRANCH  79  83
ATOM     83  S   UNL     1       4.257   5.181   5.464  1.00  0.00     0.124 S 
ATOM     84  O   UNL     1       5.398   6.049   5.201  1.00  0.00    -0.237 OA
ATOM     85  O   UNL     1       4.237   3.913   4.731  1.00  0.00    -0.237 OA
ATOM     86  O   UNL     1       2.959   5.849   5.517  1.00  0.00    -0.744 OA
ENDBRANCH  79  83
ENDBRANCH  52  76
BRANCH  64  87
ATOM     87  C   UNL     1       6.692  -2.693  13.117  1.00  0.00     0.023 A 
ATOM     88  C   UNL     1       7.300  -1.871  14.077  1.00  0.00     0.031 A 
ATOM     89  C   UNL     1       6.491  -4.040  13.511  1.00  0.00     0.131 A 
ATOM     90  C   UNL     1       7.756  -2.392  15.303  1.00  0.00     0.055 A 
ATOM     91  C   UNL     1       6.870  -4.537  14.762  1.00  0.00     0.041 A 
ATOM     92  F   UNL     1       5.908  -4.936  12.701  1.00  0.00    -0.206 F 
ATOM     93  C   UNL     1       7.525  -3.716  15.664  1.00  0.00     0.022 A 
BRANCH  90  94
ATOM     94  S   UNL     1       8.723  -1.309  16.388  1.00  0.00     0.124 S 
ATOM     95  O   UNL     1       9.876  -0.995  15.548  1.00  0.00    -0.237 OA
ATOM     96  O   UNL     1       7.800  -0.206  16.634  1.00  0.00    -0.237 OA
ATOM     97  O   UNL     1       9.012  -2.149  17.548  1.00  0.00    -0.744 OA
ENDBRANCH  90  94
ENDBRANCH  64  87
ENDBRANCH  38  39
ENDBRANCH  30  33
ENDBRANCH  28  29
ENDBRANCH  27  28
ENDBRANCH   1  27
TORSDOF 18
