REMARK SMILES CC(C)[NH2+][C@@]1(C(=O)NCCCNC(=O)c2ccc(-c3c4nc(c(-c5cc(S(=O)(=O)[O-])ccc5F)c5ccc([nH]5)c(-c5cc(S(=O)(=O)[O-])ccc5F)c5nc(c(-c6cc(S(=O)(=O)[O-])ccc6F)c6ccc3[nH]6)C=C5)C=C4)cc2)CCC[C@H](SC2CCCCC2)C1
REMARK SMILES IDX 10 1 9 2 8 3 6 4 7 5 5 7 78 8 89 9 79 10 81 11 80 12 4 13
REMARK SMILES IDX 2 16 1 17 3 18 82 19 83 20 84 21 88 22 85 23 87 24 86 25
REMARK SMILES IDX 11 26 12 27 13 28 14 30 15 31 16 32 77 33 17 34 76 35 18 36
REMARK SMILES IDX 19 37 20 38 70 39 21 40 75 41 69 42 71 43 22 44 74 45 68 46
REMARK SMILES IDX 67 47 23 49 55 50 35 51 54 52 36 53 39 54 53 55 72 56 37 57
REMARK SMILES IDX 38 58 52 60 73 61 40 62 24 63 25 64 33 65 26 66 32 67 34 68
REMARK SMILES IDX 31 69 27 70 28 71 29 72 30 73 56 74 57 75 65 76 58 77 64 78
REMARK SMILES IDX 66 79 63 80 59 81 60 82 61 83 62 84 41 85 42 86 50 87 43 88
REMARK SMILES IDX 49 89 51 90 48 91 44 92 45 93 46 94 47 95
REMARK H PARENT 8 6 4 14 4 15 12 29 71 48 39 59
REMARK Flexibility Score: inf
ROOT
ATOM      1  C   UNL     1      -4.456   3.314   4.171  1.00  0.00     0.042 C 
ENDROOT
BRANCH   1   2
ATOM      2  C   UNL     1      -4.024   1.866   4.361  1.00  0.00     0.118 C 
BRANCH   2   3
ATOM      3  N   UNL     1      -3.815   1.223   3.070  1.00  0.00    -0.351 N 
ATOM      4  C   UNL     1      -2.896   1.310   2.078  1.00  0.00     0.281 C 
ATOM      5  O   UNL     1      -3.319   0.853   0.996  1.00  0.00    -0.268 OA
ATOM      6  H   UNL     1      -4.514   0.560   2.869  1.00  0.00     0.163 HD
BRANCH   4   7
ATOM      7  C   UNL     1      -1.391   1.902   2.124  1.00  0.00     0.176 C 
ATOM      8  C   UNL     1      -0.706   1.744   3.493  1.00  0.00     0.079 C 
ATOM      9  C   UNL     1      -1.420   3.343   1.509  1.00  0.00     0.093 C 
ATOM     10  C   UNL     1      -0.626   3.010   4.336  1.00  0.00     0.008 C 
ATOM     11  C   UNL     1      -1.044   4.570   2.395  1.00  0.00     0.053 C 
ATOM     12  C   UNL     1      -0.106   4.176   3.520  1.00  0.00     0.015 C 
BRANCH   7  13
ATOM     13  N   UNL     1      -0.729   0.975   1.136  1.00  0.00    -0.332 N 
ATOM     14  H   UNL     1      -1.043   0.040   1.397  1.00  0.00     0.347 HD
ATOM     15  H   UNL     1      -1.003   1.428   0.265  1.00  0.00     0.347 HD
BRANCH  13  16
ATOM     16  C   UNL     1       0.703   0.844   0.906  1.00  0.00     0.176 C 
ATOM     17  C   UNL     1       0.881  -0.178  -0.229  1.00  0.00     0.075 C 
ATOM     18  C   UNL     1       1.463   2.111   0.524  1.00  0.00     0.075 C 
ENDBRANCH  13  16
ENDBRANCH   7  13
BRANCH  11  19
ATOM     19  S   UNL     1      -2.606   5.478   2.714  1.00  0.00    -0.155 SA
BRANCH  19  20
ATOM     20  C   UNL     1      -2.531   6.487   4.249  1.00  0.00     0.047 C 
ATOM     21  C   UNL     1      -1.917   5.970   5.554  1.00  0.00     0.014 C 
ATOM     22  C   UNL     1      -2.064   7.909   3.941  1.00  0.00     0.014 C 
ATOM     23  C   UNL     1      -2.240   6.895   6.730  1.00  0.00     0.001 C 
ATOM     24  C   UNL     1      -2.409   8.818   5.119  1.00  0.00     0.001 C 
ATOM     25  C   UNL     1      -1.816   8.329   6.434  1.00  0.00     0.000 C 
ENDBRANCH  19  20
ENDBRANCH  11  19
ENDBRANCH   4   7
ENDBRANCH   2   3
ENDBRANCH   1   2
BRANCH   1  26
ATOM     26  C   UNL     1      -5.842   3.756   4.632  1.00  0.00     0.118 C 
BRANCH  26  27
ATOM     27  N   UNL     1      -5.886   4.098   6.043  1.00  0.00    -0.352 N 
ATOM     28  C   UNL     1      -6.075   5.259   6.758  1.00  0.00     0.251 C 
ATOM     29  H   UNL     1      -5.750   3.316   6.625  1.00  0.00     0.163 HD
ATOM     30  O   UNL     1      -5.917   5.151   7.979  1.00  0.00    -0.269 OA
BRANCH  28  31
ATOM     31  C   UNL     1      -6.425   6.612   6.206  1.00  0.00     0.039 A 
ATOM     32  C   UNL     1      -6.196   7.719   7.051  1.00  0.00     0.014 A 
ATOM     33  C   UNL     1      -7.029   6.870   4.976  1.00  0.00     0.014 A 
ATOM     34  C   UNL     1      -6.524   9.032   6.668  1.00  0.00     0.010 A 
ATOM     35  C   UNL     1      -7.308   8.193   4.566  1.00  0.00     0.010 A 
ATOM     36  C   UNL     1      -7.065   9.293   5.406  1.00  0.00    -0.014 A 
BRANCH  36  37
ATOM     37  C   UNL     1      -7.395  10.684   4.959  1.00  0.00     0.031 A 
ATOM     38  C   UNL     1      -8.824  11.104   4.741  1.00  0.00     0.074 A 
ATOM     39  C   UNL     1      -6.419  11.579   4.699  1.00  0.00     0.049 A 
ATOM     40  N   UNL     1      -9.292  12.230   4.262  1.00  0.00    -0.248 NA
ATOM     41  C   UNL     1      -9.860  10.136   5.126  1.00  0.00     0.031 C 
ATOM     42  C   UNL     1      -4.998  11.353   4.927  1.00  0.00     0.029 A 
ATOM     43  N   UNL     1      -6.461  12.845   4.163  1.00  0.00    -0.354 N 
ATOM     44  C   UNL     1     -10.677  12.117   4.302  1.00  0.00     0.074 A 
ATOM     45  C   UNL     1     -10.968  10.787   4.800  1.00  0.00     0.031 C 
ATOM     46  C   UNL     1      -4.293  12.399   4.470  1.00  0.00     0.029 A 
ATOM     47  C   UNL     1      -5.215  13.380   3.911  1.00  0.00     0.049 A 
ATOM     48  H   UNL     1      -7.301  13.324   3.976  1.00  0.00     0.167 HD
ATOM     49  C   UNL     1     -11.616  13.043   3.981  1.00  0.00     0.034 A 
ATOM     50  C   UNL     1      -4.844  14.514   3.286  1.00  0.00     0.034 A 
ATOM     51  C   UNL     1     -11.323  14.365   3.477  1.00  0.00     0.049 A 
ATOM     52  C   UNL     1      -5.902  15.465   2.797  1.00  0.00     0.074 A 
ATOM     53  C   UNL     1     -12.207  15.390   3.183  1.00  0.00     0.029 A 
ATOM     54  N   UNL     1     -10.056  14.840   3.166  1.00  0.00    -0.354 N 
ATOM     55  N   UNL     1      -7.206  15.358   2.883  1.00  0.00    -0.248 NA
ATOM     56  C   UNL     1      -5.438  16.698   2.146  1.00  0.00     0.031 C 
ATOM     57  C   UNL     1     -11.485  16.453   2.625  1.00  0.00     0.029 A 
ATOM     58  C   UNL     1     -10.141  16.120   2.634  1.00  0.00     0.049 A 
ATOM     59  H   UNL     1      -9.218  14.341   3.303  1.00  0.00     0.167 HD
ATOM     60  C   UNL     1      -7.718  16.526   2.327  1.00  0.00     0.074 A 
ATOM     61  C   UNL     1      -6.582  17.324   1.914  1.00  0.00     0.031 C 
ATOM     62  C   UNL     1      -9.013  16.905   2.188  1.00  0.00     0.034 A 
BRANCH  49  63
ATOM     63  C   UNL     1     -13.062  12.639   4.139  1.00  0.00     0.023 A 
ATOM     64  C   UNL     1     -13.616  12.363   5.402  1.00  0.00     0.031 A 
ATOM     65  C   UNL     1     -13.893  12.515   3.012  1.00  0.00     0.131 A 
ATOM     66  C   UNL     1     -14.940  11.910   5.500  1.00  0.00     0.055 A 
ATOM     67  C   UNL     1     -15.231  12.134   3.124  1.00  0.00     0.041 A 
ATOM     68  F   UNL     1     -13.413  12.751   1.781  1.00  0.00    -0.206 F 
ATOM     69  C   UNL     1     -15.758  11.815   4.372  1.00  0.00     0.022 A 
BRANCH  66  70
ATOM     70  S   UNL     1     -15.537  11.323   7.109  1.00  0.00     0.124 S 
ATOM     71  O   UNL     1     -14.581  10.259   7.409  1.00  0.00    -0.237 OA
ATOM     72  O   UNL     1     -15.445  12.517   7.936  1.00  0.00    -0.237 OA
ATOM     73  O   UNL     1     -16.896  10.863   6.822  1.00  0.00    -0.744 OA
ENDBRANCH  66  70
ENDBRANCH  49  63
BRANCH  50  74
ATOM     74  C   UNL     1      -3.401  14.802   3.045  1.00  0.00     0.023 A 
ATOM     75  C   UNL     1      -2.756  15.877   3.674  1.00  0.00     0.031 A 
ATOM     76  C   UNL     1      -2.659  14.024   2.137  1.00  0.00     0.131 A 
ATOM     77  C   UNL     1      -1.420  16.171   3.357  1.00  0.00     0.055 A 
ATOM     78  C   UNL     1      -1.319  14.295   1.857  1.00  0.00     0.041 A 
ATOM     79  F   UNL     1      -3.231  12.983   1.511  1.00  0.00    -0.206 F 
ATOM     80  C   UNL     1      -0.695  15.382   2.461  1.00  0.00     0.022 A 
BRANCH  77  81
ATOM     81  S   UNL     1      -0.659  17.648   4.085  1.00  0.00     0.124 S 
ATOM     82  O   UNL     1      -1.553  18.703   3.623  1.00  0.00    -0.237 OA
ATOM     83  O   UNL     1      -0.710  17.342   5.511  1.00  0.00    -0.237 OA
ATOM     84  O   UNL     1       0.681  17.663   3.502  1.00  0.00    -0.744 OA
ENDBRANCH  77  81
ENDBRANCH  50  74
BRANCH  62  85
ATOM     85  C   UNL     1      -9.264  18.264   1.583  1.00  0.00     0.023 A 
ATOM     86  C   UNL     1      -8.973  18.533   0.234  1.00  0.00     0.031 A 
ATOM     87  C   UNL     1      -9.772  19.311   2.372  1.00  0.00     0.131 A 
ATOM     88  C   UNL     1      -9.144  19.831  -0.273  1.00  0.00     0.055 A 
ATOM     89  C   UNL     1      -9.993  20.586   1.848  1.00  0.00     0.041 A 
ATOM     90  F   UNL     1     -10.061  19.112   3.668  1.00  0.00    -0.206 F 
ATOM     91  C   UNL     1      -9.667  20.855   0.521  1.00  0.00     0.022 A 
BRANCH  88  92
ATOM     92  S   UNL     1      -8.599  20.186  -1.967  1.00  0.00     0.124 S 
ATOM     93  O   UNL     1      -7.169  19.904  -1.889  1.00  0.00    -0.237 OA
ATOM     94  O   UNL     1      -9.391  19.247  -2.755  1.00  0.00    -0.237 OA
ATOM     95  O   UNL     1      -8.945  21.594  -2.151  1.00  0.00    -0.744 OA
ENDBRANCH  88  92
ENDBRANCH  62  85
ENDBRANCH  36  37
ENDBRANCH  28  31
ENDBRANCH  26  27
ENDBRANCH   1  26
TORSDOF 17
