REMARK SMILES O=C(NCCCNC(=O)[C@@H]1CCCN(c2cnnc(O)c2Cl)C1)c1ccc(-c2c3nc(c(-c4cc(S(=O)(=O)[O-])ccc4F)c4ccc([nH]4)c(-c4cc(S(=O)(=O)[O-])ccc4F)c4nc(c(-c5cc(S(=O)(=O)[O-])ccc5F)c5ccc2[nH]5)C=C4)C=C3)cc1
REMARK SMILES IDX 4 1 3 2 1 3 2 4 24 6 25 7 86 8 26 9 85 10 27 11 28 12 29 13
REMARK SMILES IDX 79 14 30 15 84 16 78 17 80 18 31 19 83 20 77 21 76 22 32 24
REMARK SMILES IDX 64 25 44 26 63 27 45 28 48 29 62 30 81 31 46 32 47 33 61 35
REMARK SMILES IDX 82 36 49 37 33 38 34 39 42 40 35 41 41 42 43 43 40 44 36 45
REMARK SMILES IDX 37 46 38 47 39 48 65 49 66 50 74 51 67 52 73 53 75 54 72 55
REMARK SMILES IDX 68 56 69 57 70 58 71 59 50 60 51 61 59 62 52 63 58 64 60 65
REMARK SMILES IDX 57 66 53 67 54 68 55 69 56 70 5 71 6 72 7 73 8 74 9 76 10 77
REMARK SMILES IDX 11 78 23 79 12 80 14 81 13 82 15 83 16 84 21 85 17 86 19 87
REMARK SMILES IDX 22 88 18 89 20 90
REMARK H PARENT 3 5 80 23 48 34 7 75 20 91
REMARK Flexibility Score: inf
ROOT
ATOM      1  C   UNL     1       4.732  -1.173  -0.250  1.00  0.00     0.118 C 
ENDROOT
BRANCH   1   2
ATOM      2  N   UNL     1       3.301  -1.030  -0.036  1.00  0.00    -0.352 N 
ATOM      3  O   UNL     1       1.272  -0.035   0.029  1.00  0.00    -0.269 OA
ATOM      4  C   UNL     1       2.478   0.065  -0.175  1.00  0.00     0.251 C 
ATOM      5  H   UNL     1       2.845  -1.852   0.258  1.00  0.00     0.163 HD
BRANCH   4   6
ATOM      6  C   UNL     1       3.042   1.387  -0.506  1.00  0.00     0.039 A 
ATOM      7  C   UNL     1       3.916   1.557  -1.577  1.00  0.00     0.014 A 
ATOM      8  C   UNL     1       2.676   2.481   0.284  1.00  0.00     0.014 A 
ATOM      9  C   UNL     1       4.580   2.767  -1.733  1.00  0.00     0.010 A 
ATOM     10  C   UNL     1       3.269   3.725   0.063  1.00  0.00     0.010 A 
ATOM     11  C   UNL     1       4.267   3.862  -0.911  1.00  0.00    -0.014 A 
BRANCH  11  12
ATOM     12  C   UNL     1       4.976   5.147  -1.118  1.00  0.00     0.031 A 
ATOM     13  C   UNL     1       5.906   5.692  -0.071  1.00  0.00     0.074 A 
ATOM     14  C   UNL     1       4.808   5.794  -2.287  1.00  0.00     0.049 A 
ATOM     15  N   UNL     1       6.660   6.759  -0.121  1.00  0.00    -0.248 NA
ATOM     16  C   UNL     1       6.008   4.948   1.195  1.00  0.00     0.031 C 
ATOM     17  C   UNL     1       3.920   5.351  -3.364  1.00  0.00     0.029 A 
ATOM     18  N   UNL     1       5.384   6.937  -2.778  1.00  0.00    -0.354 N 
ATOM     19  C   UNL     1       7.317   6.821   1.101  1.00  0.00     0.074 A 
ATOM     20  C   UNL     1       6.851   5.702   1.889  1.00  0.00     0.031 C 
ATOM     21  C   UNL     1       4.044   6.185  -4.405  1.00  0.00     0.029 A 
ATOM     22  C   UNL     1       4.973   7.254  -4.051  1.00  0.00     0.049 A 
ATOM     23  H   UNL     1       6.029   7.478  -2.268  1.00  0.00     0.167 HD
ATOM     24  C   UNL     1       8.235   7.725   1.518  1.00  0.00     0.034 A 
ATOM     25  C   UNL     1       5.300   8.292  -4.846  1.00  0.00     0.034 A 
ATOM     26  C   UNL     1       8.694   8.828   0.714  1.00  0.00     0.049 A 
ATOM     27  C   UNL     1       6.308   9.291  -4.352  1.00  0.00     0.074 A 
ATOM     28  C   UNL     1       9.647   9.779   1.034  1.00  0.00     0.029 A 
ATOM     29  N   UNL     1       8.238   9.132  -0.561  1.00  0.00    -0.354 N 
ATOM     30  N   UNL     1       6.967   9.299  -3.217  1.00  0.00    -0.248 NA
ATOM     31  C   UNL     1       6.624  10.418  -5.238  1.00  0.00     0.031 C 
ATOM     32  C   UNL     1       9.729  10.686  -0.023  1.00  0.00     0.029 A 
ATOM     33  C   UNL     1       8.872  10.270  -1.030  1.00  0.00     0.049 A 
ATOM     34  H   UNL     1       7.563   8.615  -1.058  1.00  0.00     0.167 HD
ATOM     35  C   UNL     1       7.787  10.421  -3.259  1.00  0.00     0.074 A 
ATOM     36  C   UNL     1       7.557  11.055  -4.541  1.00  0.00     0.031 C 
ATOM     37  C   UNL     1       8.646  10.884  -2.317  1.00  0.00     0.034 A 
BRANCH  24  38
ATOM     38  C   UNL     1       8.829   7.573   2.895  1.00  0.00     0.023 A 
ATOM     39  C   UNL     1       8.590   8.553   3.876  1.00  0.00     0.031 A 
ATOM     40  C   UNL     1       9.733   6.539   3.190  1.00  0.00     0.131 A 
ATOM     41  C   UNL     1       9.276   8.496   5.096  1.00  0.00     0.055 A 
ATOM     42  C   UNL     1      10.390   6.469   4.420  1.00  0.00     0.041 A 
ATOM     43  F   UNL     1       9.990   5.579   2.287  1.00  0.00    -0.206 F 
ATOM     44  C   UNL     1      10.170   7.457   5.375  1.00  0.00     0.022 A 
BRANCH  41  45
ATOM     45  S   UNL     1       9.066   9.788   6.351  1.00  0.00     0.124 S 
ATOM     46  O   UNL     1       8.706   9.005   7.532  1.00  0.00    -0.237 OA
ATOM     47  O   UNL     1      10.393  10.396   6.387  1.00  0.00    -0.237 OA
ATOM     48  O   UNL     1       7.999  10.626   5.817  1.00  0.00    -0.744 OA
ENDBRANCH  41  45
ENDBRANCH  24  38
BRANCH  25  49
ATOM     49  C   UNL     1       4.684   8.382  -6.199  1.00  0.00     0.023 A 
ATOM     50  C   UNL     1       3.293   8.537  -6.346  1.00  0.00     0.031 A 
ATOM     51  C   UNL     1       5.456   8.187  -7.356  1.00  0.00     0.131 A 
ATOM     52  C   UNL     1       2.711   8.423  -7.614  1.00  0.00     0.055 A 
ATOM     53  C   UNL     1       4.878   8.140  -8.625  1.00  0.00     0.041 A 
ATOM     54  F   UNL     1       6.785   8.021  -7.261  1.00  0.00    -0.206 F 
ATOM     55  C   UNL     1       3.496   8.241  -8.757  1.00  0.00     0.022 A 
BRANCH  52  56
ATOM     56  S   UNL     1       0.908   8.391  -7.808  1.00  0.00     0.124 S 
ATOM     57  O   UNL     1       0.685   9.464  -8.772  1.00  0.00    -0.237 OA
ATOM     58  O   UNL     1       0.689   7.037  -8.310  1.00  0.00    -0.237 OA
ATOM     59  O   UNL     1       0.412   8.644  -6.460  1.00  0.00    -0.744 OA
ENDBRANCH  52  56
ENDBRANCH  25  49
BRANCH  37  60
ATOM     60  C   UNL     1       9.426  12.139  -2.612  1.00  0.00     0.023 A 
ATOM     61  C   UNL     1      10.828  12.083  -2.719  1.00  0.00     0.031 A 
ATOM     62  C   UNL     1       8.803  13.398  -2.624  1.00  0.00     0.131 A 
ATOM     63  C   UNL     1      11.567  13.270  -2.788  1.00  0.00     0.055 A 
ATOM     64  C   UNL     1       9.541  14.576  -2.739  1.00  0.00     0.041 A 
ATOM     65  F   UNL     1       7.468  13.499  -2.516  1.00  0.00    -0.206 F 
ATOM     66  C   UNL     1      10.930  14.516  -2.807  1.00  0.00     0.022 A 
BRANCH  63  67
ATOM     67  S   UNL     1      13.380  13.242  -2.784  1.00  0.00     0.124 S 
ATOM     68  O   UNL     1      13.699  13.994  -3.996  1.00  0.00    -0.237 OA
ATOM     69  O   UNL     1      13.693  13.920  -1.529  1.00  0.00    -0.237 OA
ATOM     70  O   UNL     1      13.711  11.822  -2.832  1.00  0.00    -0.744 OA
ENDBRANCH  63  67
ENDBRANCH  37  60
ENDBRANCH  11  12
ENDBRANCH   4   6
ENDBRANCH   1   2
BRANCH   1  71
ATOM     71  C   UNL     1       5.583  -1.135   1.018  1.00  0.00     0.042 C 
BRANCH  71  72
ATOM     72  C   UNL     1       5.475  -2.374   1.897  1.00  0.00     0.117 C 
BRANCH  72  73
ATOM     73  N   UNL     1       5.736  -3.616   1.196  1.00  0.00    -0.356 N 
ATOM     74  C   UNL     1       5.754  -4.901   1.623  1.00  0.00     0.224 C 
ATOM     75  H   UNL     1       5.937  -3.505   0.238  1.00  0.00     0.163 HD
ATOM     76  O   UNL     1       5.808  -5.751   0.726  1.00  0.00    -0.275 OA
BRANCH  74  77
ATOM     77  C   UNL     1       5.854  -5.302   3.099  1.00  0.00     0.098 C 
ATOM     78  C   UNL     1       5.626  -6.830   3.238  1.00  0.00     0.017 C 
ATOM     79  C   UNL     1       4.953  -4.594   4.112  1.00  0.00     0.130 C 
ATOM     80  C   UNL     1       4.146  -7.207   3.073  1.00  0.00     0.022 C 
ATOM     81  N   UNL     1       3.564  -5.011   3.958  1.00  0.00    -0.368 N 
ATOM     82  C   UNL     1       3.255  -6.430   4.036  1.00  0.00     0.116 C 
BRANCH  81  83
ATOM     83  C   UNL     1       2.606  -4.108   3.538  1.00  0.00     0.082 A 
ATOM     84  C   UNL     1       2.167  -4.084   2.217  1.00  0.00     0.163 A 
ATOM     85  C   UNL     1       2.029  -3.156   4.386  1.00  0.00     0.129 A 
ATOM     86  N   UNL     1       1.260  -3.207   1.740  1.00  0.00    -0.153 NA
ATOM     87  C   UNL     1       1.079  -2.282   3.877  1.00  0.00     0.252 A 
ATOM     88  Cl  UNL     1       2.446  -3.077   6.067  1.00  0.00    -0.076 Cl
ATOM     89  N   UNL     1       0.702  -2.300   2.587  1.00  0.00    -0.111 NA
BRANCH  87  90
ATOM     90  O   UNL     1       0.446  -1.359   4.666  1.00  0.00    -0.491 OA
ATOM     91  H   UNL     1      -0.192  -0.782   4.294  1.00  0.00     0.295 HD
ENDBRANCH  87  90
ENDBRANCH  81  83
ENDBRANCH  74  77
ENDBRANCH  72  73
ENDBRANCH  71  72
ENDBRANCH   1  71
TORSDOF 15
