REMARK SMILES Cc1ccc(Oc2ccc(NC(=O)CCCC(=O)NCCCNC(=O)c3ccc(-c4c5nc(c(-c6cc(S(=O)(=O)[O-])ccc6F)c6ccc([nH]6)c(-c6cc(S(=O)(=O)[O-])ccc6F)c6nc(c(-c7cc(S(=O)(=O)[O-])ccc7F)c7ccc4[nH]7)C=C6)C=C5)cc3)cc2)cc1C
REMARK SMILES IDX 17 1 18 2 19 3 16 5 15 6 14 7 12 8 11 9 13 11 10 12 7 13
REMARK SMILES IDX 8 14 90 15 9 16 89 17 6 18 5 19 1 20 2 21 3 22 92 23 4 24
REMARK SMILES IDX 91 25 93 26 20 27 21 28 22 29 23 30 24 31 25 33 26 34 27 35
REMARK SMILES IDX 88 36 28 37 87 38 29 39 30 40 31 41 81 42 32 43 86 44 80 45
REMARK SMILES IDX 82 46 33 47 85 48 79 49 78 50 34 52 66 53 46 54 65 55 47 56
REMARK SMILES IDX 50 57 64 58 83 59 48 60 49 61 63 63 84 64 51 65 35 66 36 67
REMARK SMILES IDX 44 68 37 69 43 70 45 71 42 72 38 73 39 74 40 75 41 76 67 77
REMARK SMILES IDX 68 78 76 79 69 80 75 81 77 82 74 83 70 84 71 85 72 86 73 87
REMARK SMILES IDX 52 88 53 89 61 90 54 91 60 92 62 93 59 94 55 95 56 96 57 97
REMARK SMILES IDX 58 98
REMARK H PARENT 19 4 11 10 23 32 82 51 50 62
REMARK Flexibility Score: inf
ROOT
ATOM      1  C   UNL     1      -7.181  -2.131   2.599  1.00  0.00     0.220 C 
ATOM      2  O   UNL     1      -6.869  -3.142   3.246  1.00  0.00    -0.275 OA
ATOM      3  N   UNL     1      -6.792  -0.968   3.164  1.00  0.00    -0.356 N 
ATOM      4  H   UNL     1      -6.377  -1.127   4.043  1.00  0.00     0.163 HD
ENDROOT
BRANCH   1   5
ATOM      5  C   UNL     1      -7.834  -2.333   1.231  1.00  0.00     0.100 C 
BRANCH   5   6
ATOM      6  C   UNL     1      -9.161  -1.693   0.838  1.00  0.00     0.020 C 
BRANCH   6   7
ATOM      7  C   UNL     1      -9.316  -0.195   0.603  1.00  0.00     0.101 C 
BRANCH   7   8
ATOM      8  C   UNL     1      -9.148   0.443  -0.774  1.00  0.00     0.224 C 
ATOM      9  N   UNL     1      -8.017   0.669  -1.489  1.00  0.00    -0.326 N 
ATOM     10  H   UNL     1      -8.226   1.167  -2.312  1.00  0.00     0.169 HD
ATOM     11  O   UNL     1     -10.176   0.878  -1.325  1.00  0.00    -0.275 OA
BRANCH   9  12
ATOM     12  C   UNL     1      -6.641   0.409  -1.410  1.00  0.00     0.041 A 
ATOM     13  C   UNL     1      -3.907  -0.284  -1.476  1.00  0.00     0.127 A 
ATOM     14  C   UNL     1      -4.660  -0.542  -0.347  1.00  0.00     0.049 A 
ATOM     15  C   UNL     1      -4.490   0.363  -2.562  1.00  0.00     0.049 A 
ATOM     16  C   UNL     1      -6.008  -0.181  -0.338  1.00  0.00     0.030 A 
ATOM     17  C   UNL     1      -5.846   0.726  -2.518  1.00  0.00     0.030 A 
BRANCH  13  18
ATOM     18  O   UNL     1      -2.656  -0.824  -1.593  1.00  0.00    -0.457 OA
BRANCH  18  19
ATOM     19  C   UNL     1      -1.605  -0.211  -0.952  1.00  0.00     0.127 A 
ATOM     20  C   UNL     1       2.089   1.547   0.411  1.00  0.00     0.044 C 
ATOM     21  C   UNL     1       0.798   0.887   0.012  1.00  0.00    -0.048 A 
ATOM     22  C   UNL     1      -0.358   1.676  -0.121  1.00  0.00     0.007 A 
ATOM     23  C   UNL     1       0.728  -0.488  -0.278  1.00  0.00    -0.045 A 
ATOM     24  C   UNL     1      -1.554   1.133  -0.599  1.00  0.00     0.047 A 
ATOM     25  C   UNL     1      -0.482  -1.020  -0.755  1.00  0.00     0.050 A 
ATOM     26  C   UNL     1       1.881  -1.431  -0.068  1.00  0.00     0.045 C 
ENDBRANCH  18  19
ENDBRANCH  13  18
ENDBRANCH   9  12
ENDBRANCH   7   8
ENDBRANCH   6   7
ENDBRANCH   5   6
ENDBRANCH   1   5
BRANCH   3  27
ATOM     27  C   UNL     1      -6.811   0.453   2.849  1.00  0.00     0.117 C 
BRANCH  27  28
ATOM     28  C   UNL     1      -7.696   1.235   3.802  1.00  0.00     0.042 C 
BRANCH  28  29
ATOM     29  C   UNL     1      -6.868   2.137   4.692  1.00  0.00     0.118 C 
BRANCH  29  30
ATOM     30  N   UNL     1      -6.376   3.331   4.007  1.00  0.00    -0.352 N 
ATOM     31  C   UNL     1      -6.315   4.615   4.512  1.00  0.00     0.251 C 
ATOM     32  H   UNL     1      -6.053   3.207   3.086  1.00  0.00     0.163 HD
ATOM     33  O   UNL     1      -5.987   5.557   3.798  1.00  0.00    -0.269 OA
BRANCH  31  34
ATOM     34  C   UNL     1      -6.713   4.821   5.921  1.00  0.00     0.039 A 
ATOM     35  C   UNL     1      -7.703   5.754   6.229  1.00  0.00     0.014 A 
ATOM     36  C   UNL     1      -6.218   3.958   6.901  1.00  0.00     0.014 A 
ATOM     37  C   UNL     1      -8.268   5.751   7.506  1.00  0.00     0.010 A 
ATOM     38  C   UNL     1      -6.874   3.870   8.119  1.00  0.00     0.010 A 
ATOM     39  C   UNL     1      -7.901   4.771   8.443  1.00  0.00    -0.014 A 
BRANCH  39  40
ATOM     40  C   UNL     1      -8.543   4.674   9.782  1.00  0.00     0.031 A 
ATOM     41  C   UNL     1      -7.682   4.749  11.017  1.00  0.00     0.074 A 
ATOM     42  C   UNL     1      -9.864   4.425   9.890  1.00  0.00     0.049 A 
ATOM     43  N   UNL     1      -8.001   4.540  12.268  1.00  0.00    -0.248 NA
ATOM     44  C   UNL     1      -6.254   5.036  10.805  1.00  0.00     0.031 C 
ATOM     45  C   UNL     1     -10.794   4.259   8.769  1.00  0.00     0.029 A 
ATOM     46  N   UNL     1     -10.656   4.257  10.998  1.00  0.00    -0.354 N 
ATOM     47  C   UNL     1      -6.809   4.630  12.979  1.00  0.00     0.074 A 
ATOM     48  C   UNL     1      -5.754   4.823  12.010  1.00  0.00     0.031 C 
ATOM     49  C   UNL     1     -12.033   4.056   9.248  1.00  0.00     0.029 A 
ATOM     50  C   UNL     1     -11.982   4.028  10.706  1.00  0.00     0.049 A 
ATOM     51  H   UNL     1     -10.308   4.297  11.918  1.00  0.00     0.167 HD
ATOM     52  C   UNL     1      -6.614   4.596  14.321  1.00  0.00     0.034 A 
ATOM     53  C   UNL     1     -13.034   3.816  11.522  1.00  0.00     0.034 A 
ATOM     54  C   UNL     1      -7.686   4.461  15.273  1.00  0.00     0.049 A 
ATOM     55  C   UNL     1     -12.803   3.819  13.013  1.00  0.00     0.074 A 
ATOM     56  C   UNL     1      -7.623   4.491  16.655  1.00  0.00     0.029 A 
ATOM     57  N   UNL     1      -9.022   4.279  14.939  1.00  0.00    -0.354 N 
ATOM     58  N   UNL     1     -11.676   3.959  13.674  1.00  0.00    -0.248 NA
ATOM     59  C   UNL     1     -13.985   3.647  13.867  1.00  0.00     0.031 C 
ATOM     60  C   UNL     1      -8.911   4.275  17.156  1.00  0.00     0.029 A 
ATOM     61  C   UNL     1      -9.790   4.178  16.088  1.00  0.00     0.049 A 
ATOM     62  H   UNL     1      -9.373   4.229  14.021  1.00  0.00     0.167 HD
ATOM     63  C   UNL     1     -12.021   3.924  15.023  1.00  0.00     0.074 A 
ATOM     64  C   UNL     1     -13.460   3.765  15.078  1.00  0.00     0.031 C 
ATOM     65  C   UNL     1     -11.224   4.017  16.118  1.00  0.00     0.034 A 
BRANCH  52  66
ATOM     66  C   UNL     1      -5.190   4.702  14.816  1.00  0.00     0.023 A 
ATOM     67  C   UNL     1      -4.397   5.832  14.546  1.00  0.00     0.031 A 
ATOM     68  C   UNL     1      -4.597   3.638  15.518  1.00  0.00     0.131 A 
ATOM     69  C   UNL     1      -3.035   5.830  14.880  1.00  0.00     0.055 A 
ATOM     70  C   UNL     1      -3.264   3.683  15.933  1.00  0.00     0.041 A 
ATOM     71  F   UNL     1      -5.295   2.524  15.790  1.00  0.00    -0.206 F 
ATOM     72  C   UNL     1      -2.469   4.775  15.597  1.00  0.00     0.022 A 
BRANCH  69  73
ATOM     73  S   UNL     1      -1.982   7.149  14.215  1.00  0.00     0.124 S 
ATOM     74  O   UNL     1      -2.149   6.958  12.775  1.00  0.00    -0.237 OA
ATOM     75  O   UNL     1      -2.590   8.351  14.774  1.00  0.00    -0.237 OA
ATOM     76  O   UNL     1      -0.655   6.821  14.730  1.00  0.00    -0.744 OA
ENDBRANCH  69  73
ENDBRANCH  52  66
BRANCH  53  77
ATOM     77  C   UNL     1     -14.399   3.594  10.964  1.00  0.00     0.023 A 
ATOM     78  C   UNL     1     -15.430   4.521  11.190  1.00  0.00     0.031 A 
ATOM     79  C   UNL     1     -14.707   2.434  10.231  1.00  0.00     0.131 A 
ATOM     80  C   UNL     1     -16.729   4.252  10.730  1.00  0.00     0.055 A 
ATOM     81  C   UNL     1     -15.989   2.195   9.733  1.00  0.00     0.041 A 
ATOM     82  F   UNL     1     -13.757   1.520   9.978  1.00  0.00    -0.206 F 
ATOM     83  C   UNL     1     -17.013   3.101   9.994  1.00  0.00     0.022 A 
BRANCH  80  84
ATOM     84  S   UNL     1     -18.064   5.395  11.181  1.00  0.00     0.124 S 
ATOM     85  O   UNL     1     -17.997   5.370  12.638  1.00  0.00    -0.237 OA
ATOM     86  O   UNL     1     -17.632   6.633  10.540  1.00  0.00    -0.237 OA
ATOM     87  O   UNL     1     -19.253   4.776  10.599  1.00  0.00    -0.744 OA
ENDBRANCH  80  84
ENDBRANCH  53  77
BRANCH  65  88
ATOM     88  C   UNL     1     -11.905   3.998  17.462  1.00  0.00     0.023 A 
ATOM     89  C   UNL     1     -12.541   2.845  17.952  1.00  0.00     0.031 A 
ATOM     90  C   UNL     1     -11.918   5.155  18.261  1.00  0.00     0.131 A 
ATOM     91  C   UNL     1     -13.210   2.888  19.183  1.00  0.00     0.055 A 
ATOM     92  C   UNL     1     -12.536   5.175  19.512  1.00  0.00     0.041 A 
ATOM     93  F   UNL     1     -11.325   6.283  17.840  1.00  0.00    -0.206 F 
ATOM     94  C   UNL     1     -13.198   4.041  19.974  1.00  0.00     0.022 A 
BRANCH  91  95
ATOM     95  S   UNL     1     -14.171   1.441  19.703  1.00  0.00     0.124 S 
ATOM     96  O   UNL     1     -15.125   1.300  18.606  1.00  0.00    -0.237 OA
ATOM     97  O   UNL     1     -13.149   0.404  19.795  1.00  0.00    -0.237 OA
ATOM     98  O   UNL     1     -14.751   1.854  20.979  1.00  0.00    -0.744 OA
ENDBRANCH  91  95
ENDBRANCH  65  88
ENDBRANCH  39  40
ENDBRANCH  31  34
ENDBRANCH  29  30
ENDBRANCH  28  29
ENDBRANCH  27  28
ENDBRANCH   3  27
TORSDOF 19
