REMARK SMILES CC(C)(C)OC(=O)[C@]1(C(=O)NCCCNC(=O)c2ccc(-c3c4nc(c(-c5cc(S(=O)(=O)[O-])ccc5F)c5ccc([nH]5)c(-c5cc(S(=O)(=O)[O-])ccc5F)c5nc(c(-c6cc(S(=O)(=O)[O-])ccc6F)c6ccc3[nH]6)C=C5)C=C4)cc2)CC=CC[C@@H]1[NH3+]
REMARK SMILES IDX 13 1 12 2 11 3 9 4 10 5 8 7 81 8 85 9 82 10 84 11 83 12 6 13
REMARK SMILES IDX 7 14 5 15 2 16 1 17 3 18 4 19 86 20 14 24 15 25 16 26 17 28
REMARK SMILES IDX 18 29 19 30 80 31 20 32 79 33 21 34 22 35 23 36 73 37 24 38
REMARK SMILES IDX 78 39 72 40 74 41 25 42 77 43 71 44 70 45 26 47 58 48 38 49
REMARK SMILES IDX 57 50 39 51 42 52 56 53 75 54 40 55 41 56 55 58 76 59 43 60
REMARK SMILES IDX 27 61 28 62 36 63 29 64 35 65 37 66 34 67 30 68 31 69 32 70
REMARK SMILES IDX 33 71 59 72 60 73 68 74 61 75 67 76 69 77 66 78 62 79 63 80
REMARK SMILES IDX 64 81 65 82 44 83 45 84 53 85 46 86 52 87 54 88 51 89 47 90
REMARK SMILES IDX 48 91 49 92 50 93
REMARK H PARENT 11 6 86 21 86 22 86 23 15 27 74 46 42 57
REMARK Flexibility Score: inf
ROOT
ATOM      1  C   UNL     1      -1.248   5.837  -0.205  1.00  0.00     0.042 C 
ENDROOT
BRANCH   1   2
ATOM      2  C   UNL     1      -1.598   4.793   0.853  1.00  0.00     0.117 C 
BRANCH   2   3
ATOM      3  N   UNL     1      -0.631   3.716   0.965  1.00  0.00    -0.355 N 
ATOM      4  C   UNL     1       0.442   3.438   1.744  1.00  0.00     0.244 C 
ATOM      5  O   UNL     1       0.877   2.287   1.559  1.00  0.00    -0.274 OA
ATOM      6  H   UNL     1      -0.798   3.005   0.305  1.00  0.00     0.163 HD
BRANCH   4   7
ATOM      7  C   UNL     1       1.185   4.377   2.743  1.00  0.00     0.201 C 
ATOM      8  C   UNL     1       2.669   4.254   2.235  1.00  0.00     0.062 C 
ATOM      9  C   UNL     1       0.701   5.853   2.818  1.00  0.00     0.212 C 
ATOM     10  C   UNL     1       3.543   5.465   2.283  1.00  0.00    -0.029 C 
ATOM     11  C   UNL     1       1.764   6.893   3.249  1.00  0.00     0.093 C 
ATOM     12  C   UNL     1       3.137   6.654   2.729  1.00  0.00    -0.025 C 
BRANCH   7  13
ATOM     13  C   UNL     1       1.181   3.802   4.167  1.00  0.00     0.328 C 
ATOM     14  O   UNL     1       1.777   4.309   5.109  1.00  0.00    -0.251 OA
BRANCH  13  15
ATOM     15  O   UNL     1       0.431   2.671   4.260  1.00  0.00    -0.459 OA
BRANCH  15  16
ATOM     16  C   UNL     1       0.154   2.008   5.521  1.00  0.00     0.104 C 
ATOM     17  C   UNL     1      -0.316   0.597   5.133  1.00  0.00     0.056 C 
ATOM     18  C   UNL     1      -0.993   2.752   6.208  1.00  0.00     0.056 C 
ATOM     19  C   UNL     1       1.369   1.866   6.445  1.00  0.00     0.056 C 
ENDBRANCH  15  16
ENDBRANCH  13  15
ENDBRANCH   7  13
BRANCH   9  20
ATOM     20  N   UNL     1      -0.462   6.097   3.700  1.00  0.00    -0.353 N 
ATOM     21  H   UNL     1      -0.187   5.957   4.672  1.00  0.00     0.344 HD
ATOM     22  H   UNL     1      -1.211   5.447   3.462  1.00  0.00     0.344 HD
ATOM     23  H   UNL     1      -0.790   7.054   3.574  1.00  0.00     0.344 HD
ENDBRANCH   9  20
ENDBRANCH   4   7
ENDBRANCH   2   3
ENDBRANCH   1   2
BRANCH   1  24
ATOM     24  C   UNL     1      -1.739   5.491  -1.607  1.00  0.00     0.118 C 
BRANCH  24  25
ATOM     25  N   UNL     1      -3.191   5.409  -1.677  1.00  0.00    -0.352 N 
ATOM     26  C   UNL     1      -4.112   6.170  -2.351  1.00  0.00     0.251 C 
ATOM     27  H   UNL     1      -3.581   4.678  -1.145  1.00  0.00     0.163 HD
ATOM     28  O   UNL     1      -5.296   6.061  -2.037  1.00  0.00    -0.269 OA
BRANCH  26  29
ATOM     29  C   UNL     1      -3.716   7.104  -3.430  1.00  0.00     0.039 A 
ATOM     30  C   UNL     1      -4.462   8.274  -3.606  1.00  0.00     0.014 A 
ATOM     31  C   UNL     1      -2.677   6.809  -4.317  1.00  0.00     0.014 A 
ATOM     32  C   UNL     1      -4.140   9.162  -4.635  1.00  0.00     0.010 A 
ATOM     33  C   UNL     1      -2.304   7.735  -5.291  1.00  0.00     0.010 A 
ATOM     34  C   UNL     1      -3.038   8.915  -5.469  1.00  0.00    -0.014 A 
BRANCH  34  35
ATOM     35  C   UNL     1      -2.648   9.884  -6.526  1.00  0.00     0.031 A 
ATOM     36  C   UNL     1      -2.699   9.495  -7.978  1.00  0.00     0.074 A 
ATOM     37  C   UNL     1      -2.188  11.097  -6.167  1.00  0.00     0.049 A 
ATOM     38  N   UNL     1      -2.362  10.189  -9.035  1.00  0.00    -0.248 NA
ATOM     39  C   UNL     1      -3.156   8.131  -8.276  1.00  0.00     0.031 C 
ATOM     40  C   UNL     1      -2.031  11.563  -4.787  1.00  0.00     0.029 A 
ATOM     41  N   UNL     1      -1.756  12.155  -6.925  1.00  0.00    -0.354 N 
ATOM     42  C   UNL     1      -2.551   9.343 -10.123  1.00  0.00     0.074 A 
ATOM     43  C   UNL     1      -2.966   8.064  -9.585  1.00  0.00     0.031 C 
ATOM     44  C   UNL     1      -1.558  12.818  -4.798  1.00  0.00     0.029 A 
ATOM     45  C   UNL     1      -1.341  13.233  -6.180  1.00  0.00     0.049 A 
ATOM     46  H   UNL     1      -1.745  12.143  -7.910  1.00  0.00     0.167 HD
ATOM     47  C   UNL     1      -2.415   9.614 -11.447  1.00  0.00     0.034 A 
ATOM     48  C   UNL     1      -0.831  14.419  -6.564  1.00  0.00     0.034 A 
ATOM     49  C   UNL     1      -2.002  10.901 -11.959  1.00  0.00     0.049 A 
ATOM     50  C   UNL     1      -0.690  14.707  -8.033  1.00  0.00     0.074 A 
ATOM     51  C   UNL     1      -1.903  11.317 -13.275  1.00  0.00     0.029 A 
ATOM     52  N   UNL     1      -1.599  11.978 -11.175  1.00  0.00    -0.354 N 
ATOM     53  N   UNL     1      -0.950  13.925  -9.056  1.00  0.00    -0.248 NA
ATOM     54  C   UNL     1      -0.204  16.041  -8.399  1.00  0.00     0.031 C 
ATOM     55  C   UNL     1      -1.372  12.613 -13.289  1.00  0.00     0.029 A 
ATOM     56  C   UNL     1      -1.213  13.040 -11.980  1.00  0.00     0.049 A 
ATOM     57  H   UNL     1      -1.590  11.985 -10.191  1.00  0.00     0.167 HD
ATOM     58  C   UNL     1      -0.669  14.679 -10.191  1.00  0.00     0.074 A 
ATOM     59  C   UNL     1      -0.246  15.985  -9.722  1.00  0.00     0.031 C 
ATOM     60  C   UNL     1      -0.754  14.326 -11.500  1.00  0.00     0.034 A 
BRANCH  47  61
ATOM     61  C   UNL     1      -2.685   8.483 -12.416  1.00  0.00     0.023 A 
ATOM     62  C   UNL     1      -3.935   7.839 -12.473  1.00  0.00     0.031 A 
ATOM     63  C   UNL     1      -1.663   7.997 -13.251  1.00  0.00     0.131 A 
ATOM     64  C   UNL     1      -4.098   6.686 -13.257  1.00  0.00     0.055 A 
ATOM     65  C   UNL     1      -1.861   6.907 -14.103  1.00  0.00     0.041 A 
ATOM     66  F   UNL     1      -0.442   8.554 -13.234  1.00  0.00    -0.206 F 
ATOM     67  C   UNL     1      -3.077   6.230 -14.093  1.00  0.00     0.022 A 
BRANCH  64  68
ATOM     68  S   UNL     1      -5.593   5.686 -13.020  1.00  0.00     0.124 S 
ATOM     69  O   UNL     1      -5.547   5.421 -11.584  1.00  0.00    -0.237 OA
ATOM     70  O   UNL     1      -6.648   6.585 -13.472  1.00  0.00    -0.237 OA
ATOM     71  O   UNL     1      -5.362   4.517 -13.867  1.00  0.00    -0.744 OA
ENDBRANCH  64  68
ENDBRANCH  47  61
BRANCH  48  72
ATOM     72  C   UNL     1      -0.413  15.411  -5.535  1.00  0.00     0.023 A 
ATOM     73  C   UNL     1      -1.119  16.609  -5.350  1.00  0.00     0.031 A 
ATOM     74  C   UNL     1       0.694  15.158  -4.704  1.00  0.00     0.131 A 
ATOM     75  C   UNL     1      -0.696  17.523  -4.372  1.00  0.00     0.055 A 
ATOM     76  C   UNL     1       1.085  16.050  -3.706  1.00  0.00     0.041 A 
ATOM     77  F   UNL     1       1.391  14.018  -4.833  1.00  0.00    -0.206 F 
ATOM     78  C   UNL     1       0.392  17.245  -3.540  1.00  0.00     0.022 A 
BRANCH  75  79
ATOM     79  S   UNL     1      -1.572  19.104  -4.221  1.00  0.00     0.124 S 
ATOM     80  O   UNL     1      -1.345  19.697  -5.534  1.00  0.00    -0.237 OA
ATOM     81  O   UNL     1      -2.937  18.669  -3.940  1.00  0.00    -0.237 OA
ATOM     82  O   UNL     1      -0.892  19.765  -3.110  1.00  0.00    -0.744 OA
ENDBRANCH  75  79
ENDBRANCH  48  72
BRANCH  60  83
ATOM     83  C   UNL     1      -0.387  15.384 -12.513  1.00  0.00     0.023 A 
ATOM     84  C   UNL     1       0.926  15.880 -12.616  1.00  0.00     0.031 A 
ATOM     85  C   UNL     1      -1.366  15.928 -13.362  1.00  0.00     0.131 A 
ATOM     86  C   UNL     1       1.208  16.934 -13.499  1.00  0.00     0.055 A 
ATOM     87  C   UNL     1      -1.065  16.930 -14.285  1.00  0.00     0.041 A 
ATOM     88  F   UNL     1      -2.637  15.498 -13.304  1.00  0.00    -0.206 F 
ATOM     89  C   UNL     1       0.225  17.450 -14.347  1.00  0.00     0.022 A 
BRANCH  86  90
ATOM     90  S   UNL     1       2.852  17.698 -13.443  1.00  0.00     0.124 S 
ATOM     91  O   UNL     1       2.942  18.121 -12.049  1.00  0.00    -0.237 OA
ATOM     92  O   UNL     1       3.723  16.594 -13.832  1.00  0.00    -0.237 OA
ATOM     93  O   UNL     1       2.758  18.786 -14.415  1.00  0.00    -0.744 OA
ENDBRANCH  86  90
ENDBRANCH  60  83
ENDBRANCH  34  35
ENDBRANCH  26  29
ENDBRANCH  24  25
ENDBRANCH   1  24
TORSDOF 17
