REMARK SMILES CCC[C@@]1(C(=O)NCCCNC(=O)c2ccc(-c3c4nc(c(-c5cc(S(=O)(=O)[O-])ccc5F)c5ccc([nH]5)c(-c5cc(S(=O)(=O)[O-])ccc5F)c5nc(c(-c6cc(S(=O)(=O)[O-])ccc6F)c6ccc3[nH]6)C=C5)C=C4)cc2)CCCN(C(=O)CCn2cncn2)C1
REMARK SMILES IDX 8 1 7 2 5 3 6 4 4 6 77 7 90 8 78 9 80 10 79 11 3 12 2 13
REMARK SMILES IDX 1 14 81 15 82 16 83 17 84 18 85 19 86 20 89 21 87 22 88 23
REMARK SMILES IDX 9 24 10 25 11 26 12 27 13 29 14 30 15 31 76 32 16 33 75 34
REMARK SMILES IDX 17 35 18 36 19 37 69 38 20 39 74 40 68 41 70 42 21 43 73 44
REMARK SMILES IDX 67 45 66 46 22 48 54 49 34 50 53 51 35 52 38 53 52 54 71 55
REMARK SMILES IDX 36 56 37 57 51 59 72 60 39 61 23 62 24 63 32 64 25 65 31 66
REMARK SMILES IDX 33 67 30 68 26 69 27 70 28 71 29 72 55 73 56 74 64 75 57 76
REMARK SMILES IDX 63 77 65 78 62 79 58 80 59 81 60 82 61 83 40 84 41 85 49 86
REMARK SMILES IDX 42 87 48 88 50 89 47 90 43 91 44 92 45 93 46 94
REMARK H PARENT 7 5 11 28 70 47 38 58
REMARK Flexibility Score: inf
ROOT
ATOM      1  C   UNL     1       3.193   4.109   0.549  1.00  0.00     0.117 C 
ENDROOT
BRANCH   1   2
ATOM      2  N   UNL     1       2.408   2.983   1.025  1.00  0.00    -0.355 N 
ATOM      3  C   UNL     1       1.330   2.308   0.549  1.00  0.00     0.228 C 
ATOM      4  O   UNL     1       0.932   1.406   1.292  1.00  0.00    -0.274 OA
ATOM      5  H   UNL     1       2.729   2.629   1.886  1.00  0.00     0.163 HD
BRANCH   3   6
ATOM      6  C   UNL     1       0.674   2.583  -0.827  1.00  0.00     0.067 C 
ATOM      7  C   UNL     1       0.214   4.067  -0.975  1.00  0.00     0.020 C 
ATOM      8  C   UNL     1      -0.569   1.641  -0.968  1.00  0.00     0.136 C 
ATOM      9  C   UNL     1      -1.065   4.409  -0.216  1.00  0.00     0.023 C 
ATOM     10  N   UNL     1      -1.756   2.109  -0.243  1.00  0.00    -0.342 N 
ATOM     11  C   UNL     1      -2.169   3.448  -0.619  1.00  0.00     0.119 C 
BRANCH   6  12
ATOM     12  C   UNL     1       1.725   2.295  -1.955  1.00  0.00     0.018 C 
BRANCH  12  13
ATOM     13  C   UNL     1       1.968   0.841  -2.384  1.00  0.00    -0.002 C 
ATOM     14  C   UNL     1       1.007   0.341  -3.456  1.00  0.00     0.004 C 
ENDBRANCH  12  13
ENDBRANCH   6  12
BRANCH  10  15
ATOM     15  C   UNL     1      -2.349   1.319   0.728  1.00  0.00     0.224 C 
ATOM     16  O   UNL     1      -1.981   0.162   0.952  1.00  0.00    -0.275 OA
BRANCH  15  17
ATOM     17  C   UNL     1      -3.504   1.872   1.552  1.00  0.00     0.124 C 
BRANCH  17  18
ATOM     18  C   UNL     1      -3.014   2.611   2.798  1.00  0.00     0.156 C 
BRANCH  18  19
ATOM     19  N   UNL     1      -3.437   3.997   2.891  1.00  0.00    -0.252 N 
ATOM     20  C   UNL     1      -3.943   4.648   3.975  1.00  0.00     0.219 A 
ATOM     21  N   UNL     1      -3.291   4.848   1.863  1.00  0.00    -0.160 NA
ATOM     22  N   UNL     1      -4.151   5.910   3.675  1.00  0.00    -0.224 NA
ATOM     23  C   UNL     1      -3.725   5.995   2.386  1.00  0.00     0.246 A 
ENDBRANCH  18  19
ENDBRANCH  17  18
ENDBRANCH  15  17
ENDBRANCH  10  15
ENDBRANCH   3   6
ENDBRANCH   1   2
BRANCH   1  24
ATOM     24  C   UNL     1       3.000   5.341   1.427  1.00  0.00     0.042 C 
BRANCH  24  25
ATOM     25  C   UNL     1       3.464   5.159   2.870  1.00  0.00     0.118 C 
BRANCH  25  26
ATOM     26  N   UNL     1       4.888   4.864   2.966  1.00  0.00    -0.352 N 
ATOM     27  C   UNL     1       5.898   5.578   3.559  1.00  0.00     0.251 C 
ATOM     28  H   UNL     1       5.168   4.023   2.538  1.00  0.00     0.163 HD
ATOM     29  O   UNL     1       7.069   5.263   3.332  1.00  0.00    -0.269 OA
BRANCH  27  30
ATOM     30  C   UNL     1       5.594   6.719   4.447  1.00  0.00     0.039 A 
ATOM     31  C   UNL     1       6.373   7.877   4.359  1.00  0.00     0.014 A 
ATOM     32  C   UNL     1       4.562   6.643   5.387  1.00  0.00     0.014 A 
ATOM     33  C   UNL     1       6.076   8.978   5.166  1.00  0.00     0.010 A 
ATOM     34  C   UNL     1       4.219   7.766   6.134  1.00  0.00     0.010 A 
ATOM     35  C   UNL     1       4.974   8.945   6.036  1.00  0.00    -0.014 A 
BRANCH  35  36
ATOM     36  C   UNL     1       4.602  10.119   6.869  1.00  0.00     0.031 A 
ATOM     37  C   UNL     1       4.642  10.013   8.370  1.00  0.00     0.074 A 
ATOM     38  C   UNL     1       4.160  11.248   6.280  1.00  0.00     0.049 A 
ATOM     39  N   UNL     1       4.239  10.869   9.274  1.00  0.00    -0.248 NA
ATOM     40  C   UNL     1       5.180   8.762   8.926  1.00  0.00     0.031 C 
ATOM     41  C   UNL     1       4.052  11.462   4.836  1.00  0.00     0.029 A 
ATOM     42  N   UNL     1       3.705  12.424   6.823  1.00  0.00    -0.354 N 
ATOM     43  C   UNL     1       4.455  10.254  10.503  1.00  0.00     0.074 A 
ATOM     44  C   UNL     1       4.969   8.930  10.223  1.00  0.00     0.031 C 
ATOM     45  C   UNL     1       3.580  12.697   4.608  1.00  0.00     0.029 A 
ATOM     46  C   UNL     1       3.300  13.346   5.885  1.00  0.00     0.049 A 
ATOM     47  H   UNL     1       3.671  12.592   7.792  1.00  0.00     0.167 HD
ATOM     48  C   UNL     1       4.263  10.755  11.748  1.00  0.00     0.034 A 
ATOM     49  C   UNL     1       2.747  14.566   6.037  1.00  0.00     0.034 A 
ATOM     50  C   UNL     1       3.762  12.084  12.008  1.00  0.00     0.049 A 
ATOM     51  C   UNL     1       2.512  15.090   7.432  1.00  0.00     0.074 A 
ATOM     52  C   UNL     1       3.570  12.710  13.228  1.00  0.00     0.029 A 
ATOM     53  N   UNL     1       3.369  12.991  11.032  1.00  0.00    -0.354 N 
ATOM     54  N   UNL     1       2.753  14.509   8.585  1.00  0.00    -0.248 NA
ATOM     55  C   UNL     1       1.939  16.438   7.546  1.00  0.00     0.031 C 
ATOM     56  C   UNL     1       3.000  13.965  12.993  1.00  0.00     0.029 A 
ATOM     57  C   UNL     1       2.912  14.159  11.624  1.00  0.00     0.049 A 
ATOM     58  H   UNL     1       3.410  12.829  10.062  1.00  0.00     0.167 HD
ATOM     59  C   UNL     1       2.397  15.438   9.559  1.00  0.00     0.074 A 
ATOM     60  C   UNL     1       1.935  16.618   8.858  1.00  0.00     0.031 C 
ATOM     61  C   UNL     1       2.453  15.329  10.911  1.00  0.00     0.034 A 
BRANCH  48  62
ATOM     62  C   UNL     1       4.571   9.850  12.918  1.00  0.00     0.023 A 
ATOM     63  C   UNL     1       5.869   9.363  13.153  1.00  0.00     0.031 A 
ATOM     64  C   UNL     1       3.550   9.447  13.797  1.00  0.00     0.131 A 
ATOM     65  C   UNL     1       6.096   8.441  14.187  1.00  0.00     0.055 A 
ATOM     66  C   UNL     1       3.800   8.597  14.877  1.00  0.00     0.041 A 
ATOM     67  F   UNL     1       2.286   9.861  13.613  1.00  0.00    -0.206 F 
ATOM     68  C   UNL     1       5.076   8.076  15.067  1.00  0.00     0.022 A 
BRANCH  65  69
ATOM     69  S   UNL     1       7.709   7.616  14.270  1.00  0.00     0.124 S 
ATOM     70  O   UNL     1       7.772   6.961  12.966  1.00  0.00    -0.237 OA
ATOM     71  O   UNL     1       8.625   8.733  14.470  1.00  0.00    -0.237 OA
ATOM     72  O   UNL     1       7.572   6.710  15.409  1.00  0.00    -0.744 OA
ENDBRANCH  65  69
ENDBRANCH  48  62
BRANCH  49  73
ATOM     73  C   UNL     1       2.361  15.378   4.846  1.00  0.00     0.023 A 
ATOM     74  C   UNL     1       2.979  16.610   4.580  1.00  0.00     0.031 A 
ATOM     75  C   UNL     1       1.332  14.958   3.983  1.00  0.00     0.131 A 
ATOM     76  C   UNL     1       2.530  17.404   3.514  1.00  0.00     0.055 A 
ATOM     77  C   UNL     1       0.927  15.726   2.889  1.00  0.00     0.041 A 
ATOM     78  F   UNL     1       0.710  13.786   4.187  1.00  0.00    -0.206 F 
ATOM     79  C   UNL     1       1.517  16.965   2.659  1.00  0.00     0.022 A 
BRANCH  76  80
ATOM     80  S   UNL     1       3.224  19.069   3.320  1.00  0.00     0.124 S 
ATOM     81  O   UNL     1       2.917  19.671   4.611  1.00  0.00    -0.237 OA
ATOM     82  O   UNL     1       4.632  18.780   3.063  1.00  0.00    -0.237 OA
ATOM     83  O   UNL     1       2.485  19.614   2.183  1.00  0.00    -0.744 OA
ENDBRANCH  76  80
ENDBRANCH  49  73
BRANCH  61  84
ATOM     84  C   UNL     1       2.061  16.544  11.717  1.00  0.00     0.023 A 
ATOM     85  C   UNL     1       0.742  17.028  11.740  1.00  0.00     0.031 A 
ATOM     86  C   UNL     1       3.031  17.229  12.470  1.00  0.00     0.131 A 
ATOM     87  C   UNL     1       0.440  18.196  12.458  1.00  0.00     0.055 A 
ATOM     88  C   UNL     1       2.712  18.354  13.232  1.00  0.00     0.041 A 
ATOM     89  F   UNL     1       4.307  16.812  12.482  1.00  0.00    -0.206 F 
ATOM     90  C   UNL     1       1.412  18.851  13.218  1.00  0.00     0.022 A 
BRANCH  87  91
ATOM     91  S   UNL     1      -1.225  18.902  12.314  1.00  0.00     0.124 S 
ATOM     92  O   UNL     1      -1.333  19.135  10.877  1.00  0.00    -0.237 OA
ATOM     93  O   UNL     1      -2.064  17.835  12.851  1.00  0.00    -0.237 OA
ATOM     94  O   UNL     1      -1.158  20.110  13.135  1.00  0.00    -0.744 OA
ENDBRANCH  87  91
ENDBRANCH  61  84
ENDBRANCH  35  36
ENDBRANCH  27  30
ENDBRANCH  25  26
ENDBRANCH  24  25
ENDBRANCH   1  24
TORSDOF 19
