REMARK SMILES Cc1cc2c(c(C)c1Cl)C=C(C(=O)NCCCNC(=O)c1ccc(-c3c4nc(c(-c5cc(S(=O)(=O)[O-])ccc5F)c5ccc([nH]5)c(-c5cc(S(=O)(=O)[O-])ccc5F)c5nc(c(-c6cc(S(=O)(=O)[O-])ccc6F)c6ccc3[nH]6)C=C5)C=C4)cc1)[C@@H](C(F)(F)F)O2
REMARK SMILES IDX 17 1 16 2 15 3 14 4 12 5 13 6 11 8 1 9 2 10 3 11 8 12 4 13
REMARK SMILES IDX 6 14 9 15 5 16 89 17 7 18 10 19 84 20 85 21 86 22 87 23
REMARK SMILES IDX 88 24 18 25 19 26 20 28 21 29 22 30 83 31 23 32 82 33 24 34
REMARK SMILES IDX 25 35 26 36 76 37 27 38 81 39 75 40 77 41 28 42 80 43 74 44
REMARK SMILES IDX 73 45 29 47 61 48 41 49 60 50 42 51 45 52 59 53 78 54 43 55
REMARK SMILES IDX 44 56 58 58 79 59 46 60 30 61 31 62 39 63 32 64 38 65 40 66
REMARK SMILES IDX 37 67 33 68 34 69 35 70 36 71 62 72 63 73 71 74 64 75 70 76
REMARK SMILES IDX 72 77 69 78 65 79 66 80 67 81 68 82 47 83 48 84 56 85 49 86
REMARK SMILES IDX 55 87 57 88 54 89 50 90 51 91 52 92 53 93
REMARK H PARENT 14 7 18 27 77 46 45 57
REMARK Flexibility Score: inf
ROOT
ATOM      1  C   UNL     1      -4.384   7.297   6.369  1.00  0.00     0.118 C 
ENDROOT
BRANCH   1   2
ATOM      2  C   UNL     1      -3.991   5.987   5.698  1.00  0.00     0.042 C 
BRANCH   2   3
ATOM      3  C   UNL     1      -4.170   6.038   4.189  1.00  0.00     0.118 C 
BRANCH   3   4
ATOM      4  N   UNL     1      -3.101   6.782   3.538  1.00  0.00    -0.352 N 
ATOM      5  C   UNL     1      -2.041   6.508   2.744  1.00  0.00     0.251 C 
ATOM      6  O   UNL     1      -1.376   7.490   2.395  1.00  0.00    -0.270 OA
ATOM      7  H   UNL     1      -3.167   7.746   3.727  1.00  0.00     0.163 HD
BRANCH   5   8
ATOM      8  C   UNL     1      -1.648   5.147   2.276  1.00  0.00     0.067 C 
ATOM      9  C   UNL     1       1.135  -0.207  -0.154  1.00  0.00     0.046 C 
ATOM     10  C   UNL     1       0.759   1.192   0.247  1.00  0.00    -0.028 A 
ATOM     11  C   UNL     1      -0.298   1.361   1.143  1.00  0.00     0.052 A 
ATOM     12  C   UNL     1       1.407   2.336  -0.265  1.00  0.00     0.047 A 
ATOM     13  C   UNL     1      -0.698   2.634   1.531  1.00  0.00     0.128 A 
ATOM     14  C   UNL     1       1.021   3.639   0.137  1.00  0.00    -0.021 A 
ATOM     15  Cl  UNL     1       2.696   2.107  -1.409  1.00  0.00    -0.084 Cl
ATOM     16  C   UNL     1      -0.048   3.777   1.056  1.00  0.00     0.022 A 
ATOM     17  O   UNL     1      -1.725   2.670   2.429  1.00  0.00    -0.475 OA
ATOM     18  C   UNL     1       1.719   4.875  -0.381  1.00  0.00     0.047 C 
ATOM     19  C   UNL     1      -0.499   5.072   1.577  1.00  0.00     0.026 C 
ATOM     20  C   UNL     1      -2.462   3.914   2.518  1.00  0.00     0.314 C 
BRANCH  20  21
ATOM     21  C   UNL     1      -3.706   3.839   1.610  1.00  0.00     0.429 C 
ATOM     22  F   UNL     1      -4.600   2.946   2.101  1.00  0.00    -0.167 F 
ATOM     23  F   UNL     1      -4.358   5.022   1.516  1.00  0.00    -0.167 F 
ATOM     24  F   UNL     1      -3.407   3.460   0.347  1.00  0.00    -0.167 F 
ENDBRANCH  20  21
ENDBRANCH   5   8
ENDBRANCH   3   4
ENDBRANCH   2   3
ENDBRANCH   1   2
BRANCH   1  25
ATOM     25  N   UNL     1      -5.802   7.594   6.180  1.00  0.00    -0.352 N 
ATOM     26  C   UNL     1      -6.850   7.489   7.058  1.00  0.00     0.251 C 
ATOM     27  H   UNL     1      -6.042   7.920   5.283  1.00  0.00     0.163 HD
ATOM     28  O   UNL     1      -8.002   7.488   6.626  1.00  0.00    -0.269 OA
BRANCH  26  29
ATOM     29  C   UNL     1      -6.593   7.375   8.506  1.00  0.00     0.039 A 
ATOM     30  C   UNL     1      -7.382   6.523   9.281  1.00  0.00     0.014 A 
ATOM     31  C   UNL     1      -5.583   8.134   9.102  1.00  0.00     0.014 A 
ATOM     32  C   UNL     1      -7.111   6.386  10.644  1.00  0.00     0.010 A 
ATOM     33  C   UNL     1      -5.250   7.921  10.432  1.00  0.00     0.010 A 
ATOM     34  C   UNL     1      -6.021   7.058  11.221  1.00  0.00    -0.014 A 
BRANCH  34  35
ATOM     35  C   UNL     1      -5.690   6.905  12.658  1.00  0.00     0.031 A 
ATOM     36  C   UNL     1      -5.757   8.104  13.566  1.00  0.00     0.074 A 
ATOM     37  C   UNL     1      -5.285   5.709  13.127  1.00  0.00     0.049 A 
ATOM     38  N   UNL     1      -5.431   8.200  14.828  1.00  0.00    -0.248 NA
ATOM     39  C   UNL     1      -6.224   9.367  12.970  1.00  0.00     0.031 C 
ATOM     40  C   UNL     1      -5.153   4.488  12.328  1.00  0.00     0.029 A 
ATOM     41  N   UNL     1      -4.912   5.320  14.388  1.00  0.00    -0.354 N 
ATOM     42  C   UNL     1      -5.644   9.530  15.172  1.00  0.00     0.074 A 
ATOM     43  C   UNL     1      -6.064  10.218  13.972  1.00  0.00     0.031 C 
ATOM     44  C   UNL     1      -4.771   3.479  13.126  1.00  0.00     0.029 A 
ATOM     45  C   UNL     1      -4.583   3.987  14.481  1.00  0.00     0.049 A 
ATOM     46  H   UNL     1      -4.883   5.936  15.155  1.00  0.00     0.167 HD
ATOM     47  C   UNL     1      -5.531  10.116  16.387  1.00  0.00     0.034 A 
ATOM     48  C   UNL     1      -4.171   3.260  15.538  1.00  0.00     0.034 A 
ATOM     49  C   UNL     1      -5.146   9.410  17.580  1.00  0.00     0.049 A 
ATOM     50  C   UNL     1      -4.025   3.942  16.873  1.00  0.00     0.074 A 
ATOM     51  C   UNL     1      -5.049   9.895  18.871  1.00  0.00     0.029 A 
ATOM     52  N   UNL     1      -4.798   8.067  17.628  1.00  0.00    -0.354 N 
ATOM     53  N   UNL     1      -4.249   5.198  17.184  1.00  0.00    -0.248 NA
ATOM     54  C   UNL     1      -3.572   3.114  17.998  1.00  0.00     0.031 C 
ATOM     55  C   UNL     1      -4.584   8.862  19.690  1.00  0.00     0.029 A 
ATOM     56  C   UNL     1      -4.457   7.714  18.923  1.00  0.00     0.049 A 
ATOM     57  H   UNL     1      -4.794   7.456  16.857  1.00  0.00     0.167 HD
ATOM     58  C   UNL     1      -3.982   5.305  18.545  1.00  0.00     0.074 A 
ATOM     59  C   UNL     1      -3.590   3.986  18.997  1.00  0.00     0.031 C 
ATOM     60  C   UNL     1      -4.057   6.395  19.348  1.00  0.00     0.034 A 
BRANCH  47  61
ATOM     61  C   UNL     1      -5.829  11.589  16.487  1.00  0.00     0.023 A 
ATOM     62  C   UNL     1      -7.128  12.088  16.293  1.00  0.00     0.031 A 
ATOM     63  C   UNL     1      -4.808  12.501  16.804  1.00  0.00     0.131 A 
ATOM     64  C   UNL     1      -7.365  13.468  16.377  1.00  0.00     0.055 A 
ATOM     65  C   UNL     1      -5.063  13.866  16.950  1.00  0.00     0.041 A 
ATOM     66  F   UNL     1      -3.546  12.079  16.979  1.00  0.00    -0.206 F 
ATOM     67  C   UNL     1      -6.347  14.357  16.730  1.00  0.00     0.022 A 
BRANCH  64  68
ATOM     68  S   UNL     1      -9.010  14.094  15.944  1.00  0.00     0.124 S 
ATOM     69  O   UNL     1      -9.087  13.761  14.524  1.00  0.00    -0.237 OA
ATOM     70  O   UNL     1      -9.884  13.331  16.827  1.00  0.00    -0.237 OA
ATOM     71  O   UNL     1      -8.921  15.523  16.239  1.00  0.00    -0.744 OA
ENDBRANCH  64  68
ENDBRANCH  47  61
BRANCH  48  72
ATOM     72  C   UNL     1      -3.869   1.811  15.377  1.00  0.00     0.023 A 
ATOM     73  C   UNL     1      -4.677   0.835  15.979  1.00  0.00     0.031 A 
ATOM     74  C   UNL     1      -2.769   1.380  14.613  1.00  0.00     0.131 A 
ATOM     75  C   UNL     1      -4.361  -0.524  15.828  1.00  0.00     0.055 A 
ATOM     76  C   UNL     1      -2.482   0.026  14.432  1.00  0.00     0.041 A 
ATOM     77  F   UNL     1      -1.972   2.275  14.007  1.00  0.00    -0.206 F 
ATOM     78  C   UNL     1      -3.277  -0.935  15.048  1.00  0.00     0.022 A 
BRANCH  75  79
ATOM     79  S   UNL     1      -5.371  -1.755  16.696  1.00  0.00     0.124 S 
ATOM     80  O   UNL     1      -5.125  -1.410  18.092  1.00  0.00    -0.237 OA
ATOM     81  O   UNL     1      -6.708  -1.466  16.188  1.00  0.00    -0.237 OA
ATOM     82  O   UNL     1      -4.805  -3.030  16.258  1.00  0.00    -0.744 OA
ENDBRANCH  75  79
ENDBRANCH  48  72
BRANCH  60  83
ATOM     83  C   UNL     1      -3.727   6.208  20.804  1.00  0.00     0.023 A 
ATOM     84  C   UNL     1      -2.408   5.990  21.231  1.00  0.00     0.031 A 
ATOM     85  C   UNL     1      -4.737   6.312  21.778  1.00  0.00     0.131 A 
ATOM     86  C   UNL     1      -2.133   5.858  22.599  1.00  0.00     0.055 A 
ATOM     87  C   UNL     1      -4.450   6.229  23.140  1.00  0.00     0.041 A 
ATOM     88  F   UNL     1      -6.012   6.526  21.418  1.00  0.00    -0.206 F 
ATOM     89  C   UNL     1      -3.143   5.996  23.557  1.00  0.00     0.022 A 
BRANCH  86  90
ATOM     90  S   UNL     1      -0.439   5.471  23.113  1.00  0.00     0.124 S 
ATOM     91  O   UNL     1      -0.240   4.149  22.528  1.00  0.00    -0.237 OA
ATOM     92  O   UNL     1       0.329   6.556  22.511  1.00  0.00    -0.237 OA
ATOM     93  O   UNL     1      -0.508   5.500  24.573  1.00  0.00    -0.744 OA
ENDBRANCH  86  90
ENDBRANCH  60  83
ENDBRANCH  34  35
ENDBRANCH  26  29
ENDBRANCH   1  25
TORSDOF 14
