REMARK SMILES O=C(CC[N@@H+]1CCc2ccccc2C1)NCCCNC(=O)c1ccc(-c2c3nc(c(-c4cc(S(=O)(=O)[O-])ccc4F)c4ccc([nH]4)c(-c4cc(S(=O)(=O)[O-])ccc4F)c4nc(c(-c5cc(S(=O)(=O)[O-])ccc5F)c5ccc2[nH]5)C=C4)C=C3)cc1
REMARK SMILES IDX 17 1 16 2 15 3 1 4 2 5 3 7 4 8 5 9 6 10 14 11 7 13 13 14
REMARK SMILES IDX 8 15 12 16 9 17 11 18 10 19 18 20 19 21 20 22 21 24 22 25
REMARK SMILES IDX 23 26 84 27 24 28 83 29 25 30 26 31 27 32 77 33 28 34 82 35
REMARK SMILES IDX 76 36 78 37 29 38 81 39 75 40 74 41 30 43 62 44 42 45 61 46
REMARK SMILES IDX 43 47 46 48 60 49 79 50 44 51 45 52 59 54 80 55 47 56 31 57
REMARK SMILES IDX 32 58 40 59 33 60 39 61 41 62 38 63 34 64 35 65 36 66 37 67
REMARK SMILES IDX 63 68 64 69 72 70 65 71 71 72 73 73 70 74 66 75 67 76 68 77
REMARK SMILES IDX 69 78 48 79 49 80 57 81 50 82 56 83 58 84 55 85 51 86 52 87
REMARK SMILES IDX 53 88 54 89
REMARK H PARENT 15 6 5 12 19 23 78 42 46 53
REMARK Flexibility Score: inf
ROOT
ATOM      1  C   UNL     1       2.377  -0.786   3.315  1.00  0.00     0.042 C 
ENDROOT
BRANCH   1   2
ATOM      2  C   UNL     1       2.038   0.369   2.381  1.00  0.00     0.117 C 
BRANCH   2   3
ATOM      3  N   UNL     1       2.696   0.257   1.099  1.00  0.00    -0.356 N 
ATOM      4  O   UNL     1       0.860  -0.340  -0.151  1.00  0.00    -0.275 OA
ATOM      5  C   UNL     1       2.056  -0.070  -0.071  1.00  0.00     0.225 C 
ATOM      6  H   UNL     1       3.666   0.425   1.062  1.00  0.00     0.163 HD
BRANCH   5   7
ATOM      7  C   UNL     1       2.973  -0.113  -1.280  1.00  0.00     0.161 C 
BRANCH   7   8
ATOM      8  C   UNL     1       3.733   1.203  -1.469  1.00  0.00     0.272 C 
BRANCH   8   9
ATOM      9  N   UNL     1       4.789   1.402  -0.457  1.00  0.00    -0.330 N 
ATOM     10  C   UNL     1       5.045   2.831  -0.183  1.00  0.00     0.267 C 
ATOM     11  C   UNL     1       6.000   0.606  -0.754  1.00  0.00     0.299 C 
ATOM     12  H   UNL     1       4.440   1.030   0.427  1.00  0.00     0.348 HD
ATOM     13  C   UNL     1       6.420   3.373  -0.590  1.00  0.00     0.097 C 
ATOM     14  C   UNL     1       7.249   1.098  -0.059  1.00  0.00     0.010 A 
ATOM     15  C   UNL     1       7.484   2.482  -0.018  1.00  0.00    -0.034 A 
ATOM     16  C   UNL     1       8.211   0.223   0.455  1.00  0.00     0.010 A 
ATOM     17  C   UNL     1       8.665   2.984   0.532  1.00  0.00     0.004 A 
ATOM     18  C   UNL     1       9.384   0.728   1.020  1.00  0.00     0.001 A 
ATOM     19  C   UNL     1       9.610   2.104   1.057  1.00  0.00     0.000 A 
ENDBRANCH   8   9
ENDBRANCH   7   8
ENDBRANCH   5   7
ENDBRANCH   2   3
ENDBRANCH   1   2
BRANCH   1  20
ATOM     20  C   UNL     1       3.862  -0.929   3.649  1.00  0.00     0.118 C 
BRANCH  20  21
ATOM     21  N   UNL     1       4.405   0.215   4.365  1.00  0.00    -0.352 N 
ATOM     22  C   UNL     1       5.112   0.286   5.540  1.00  0.00     0.251 C 
ATOM     23  H   UNL     1       4.238   1.085   3.935  1.00  0.00     0.163 HD
ATOM     24  O   UNL     1       5.342   1.397   6.023  1.00  0.00    -0.269 OA
BRANCH  22  25
ATOM     25  C   UNL     1       5.572  -0.932   6.251  1.00  0.00     0.039 A 
ATOM     26  C   UNL     1       5.535  -0.938   7.650  1.00  0.00     0.014 A 
ATOM     27  C   UNL     1       6.073  -2.049   5.576  1.00  0.00     0.014 A 
ATOM     28  C   UNL     1       5.933  -2.075   8.359  1.00  0.00     0.010 A 
ATOM     29  C   UNL     1       6.398  -3.211   6.281  1.00  0.00     0.010 A 
ATOM     30  C   UNL     1       6.330  -3.241   7.682  1.00  0.00    -0.014 A 
BRANCH  30  31
ATOM     31  C   UNL     1       6.643  -4.487   8.438  1.00  0.00     0.031 A 
ATOM     32  C   UNL     1       8.023  -5.089   8.408  1.00  0.00     0.074 A 
ATOM     33  C   UNL     1       5.663  -5.098   9.136  1.00  0.00     0.049 A 
ATOM     34  N   UNL     1       8.473  -6.161   9.012  1.00  0.00    -0.248 NA
ATOM     35  C   UNL     1       9.022  -4.413   7.568  1.00  0.00     0.031 C 
ATOM     36  C   UNL     1       4.270  -4.648   9.202  1.00  0.00     0.029 A 
ATOM     37  N   UNL     1       5.684  -6.221   9.926  1.00  0.00    -0.354 N 
ATOM     38  C   UNL     1       9.803  -6.291   8.624  1.00  0.00     0.074 A 
ATOM     39  C   UNL     1      10.064  -5.223   7.681  1.00  0.00     0.031 C 
ATOM     40  C   UNL     1       3.583  -5.460  10.020  1.00  0.00     0.029 A 
ATOM     41  C   UNL     1       4.469  -6.514  10.503  1.00  0.00     0.049 A 
ATOM     42  H   UNL     1       6.492  -6.765  10.067  1.00  0.00     0.167 HD
ATOM     43  C   UNL     1      10.726  -7.199   9.033  1.00  0.00     0.034 A 
ATOM     44  C   UNL     1       4.105  -7.516  11.328  1.00  0.00     0.034 A 
ATOM     45  C   UNL     1      10.451  -8.260   9.976  1.00  0.00     0.049 A 
ATOM     46  C   UNL     1       5.146  -8.515  11.764  1.00  0.00     0.074 A 
ATOM     47  C   UNL     1      11.324  -9.203  10.493  1.00  0.00     0.029 A 
ATOM     48  N   UNL     1       9.209  -8.527  10.540  1.00  0.00    -0.354 N 
ATOM     49  N   UNL     1       6.415  -8.586  11.434  1.00  0.00    -0.248 NA
ATOM     50  C   UNL     1       4.707  -9.556  12.701  1.00  0.00     0.031 C 
ATOM     51  C   UNL     1      10.598 -10.079  11.308  1.00  0.00     0.029 A 
ATOM     52  C   UNL     1       9.288  -9.635  11.373  1.00  0.00     0.049 A 
ATOM     53  H   UNL     1       8.391  -8.005  10.373  1.00  0.00     0.167 HD
ATOM     54  C   UNL     1       6.932  -9.663  12.151  1.00  0.00     0.074 A 
ATOM     55  C   UNL     1       5.843 -10.189  12.948  1.00  0.00     0.031 C 
ATOM     56  C   UNL     1       8.193 -10.169  12.151  1.00  0.00     0.034 A 
BRANCH  43  57
ATOM     57  C   UNL     1      12.114  -7.098   8.439  1.00  0.00     0.023 A 
ATOM     58  C   UNL     1      12.921  -5.962   8.631  1.00  0.00     0.031 A 
ATOM     59  C   UNL     1      12.633  -8.144   7.654  1.00  0.00     0.131 A 
ATOM     60  C   UNL     1      14.164  -5.865   7.987  1.00  0.00     0.055 A 
ATOM     61  C   UNL     1      13.908  -8.078   7.086  1.00  0.00     0.041 A 
ATOM     62  F   UNL     1      11.906  -9.247   7.416  1.00  0.00    -0.206 F 
ATOM     63  C   UNL     1      14.675  -6.927   7.238  1.00  0.00     0.022 A 
BRANCH  60  64
ATOM     64  S   UNL     1      15.036  -4.275   8.019  1.00  0.00     0.124 S 
ATOM     65  O   UNL     1      14.049  -3.384   7.413  1.00  0.00    -0.237 OA
ATOM     66  O   UNL     1      15.285  -4.080   9.443  1.00  0.00    -0.237 OA
ATOM     67  O   UNL     1      16.225  -4.519   7.205  1.00  0.00    -0.744 OA
ENDBRANCH  60  64
ENDBRANCH  43  57
BRANCH  44  68
ATOM     68  C   UNL     1       2.696  -7.630  11.804  1.00  0.00     0.023 A 
ATOM     69  C   UNL     1       2.377  -7.504  13.166  1.00  0.00     0.031 A 
ATOM     70  C   UNL     1       1.651  -7.914  10.907  1.00  0.00     0.131 A 
ATOM     71  C   UNL     1       1.058  -7.711  13.599  1.00  0.00     0.055 A 
ATOM     72  C   UNL     1       0.330  -8.062  11.335  1.00  0.00     0.041 A 
ATOM     73  F   UNL     1       1.898  -8.040   9.593  1.00  0.00    -0.206 F 
ATOM     74  C   UNL     1       0.030  -7.975  12.691  1.00  0.00     0.022 A 
BRANCH  71  75
ATOM     75  S   UNL     1       0.720  -7.722  15.381  1.00  0.00     0.124 S 
ATOM     76  O   UNL     1       1.607  -8.782  15.846  1.00  0.00    -0.237 OA
ATOM     77  O   UNL     1       1.086  -6.363  15.766  1.00  0.00    -0.237 OA
ATOM     78  O   UNL     1      -0.708  -8.024  15.454  1.00  0.00    -0.744 OA
ENDBRANCH  71  75
ENDBRANCH  44  68
BRANCH  56  79
ATOM     79  C   UNL     1       8.460 -11.331  13.082  1.00  0.00     0.023 A 
ATOM     80  C   UNL     1       7.808 -12.568  12.930  1.00  0.00     0.031 A 
ATOM     81  C   UNL     1       9.338 -11.180  14.170  1.00  0.00     0.131 A 
ATOM     82  C   UNL     1       7.975 -13.572  13.897  1.00  0.00     0.055 A 
ATOM     83  C   UNL     1       9.559 -12.210  15.087  1.00  0.00     0.041 A 
ATOM     84  F   UNL     1       9.988 -10.022  14.370  1.00  0.00    -0.206 F 
ATOM     85  C   UNL     1       8.860 -13.407  14.965  1.00  0.00     0.022 A 
BRANCH  82  86
ATOM     86  S   UNL     1       6.913 -15.041  13.818  1.00  0.00     0.124 S 
ATOM     87  O   UNL     1       5.578 -14.450  13.806  1.00  0.00    -0.237 OA
ATOM     88  O   UNL     1       7.342 -15.668  12.572  1.00  0.00    -0.237 OA
ATOM     89  O   UNL     1       7.255 -15.777  15.033  1.00  0.00    -0.744 OA
ENDBRANCH  82  86
ENDBRANCH  56  79
ENDBRANCH  30  31
ENDBRANCH  22  25
ENDBRANCH  20  21
ENDBRANCH   1  20
TORSDOF 15
