REMARK SMILES O=C(NCCCNC(=O)c1cc(S(=O)(=O)Nc2ccccc2-n2cc(Br)cn2)c[nH]1)c1ccc(-c2c3nc(c(-c4cc(S(=O)(=O)[O-])ccc4F)c4ccc([nH]4)c(-c4cc(S(=O)(=O)[O-])ccc4F)c4nc(c(-c5cc(S(=O)(=O)[O-])ccc5F)c5ccc2[nH]5)C=C4)C=C3)cc1
REMARK SMILES IDX 5 1 4 2 3 3 1 4 2 5 31 7 32 8 93 9 33 10 92 11 34 12 35 13
REMARK SMILES IDX 36 14 86 15 37 16 91 17 85 18 87 19 38 20 90 21 84 22 83 23
REMARK SMILES IDX 39 25 71 26 51 27 70 28 52 29 55 30 69 31 88 32 53 33 54 34
REMARK SMILES IDX 68 36 89 37 56 38 40 39 41 40 49 41 42 42 48 43 50 44 47 45
REMARK SMILES IDX 43 46 44 47 45 48 46 49 72 50 73 51 81 52 74 53 80 54 82 55
REMARK SMILES IDX 79 56 75 57 76 58 77 59 78 60 57 61 58 62 66 63 59 64 65 65
REMARK SMILES IDX 67 66 64 67 60 68 61 69 62 70 63 71 6 72 7 73 8 74 9 76
REMARK SMILES IDX 10 77 11 78 30 79 12 80 29 81 13 83 14 84 15 85 16 86 17 88
REMARK SMILES IDX 18 89 22 90 19 91 21 92 20 93 23 94 24 95 28 96 25 97 27 98
REMARK SMILES IDX 26 99
REMARK H PARENT 3 6 87 24 55 35 7 75 30 82 16 87
REMARK Flexibility Score: inf
ROOT
ATOM      1  C   UNL     1       5.044   0.583   1.817  1.00  0.00     0.042 C 
ENDROOT
BRANCH   1   2
ATOM      2  C   UNL     1       4.651  -0.579   0.910  1.00  0.00     0.118 C 
BRANCH   2   3
ATOM      3  N   UNL     1       3.223  -0.750   0.682  1.00  0.00    -0.352 N 
ATOM      4  O   UNL     1       1.140  -0.529  -0.053  1.00  0.00    -0.269 OA
ATOM      5  C   UNL     1       2.260  -0.021   0.030  1.00  0.00     0.251 C 
ATOM      6  H   UNL     1       2.869  -1.574   1.086  1.00  0.00     0.163 HD
BRANCH   5   7
ATOM      7  C   UNL     1       2.469   1.352  -0.502  1.00  0.00     0.039 A 
ATOM      8  C   UNL     1       3.710   1.862  -0.879  1.00  0.00     0.014 A 
ATOM      9  C   UNL     1       1.331   2.171  -0.635  1.00  0.00     0.014 A 
ATOM     10  C   UNL     1       3.835   3.192  -1.262  1.00  0.00     0.010 A 
ATOM     11  C   UNL     1       1.442   3.495  -1.068  1.00  0.00     0.010 A 
ATOM     12  C   UNL     1       2.704   4.010  -1.364  1.00  0.00    -0.014 A 
BRANCH  12  13
ATOM     13  C   UNL     1       2.916   5.342  -1.977  1.00  0.00     0.031 A 
ATOM     14  C   UNL     1       3.165   5.205  -3.493  1.00  0.00     0.074 A 
ATOM     15  C   UNL     1       3.023   6.410  -1.131  1.00  0.00     0.049 A 
ATOM     16  N   UNL     1       4.095   5.709  -4.250  1.00  0.00    -0.248 NA
ATOM     17  C   UNL     1       2.339   4.218  -4.240  1.00  0.00     0.031 C 
ATOM     18  C   UNL     1       2.710   6.395   0.319  1.00  0.00     0.029 A 
ATOM     19  N   UNL     1       3.436   7.713  -1.299  1.00  0.00    -0.354 N 
ATOM     20  C   UNL     1       3.836   5.283  -5.577  1.00  0.00     0.074 A 
ATOM     21  C   UNL     1       2.851   4.248  -5.473  1.00  0.00     0.031 C 
ATOM     22  C   UNL     1       3.019   7.580   0.897  1.00  0.00     0.029 A 
ATOM     23  C   UNL     1       3.583   8.468  -0.101  1.00  0.00     0.049 A 
ATOM     24  H   UNL     1       3.617   8.097  -2.188  1.00  0.00     0.167 HD
ATOM     25  C   UNL     1       4.330   5.910  -6.688  1.00  0.00     0.034 A 
ATOM     26  C   UNL     1       4.189   9.684   0.082  1.00  0.00     0.034 A 
ATOM     27  C   UNL     1       5.107   7.042  -6.308  1.00  0.00     0.049 A 
ATOM     28  C   UNL     1       4.674  10.043  -1.260  1.00  0.00     0.074 A 
ATOM     29  C   UNL     1       6.402   7.275  -5.938  1.00  0.00     0.029 A 
ATOM     30  N   UNL     1       4.421   8.228  -6.223  1.00  0.00    -0.354 N 
ATOM     31  N   UNL     1       3.942  10.498  -2.226  1.00  0.00    -0.248 NA
ATOM     32  C   UNL     1       6.086   9.789  -1.573  1.00  0.00     0.031 C 
ATOM     33  C   UNL     1       6.376   8.547  -5.312  1.00  0.00     0.029 A 
ATOM     34  C   UNL     1       5.056   9.007  -5.293  1.00  0.00     0.049 A 
ATOM     35  H   UNL     1       3.618   8.474  -6.737  1.00  0.00     0.167 HD
ATOM     36  C   UNL     1       4.742  10.336  -3.331  1.00  0.00     0.074 A 
ATOM     37  C   UNL     1       6.094  10.190  -2.840  1.00  0.00     0.031 C 
ATOM     38  C   UNL     1       4.223   9.889  -4.501  1.00  0.00     0.034 A 
BRANCH  25  39
ATOM     39  C   UNL     1       4.000   5.825  -8.172  1.00  0.00     0.023 A 
ATOM     40  C   UNL     1       4.855   6.553  -9.046  1.00  0.00     0.031 A 
ATOM     41  C   UNL     1       2.796   5.382  -8.735  1.00  0.00     0.131 A 
ATOM     42  C   UNL     1       4.452   6.945 -10.330  1.00  0.00     0.055 A 
ATOM     43  C   UNL     1       2.426   5.709 -10.053  1.00  0.00     0.041 A 
ATOM     44  F   UNL     1       1.895   4.693  -8.024  1.00  0.00    -0.206 F 
ATOM     45  C   UNL     1       3.233   6.527 -10.842  1.00  0.00     0.022 A 
BRANCH  42  46
ATOM     46  S   UNL     1       5.476   8.154 -11.222  1.00  0.00     0.124 S 
ATOM     47  O   UNL     1       5.553   9.257 -10.271  1.00  0.00    -0.237 OA
ATOM     48  O   UNL     1       6.713   7.408 -11.435  1.00  0.00    -0.237 OA
ATOM     49  O   UNL     1       4.703   8.427 -12.431  1.00  0.00    -0.744 OA
ENDBRANCH  42  46
ENDBRANCH  25  39
BRANCH  26  50
ATOM     50  C   UNL     1       4.600  10.623   1.209  1.00  0.00     0.023 A 
ATOM     51  C   UNL     1       4.145  10.587   2.539  1.00  0.00     0.031 A 
ATOM     52  C   UNL     1       5.546  11.665   0.939  1.00  0.00     0.131 A 
ATOM     53  C   UNL     1       4.676  11.491   3.507  1.00  0.00     0.055 A 
ATOM     54  C   UNL     1       6.117  12.496   1.903  1.00  0.00     0.041 A 
ATOM     55  F   UNL     1       5.974  11.942  -0.300  1.00  0.00    -0.206 F 
ATOM     56  C   UNL     1       5.692  12.402   3.205  1.00  0.00     0.022 A 
BRANCH  53  57
ATOM     57  S   UNL     1       4.070  11.526   5.222  1.00  0.00     0.124 S 
ATOM     58  O   UNL     1       3.052  12.570   5.162  1.00  0.00    -0.237 OA
ATOM     59  O   UNL     1       3.580  10.167   5.431  1.00  0.00    -0.237 OA
ATOM     60  O   UNL     1       5.268  11.874   5.987  1.00  0.00    -0.744 OA
ENDBRANCH  53  57
ENDBRANCH  26  50
BRANCH  38  61
ATOM     61  C   UNL     1       2.697   9.967  -4.558  1.00  0.00     0.023 A 
ATOM     62  C   UNL     1       2.033  11.204  -4.581  1.00  0.00     0.031 A 
ATOM     63  C   UNL     1       1.876   8.828  -4.434  1.00  0.00     0.131 A 
ATOM     64  C   UNL     1       0.627  11.263  -4.476  1.00  0.00     0.055 A 
ATOM     65  C   UNL     1       0.482   8.880  -4.353  1.00  0.00     0.041 A 
ATOM     66  F   UNL     1       2.411   7.612  -4.367  1.00  0.00    -0.206 F 
ATOM     67  C   UNL     1      -0.152  10.108  -4.369  1.00  0.00     0.022 A 
BRANCH  64  68
ATOM     68  S   UNL     1      -0.197  12.877  -4.485  1.00  0.00     0.124 S 
ATOM     69  O   UNL     1       0.197  13.443  -3.200  1.00  0.00    -0.237 OA
ATOM     70  O   UNL     1       0.373  13.516  -5.668  1.00  0.00    -0.237 OA
ATOM     71  O   UNL     1      -1.616  12.536  -4.600  1.00  0.00    -0.744 OA
ENDBRANCH  64  68
ENDBRANCH  38  61
ENDBRANCH  12  13
ENDBRANCH   5   7
ENDBRANCH   2   3
ENDBRANCH   1   2
BRANCH   1  72
ATOM     72  C   UNL     1       4.523   0.449   3.239  1.00  0.00     0.118 C 
BRANCH  72  73
ATOM     73  N   UNL     1       5.332  -0.465   4.022  1.00  0.00    -0.351 N 
ATOM     74  C   UNL     1       6.222  -0.275   5.045  1.00  0.00     0.267 C 
ATOM     75  H   UNL     1       5.220  -1.409   3.767  1.00  0.00     0.163 HD
ATOM     76  O   UNL     1       6.912  -1.252   5.350  1.00  0.00    -0.268 OA
BRANCH  74  77
ATOM     77  C   UNL     1       6.342   0.971   5.774  1.00  0.00     0.105 A 
ATOM     78  C   UNL     1       5.636   2.159   5.793  1.00  0.00     0.055 A 
ATOM     79  N   UNL     1       7.312   1.114   6.755  1.00  0.00    -0.356 N 
ATOM     80  C   UNL     1       6.048   2.925   6.910  1.00  0.00     0.106 A 
ATOM     81  C   UNL     1       7.135   2.278   7.456  1.00  0.00     0.105 A 
ATOM     82  H   UNL     1       8.033   0.465   6.924  1.00  0.00     0.166 HD
BRANCH  80  83
ATOM     83  S   UNL     1       5.303   4.405   7.408  1.00  0.00     0.263 S 
ATOM     84  O   UNL     1       5.916   4.709   8.676  1.00  0.00    -0.201 OA
ATOM     85  O   UNL     1       5.462   5.259   6.245  1.00  0.00    -0.201 OA
BRANCH  83  86
ATOM     86  N   UNL     1       3.620   4.260   7.689  1.00  0.00    -0.277 N 
ATOM     87  H   UNL     1       3.171   4.859   8.328  1.00  0.00     0.180 HD
BRANCH  86  88
ATOM     88  C   UNL     1       2.868   3.256   6.985  1.00  0.00     0.075 A 
ATOM     89  C   UNL     1       2.254   3.617   5.777  1.00  0.00     0.029 A 
ATOM     90  C   UNL     1       2.860   1.902   7.380  1.00  0.00     0.089 A 
ATOM     91  C   UNL     1       1.637   2.651   4.975  1.00  0.00     0.002 A 
ATOM     92  C   UNL     1       2.277   0.931   6.543  1.00  0.00     0.030 A 
ATOM     93  C   UNL     1       1.652   1.310   5.355  1.00  0.00     0.002 A 
BRANCH  90  94
ATOM     94  N   UNL     1       3.477   1.467   8.582  1.00  0.00    -0.238 N 
ATOM     95  C   UNL     1       3.677   2.183   9.742  1.00  0.00     0.130 A 
ATOM     96  N   UNL     1       4.006   0.211   8.680  1.00  0.00    -0.175 NA
ATOM     97  C   UNL     1       4.545   1.448  10.497  1.00  0.00     0.056 A 
ATOM     98  C   UNL     1       4.746   0.261   9.793  1.00  0.00     0.151 A 
ATOM     99  Br  UNL     1       5.317   1.906  12.130  1.00  0.00    -0.047 Br
ENDBRANCH  90  94
ENDBRANCH  86  88
ENDBRANCH  83  86
ENDBRANCH  80  83
ENDBRANCH  74  77
ENDBRANCH  72  73
ENDBRANCH   1  72
TORSDOF 17
