REMARK SMILES C[C@@H](Oc1ccc(N)cc1)C(=O)NCCCNC(=O)c1ccc(-c2c3nc(c(-c4cc(S(=O)(=O)[O-])ccc4F)c4ccc([nH]4)c(-c4cc(S(=O)(=O)[O-])ccc4F)c4nc(c(-c5cc(S(=O)(=O)[O-])ccc5F)c5ccc2[nH]5)C=C4)C=C3)cc1
REMARK SMILES IDX 15 1 14 2 13 3 11 4 12 5 2 7 1 8 3 9 4 10 5 11 10 12 6 13
REMARK SMILES IDX 9 14 7 15 8 16 16 19 17 20 18 21 19 23 20 24 21 25 82 26
REMARK SMILES IDX 22 27 81 28 23 29 24 30 25 31 75 32 26 33 80 34 74 35 76 36
REMARK SMILES IDX 27 37 79 38 73 39 72 40 28 42 60 43 40 44 59 45 41 46 44 47
REMARK SMILES IDX 58 48 77 49 42 50 43 51 57 53 78 54 45 55 29 56 30 57 38 58
REMARK SMILES IDX 31 59 37 60 39 61 36 62 32 63 33 64 34 65 35 66 61 67 62 68
REMARK SMILES IDX 70 69 63 70 69 71 71 72 68 73 64 74 65 75 66 76 67 77 46 78
REMARK SMILES IDX 47 79 55 80 48 81 54 82 56 83 53 84 49 85 50 86 51 87 52 88
REMARK H PARENT 13 6 8 17 8 18 17 22 76 41 44 52
REMARK Flexibility Score: inf
ROOT
ATOM      1  C   UNL     1      -1.476   1.115   2.346  1.00  0.00     0.042 C 
ENDROOT
BRANCH   1   2
ATOM      2  C   UNL     1      -1.135  -0.368   2.332  1.00  0.00     0.118 C 
BRANCH   2   3
ATOM      3  N   UNL     1      -1.637  -1.052   1.149  1.00  0.00    -0.353 N 
ATOM      4  C   UNL     1      -0.951  -1.637   0.119  1.00  0.00     0.260 C 
ATOM      5  O   UNL     1      -1.602  -2.218  -0.755  1.00  0.00    -0.271 OA
ATOM      6  H   UNL     1      -2.618  -1.101   1.079  1.00  0.00     0.163 HD
BRANCH   4   7
ATOM      7  C   UNL     1       0.578  -1.510   0.016  1.00  0.00     0.258 C 
ATOM      8  C   UNL     1       0.903  -0.079  -0.406  1.00  0.00     0.064 C 
BRANCH   7   9
ATOM      9  O   UNL     1       1.112  -1.922   1.277  1.00  0.00    -0.481 OA
BRANCH   9  10
ATOM     10  C   UNL     1       2.454  -2.131   1.345  1.00  0.00     0.120 A 
ATOM     11  C   UNL     1       3.367  -1.084   1.314  1.00  0.00     0.048 A 
ATOM     12  C   UNL     1       2.886  -3.417   1.655  1.00  0.00     0.048 A 
ATOM     13  C   UNL     1       4.723  -1.332   1.537  1.00  0.00     0.029 A 
ATOM     14  C   UNL     1       4.242  -3.659   1.895  1.00  0.00     0.029 A 
ATOM     15  C   UNL     1       5.168  -2.614   1.862  1.00  0.00     0.032 A 
BRANCH  15  16
ATOM     16  N   UNL     1       6.520  -2.859   2.043  1.00  0.00    -0.399 N 
ATOM     17  H   UNL     1       7.163  -2.115   2.018  1.00  0.00     0.156 HD
ATOM     18  H   UNL     1       6.837  -3.779   2.197  1.00  0.00     0.156 HD
ENDBRANCH  15  16
ENDBRANCH   9  10
ENDBRANCH   7   9
ENDBRANCH   4   7
ENDBRANCH   2   3
ENDBRANCH   1   2
BRANCH   1  19
ATOM     19  C   UNL     1      -2.962   1.411   2.483  1.00  0.00     0.118 C 
BRANCH  19  20
ATOM     20  N   UNL     1      -3.517   0.925   3.739  1.00  0.00    -0.352 N 
ATOM     21  C   UNL     1      -4.103   1.607   4.775  1.00  0.00     0.251 C 
ATOM     22  H   UNL     1      -3.463  -0.050   3.865  1.00  0.00     0.163 HD
ATOM     23  O   UNL     1      -4.320   1.014   5.833  1.00  0.00    -0.269 OA
BRANCH  21  24
ATOM     24  C   UNL     1      -4.447   3.040   4.645  1.00  0.00     0.039 A 
ATOM     25  C   UNL     1      -4.229   3.887   5.735  1.00  0.00     0.014 A 
ATOM     26  C   UNL     1      -5.001   3.551   3.469  1.00  0.00     0.014 A 
ATOM     27  C   UNL     1      -4.492   5.254   5.617  1.00  0.00     0.010 A 
ATOM     28  C   UNL     1      -5.184   4.925   3.324  1.00  0.00     0.010 A 
ATOM     29  C   UNL     1      -4.928   5.793   4.396  1.00  0.00    -0.014 A 
BRANCH  29  30
ATOM     30  C   UNL     1      -5.102   7.259   4.217  1.00  0.00     0.031 A 
ATOM     31  C   UNL     1      -6.456   7.832   3.898  1.00  0.00     0.074 A 
ATOM     32  C   UNL     1      -4.024   8.066   4.279  1.00  0.00     0.049 A 
ATOM     33  N   UNL     1      -6.789   9.069   3.630  1.00  0.00    -0.248 NA
ATOM     34  C   UNL     1      -7.579   6.884   3.848  1.00  0.00     0.031 C 
ATOM     35  C   UNL     1      -2.653   7.624   4.546  1.00  0.00     0.029 A 
ATOM     36  N   UNL     1      -3.905   9.424   4.114  1.00  0.00    -0.354 N 
ATOM     37  C   UNL     1      -8.155   9.048   3.371  1.00  0.00     0.074 A 
ATOM     38  C   UNL     1      -8.574   7.664   3.454  1.00  0.00     0.031 C 
ATOM     39  C   UNL     1      -1.839   8.691   4.553  1.00  0.00     0.029 A 
ATOM     40  C   UNL     1      -2.615   9.886   4.236  1.00  0.00     0.049 A 
ATOM     41  H   UNL     1      -4.672  10.012   3.927  1.00  0.00     0.167 HD
ATOM     42  C   UNL     1      -8.986  10.088   3.108  1.00  0.00     0.034 A 
ATOM     43  C   UNL     1      -2.107  11.126   4.090  1.00  0.00     0.034 A 
ATOM     44  C   UNL     1      -8.551  11.463   3.033  1.00  0.00     0.049 A 
ATOM     45  C   UNL     1      -3.044  12.260   3.755  1.00  0.00     0.074 A 
ATOM     46  C   UNL     1      -9.316  12.598   2.826  1.00  0.00     0.029 A 
ATOM     47  N   UNL     1      -7.234  11.891   3.147  1.00  0.00    -0.354 N 
ATOM     48  N   UNL     1      -4.343  12.229   3.562  1.00  0.00    -0.248 NA
ATOM     49  C   UNL     1      -2.447  13.595   3.625  1.00  0.00     0.031 C 
ATOM     50  C   UNL     1      -8.457  13.697   2.736  1.00  0.00     0.029 A 
ATOM     51  C   UNL     1      -7.162  13.266   2.976  1.00  0.00     0.049 A 
ATOM     52  H   UNL     1      -6.464  11.303   3.324  1.00  0.00     0.167 HD
ATOM     53  C   UNL     1      -4.720  13.547   3.319  1.00  0.00     0.074 A 
ATOM     54  C   UNL     1      -3.516  14.347   3.409  1.00  0.00     0.031 C 
ATOM     55  C   UNL     1      -5.952  14.052   3.051  1.00  0.00     0.034 A 
BRANCH  42  56
ATOM     56  C   UNL     1     -10.442   9.771   2.856  1.00  0.00     0.023 A 
ATOM     57  C   UNL     1     -11.253   9.179   3.840  1.00  0.00     0.031 A 
ATOM     58  C   UNL     1     -11.026  10.050   1.607  1.00  0.00     0.131 A 
ATOM     59  C   UNL     1     -12.575   8.817   3.537  1.00  0.00     0.055 A 
ATOM     60  C   UNL     1     -12.367   9.766   1.339  1.00  0.00     0.041 A 
ATOM     61  F   UNL     1     -10.299  10.595   0.618  1.00  0.00    -0.206 F 
ATOM     62  C   UNL     1     -13.146   9.131   2.302  1.00  0.00     0.022 A 
BRANCH  59  63
ATOM     63  S   UNL     1     -13.488   7.799   4.728  1.00  0.00     0.124 S 
ATOM     64  O   UNL     1     -12.621   6.629   4.842  1.00  0.00    -0.237 OA
ATOM     65  O   UNL     1     -13.552   8.665   5.900  1.00  0.00    -0.237 OA
ATOM     66  O   UNL     1     -14.766   7.555   4.061  1.00  0.00    -0.744 OA
ENDBRANCH  59  63
ENDBRANCH  42  56
BRANCH  43  67
ATOM     67  C   UNL     1      -0.643  11.367   4.239  1.00  0.00     0.023 A 
ATOM     68  C   UNL     1      -0.145  12.195   5.257  1.00  0.00     0.031 A 
ATOM     69  C   UNL     1       0.279  10.807   3.336  1.00  0.00     0.131 A 
ATOM     70  C   UNL     1       1.228  12.481   5.318  1.00  0.00     0.055 A 
ATOM     71  C   UNL     1       1.651  11.047   3.437  1.00  0.00     0.041 A 
ATOM     72  F   UNL     1      -0.141  10.006   2.344  1.00  0.00    -0.206 F 
ATOM     73  C   UNL     1       2.131  11.900   4.425  1.00  0.00     0.022 A 
BRANCH  70  74
ATOM     74  S   UNL     1       1.808  13.702   6.528  1.00  0.00     0.124 S 
ATOM     75  O   UNL     1       1.031  14.879   6.155  1.00  0.00    -0.237 OA
ATOM     76  O   UNL     1       1.448  13.069   7.792  1.00  0.00    -0.237 OA
ATOM     77  O   UNL     1       3.242  13.789   6.262  1.00  0.00    -0.744 OA
ENDBRANCH  70  74
ENDBRANCH  43  67
BRANCH  55  78
ATOM     78  C   UNL     1      -6.058  15.549   2.877  1.00  0.00     0.023 A 
ATOM     79  C   UNL     1      -5.442  16.216   1.803  1.00  0.00     0.031 A 
ATOM     80  C   UNL     1      -6.774  16.320   3.809  1.00  0.00     0.131 A 
ATOM     81  C   UNL     1      -5.502  17.615   1.722  1.00  0.00     0.055 A 
ATOM     82  C   UNL     1      -6.887  17.706   3.686  1.00  0.00     0.041 A 
ATOM     83  F   UNL     1      -7.379  15.739   4.857  1.00  0.00    -0.206 F 
ATOM     84  C   UNL     1      -6.237  18.363   2.646  1.00  0.00     0.022 A 
BRANCH  81  85
ATOM     85  S   UNL     1      -4.519  18.457   0.451  1.00  0.00     0.124 S 
ATOM     86  O   UNL     1      -3.167  18.007   0.765  1.00  0.00    -0.237 OA
ATOM     87  O   UNL     1      -5.094  17.935  -0.785  1.00  0.00    -0.237 OA
ATOM     88  O   UNL     1      -4.775  19.875   0.702  1.00  0.00    -0.744 OA
ENDBRANCH  81  85
ENDBRANCH  55  78
ENDBRANCH  29  30
ENDBRANCH  21  24
ENDBRANCH  19  20
ENDBRANCH   1  19
TORSDOF 16
